# generated using pymatgen
data_Os4Pb4O13
_symmetry_space_group_name_H-M   'P 1'
_cell_length_a   7.39362295
_cell_length_b   7.39362330
_cell_length_c   7.39362300
_cell_angle_alpha   59.99999686
_cell_angle_beta   59.99999531
_cell_angle_gamma   59.99999842
_symmetry_Int_Tables_number   1
_chemical_formula_structural   Os4Pb4O13
_chemical_formula_sum   'Os4 Pb4 O13'
_cell_volume   285.79649120
_cell_formula_units_Z   1
loop_
 _symmetry_equiv_pos_site_id
 _symmetry_equiv_pos_as_xyz
  1  'x, y, z'
loop_
 _atom_site_type_symbol
 _atom_site_label
 _atom_site_symmetry_multiplicity
 _atom_site_fract_x
 _atom_site_fract_y
 _atom_site_fract_z
 _atom_site_occupancy
  Os  Os0  1  0.874866  0.375400  0.874866  1
  Os  Os1  1  0.874866  0.874866  0.375400  1
  Os  Os2  1  0.874866  0.874866  0.874866  1
  Os  Os3  1  0.375400  0.874866  0.874866  1
  Pb  Pb4  1  0.881186  0.372938  0.372938  1
  Pb  Pb5  1  0.372938  0.372938  0.372938  1
  Pb  Pb6  1  0.372938  0.372938  0.881186  1
  Pb  Pb7  1  0.372938  0.881186  0.372938  1
  O  O8  1  0.196475  0.803525  0.803525  1
  O  O9  1  0.196475  0.803525  0.196475  1
  O  O10  1  0.555974  0.944026  0.944026  1
  O  O11  1  0.555974  0.944026  0.555974  1
  O  O12  1  0.944026  0.944026  0.555974  1
  O  O13  1  0.803525  0.803525  0.196475  1
  O  O14  1  0.555974  0.555974  0.944026  1
  O  O15  1  0.803525  0.196475  0.803525  1
  O  O16  1  0.803525  0.196475  0.196475  1
  O  O17  1  0.944026  0.555974  0.944026  1
  O  O18  1  0.944026  0.555974  0.555974  1
  O  O19  1  0.196475  0.196475  0.803525  1
  O  O20  1  0.500000  0.500000  0.500000  1
