# generated using pymatgen
data_DyY2U(VB4)4
_symmetry_space_group_name_H-M   'P 1'
_cell_length_a   3.47349800
_cell_length_b   5.98120342
_cell_length_c   11.58184400
_cell_angle_alpha   89.94851122
_cell_angle_beta   90.00000000
_cell_angle_gamma   90.00000000
_symmetry_Int_Tables_number   1
_chemical_formula_structural   DyY2U(VB4)4
_chemical_formula_sum   'Dy1 Y2 U1 V4 B16'
_cell_volume   240.62079723
_cell_formula_units_Z   1
loop_
 _symmetry_equiv_pos_site_id
 _symmetry_equiv_pos_as_xyz
  1  'x, y, z'
loop_
 _atom_site_type_symbol
 _atom_site_label
 _atom_site_symmetry_multiplicity
 _atom_site_fract_x
 _atom_site_fract_y
 _atom_site_fract_z
 _atom_site_occupancy
  Dy  Dy0  1  0.000000  0.374503  0.652013  1
  Y  Y1  1  0.000000  0.122973  0.149781  1
  Y  Y2  1  0.000000  0.875404  0.849172  1
  U  U3  1  0.000000  0.626262  0.348722  1
  V  V4  1  0.000000  0.625677  0.085623  1
  V  V5  1  0.000000  0.372890  0.918119  1
  V  V6  1  0.000000  0.127768  0.415351  1
  V  V7  1  0.000000  0.871488  0.580452  1
  B  B8  1  0.500000  0.783066  0.187241  1
  B  B9  1  0.500000  0.214419  0.814135  1
  B  B10  1  0.500000  0.288884  0.315305  1
  B  B11  1  0.500000  0.716332  0.685792  1
  B  B12  1  0.500000  0.864350  0.033084  1
  B  B13  1  0.500000  0.135375  0.967640  1
  B  B14  1  0.500000  0.366563  0.465871  1
  B  B15  1  0.500000  0.636261  0.531083  1
  B  B16  1  0.500000  0.885390  0.452046  1
  B  B17  1  0.500000  0.114122  0.546524  1
  B  B18  1  0.500000  0.386192  0.047056  1
  B  B19  1  0.500000  0.614558  0.953268  1
  B  B20  1  0.500000  0.972314  0.308568  1
  B  B21  1  0.500000  0.022999  0.692122  1
  B  B22  1  0.500000  0.478260  0.193168  1
  B  B23  1  0.500000  0.523949  0.807862  1
