# generated using pymatgen
data_Li12Pr3Dy9(WO6)8
_symmetry_space_group_name_H-M   'P 1'
_cell_length_a   10.79272083
_cell_length_b   10.75504823
_cell_length_c   10.75504825
_cell_angle_alpha   109.40016077
_cell_angle_beta   109.54218801
_cell_angle_gamma   109.54218576
_symmetry_Int_Tables_number   1
_chemical_formula_structural   Li12Pr3Dy9(WO6)8
_chemical_formula_sum   'Li12 Pr3 Dy9 W8 O48'
_cell_volume   960.18002676
_cell_formula_units_Z   1
loop_
 _symmetry_equiv_pos_site_id
 _symmetry_equiv_pos_as_xyz
  1  'x, y, z'
loop_
 _atom_site_type_symbol
 _atom_site_label
 _atom_site_symmetry_multiplicity
 _atom_site_fract_x
 _atom_site_fract_y
 _atom_site_fract_z
 _atom_site_occupancy
  Li  Li0  1  0.250385  0.373729  0.125123  1
  Li  Li1  1  0.874740  0.251394  0.125124  1
  Li  Li2  1  0.376712  0.127654  0.250027  1
  Li  Li3  1  0.873315  0.622373  0.250027  1
  Li  Li4  1  0.626684  0.749972  0.377625  1
  Li  Li5  1  0.750942  0.127654  0.377625  1
  Li  Li6  1  0.249615  0.874877  0.626271  1
  Li  Li7  1  0.376655  0.251394  0.626271  1
  Li  Li8  1  0.123345  0.373729  0.748606  1
  Li  Li9  1  0.625261  0.874878  0.748606  1
  Li  Li10  1  0.749058  0.622374  0.872346  1
  Li  Li11  1  0.123289  0.749972  0.872346  1
  Pr  Pr12  1  0.750000  0.876162  0.123837  1
  Pr  Pr13  1  0.373839  0.747676  0.123838  1
  Pr  Pr14  1  0.126162  0.876163  0.252325  1
  Dy  Dy15  1  0.624534  0.374533  0.249068  1
  Dy  Dy16  1  0.250000  0.623331  0.376670  1
  Dy  Dy17  1  0.126670  0.253340  0.376670  1
  Dy  Dy18  1  0.749999  0.374534  0.625467  1
  Dy  Dy19  1  0.875467  0.750933  0.625468  1
  Dy  Dy20  1  0.373329  0.623330  0.746660  1
  Dy  Dy21  1  0.875208  0.125208  0.750414  1
  Dy  Dy22  1  0.250001  0.125208  0.874793  1
  Dy  Dy23  1  0.624793  0.249586  0.874793  1
  W  W24  1  0.002156  0.003241  0.998729  1
  W  W25  1  0.497844  0.001271  0.996759  1
  W  W26  1  0.498914  0.495487  0.996759  1
  W  W27  1  0.996572  0.495488  0.998729  1
  W  W28  1  0.001085  0.003241  0.504512  1
  W  W29  1  0.503428  0.001271  0.504512  1
  W  W30  1  0.500735  0.500000  0.500000  1
  W  W31  1  0.999265  0.500001  0.500001  1
  O  O32  1  0.111171  0.692852  0.019907  1
  O  O33  1  0.908736  0.827057  0.019907  1
  O  O34  1  0.672341  0.200899  0.079877  1
  O  O35  1  0.407537  0.378978  0.079878  1
  O  O36  1  0.672221  0.470049  0.090136  1
  O  O37  1  0.417915  0.120089  0.090137  1
  O  O38  1  0.924295  0.097147  0.119706  1
  O  O39  1  0.195410  0.522557  0.119706  1
  O  O40  1  0.581680  0.692850  0.172944  1
  O  O41  1  0.591264  0.980095  0.172944  1
  O  O42  1  0.023452  0.611356  0.198849  1
  O  O43  1  0.175398  0.087495  0.198851  1
  O  O44  1  0.388830  0.980093  0.307148  1
  O  O45  1  0.918320  0.827056  0.307150  1
  O  O46  1  0.027069  0.407610  0.327824  1
  O  O47  1  0.300755  0.420214  0.327824  1
  O  O48  1  0.912096  0.087494  0.388645  1
  O  O49  1  0.476548  0.801150  0.388645  1
  O  O50  1  0.880206  0.580442  0.408007  1
  O  O51  1  0.527801  0.327564  0.408007  1
  O  O52  1  0.619793  0.591993  0.419557  1
  O  O53  1  0.799764  0.327564  0.419558  1
  O  O54  1  0.304589  0.880294  0.477441  1
  O  O55  1  0.172852  0.097148  0.477443  1
  O  O56  1  0.827778  0.909862  0.529950  1
  O  O57  1  0.702172  0.120090  0.529952  1
  O  O58  1  0.380540  0.407609  0.579785  1
  O  O59  1  0.199244  0.672175  0.579786  1
  O  O60  1  0.472931  0.672175  0.592389  1
  O  O61  1  0.119460  0.420215  0.592390  1
  O  O62  1  0.092464  0.920122  0.621022  1
  O  O63  1  0.528559  0.200900  0.621022  1
  O  O64  1  0.700235  0.580442  0.672435  1
  O  O65  1  0.972200  0.591993  0.672436  1
  O  O66  1  0.622199  0.030337  0.704521  1
  O  O67  1  0.082323  0.174185  0.704521  1
  O  O68  1  0.827658  0.920122  0.799099  1
  O  O69  1  0.971442  0.378977  0.799100  1
  O  O70  1  0.408137  0.030336  0.825815  1
  O  O71  1  0.417677  0.295479  0.825816  1
  O  O72  1  0.082084  0.909863  0.879910  1
  O  O73  1  0.797827  0.470049  0.879912  1
  O  O74  1  0.327149  0.522559  0.902853  1
  O  O75  1  0.575704  0.880295  0.902853  1
  O  O76  1  0.324601  0.801150  0.912506  1
  O  O77  1  0.587904  0.611355  0.912506  1
  O  O78  1  0.091863  0.174185  0.969663  1
  O  O79  1  0.877801  0.295480  0.969663  1
