# generated using pymatgen
data_Eu2TaMnO7
_symmetry_space_group_name_H-M   'P 1'
_cell_length_a   7.38460206
_cell_length_b   7.38460244
_cell_length_c   7.45982500
_cell_angle_alpha   59.66246489
_cell_angle_beta   59.66246320
_cell_angle_gamma   59.57649482
_symmetry_Int_Tables_number   1
_chemical_formula_structural   Eu2TaMnO7
_chemical_formula_sum   'Eu4 Ta2 Mn2 O14'
_cell_volume   285.25820100
_cell_formula_units_Z   2
loop_
 _symmetry_equiv_pos_site_id
 _symmetry_equiv_pos_as_xyz
  1  'x, y, z'
loop_
 _atom_site_type_symbol
 _atom_site_label
 _atom_site_symmetry_multiplicity
 _atom_site_fract_x
 _atom_site_fract_y
 _atom_site_fract_z
 _atom_site_occupancy
  Eu  Eu0  1  0.125000  0.625000  0.125000  1
  Eu  Eu1  1  0.125000  0.125000  0.625000  1
  Eu  Eu2  1  0.625000  0.125000  0.125000  1
  Eu  Eu3  1  0.125000  0.125000  0.125000  1
  Ta  Ta4  1  0.625000  0.625000  0.625000  1
  Ta  Ta5  1  0.625000  0.625000  0.125000  1
  Mn  Mn6  1  0.125000  0.625000  0.625000  1
  Mn  Mn7  1  0.625000  0.125000  0.625000  1
  O  O8  1  0.301715  0.698905  0.696429  1
  O  O9  1  0.551095  0.948285  0.947049  1
  O  O10  1  0.698844  0.698844  0.301156  1
  O  O11  1  0.298266  0.298266  0.701734  1
  O  O12  1  0.999769  0.999769  0.000231  1
  O  O13  1  0.301715  0.698905  0.302951  1
  O  O14  1  0.698905  0.301715  0.696429  1
  O  O15  1  0.948285  0.551095  0.947049  1
  O  O16  1  0.551156  0.551156  0.948844  1
  O  O17  1  0.951734  0.951734  0.548266  1
  O  O18  1  0.250231  0.250231  0.249769  1
  O  O19  1  0.551095  0.948285  0.553571  1
  O  O20  1  0.698905  0.301715  0.302951  1
  O  O21  1  0.948285  0.551095  0.553571  1
