# generated using pymatgen
data_TmLu7B24IrRh3
_symmetry_space_group_name_H-M   'P 1'
_cell_length_a   3.59167900
_cell_length_b   9.07583242
_cell_length_c   11.40019700
_cell_angle_alpha   90.05785220
_cell_angle_beta   90.00000000
_cell_angle_gamma   90.00000000
_symmetry_Int_Tables_number   1
_chemical_formula_structural   TmLu7B24IrRh3
_chemical_formula_sum   'Tm1 Lu7 B24 Ir1 Rh3'
_cell_volume   371.61746670
_cell_formula_units_Z   1
loop_
 _symmetry_equiv_pos_site_id
 _symmetry_equiv_pos_as_xyz
  1  'x, y, z'
loop_
 _atom_site_type_symbol
 _atom_site_label
 _atom_site_symmetry_multiplicity
 _atom_site_fract_x
 _atom_site_fract_y
 _atom_site_fract_z
 _atom_site_occupancy
  Tm  Tm0  1  0.500000  0.321692  0.414460  1
  Lu  Lu1  1  0.500000  0.678557  0.586262  1
  Lu  Lu2  1  0.500000  0.179636  0.912836  1
  Lu  Lu3  1  0.500000  0.820047  0.086163  1
  Lu  Lu4  1  0.500000  0.444905  0.126358  1
  Lu  Lu5  1  0.500000  0.556099  0.872940  1
  Lu  Lu6  1  0.500000  0.055964  0.626964  1
  Lu  Lu7  1  0.500000  0.943174  0.374088  1
  B  B8  1  0.000000  0.106949  0.471075  1
  B  B9  1  0.000000  0.892184  0.529331  1
  B  B10  1  0.000000  0.393029  0.970742  1
  B  B11  1  0.000000  0.607281  0.028915  1
  B  B12  1  0.000000  0.131833  0.316982  1
  B  B13  1  0.000000  0.867512  0.683222  1
  B  B14  1  0.000000  0.367498  0.816778  1
  B  B15  1  0.000000  0.632752  0.182725  1
  B  B16  1  0.000000  0.054063  0.064823  1
  B  B17  1  0.000000  0.946183  0.935266  1
  B  B18  1  0.000000  0.446510  0.564915  1
  B  B19  1  0.000000  0.553483  0.435225  1
  B  B20  1  0.000000  0.481651  0.286918  1
  B  B21  1  0.000000  0.518730  0.712895  1
  B  B22  1  0.000000  0.018693  0.787027  1
  B  B23  1  0.000000  0.981440  0.213457  1
  B  B24  1  0.000000  0.250581  0.078674  1
  B  B25  1  0.000000  0.749702  0.920965  1
  B  B26  1  0.000000  0.249854  0.579365  1
  B  B27  1  0.000000  0.749762  0.421060  1
  B  B28  1  0.000000  0.294674  0.235970  1
  B  B29  1  0.000000  0.705235  0.763337  1
  B  B30  1  0.000000  0.205153  0.736841  1
  B  B31  1  0.000000  0.794617  0.263114  1
  Ir  Ir32  1  0.500000  0.139311  0.178911  1
  Rh  Rh33  1  0.500000  0.861146  0.821680  1
  Rh  Rh34  1  0.500000  0.360347  0.679614  1
  Rh  Rh35  1  0.500000  0.639753  0.320103  1
