# generated using pymatgen
data_Ce6C2Cl7
_symmetry_space_group_name_H-M   'P 1'
_cell_length_a   10.33294829
_cell_length_b   10.33294817
_cell_length_c   11.79740900
_cell_angle_alpha   56.72421383
_cell_angle_beta   56.72421425
_cell_angle_gamma   21.19052874
_symmetry_Int_Tables_number   1
_chemical_formula_structural   Ce6C2Cl7
_chemical_formula_sum   'Ce6 C2 Cl7'
_cell_volume   377.77848038
_cell_formula_units_Z   1
loop_
 _symmetry_equiv_pos_site_id
 _symmetry_equiv_pos_as_xyz
  1  'x, y, z'
loop_
 _atom_site_type_symbol
 _atom_site_label
 _atom_site_symmetry_multiplicity
 _atom_site_fract_x
 _atom_site_fract_y
 _atom_site_fract_z
 _atom_site_occupancy
  Ce  Ce0  1  0.222414  0.222414  0.862617  1
  Ce  Ce1  1  0.320021  0.320021  0.355619  1
  Ce  Ce2  1  0.128127  0.128127  0.435601  1
  Ce  Ce3  1  0.871873  0.871873  0.564399  1
  Ce  Ce4  1  0.679979  0.679979  0.644381  1
  Ce  Ce5  1  0.777586  0.777586  0.137383  1
  C  C6  1  0.277694  0.277694  0.613191  1
  C  C7  1  0.722306  0.722306  0.386809  1
  Cl  Cl8  1  0.163203  0.163203  0.162072  1
  Cl  Cl9  1  0.836797  0.836797  0.837928  1
  Cl  Cl10  1  0.055549  0.055549  0.717020  1
  Cl  Cl11  1  0.944451  0.944451  0.282980  1
  Cl  Cl12  1  0.500000  0.500000  0.500000  1
  Cl  Cl13  1  0.396873  0.396873  0.060102  1
  Cl  Cl14  1  0.603127  0.603127  0.939898  1
