# generated using pymatgen
data_Pm4F15
_symmetry_space_group_name_H-M   'P 1'
_cell_length_a   7.21951766
_cell_length_b   4.35051304
_cell_length_c   15.34028491
_cell_angle_alpha   82.24947389
_cell_angle_beta   136.15797106
_cell_angle_gamma   103.44563003
_symmetry_Int_Tables_number   1
_chemical_formula_structural   Pm4F15
_chemical_formula_sum   'Pm4 F15'
_cell_volume   324.20775225
_cell_formula_units_Z   1
loop_
 _symmetry_equiv_pos_site_id
 _symmetry_equiv_pos_as_xyz
  1  'x, y, z'
loop_
 _atom_site_type_symbol
 _atom_site_label
 _atom_site_symmetry_multiplicity
 _atom_site_fract_x
 _atom_site_fract_y
 _atom_site_fract_z
 _atom_site_occupancy
  Pm  Pm0  1  0.706800  0.583254  0.256557  1
  Pm  Pm1  1  0.365343  0.533578  0.671670  1
  Pm  Pm2  1  0.921731  0.761737  0.039506  1
  Pm  Pm3  1  0.094180  0.845349  0.815063  1
  F  F4  1  0.987027  0.575031  0.466495  1
  F  F5  1  0.845959  0.113087  0.303568  1
  F  F6  1  0.387562  0.853657  0.049698  1
  F  F7  1  0.122898  0.325700  0.868686  1
  F  F8  1  0.445981  0.042141  0.399672  1
  F  F9  1  0.102122  0.158351  0.685681  1
  F  F10  1  0.836472  0.693326  0.865617  1
  F  F11  1  0.438923  0.704674  0.844165  1
  F  F12  1  0.511405  0.287435  0.476797  1
  F  F13  1  0.784155  0.224166  0.005259  1
  F  F14  1  0.444522  0.069947  0.668618  1
  F  F15  1  0.657256  0.656450  0.643205  1
  F  F16  1  0.296766  0.168815  0.101459  1
  F  F17  1  0.841588  0.664487  0.158931  1
  F  F18  1  0.328976  0.595917  0.211406  1
