# generated using pymatgen
data_RbAlCr2O8
_symmetry_space_group_name_H-M   'P 1'
_cell_length_a   5.13138661
_cell_length_b   5.13138628
_cell_length_c   8.29901991
_cell_angle_alpha   94.03712591
_cell_angle_beta   94.03712676
_cell_angle_gamma   63.79426161
_symmetry_Int_Tables_number   1
_chemical_formula_structural   RbAlCr2O8
_chemical_formula_sum   'Rb1 Al1 Cr2 O8'
_cell_volume   195.38624880
_cell_formula_units_Z   1
loop_
 _symmetry_equiv_pos_site_id
 _symmetry_equiv_pos_as_xyz
  1  'x, y, z'
loop_
 _atom_site_type_symbol
 _atom_site_label
 _atom_site_symmetry_multiplicity
 _atom_site_fract_x
 _atom_site_fract_y
 _atom_site_fract_z
 _atom_site_occupancy
  Rb  Rb0  1  0.000000  0.000000  0.500000  1
  Al  Al1  1  0.000000  0.000000  0.000000  1
  Cr  Cr2  1  0.370045  0.370045  0.187330  1
  Cr  Cr3  1  0.629955  0.629955  0.812670  1
  O  O4  1  0.216993  0.216993  0.054771  1
  O  O5  1  0.731637  0.220698  0.161158  1
  O  O6  1  0.220698  0.731637  0.161158  1
  O  O7  1  0.319304  0.319304  0.371612  1
  O  O8  1  0.680696  0.680696  0.628388  1
  O  O9  1  0.779303  0.268364  0.838842  1
  O  O10  1  0.268364  0.779303  0.838842  1
  O  O11  1  0.783006  0.783006  0.945229  1
