# generated using pymatgen
data_Ca7Nd(CdIn)4
_symmetry_space_group_name_H-M   'P 1'
_cell_length_a   7.73270013
_cell_length_b   5.44210600
_cell_length_c   10.90182621
_cell_angle_alpha   90.00000000
_cell_angle_beta   89.97817138
_cell_angle_gamma   90.00000000
_symmetry_Int_Tables_number   1
_chemical_formula_structural   Ca7Nd(CdIn)4
_chemical_formula_sum   'Ca7 Nd1 Cd4 In4'
_cell_volume   458.77251183
_cell_formula_units_Z   1
loop_
 _symmetry_equiv_pos_site_id
 _symmetry_equiv_pos_as_xyz
  1  'x, y, z'
loop_
 _atom_site_type_symbol
 _atom_site_label
 _atom_site_symmetry_multiplicity
 _atom_site_fract_x
 _atom_site_fract_y
 _atom_site_fract_z
 _atom_site_occupancy
  Ca  Ca0  1  0.000125  0.750000  0.128361  1
  Ca  Ca1  1  0.499999  0.250000  0.373653  1
  Ca  Ca2  1  0.000082  0.250000  0.371855  1
  Ca  Ca3  1  0.999549  0.750000  0.627936  1
  Ca  Ca4  1  0.500058  0.750000  0.627954  1
  Ca  Ca5  1  0.999849  0.250000  0.871780  1
  Ca  Ca6  1  0.500019  0.250000  0.870224  1
  Nd  Nd7  1  0.500436  0.750000  0.127877  1
  Cd  Cd8  1  0.751755  0.250000  0.118682  1
  Cd  Cd9  1  0.249754  0.750000  0.381805  1
  Cd  Cd10  1  0.750100  0.250000  0.618638  1
  Cd  Cd11  1  0.249795  0.750000  0.880792  1
  In  In12  1  0.249513  0.250000  0.119754  1
  In  In13  1  0.749852  0.750000  0.380440  1
  In  In14  1  0.249429  0.250000  0.619638  1
  In  In15  1  0.749686  0.750000  0.880613  1
