# generated using pymatgen
data_PaAl6ZnCu5
_symmetry_space_group_name_H-M   'P 1'
_cell_length_a   6.68164549
_cell_length_b   6.68164541
_cell_length_c   6.68164595
_cell_angle_alpha   135.35777567
_cell_angle_beta   98.85663967
_cell_angle_gamma   97.73137121
_symmetry_Int_Tables_number   1
_chemical_formula_structural   PaAl6ZnCu5
_chemical_formula_sum   'Pa1 Al6 Zn1 Cu5'
_cell_volume   193.88891529
_cell_formula_units_Z   1
loop_
 _symmetry_equiv_pos_site_id
 _symmetry_equiv_pos_as_xyz
  1  'x, y, z'
loop_
 _atom_site_type_symbol
 _atom_site_label
 _atom_site_symmetry_multiplicity
 _atom_site_fract_x
 _atom_site_fract_y
 _atom_site_fract_z
 _atom_site_occupancy
  Pa  Pa0  1  0.999178  0.000000  0.999178  1
  Al  Al1  1  0.353481  0.348257  0.005224  1
  Al  Al2  1  0.656967  0.651743  0.005224  1
  Al  Al3  1  0.652440  0.000000  0.652440  1
  Al  Al4  1  0.348670  0.000000  0.348670  1
  Al  Al5  1  0.786946  0.290876  0.496070  1
  Al  Al6  1  0.205194  0.709124  0.496070  1
  Zn  Zn7  1  0.226206  0.500000  0.726206  1
  Cu  Cu8  1  0.498944  0.998735  0.998489  1
  Cu  Cu9  1  0.498944  0.500456  0.500209  1
  Cu  Cu10  1  0.999753  0.001265  0.500209  1
  Cu  Cu11  1  0.999753  0.499544  0.998489  1
  Cu  Cu12  1  0.773520  0.500000  0.273520  1
