# generated using pymatgen
data_CeNd5Th2(ZnRh)8
_symmetry_space_group_name_H-M   'P 1'
_cell_length_a   3.93488700
_cell_length_b   7.50902394
_cell_length_c   16.53504203
_cell_angle_alpha   90.18584843
_cell_angle_beta   90.00000000
_cell_angle_gamma   90.00000000
_symmetry_Int_Tables_number   1
_chemical_formula_structural   CeNd5Th2(ZnRh)8
_chemical_formula_sum   'Ce1 Nd5 Th2 Zn8 Rh8'
_cell_volume   488.56097351
_cell_formula_units_Z   1
loop_
 _symmetry_equiv_pos_site_id
 _symmetry_equiv_pos_as_xyz
  1  'x, y, z'
loop_
 _atom_site_type_symbol
 _atom_site_label
 _atom_site_symmetry_multiplicity
 _atom_site_fract_x
 _atom_site_fract_y
 _atom_site_fract_z
 _atom_site_occupancy
  Ce  Ce0  1  0.750000  0.323175  0.438330  1
  Nd  Nd1  1  0.750000  0.946125  0.284931  1
  Nd  Nd2  1  0.750000  0.829491  0.061867  1
  Nd  Nd3  1  0.750000  0.448523  0.215021  1
  Nd  Nd4  1  0.250000  0.054454  0.714068  1
  Nd  Nd5  1  0.250000  0.552260  0.785702  1
  Th  Th6  1  0.250000  0.172420  0.940077  1
  Th  Th7  1  0.250000  0.671082  0.560556  1
  Zn  Zn8  1  0.750000  0.009215  0.559941  1
  Zn  Zn9  1  0.250000  0.617075  0.346890  1
  Zn  Zn10  1  0.750000  0.379784  0.653762  1
  Zn  Zn11  1  0.250000  0.503012  0.059665  1
  Zn  Zn12  1  0.750000  0.509884  0.940436  1
  Zn  Zn13  1  0.250000  0.994877  0.438823  1
  Zn  Zn14  1  0.250000  0.117820  0.152631  1
  Zn  Zn15  1  0.750000  0.880328  0.845601  1
  Rh  Rh16  1  0.750000  0.740635  0.441703  1
  Rh  Rh17  1  0.250000  0.250039  0.322616  1
  Rh  Rh18  1  0.750000  0.246819  0.821000  1
  Rh  Rh19  1  0.750000  0.748498  0.678766  1
  Rh  Rh20  1  0.250000  0.258800  0.557284  1
  Rh  Rh21  1  0.250000  0.744798  0.187152  1
  Rh  Rh22  1  0.750000  0.247433  0.059109  1
  Rh  Rh23  1  0.250000  0.753453  0.934070  1
