# generated using pymatgen
data_Ca4Y3ScHg8
_symmetry_space_group_name_H-M   'P 1'
_cell_length_a   7.46446500
_cell_length_b   7.47058900
_cell_length_c   7.40683700
_cell_angle_alpha   89.99735807
_cell_angle_beta   89.99911400
_cell_angle_gamma   90.00007672
_symmetry_Int_Tables_number   1
_chemical_formula_structural   Ca4Y3ScHg8
_chemical_formula_sum   'Ca4 Y3 Sc1 Hg8'
_cell_volume   413.03448877
_cell_formula_units_Z   1
loop_
 _symmetry_equiv_pos_site_id
 _symmetry_equiv_pos_as_xyz
  1  'x, y, z'
loop_
 _atom_site_type_symbol
 _atom_site_label
 _atom_site_symmetry_multiplicity
 _atom_site_fract_x
 _atom_site_fract_y
 _atom_site_fract_z
 _atom_site_occupancy
  Ca  Ca0  1  0.749237  0.250007  0.000062  1
  Ca  Ca1  1  0.249442  0.749999  0.499923  1
  Ca  Ca2  1  0.750550  0.249996  0.500068  1
  Ca  Ca3  1  0.250580  0.750000  0.999935  1
  Y  Y4  1  0.749537  0.750007  0.999996  1
  Y  Y5  1  0.750475  0.749999  0.500006  1
  Y  Y6  1  0.249462  0.250007  0.500005  1
  Sc  Sc7  1  0.250338  0.249963  0.999987  1
  Hg  Hg8  1  0.003496  0.496694  0.245340  1
  Hg  Hg9  1  0.003494  0.003318  0.245339  1
  Hg  Hg10  1  0.496838  0.003369  0.247738  1
  Hg  Hg11  1  0.496840  0.496637  0.247739  1
  Hg  Hg12  1  0.496602  0.496755  0.752277  1
  Hg  Hg13  1  0.496603  0.003252  0.752277  1
  Hg  Hg14  1  0.003253  0.003433  0.754655  1
  Hg  Hg15  1  0.003252  0.496568  0.754653  1
