# generated using pymatgen
data_Ac3(Hg2Pt)2
_symmetry_space_group_name_H-M   'P 1'
_cell_length_a   8.29281200
_cell_length_b   8.29281349
_cell_length_c   4.13024300
_cell_angle_alpha   90.00000000
_cell_angle_beta   90.00000000
_cell_angle_gamma   120.00000205
_symmetry_Int_Tables_number   1
_chemical_formula_structural   Ac3(Hg2Pt)2
_chemical_formula_sum   'Ac3 Hg4 Pt2'
_cell_volume   245.98574729
_cell_formula_units_Z   1
loop_
 _symmetry_equiv_pos_site_id
 _symmetry_equiv_pos_as_xyz
  1  'x, y, z'
loop_
 _atom_site_type_symbol
 _atom_site_label
 _atom_site_symmetry_multiplicity
 _atom_site_fract_x
 _atom_site_fract_y
 _atom_site_fract_z
 _atom_site_occupancy
  Ac  Ac0  1  0.411220  0.411220  0.500000  1
  Ac  Ac1  1  0.588780  0.000000  0.500000  1
  Ac  Ac2  1  0.000000  0.588780  0.500000  1
  Hg  Hg3  1  0.729711  0.729711  0.000000  1
  Hg  Hg4  1  0.270289  0.000000  0.000000  1
  Hg  Hg5  1  0.000000  0.270289  0.000000  1
  Hg  Hg6  1  0.000000  0.000000  0.500000  1
  Pt  Pt7  1  0.666667  0.333333  0.000000  1
  Pt  Pt8  1  0.333333  0.666667  0.000000  1
