# generated using pymatgen
data_Yb2LuU(B4Ru)4
_symmetry_space_group_name_H-M   'P 1'
_cell_length_a   3.54018800
_cell_length_b   5.93559829
_cell_length_c   11.46691101
_cell_angle_alpha   89.92833906
_cell_angle_beta   90.00000000
_cell_angle_gamma   90.00000000
_symmetry_Int_Tables_number   1
_chemical_formula_structural   Yb2LuU(B4Ru)4
_chemical_formula_sum   'Yb2 Lu1 U1 B16 Ru4'
_cell_volume   240.95554720
_cell_formula_units_Z   1
loop_
 _symmetry_equiv_pos_site_id
 _symmetry_equiv_pos_as_xyz
  1  'x, y, z'
loop_
 _atom_site_type_symbol
 _atom_site_label
 _atom_site_symmetry_multiplicity
 _atom_site_fract_x
 _atom_site_fract_y
 _atom_site_fract_z
 _atom_site_occupancy
  Yb  Yb0  1  0.500000  0.127953  0.353202  1
  Yb  Yb1  1  0.500000  0.871189  0.649283  1
  Lu  Lu2  1  0.500000  0.370748  0.847298  1
  U  U3  1  0.500000  0.628994  0.151932  1
  B  B4  1  0.000000  0.974527  0.191616  1
  B  B5  1  0.000000  0.025362  0.807798  1
  B  B6  1  0.000000  0.477243  0.307968  1
  B  B7  1  0.000000  0.523597  0.692246  1
  B  B8  1  0.000000  0.788079  0.313736  1
  B  B9  1  0.000000  0.211213  0.685217  1
  B  B10  1  0.000000  0.290569  0.185668  1
  B  B11  1  0.000000  0.712337  0.813214  1
  B  B12  1  0.000000  0.862922  0.469285  1
  B  B13  1  0.000000  0.135811  0.530304  1
  B  B14  1  0.000000  0.366937  0.030799  1
  B  B15  1  0.000000  0.634463  0.968976  1
  B  B16  1  0.000000  0.887229  0.046813  1
  B  B17  1  0.000000  0.113089  0.951614  1
  B  B18  1  0.000000  0.385910  0.453967  1
  B  B19  1  0.000000  0.612440  0.546512  1
  Ru  Ru20  1  0.500000  0.636967  0.406511  1
  Ru  Ru21  1  0.500000  0.362734  0.591737  1
  Ru  Ru22  1  0.500000  0.142510  0.093512  1
  Ru  Ru23  1  0.500000  0.857177  0.910796  1
