# generated using pymatgen
data_Cs2Cd2HgI8
_symmetry_space_group_name_H-M   'P 1'
_cell_length_a   11.97214671
_cell_length_b   11.96985945
_cell_length_c   8.24129421
_cell_angle_alpha   84.32870727
_cell_angle_beta   84.29853945
_cell_angle_gamma   142.57338514
_symmetry_Int_Tables_number   1
_chemical_formula_structural   Cs2Cd2HgI8
_chemical_formula_sum   'Cs2 Cd2 Hg1 I8'
_cell_volume   682.67130887
_cell_formula_units_Z   1
loop_
 _symmetry_equiv_pos_site_id
 _symmetry_equiv_pos_as_xyz
  1  'x, y, z'
loop_
 _atom_site_type_symbol
 _atom_site_label
 _atom_site_symmetry_multiplicity
 _atom_site_fract_x
 _atom_site_fract_y
 _atom_site_fract_z
 _atom_site_occupancy
  Cs  Cs0  1  0.642643  0.903869  0.535979  1
  Cs  Cs1  1  0.905659  0.642520  0.534763  1
  Cd  Cd2  1  0.003619  0.004113  0.017801  1
  Cd  Cd3  1  0.924691  0.313496  0.920421  1
  Hg  Hg4  1  0.316507  0.930654  0.911676  1
  I  I5  1  0.666876  0.666564  0.268454  1
  I  I6  1  0.032609  0.031331  0.674543  1
  I  I7  1  0.530573  0.922534  0.042916  1
  I  I8  1  0.920985  0.528283  0.045063  1
  I  I9  1  0.072422  0.456558  0.568760  1
  I  I10  1  0.459177  0.075265  0.559647  1
  I  I11  1  0.316295  0.121678  0.093314  1
  I  I12  1  0.122330  0.317522  0.091012  1
