# generated using pymatgen
data_Sm3Dy3PtBr10
_symmetry_space_group_name_H-M   'P 1'
_cell_length_a   7.44217961
_cell_length_b   9.29960359
_cell_length_c   9.46744050
_cell_angle_alpha   107.60511233
_cell_angle_beta   96.77040273
_cell_angle_gamma   105.41226735
_symmetry_Int_Tables_number   1
_chemical_formula_structural   Sm3Dy3PtBr10
_chemical_formula_sum   'Sm3 Dy3 Pt1 Br10'
_cell_volume   587.90350231
_cell_formula_units_Z   1
loop_
 _symmetry_equiv_pos_site_id
 _symmetry_equiv_pos_as_xyz
  1  'x, y, z'
loop_
 _atom_site_type_symbol
 _atom_site_label
 _atom_site_symmetry_multiplicity
 _atom_site_fract_x
 _atom_site_fract_y
 _atom_site_fract_z
 _atom_site_occupancy
  Sm  Sm0  1  0.868854  0.950142  0.248355  1
  Sm  Sm1  1  0.127381  0.048060  0.750502  1
  Sm  Sm2  1  0.364698  0.137324  0.179366  1
  Dy  Dy3  1  0.640786  0.865169  0.823692  1
  Dy  Dy4  1  0.969275  0.298458  0.092320  1
  Dy  Dy5  1  0.028758  0.701010  0.906360  1
  Pt  Pt6  1  0.998771  0.999533  0.999861  1
  Br  Br7  1  0.343057  0.454408  0.268612  1
  Br  Br8  1  0.652651  0.551229  0.731145  1
  Br  Br9  1  0.917640  0.625509  0.168513  1
  Br  Br10  1  0.081831  0.374373  0.830925  1
  Br  Br11  1  0.449640  0.818241  0.079550  1
  Br  Br12  1  0.551177  0.176054  0.913742  1
  Br  Br13  1  0.251187  0.082201  0.454848  1
  Br  Br14  1  0.743447  0.915231  0.547740  1
  Br  Br15  1  0.790456  0.260515  0.344339  1
  Br  Br16  1  0.220389  0.742542  0.660131  1
