# generated using pymatgen
data_Tl2Cu5S7
_symmetry_space_group_name_H-M   'P 1'
_cell_length_a   6.66689785
_cell_length_b   6.66689717
_cell_length_c   8.64869696
_cell_angle_alpha   82.29105744
_cell_angle_beta   82.29105841
_cell_angle_gamma   48.79290530
_symmetry_Int_Tables_number   1
_chemical_formula_structural   Tl2Cu5S7
_chemical_formula_sum   'Tl2 Cu5 S7'
_cell_volume   286.05243588
_cell_formula_units_Z   1
loop_
 _symmetry_equiv_pos_site_id
 _symmetry_equiv_pos_as_xyz
  1  'x, y, z'
loop_
 _atom_site_type_symbol
 _atom_site_label
 _atom_site_symmetry_multiplicity
 _atom_site_fract_x
 _atom_site_fract_y
 _atom_site_fract_z
 _atom_site_occupancy
  Tl  Tl0  1  0.150521  0.697770  0.223269  1
  Tl  Tl1  1  0.302230  0.849479  0.776731  1
  Cu  Cu2  1  0.736191  0.263809  0.500000  1
  Cu  Cu3  1  0.884441  0.410475  0.077055  1
  Cu  Cu4  1  0.589525  0.115559  0.922945  1
  Cu  Cu5  1  0.448940  0.980173  0.357824  1
  Cu  Cu6  1  0.019827  0.551060  0.642176  1
  S  S7  1  0.361976  0.337774  0.452342  1
  S  S8  1  0.662226  0.638024  0.547658  1
  S  S9  1  0.531657  0.468343  0.000000  1
  S  S10  1  0.047975  0.124297  0.293686  1
  S  S11  1  0.875703  0.952025  0.706314  1
  S  S12  1  0.724752  0.818364  0.134712  1
  S  S13  1  0.181636  0.275248  0.865288  1
