# generated using pymatgen
data_Cd2GaFe3Cl16
_symmetry_space_group_name_H-M   'P 1'
_cell_length_a   7.18052230
_cell_length_b   7.33984509
_cell_length_c   13.36438077
_cell_angle_alpha   87.64008222
_cell_angle_beta   89.70895115
_cell_angle_gamma   89.84579940
_symmetry_Int_Tables_number   1
_chemical_formula_structural   Cd2GaFe3Cl16
_chemical_formula_sum   'Cd2 Ga1 Fe3 Cl16'
_cell_volume   703.74664380
_cell_formula_units_Z   1
loop_
 _symmetry_equiv_pos_site_id
 _symmetry_equiv_pos_as_xyz
  1  'x, y, z'
loop_
 _atom_site_type_symbol
 _atom_site_label
 _atom_site_symmetry_multiplicity
 _atom_site_fract_x
 _atom_site_fract_y
 _atom_site_fract_z
 _atom_site_occupancy
  Cd  Cd0  1  0.753193  0.075618  0.814785  1
  Cd  Cd1  1  0.245389  0.077306  0.314882  1
  Ga  Ga2  1  0.934292  0.222381  0.577466  1
  Fe  Fe3  1  0.066030  0.217511  0.078741  1
  Fe  Fe4  1  0.575821  0.638932  0.779721  1
  Fe  Fe5  1  0.424123  0.639013  0.279889  1
  Cl  Cl6  1  0.427636  0.613762  0.642322  1
  Cl  Cl7  1  0.572535  0.613842  0.141550  1
  Cl  Cl8  1  0.868985  0.737816  0.758746  1
  Cl  Cl9  1  0.131190  0.740377  0.259196  1
  Cl  Cl10  1  0.937879  0.479207  0.496795  1
  Cl  Cl11  1  0.063203  0.476102  0.998482  1
  Cl  Cl12  1  0.913707  0.007759  0.992324  1
  Cl  Cl13  1  0.084522  0.004734  0.495637  1
  Cl  Cl14  1  0.647605  0.125385  0.619336  1
  Cl  Cl15  1  0.356500  0.128069  0.118828  1
  Cl  Cl16  1  0.573892  0.372460  0.870534  1
  Cl  Cl17  1  0.425278  0.371743  0.370026  1
  Cl  Cl18  1  0.454007  0.870063  0.864800  1
  Cl  Cl19  1  0.543898  0.869421  0.364967  1
  Cl  Cl20  1  0.940934  0.228329  0.233655  1
  Cl  Cl21  1  0.059379  0.224971  0.731720  1
