# generated using pymatgen
data_Sr2Tc6P7Rh6
_symmetry_space_group_name_H-M   'P 1'
_cell_length_a   9.60943600
_cell_length_b   9.60943540
_cell_length_c   3.97109300
_cell_angle_alpha   90.00000000
_cell_angle_beta   90.00000000
_cell_angle_gamma   120.00000206
_symmetry_Int_Tables_number   1
_chemical_formula_structural   Sr2Tc6P7Rh6
_chemical_formula_sum   'Sr2 Tc6 P7 Rh6'
_cell_volume   317.56779309
_cell_formula_units_Z   1
loop_
 _symmetry_equiv_pos_site_id
 _symmetry_equiv_pos_as_xyz
  1  'x, y, z'
loop_
 _atom_site_type_symbol
 _atom_site_label
 _atom_site_symmetry_multiplicity
 _atom_site_fract_x
 _atom_site_fract_y
 _atom_site_fract_z
 _atom_site_occupancy
  Sr  Sr0  1  0.000000  0.000000  0.739913  1
  Sr  Sr1  1  0.333333  0.666667  0.240726  1
  Tc  Tc2  1  0.823468  0.602949  0.739122  1
  Tc  Tc3  1  0.397051  0.220519  0.739122  1
  Tc  Tc4  1  0.779481  0.176532  0.739122  1
  Tc  Tc5  1  0.547715  0.120158  0.240029  1
  Tc  Tc6  1  0.879842  0.427557  0.240029  1
  Tc  Tc7  1  0.572443  0.452285  0.240029  1
  P  P8  1  0.666667  0.333333  0.742732  1
  P  P9  1  0.074632  0.627956  0.740740  1
  P  P10  1  0.372044  0.446676  0.740740  1
  P  P11  1  0.553324  0.925368  0.740740  1
  P  P12  1  0.274095  0.050669  0.239466  1
  P  P13  1  0.949331  0.223425  0.239466  1
  P  P14  1  0.776575  0.725905  0.239466  1
  Rh  Rh15  1  0.096958  0.395548  0.739572  1
  Rh  Rh16  1  0.604452  0.701410  0.739572  1
  Rh  Rh17  1  0.298590  0.903042  0.739572  1
  Rh  Rh18  1  0.228899  0.285229  0.239926  1
  Rh  Rh19  1  0.714771  0.943671  0.239926  1
  Rh  Rh20  1  0.056329  0.771101  0.239926  1
