# generated using pymatgen
data_Nd4MnAl18IrPt4
_symmetry_space_group_name_H-M   'P 1'
_cell_length_a   7.63544922
_cell_length_b   7.63544937
_cell_length_c   9.57730163
_cell_angle_alpha   89.97886898
_cell_angle_beta   89.97887153
_cell_angle_gamma   119.54592903
_symmetry_Int_Tables_number   1
_chemical_formula_structural   Nd4MnAl18IrPt4
_chemical_formula_sum   'Nd4 Mn1 Al18 Ir1 Pt4'
_cell_volume   485.74894909
_cell_formula_units_Z   1
loop_
 _symmetry_equiv_pos_site_id
 _symmetry_equiv_pos_as_xyz
  1  'x, y, z'
loop_
 _atom_site_type_symbol
 _atom_site_label
 _atom_site_symmetry_multiplicity
 _atom_site_fract_x
 _atom_site_fract_y
 _atom_site_fract_z
 _atom_site_occupancy
  Nd  Nd0  1  0.993700  0.668168  0.249200  1
  Nd  Nd1  1  0.006300  0.331832  0.750800  1
  Nd  Nd2  1  0.668168  0.993700  0.249200  1
  Nd  Nd3  1  0.331832  0.006300  0.750800  1
  Mn  Mn4  1  0.000000  0.000000  0.000000  1
  Al  Al5  1  0.123508  0.123508  0.244961  1
  Al  Al6  1  0.876492  0.876492  0.755039  1
  Al  Al7  1  0.000686  0.324425  0.071900  1
  Al  Al8  1  0.999314  0.675575  0.928100  1
  Al  Al9  1  0.998256  0.669337  0.574577  1
  Al  Al10  1  0.330663  0.001744  0.425423  1
  Al  Al11  1  0.001744  0.330663  0.425423  1
  Al  Al12  1  0.669337  0.998256  0.574577  1
  Al  Al13  1  0.675575  0.999314  0.928100  1
  Al  Al14  1  0.324425  0.000686  0.071900  1
  Al  Al15  1  0.331275  0.331275  0.551117  1
  Al  Al16  1  0.668725  0.668725  0.448883  1
  Al  Al17  1  0.674979  0.674979  0.046754  1
  Al  Al18  1  0.325021  0.325021  0.953246  1
  Al  Al19  1  0.340615  0.543233  0.249326  1
  Al  Al20  1  0.659385  0.456767  0.750674  1
  Al  Al21  1  0.543233  0.340615  0.249326  1
  Al  Al22  1  0.456767  0.659385  0.750674  1
  Ir  Ir23  1  0.000000  0.000000  0.500000  1
  Pt  Pt24  1  0.671223  0.328777  0.000000  1
  Pt  Pt25  1  0.328777  0.671223  0.000000  1
  Pt  Pt26  1  0.328947  0.671053  0.500000  1
  Pt  Pt27  1  0.671053  0.328947  0.500000  1
