# generated using pymatgen
data_Ca3La17Si15Rh
_symmetry_space_group_name_H-M   'P 1'
_cell_length_a   7.91316180
_cell_length_b   7.91319223
_cell_length_c   15.24976100
_cell_angle_alpha   90.11185916
_cell_angle_beta   89.82764528
_cell_angle_gamma   90.18286273
_symmetry_Int_Tables_number   1
_chemical_formula_structural   Ca3La17Si15Rh
_chemical_formula_sum   'Ca3 La17 Si15 Rh1'
_cell_volume   954.90419896
_cell_formula_units_Z   1
loop_
 _symmetry_equiv_pos_site_id
 _symmetry_equiv_pos_as_xyz
  1  'x, y, z'
loop_
 _atom_site_type_symbol
 _atom_site_label
 _atom_site_symmetry_multiplicity
 _atom_site_fract_x
 _atom_site_fract_y
 _atom_site_fract_z
 _atom_site_occupancy
  Ca  Ca0  1  0.308457  0.308391  0.998653  1
  Ca  Ca1  1  0.189770  0.809657  0.250307  1
  Ca  Ca2  1  0.812710  0.190503  0.749339  1
  La  La3  1  0.695417  0.688609  0.500753  1
  La  La4  1  0.373353  0.009513  0.448694  1
  La  La5  1  0.490004  0.874664  0.699527  1
  La  La6  1  0.510211  0.124840  0.198909  1
  La  La7  1  0.874227  0.487924  0.298879  1
  La  La8  1  0.126034  0.505716  0.798010  1
  La  La9  1  0.627164  0.988699  0.949171  1
  La  La10  1  0.002042  0.377671  0.552267  1
  La  La11  1  0.988825  0.626143  0.049934  1
  La  La12  1  0.131305  0.988681  0.872098  1
  La  La13  1  0.515252  0.628943  0.125642  1
  La  La14  1  0.470924  0.361562  0.630489  1
  La  La15  1  0.627989  0.514060  0.874150  1
  La  La16  1  0.373767  0.482411  0.374069  1
  La  La17  1  0.874517  0.018894  0.377150  1
  La  La18  1  0.983146  0.125361  0.123849  1
  La  La19  1  0.029068  0.887213  0.627213  1
  Si  Si20  1  0.331018  0.698196  0.950572  1
  Si  Si21  1  0.663976  0.300643  0.453357  1
  Si  Si22  1  0.701415  0.334471  0.049466  1
  Si  Si23  1  0.303353  0.668376  0.547701  1
  Si  Si24  1  0.800356  0.833269  0.202337  1
  Si  Si25  1  0.166727  0.200851  0.296436  1
  Si  Si26  1  0.836143  0.797776  0.799222  1
  Si  Si27  1  0.286222  0.919460  0.058169  1
  Si  Si28  1  0.579717  0.788354  0.309491  1
  Si  Si29  1  0.427379  0.205492  0.814726  1
  Si  Si30  1  0.785080  0.582358  0.690393  1
  Si  Si31  1  0.212250  0.420766  0.189226  1
  Si  Si32  1  0.704010  0.075228  0.560261  1
  Si  Si33  1  0.920819  0.287918  0.941371  1
  Si  Si34  1  0.081018  0.714447  0.441039  1
  Rh  Rh35  1  0.196332  0.172942  0.697132  1
