# generated using pymatgen
data_Li2Sc4Co7P12Ir11
_symmetry_space_group_name_H-M   'P 1'
_cell_length_a   3.76907300
_cell_length_b   10.57349261
_cell_length_c   12.28475607
_cell_angle_alpha   90.00444493
_cell_angle_beta   90.00000000
_cell_angle_gamma   90.00000000
_symmetry_Int_Tables_number   1
_chemical_formula_structural   Li2Sc4Co7P12Ir11
_chemical_formula_sum   'Li2 Sc4 Co7 P12 Ir11'
_cell_volume   489.57535952
_cell_formula_units_Z   1
loop_
 _symmetry_equiv_pos_site_id
 _symmetry_equiv_pos_as_xyz
  1  'x, y, z'
loop_
 _atom_site_type_symbol
 _atom_site_label
 _atom_site_symmetry_multiplicity
 _atom_site_fract_x
 _atom_site_fract_y
 _atom_site_fract_z
 _atom_site_occupancy
  Li  Li0  1  0.750000  0.294951  0.011916  1
  Li  Li1  1  0.750000  0.208408  0.509115  1
  Sc  Sc2  1  0.250000  0.572220  0.710125  1
  Sc  Sc3  1  0.250000  0.923780  0.208649  1
  Sc  Sc4  1  0.750000  0.415266  0.288205  1
  Sc  Sc5  1  0.750000  0.090146  0.789294  1
  Co  Co6  1  0.250000  0.614007  0.198605  1
  Co  Co7  1  0.750000  0.115656  0.304088  1
  Co  Co8  1  0.750000  0.381705  0.805894  1
  Co  Co9  1  0.250000  0.464721  0.936009  1
  Co  Co10  1  0.250000  0.034724  0.432738  1
  Co  Co11  1  0.750000  0.538986  0.067261  1
  Co  Co12  1  0.750000  0.958694  0.562751  1
  P  P13  1  0.250000  0.429603  0.114863  1
  P  P14  1  0.250000  0.078056  0.607715  1
  P  P15  1  0.750000  0.562060  0.888315  1
  P  P16  1  0.750000  0.933200  0.384599  1
  P  P17  1  0.250000  0.272759  0.865409  1
  P  P18  1  0.250000  0.227824  0.365190  1
  P  P19  1  0.750000  0.728983  0.133262  1
  P  P20  1  0.750000  0.766007  0.633128  1
  P  P21  1  0.250000  0.594514  0.376671  1
  P  P22  1  0.250000  0.905516  0.888288  1
  P  P23  1  0.750000  0.401465  0.620819  1
  P  P24  1  0.750000  0.100705  0.120443  1
  Ir  Ir25  1  0.250000  0.715765  0.993028  1
  Ir  Ir26  1  0.250000  0.783555  0.485470  1
  Ir  Ir27  1  0.250000  0.406587  0.470464  1
  Ir  Ir28  1  0.250000  0.096662  0.974002  1
  Ir  Ir29  1  0.750000  0.591546  0.526931  1
  Ir  Ir30  1  0.750000  0.908161  0.027605  1
  Ir  Ir31  1  0.250000  0.224117  0.177471  1
  Ir  Ir32  1  0.250000  0.279046  0.675877  1
  Ir  Ir33  1  0.750000  0.761806  0.824027  1
  Ir  Ir34  1  0.750000  0.729393  0.320238  1
  Ir  Ir35  1  0.250000  0.889408  0.701534  1
