# generated using pymatgen
data_Ca6TbV3(GeO4)6
_symmetry_space_group_name_H-M   'P 1'
_cell_length_a   10.88968283
_cell_length_b   10.96284620
_cell_length_c   10.96249273
_cell_angle_alpha   109.60201660
_cell_angle_beta   109.35255125
_cell_angle_gamma   109.33527850
_symmetry_Int_Tables_number   1
_chemical_formula_structural   Ca6TbV3(GeO4)6
_chemical_formula_sum   'Ca12 Tb2 V6 Ge12 O48'
_cell_volume   1008.98711473
_cell_formula_units_Z   2
loop_
 _symmetry_equiv_pos_site_id
 _symmetry_equiv_pos_as_xyz
  1  'x, y, z'
loop_
 _atom_site_type_symbol
 _atom_site_label
 _atom_site_symmetry_multiplicity
 _atom_site_fract_x
 _atom_site_fract_y
 _atom_site_fract_z
 _atom_site_occupancy
  Ca  Ca0  1  0.250023  0.873920  0.626036  1
  Ca  Ca1  1  0.750092  0.629657  0.870459  1
  Ca  Ca2  1  0.623725  0.873781  0.747710  1
  Ca  Ca3  1  0.879627  0.629382  0.259144  1
  Ca  Ca4  1  0.620392  0.240893  0.870527  1
  Ca  Ca5  1  0.876135  0.752165  0.626104  1
  Ca  Ca6  1  0.749977  0.126080  0.373964  1
  Ca  Ca7  1  0.249908  0.370343  0.129541  1
  Ca  Ca8  1  0.376275  0.126219  0.252290  1
  Ca  Ca9  1  0.120373  0.370618  0.740856  1
  Ca  Ca10  1  0.379608  0.759107  0.129473  1
  Ca  Ca11  1  0.123865  0.247835  0.373896  1
  Tb  Tb12  1  0.500000  0.500000  0.000000  1
  Tb  Tb13  1  0.000000  0.500000  0.000000  1
  V  V14  1  0.500000  0.500000  0.500000  1
  V  V15  1  0.500000  0.000000  0.500000  1
  V  V16  1  0.000000  0.500000  0.500000  1
  V  V17  1  0.000000  0.000000  0.500000  1
  V  V18  1  0.500000  0.000000  0.000000  1
  V  V19  1  0.000000  0.000000  0.000000  1
  Ge  Ge20  1  0.129448  0.754635  0.871723  1
  Ge  Ge21  1  0.870552  0.245365  0.128277  1
  Ge  Ge22  1  0.629469  0.371928  0.254856  1
  Ge  Ge23  1  0.757493  0.882929  0.128047  1
  Ge  Ge24  1  0.874661  0.117071  0.745244  1
  Ge  Ge25  1  0.257671  0.628225  0.383007  1
  Ge  Ge26  1  0.742329  0.371775  0.616993  1
  Ge  Ge27  1  0.242507  0.117071  0.871953  1
  Ge  Ge28  1  0.125339  0.882929  0.254756  1
  Ge  Ge29  1  0.370531  0.628072  0.745144  1
  Ge  Ge30  1  0.625387  0.754814  0.382968  1
  Ge  Ge31  1  0.374613  0.245186  0.617032  1
  O  O32  1  0.414427  0.816414  0.794112  1
  O  O33  1  0.870950  0.389699  0.089382  1
  O  O34  1  0.098028  0.977516  0.683851  1
  O  O35  1  0.515034  0.620493  0.703839  1
  O  O36  1  0.688838  0.083193  0.703705  1
  O  O37  1  0.620478  0.705965  0.522316  1
  O  O38  1  0.628989  0.410588  0.110361  1
  O  O39  1  0.699481  0.516537  0.614079  1
  O  O40  1  0.816874  0.516671  0.402435  1
  O  O41  1  0.984922  0.795748  0.879257  1
  O  O42  1  0.800235  0.885730  0.983300  1
  O  O43  1  0.718454  0.699803  0.089481  1
  O  O44  1  0.414610  0.097564  0.614098  1
  O  O45  1  0.402084  0.816370  0.522386  1
  O  O46  1  0.085387  0.705372  0.683217  1
  O  O47  1  0.105487  0.620549  0.416441  1
  O  O48  1  0.518618  0.389656  0.800272  1
  O  O49  1  0.085483  0.886004  0.402497  1
  O  O50  1  0.981345  0.699719  0.110323  1
  O  O51  1  0.183126  0.483329  0.597565  1
  O  O52  1  0.683059  0.097599  0.983484  1
  O  O53  1  0.781531  0.410531  0.800226  1
  O  O54  1  0.394640  0.083456  0.879541  1
  O  O55  1  0.879836  0.977902  0.794590  1
  O  O56  1  0.585573  0.183586  0.205888  1
  O  O57  1  0.129050  0.610301  0.910618  1
  O  O58  1  0.901972  0.022484  0.316149  1
  O  O59  1  0.484966  0.379507  0.296161  1
  O  O60  1  0.311162  0.916807  0.296295  1
  O  O61  1  0.379522  0.294035  0.477684  1
  O  O62  1  0.371011  0.589412  0.889639  1
  O  O63  1  0.300519  0.483463  0.385921  1
  O  O64  1  0.120164  0.022098  0.205410  1
  O  O65  1  0.605360  0.916544  0.120459  1
  O  O66  1  0.218469  0.589469  0.199774  1
  O  O67  1  0.188665  0.203554  0.583164  1
  O  O68  1  0.316941  0.902401  0.016516  1
  O  O69  1  0.018655  0.300281  0.889677  1
  O  O70  1  0.914517  0.113996  0.597503  1
  O  O71  1  0.481382  0.610344  0.199728  1
  O  O72  1  0.894513  0.379451  0.583559  1
  O  O73  1  0.914613  0.294628  0.316783  1
  O  O74  1  0.597916  0.183630  0.477614  1
  O  O75  1  0.585390  0.902436  0.385902  1
  O  O76  1  0.281546  0.300197  0.910519  1
  O  O77  1  0.199765  0.114270  0.016700  1
  O  O78  1  0.015078  0.204252  0.120743  1
  O  O79  1  0.811335  0.796446  0.416836  1
