# generated using pymatgen
data_Nb3FeB3Ru2
_symmetry_space_group_name_H-M   'P 1'
_cell_length_a   3.13253000
_cell_length_b   6.33807200
_cell_length_c   10.85078500
_cell_angle_alpha   90.00000000
_cell_angle_beta   90.00000000
_cell_angle_gamma   90.00000000
_symmetry_Int_Tables_number   1
_chemical_formula_structural   Nb3FeB3Ru2
_chemical_formula_sum   'Nb6 Fe2 B6 Ru4'
_cell_volume   215.43366295
_cell_formula_units_Z   2
loop_
 _symmetry_equiv_pos_site_id
 _symmetry_equiv_pos_as_xyz
  1  'x, y, z'
loop_
 _atom_site_type_symbol
 _atom_site_label
 _atom_site_symmetry_multiplicity
 _atom_site_fract_x
 _atom_site_fract_y
 _atom_site_fract_z
 _atom_site_occupancy
  Nb  Nb0  1  0.000000  0.274980  0.951734  1
  Nb  Nb1  1  0.000000  0.725020  0.048266  1
  Nb  Nb2  1  0.000000  0.274980  0.548266  1
  Nb  Nb3  1  0.000000  0.725020  0.451734  1
  Nb  Nb4  1  0.000000  0.363427  0.250000  1
  Nb  Nb5  1  0.000000  0.636573  0.750000  1
  Fe  Fe6  1  0.500000  0.703331  0.250000  1
  Fe  Fe7  1  0.500000  0.296669  0.750000  1
  B  B8  1  0.000000  0.935375  0.250000  1
  B  B9  1  0.000000  0.064625  0.750000  1
  B  B10  1  0.500000  0.452285  0.084047  1
  B  B11  1  0.500000  0.547715  0.915953  1
  B  B12  1  0.500000  0.452285  0.415953  1
  B  B13  1  0.500000  0.547715  0.584047  1
  Ru  Ru14  1  0.500000  0.074046  0.124169  1
  Ru  Ru15  1  0.500000  0.925954  0.875831  1
  Ru  Ru16  1  0.500000  0.074046  0.375831  1
  Ru  Ru17  1  0.500000  0.925954  0.624169  1
