# generated using pymatgen
data_Lu8B24Os3Ru
_symmetry_space_group_name_H-M   'P 1'
_cell_length_a   3.59424500
_cell_length_b   9.02989033
_cell_length_c   11.39587100
_cell_angle_alpha   90.04257997
_cell_angle_beta   90.00000000
_cell_angle_gamma   90.00000000
_symmetry_Int_Tables_number   1
_chemical_formula_structural   Lu8B24Os3Ru
_chemical_formula_sum   'Lu8 B24 Os3 Ru1'
_cell_volume   369.86016381
_cell_formula_units_Z   1
loop_
 _symmetry_equiv_pos_site_id
 _symmetry_equiv_pos_as_xyz
  1  'x, y, z'
loop_
 _atom_site_type_symbol
 _atom_site_label
 _atom_site_symmetry_multiplicity
 _atom_site_fract_x
 _atom_site_fract_y
 _atom_site_fract_z
 _atom_site_occupancy
  Lu  Lu0  1  0.000000  0.320608  0.413957  1
  Lu  Lu1  1  0.000000  0.678943  0.585583  1
  Lu  Lu2  1  0.000000  0.820611  0.085944  1
  Lu  Lu3  1  0.000000  0.179598  0.914307  1
  Lu  Lu4  1  0.000000  0.943092  0.372905  1
  Lu  Lu5  1  0.000000  0.056140  0.626532  1
  Lu  Lu6  1  0.000000  0.443900  0.127378  1
  Lu  Lu7  1  0.000000  0.556436  0.873410  1
  B  B8  1  0.500000  0.553507  0.433659  1
  B  B9  1  0.500000  0.446619  0.565712  1
  B  B10  1  0.500000  0.053581  0.066249  1
  B  B11  1  0.500000  0.946918  0.934077  1
  B  B12  1  0.500000  0.748640  0.420396  1
  B  B13  1  0.500000  0.251006  0.579117  1
  B  B14  1  0.500000  0.249263  0.079869  1
  B  B15  1  0.500000  0.751261  0.920752  1
  B  B16  1  0.500000  0.791488  0.265613  1
  B  B17  1  0.500000  0.208326  0.734155  1
  B  B18  1  0.500000  0.291846  0.234761  1
  B  B19  1  0.500000  0.708234  0.765636  1
  B  B20  1  0.500000  0.630730  0.184412  1
  B  B21  1  0.500000  0.369387  0.815683  1
  B  B22  1  0.500000  0.130476  0.315682  1
  B  B23  1  0.500000  0.869089  0.684159  1
  B  B24  1  0.500000  0.980887  0.213053  1
  B  B25  1  0.500000  0.019022  0.786833  1
  B  B26  1  0.500000  0.481225  0.287117  1
  B  B27  1  0.500000  0.519075  0.712927  1
  B  B28  1  0.500000  0.605938  0.029573  1
  B  B29  1  0.500000  0.394754  0.971084  1
  B  B30  1  0.500000  0.105361  0.470543  1
  B  B31  1  0.500000  0.893832  0.529023  1
  Os  Os32  1  0.000000  0.362927  0.678779  1
  Os  Os33  1  0.000000  0.137146  0.178883  1
  Os  Os34  1  0.000000  0.863020  0.821242  1
  Ru  Ru35  1  0.000000  0.637115  0.320993  1
