# generated using pymatgen
data_Ac8NdLu(USe10)2
_symmetry_space_group_name_H-M   'P 1'
_cell_length_a   8.13524717
_cell_length_b   8.75166700
_cell_length_c   12.78224825
_cell_angle_alpha   90.00000000
_cell_angle_beta   90.46288383
_cell_angle_gamma   90.00000000
_symmetry_Int_Tables_number   1
_chemical_formula_structural   Ac8NdLu(USe10)2
_chemical_formula_sum   'Ac8 Nd1 Lu1 U2 Se20'
_cell_volume   910.02770034
_cell_formula_units_Z   1
loop_
 _symmetry_equiv_pos_site_id
 _symmetry_equiv_pos_as_xyz
  1  'x, y, z'
loop_
 _atom_site_type_symbol
 _atom_site_label
 _atom_site_symmetry_multiplicity
 _atom_site_fract_x
 _atom_site_fract_y
 _atom_site_fract_z
 _atom_site_occupancy
  Ac  Ac0  1  0.538077  0.503144  0.326040  1
  Ac  Ac1  1  0.963200  0.997325  0.823095  1
  Ac  Ac2  1  0.467678  0.999340  0.672839  1
  Ac  Ac3  1  0.032568  0.500942  0.177257  1
  Ac  Ac4  1  0.467678  0.500660  0.672839  1
  Ac  Ac5  1  0.032568  0.999058  0.177257  1
  Ac  Ac6  1  0.538077  0.996856  0.326040  1
  Ac  Ac7  1  0.963200  0.502675  0.823095  1
  Nd  Nd8  1  0.427738  0.750000  0.991467  1
  Lu  Lu9  1  0.066304  0.750000  0.495581  1
  U  U10  1  0.950666  0.250000  0.505027  1
  U  U11  1  0.552741  0.250000  0.005200  1
  Se  Se12  1  0.835753  0.970128  0.584967  1
  Se  Se13  1  0.665898  0.524974  0.090422  1
  Se  Se14  1  0.166185  0.460975  0.415727  1
  Se  Se15  1  0.333034  0.049882  0.909530  1
  Se  Se16  1  0.166185  0.039025  0.415727  1
  Se  Se17  1  0.333034  0.450118  0.909530  1
  Se  Se18  1  0.835753  0.529872  0.584967  1
  Se  Se19  1  0.665898  0.975026  0.090422  1
  Se  Se20  1  0.841687  0.750000  0.316270  1
  Se  Se21  1  0.665144  0.750000  0.808212  1
  Se  Se22  1  0.159073  0.250000  0.684052  1
  Se  Se23  1  0.341493  0.250000  0.184597  1
  Se  Se24  1  0.444640  0.750000  0.495792  1
  Se  Se25  1  0.045341  0.750000  0.996496  1
  Se  Se26  1  0.555009  0.250000  0.502632  1
  Se  Se27  1  0.945362  0.250000  0.002842  1
  Se  Se28  1  0.182850  0.750000  0.709023  1
  Se  Se29  1  0.314682  0.750000  0.213666  1
  Se  Se30  1  0.822249  0.250000  0.295576  1
  Se  Se31  1  0.680238  0.250000  0.793813  1
