# generated using pymatgen
data_Sm10BCCl15
_symmetry_space_group_name_H-M   'P 1'
_cell_length_a   8.87746774
_cell_length_b   9.68260885
_cell_length_c   10.41687091
_cell_angle_alpha   90.97727184
_cell_angle_beta   114.59682711
_cell_angle_gamma   111.03054951
_symmetry_Int_Tables_number   1
_chemical_formula_structural   Sm10BCCl15
_chemical_formula_sum   'Sm10 B1 C1 Cl15'
_cell_volume   745.16802132
_cell_formula_units_Z   1
loop_
 _symmetry_equiv_pos_site_id
 _symmetry_equiv_pos_as_xyz
  1  'x, y, z'
loop_
 _atom_site_type_symbol
 _atom_site_label
 _atom_site_symmetry_multiplicity
 _atom_site_fract_x
 _atom_site_fract_y
 _atom_site_fract_z
 _atom_site_occupancy
  Sm  Sm0  1  0.811609  0.417124  0.280916  1
  Sm  Sm1  1  0.191964  0.587937  0.723502  1
  Sm  Sm2  1  0.680982  0.749352  0.823391  1
  Sm  Sm3  1  0.318516  0.255678  0.182182  1
  Sm  Sm4  1  0.525391  0.704942  0.096025  1
  Sm  Sm5  1  0.472741  0.296123  0.897395  1
  Sm  Sm6  1  0.590623  0.037203  0.332936  1
  Sm  Sm7  1  0.411831  0.958961  0.673086  1
  Sm  Sm8  1  0.727511  0.070156  0.045108  1
  Sm  Sm9  1  0.270475  0.918876  0.947754  1
  B  B10  1  0.533483  0.182707  0.125441  1
  C  C11  1  0.465857  0.816808  0.873690  1
  Cl  Cl12  1  0.001983  0.000191  0.999709  1
  Cl  Cl13  1  0.633764  0.881056  0.586717  1
  Cl  Cl14  1  0.365294  0.116373  0.415852  1
  Cl  Cl15  1  0.884153  0.301110  0.526868  1
  Cl  Cl16  1  0.119914  0.701889  0.476862  1
  Cl  Cl17  1  0.295010  0.764363  0.179692  1
  Cl  Cl18  1  0.705437  0.234194  0.819145  1
  Cl  Cl19  1  0.052922  0.341768  0.225225  1
  Cl  Cl20  1  0.167940  0.056830  0.703934  1
  Cl  Cl21  1  0.830775  0.940762  0.294370  1
  Cl  Cl22  1  0.237882  0.413583  0.944462  1
  Cl  Cl23  1  0.761306  0.588984  0.053752  1
  Cl  Cl24  1  0.408578  0.471617  0.663465  1
  Cl  Cl25  1  0.591862  0.535110  0.336113  1
  Cl  Cl26  1  0.942198  0.656303  0.772408  1
