# generated using pymatgen
data_Hf4TiRe4W3
_symmetry_space_group_name_H-M   'P 1'
_cell_length_a   5.34434078
_cell_length_b   5.31600447
_cell_length_c   8.70343000
_cell_angle_alpha   90.00000000
_cell_angle_beta   90.00000000
_cell_angle_gamma   119.73358177
_symmetry_Int_Tables_number   1
_chemical_formula_structural   Hf4TiRe4W3
_chemical_formula_sum   'Hf4 Ti1 Re4 W3'
_cell_volume   214.71392672
_cell_formula_units_Z   1
loop_
 _symmetry_equiv_pos_site_id
 _symmetry_equiv_pos_as_xyz
  1  'x, y, z'
loop_
 _atom_site_type_symbol
 _atom_site_label
 _atom_site_symmetry_multiplicity
 _atom_site_fract_x
 _atom_site_fract_y
 _atom_site_fract_z
 _atom_site_occupancy
  Hf  Hf0  1  0.332967  0.666537  0.058190  1
  Hf  Hf1  1  0.667494  0.333774  0.561285  1
  Hf  Hf2  1  0.667494  0.333774  0.938715  1
  Hf  Hf3  1  0.332967  0.666537  0.441810  1
  Ti  Ti4  1  0.338690  0.167695  0.250000  1
  Re  Re5  1  0.996762  0.000332  0.002006  1
  Re  Re6  1  0.996762  0.000332  0.497994  1
  Re  Re7  1  0.830063  0.170444  0.250000  1
  Re  Re8  1  0.172412  0.341578  0.750000  1
  W  W9  1  0.830978  0.658268  0.250000  1
  W  W10  1  0.170513  0.830476  0.750000  1
  W  W11  1  0.662896  0.830253  0.750000  1
