# generated using pymatgen
data_Dy2TcNi11As7
_symmetry_space_group_name_H-M   'P 1'
_cell_length_a   9.38822275
_cell_length_b   9.40578809
_cell_length_c   3.83687800
_cell_angle_alpha   90.00000000
_cell_angle_beta   90.00000000
_cell_angle_gamma   120.02776926
_symmetry_Int_Tables_number   1
_chemical_formula_structural   Dy2TcNi11As7
_chemical_formula_sum   'Dy2 Tc1 Ni11 As7'
_cell_volume   293.33616124
_cell_formula_units_Z   1
loop_
 _symmetry_equiv_pos_site_id
 _symmetry_equiv_pos_as_xyz
  1  'x, y, z'
loop_
 _atom_site_type_symbol
 _atom_site_label
 _atom_site_symmetry_multiplicity
 _atom_site_fract_x
 _atom_site_fract_y
 _atom_site_fract_z
 _atom_site_occupancy
  Dy  Dy0  1  0.334392  0.664241  0.000000  1
  Dy  Dy1  1  0.663796  0.330350  0.500000  1
  Tc  Tc2  1  0.206909  0.093015  0.500000  1
  Ni  Ni3  1  0.437101  0.058921  0.000000  1
  Ni  Ni4  1  0.151925  0.281782  0.000000  1
  Ni  Ni5  1  0.943168  0.383976  0.000000  1
  Ni  Ni6  1  0.621049  0.562910  0.000000  1
  Ni  Ni7  1  0.127241  0.843803  0.000000  1
  Ni  Ni8  1  0.717689  0.872099  0.000000  1
  Ni  Ni9  1  0.903595  0.115279  0.500000  1
  Ni  Ni10  1  0.380531  0.431761  0.500000  1
  Ni  Ni11  1  0.049694  0.623016  0.500000  1
  Ni  Ni12  1  0.884774  0.786043  0.500000  1
  Ni  Ni13  1  0.575298  0.952683  0.500000  1
  As  As14  1  0.997204  0.998876  0.000000  1
  As  As15  1  0.713741  0.118502  0.000000  1
  As  As16  1  0.405936  0.291195  0.000000  1
  As  As17  1  0.882201  0.594845  0.000000  1
  As  As18  1  0.109727  0.404784  0.500000  1
  As  As19  1  0.594272  0.704731  0.500000  1
  As  As20  1  0.299758  0.887184  0.500000  1
