# generated using pymatgen
data_KAcPdO3
_symmetry_space_group_name_H-M   'P 1'
_cell_length_a   4.07174300
_cell_length_b   7.23596554
_cell_length_c   7.73123190
_cell_angle_alpha   105.43974025
_cell_angle_beta   90.00000000
_cell_angle_gamma   106.34106653
_symmetry_Int_Tables_number   1
_chemical_formula_structural   KAcPdO3
_chemical_formula_sum   'K2 Ac2 Pd2 O6'
_cell_volume   210.00315115
_cell_formula_units_Z   2
loop_
 _symmetry_equiv_pos_site_id
 _symmetry_equiv_pos_as_xyz
  1  'x, y, z'
loop_
 _atom_site_type_symbol
 _atom_site_label
 _atom_site_symmetry_multiplicity
 _atom_site_fract_x
 _atom_site_fract_y
 _atom_site_fract_z
 _atom_site_occupancy
  K  K0  1  0.358476  0.716953  0.435162  1
  K  K1  1  0.641525  0.283048  0.564837  1
  Ac  Ac2  1  0.650215  0.300428  0.085514  1
  Ac  Ac3  1  0.349786  0.699572  0.914487  1
  Pd  Pd4  1  0.993859  0.987716  0.231938  1
  Pd  Pd5  1  0.006142  0.012285  0.768061  1
  O  O6  1  0.836190  0.672379  0.140301  1
  O  O7  1  0.493940  0.987880  0.195916  1
  O  O8  1  0.149402  0.298806  0.290063  1
  O  O9  1  0.850598  0.701194  0.709936  1
  O  O10  1  0.506061  0.012120  0.804083  1
  O  O11  1  0.163811  0.327621  0.859698  1
