# generated using pymatgen
data_Y16Cd3Co4Hg
_symmetry_space_group_name_H-M   'P 1'
_cell_length_a   9.54407936
_cell_length_b   9.53556459
_cell_length_c   9.54407900
_cell_angle_alpha   59.97045486
_cell_angle_beta   59.99999779
_cell_angle_gamma   59.97045159
_symmetry_Int_Tables_number   1
_chemical_formula_structural   Y16Cd3Co4Hg
_chemical_formula_sum   'Y16 Cd3 Co4 Hg1'
_cell_volume   613.91094251
_cell_formula_units_Z   1
loop_
 _symmetry_equiv_pos_site_id
 _symmetry_equiv_pos_as_xyz
  1  'x, y, z'
loop_
 _atom_site_type_symbol
 _atom_site_label
 _atom_site_symmetry_multiplicity
 _atom_site_fract_x
 _atom_site_fract_y
 _atom_site_fract_z
 _atom_site_occupancy
  Y  Y0  1  0.153535  0.539393  0.153535  1
  Y  Y1  1  0.688278  0.311445  0.688278  1
  Y  Y2  1  0.688278  0.311445  0.312000  1
  Y  Y3  1  0.937535  0.561579  0.563352  1
  Y  Y4  1  0.541277  0.153056  0.152833  1
  Y  Y5  1  0.152833  0.153056  0.541277  1
  Y  Y6  1  0.937534  0.937000  0.562733  1
  Y  Y7  1  0.312323  0.687536  0.312323  1
  Y  Y8  1  0.562733  0.937000  0.937534  1
  Y  Y9  1  0.562733  0.937000  0.562733  1
  Y  Y10  1  0.687818  0.687536  0.312323  1
  Y  Y11  1  0.563352  0.561579  0.937535  1
  Y  Y12  1  0.937535  0.561579  0.937535  1
  Y  Y13  1  0.312323  0.687536  0.687818  1
  Y  Y14  1  0.152833  0.153056  0.152833  1
  Y  Y15  1  0.312000  0.311445  0.688278  1
  Cd  Cd16  1  0.920238  0.919932  0.920238  1
  Cd  Cd17  1  0.920238  0.919932  0.239592  1
  Cd  Cd18  1  0.239592  0.919932  0.920238  1
  Co  Co19  1  0.359143  0.358632  0.923082  1
  Co  Co20  1  0.359022  0.922935  0.359022  1
  Co  Co21  1  0.923082  0.358632  0.359143  1
  Co  Co22  1  0.359143  0.358632  0.359143  1
  Hg  Hg23  1  0.916622  0.250133  0.916622  1
