# generated using pymatgen
data_DyLu3HfIr3
_symmetry_space_group_name_H-M   'P 1'
_cell_length_a   10.68625300
_cell_length_b   10.72436900
_cell_length_c   6.19718700
_cell_angle_alpha   90.00000000
_cell_angle_beta   90.00000000
_cell_angle_gamma   90.00000000
_symmetry_Int_Tables_number   1
_chemical_formula_structural   DyLu3HfIr3
_chemical_formula_sum   'Dy4 Lu12 Hf4 Ir12'
_cell_volume   710.21820734
_cell_formula_units_Z   4
loop_
 _symmetry_equiv_pos_site_id
 _symmetry_equiv_pos_as_xyz
  1  'x, y, z'
loop_
 _atom_site_type_symbol
 _atom_site_label
 _atom_site_symmetry_multiplicity
 _atom_site_fract_x
 _atom_site_fract_y
 _atom_site_fract_z
 _atom_site_occupancy
  Dy  Dy0  1  0.912759  0.710741  0.126769  1
  Dy  Dy1  1  0.912759  0.289259  0.626769  1
  Dy  Dy2  1  0.087241  0.710741  0.626769  1
  Dy  Dy3  1  0.087241  0.289259  0.126769  1
  Lu  Lu4  1  0.291000  0.084869  0.375111  1
  Lu  Lu5  1  0.291000  0.915131  0.875111  1
  Lu  Lu6  1  0.709000  0.084869  0.875111  1
  Lu  Lu7  1  0.709000  0.915131  0.375111  1
  Lu  Lu8  1  0.585319  0.790291  0.874632  1
  Lu  Lu9  1  0.585319  0.209709  0.374632  1
  Lu  Lu10  1  0.414681  0.790291  0.374632  1
  Lu  Lu11  1  0.414681  0.209709  0.874632  1
  Lu  Lu12  1  0.210897  0.414410  0.625484  1
  Lu  Lu13  1  0.210897  0.585590  0.125484  1
  Lu  Lu14  1  0.789103  0.414410  0.125484  1
  Lu  Lu15  1  0.789103  0.585590  0.625484  1
  Hf  Hf16  1  0.000000  0.000000  0.498437  1
  Hf  Hf17  1  0.000000  0.000000  0.998437  1
  Hf  Hf18  1  0.500000  0.500000  0.999582  1
  Hf  Hf19  1  0.500000  0.500000  0.499582  1
  Ir  Ir20  1  0.853255  0.143673  0.248509  1
  Ir  Ir21  1  0.853255  0.856327  0.748509  1
  Ir  Ir22  1  0.146745  0.143673  0.748509  1
  Ir  Ir23  1  0.146745  0.856327  0.248509  1
  Ir  Ir24  1  0.644109  0.354929  0.750545  1
  Ir  Ir25  1  0.644109  0.645071  0.250545  1
  Ir  Ir26  1  0.355891  0.354929  0.250545  1
  Ir  Ir27  1  0.355891  0.645071  0.750545  1
  Ir  Ir28  1  0.500000  0.000000  0.121838  1
  Ir  Ir29  1  0.500000  0.000000  0.621838  1
  Ir  Ir30  1  0.000000  0.500000  0.878043  1
  Ir  Ir31  1  0.000000  0.500000  0.378043  1
