# generated using pymatgen
data_Sc20Si13Te3
_symmetry_space_group_name_H-M   'P 1'
_cell_length_a   7.11863624
_cell_length_b   7.25199137
_cell_length_c   13.98630018
_cell_angle_alpha   90.13720247
_cell_angle_beta   86.63133199
_cell_angle_gamma   90.10814658
_symmetry_Int_Tables_number   1
_chemical_formula_structural   Sc20Si13Te3
_chemical_formula_sum   'Sc20 Si13 Te3'
_cell_volume   720.78203365
_cell_formula_units_Z   1
loop_
 _symmetry_equiv_pos_site_id
 _symmetry_equiv_pos_as_xyz
  1  'x, y, z'
loop_
 _atom_site_type_symbol
 _atom_site_label
 _atom_site_symmetry_multiplicity
 _atom_site_fract_x
 _atom_site_fract_y
 _atom_site_fract_z
 _atom_site_occupancy
  Sc  Sc0  1  0.206227  0.996243  0.761728  1
  Sc  Sc1  1  0.793231  0.003643  0.237475  1
  Sc  Sc2  1  0.294008  0.499232  0.237746  1
  Sc  Sc3  1  0.706911  0.500689  0.756312  1
  Sc  Sc4  1  0.039886  0.665306  0.622002  1
  Sc  Sc5  1  0.933123  0.334871  0.381036  1
  Sc  Sc6  1  0.449657  0.179490  0.374170  1
  Sc  Sc7  1  0.987473  0.322355  0.093309  1
  Sc  Sc8  1  0.558548  0.810372  0.624849  1
  Sc  Sc9  1  0.014182  0.678266  0.904695  1
  Sc  Sc10  1  0.514822  0.821433  0.903494  1
  Sc  Sc11  1  0.485805  0.179414  0.095577  1
  Sc  Sc12  1  0.401746  0.339576  0.629775  1
  Sc  Sc13  1  0.616676  0.654385  0.374800  1
  Sc  Sc14  1  0.109077  0.837274  0.366402  1
  Sc  Sc15  1  0.636894  0.676969  0.119679  1
  Sc  Sc16  1  0.886541  0.178018  0.630286  1
  Sc  Sc17  1  0.364198  0.323318  0.879336  1
  Sc  Sc18  1  0.863743  0.174966  0.878282  1
  Sc  Sc19  1  0.137677  0.826158  0.122290  1
  Si  Si20  1  0.081931  0.383223  0.753844  1
  Si  Si21  1  0.920396  0.616402  0.246338  1
  Si  Si22  1  0.423652  0.882888  0.248945  1
  Si  Si23  1  0.578882  0.112865  0.753022  1
  Si  Si24  1  0.328756  0.630005  0.759357  1
  Si  Si25  1  0.667491  0.369922  0.240229  1
  Si  Si26  1  0.165035  0.135913  0.243009  1
  Si  Si27  1  0.833023  0.869270  0.758153  1
  Si  Si28  1  0.815572  0.968814  0.038130  1
  Si  Si29  1  0.733601  0.486976  0.548530  1
  Si  Si30  1  0.186737  0.031798  0.961703  1
  Si  Si31  1  0.687555  0.467433  0.960242  1
  Si  Si32  1  0.313473  0.533736  0.038377  1
  Te  Te33  1  0.239256  0.008737  0.545192  1
  Te  Te34  1  0.763003  0.988453  0.456084  1
  Te  Te35  1  0.261216  0.511586  0.455600  1
