# generated using pymatgen
data_Ac2Pr2MgZn9Pb2
_symmetry_space_group_name_H-M   'P 1'
_cell_length_a   8.88515629
_cell_length_b   8.88515838
_cell_length_c   9.39325900
_cell_angle_alpha   90.00000000
_cell_angle_beta   90.00000000
_cell_angle_gamma   149.81050120
_symmetry_Int_Tables_number   1
_chemical_formula_structural   Ac2Pr2MgZn9Pb2
_chemical_formula_sum   'Ac2 Pr2 Mg1 Zn9 Pb2'
_cell_volume   372.90221051
_cell_formula_units_Z   1
loop_
 _symmetry_equiv_pos_site_id
 _symmetry_equiv_pos_as_xyz
  1  'x, y, z'
loop_
 _atom_site_type_symbol
 _atom_site_label
 _atom_site_symmetry_multiplicity
 _atom_site_fract_x
 _atom_site_fract_y
 _atom_site_fract_z
 _atom_site_occupancy
  Ac  Ac0  1  0.002269  0.997731  0.504596  1
  Ac  Ac1  1  0.002269  0.997731  0.995404  1
  Pr  Pr2  1  0.206241  0.793759  0.250000  1
  Pr  Pr3  1  0.791985  0.208015  0.750000  1
  Mg  Mg4  1  0.395845  0.604155  0.250000  1
  Zn  Zn5  1  0.811912  0.188088  0.389616  1
  Zn  Zn6  1  0.187168  0.812832  0.612259  1
  Zn  Zn7  1  0.811912  0.188088  0.110384  1
  Zn  Zn8  1  0.187168  0.812832  0.887741  1
  Zn  Zn9  1  0.662900  0.337100  0.489203  1
  Zn  Zn10  1  0.334714  0.665286  0.516672  1
  Zn  Zn11  1  0.662900  0.337100  0.010797  1
  Zn  Zn12  1  0.334714  0.665286  0.983328  1
  Zn  Zn13  1  0.606041  0.393959  0.750000  1
  Pb  Pb14  1  0.563983  0.436017  0.250000  1
  Pb  Pb15  1  0.437977  0.562023  0.750000  1
