# generated using pymatgen
data_Re3Tc2MoPt2
_symmetry_space_group_name_H-M   'P 1'
_cell_length_a   5.61377100
_cell_length_b   5.59924970
_cell_length_c   4.43562700
_cell_angle_alpha   90.00000000
_cell_angle_beta   90.00000000
_cell_angle_gamma   120.08583326
_symmetry_Int_Tables_number   1
_chemical_formula_structural   Re3Tc2MoPt2
_chemical_formula_sum   'Re3 Tc2 Mo1 Pt2'
_cell_volume   120.64071463
_cell_formula_units_Z   1
loop_
 _symmetry_equiv_pos_site_id
 _symmetry_equiv_pos_as_xyz
  1  'x, y, z'
loop_
 _atom_site_type_symbol
 _atom_site_label
 _atom_site_symmetry_multiplicity
 _atom_site_fract_x
 _atom_site_fract_y
 _atom_site_fract_z
 _atom_site_occupancy
  Re  Re0  1  0.684328  0.842876  0.250000  1
  Re  Re1  1  0.158548  0.842876  0.250000  1
  Re  Re2  1  0.842320  0.684639  0.750000  1
  Tc  Tc3  1  0.314816  0.155990  0.750000  1
  Tc  Tc4  1  0.841176  0.155990  0.750000  1
  Mo  Mo5  1  0.159015  0.318031  0.250000  1
  Pt  Pt6  1  0.333709  0.667419  0.750000  1
  Pt  Pt7  1  0.666089  0.332178  0.250000  1
