# generated using pymatgen
data_HoH6Ir
_symmetry_space_group_name_H-M   'P 1'
_cell_length_a   4.15647351
_cell_length_b   4.15647431
_cell_length_c   4.15647406
_cell_angle_alpha   99.50381009
_cell_angle_beta   99.50379626
_cell_angle_gamma   99.50382366
_symmetry_Int_Tables_number   1
_chemical_formula_structural   HoH6Ir
_chemical_formula_sum   'Ho1 H6 Ir1'
_cell_volume   68.47110402
_cell_formula_units_Z   1
loop_
 _symmetry_equiv_pos_site_id
 _symmetry_equiv_pos_as_xyz
  1  'x, y, z'
loop_
 _atom_site_type_symbol
 _atom_site_label
 _atom_site_symmetry_multiplicity
 _atom_site_fract_x
 _atom_site_fract_y
 _atom_site_fract_z
 _atom_site_occupancy
  Ho  Ho0  1  0.500000  0.500000  0.500000  1
  H  H1  1  0.293303  0.926748  0.293303  1
  H  H2  1  0.293303  0.293303  0.926748  1
  H  H3  1  0.926748  0.293303  0.293303  1
  H  H4  1  0.706697  0.073252  0.706697  1
  H  H5  1  0.706697  0.706697  0.073252  1
  H  H6  1  0.073252  0.706697  0.706697  1
  Ir  Ir7  1  0.000000  0.000000  0.000000  1
