# generated using pymatgen
data_LaSm6CoI12
_symmetry_space_group_name_H-M   'P 1'
_cell_length_a   9.92260507
_cell_length_b   9.92260476
_cell_length_c   9.92260671
_cell_angle_alpha   106.35478775
_cell_angle_beta   106.35478911
_cell_angle_gamma   106.35478894
_symmetry_Int_Tables_number   1
_chemical_formula_structural   LaSm6CoI12
_chemical_formula_sum   'La1 Sm6 Co1 I12'
_cell_volume   827.52519209
_cell_formula_units_Z   1
loop_
 _symmetry_equiv_pos_site_id
 _symmetry_equiv_pos_as_xyz
  1  'x, y, z'
loop_
 _atom_site_type_symbol
 _atom_site_label
 _atom_site_symmetry_multiplicity
 _atom_site_fract_x
 _atom_site_fract_y
 _atom_site_fract_z
 _atom_site_occupancy
  La  La0  1  0.994482  0.994482  0.994482  1
  Sm  Sm1  1  0.518492  0.591130  0.789277  1
  Sm  Sm2  1  0.789277  0.518492  0.591130  1
  Sm  Sm3  1  0.591130  0.789277  0.518492  1
  Sm  Sm4  1  0.480168  0.407542  0.209971  1
  Sm  Sm5  1  0.209971  0.480168  0.407542  1
  Sm  Sm6  1  0.407542  0.209971  0.480168  1
  Co  Co7  1  0.499974  0.499974  0.499974  1
  I  I8  1  0.275202  0.821313  0.426387  1
  I  I9  1  0.426387  0.275202  0.821313  1
  I  I10  1  0.821313  0.426387  0.275202  1
  I  I11  1  0.723899  0.177772  0.572543  1
  I  I12  1  0.572543  0.723899  0.177772  1
  I  I13  1  0.177772  0.572543  0.723899  1
  I  I14  1  0.041009  0.119501  0.344936  1
  I  I15  1  0.344936  0.041009  0.119501  1
  I  I16  1  0.119501  0.344936  0.041009  1
  I  I17  1  0.957374  0.877646  0.646750  1
  I  I18  1  0.646750  0.957374  0.877646  1
  I  I19  1  0.877646  0.646750  0.957374  1
