# generated using pymatgen
data_Tm6FeCo15(MoP6)2
_symmetry_space_group_name_H-M   'P 1'
_cell_length_a   3.69703300
_cell_length_b   10.53641800
_cell_length_c   12.18485700
_cell_angle_alpha   90.00000000
_cell_angle_beta   90.00000000
_cell_angle_gamma   90.00000000
_symmetry_Int_Tables_number   1
_chemical_formula_structural   Tm6FeCo15(MoP6)2
_chemical_formula_sum   'Tm6 Fe1 Co15 Mo2 P12'
_cell_volume   474.64264496
_cell_formula_units_Z   1
loop_
 _symmetry_equiv_pos_site_id
 _symmetry_equiv_pos_as_xyz
  1  'x, y, z'
loop_
 _atom_site_type_symbol
 _atom_site_label
 _atom_site_symmetry_multiplicity
 _atom_site_fract_x
 _atom_site_fract_y
 _atom_site_fract_z
 _atom_site_occupancy
  Tm  Tm0  1  0.000000  0.500000  0.524232  1
  Tm  Tm1  1  0.500000  0.000000  0.475139  1
  Tm  Tm2  1  0.500000  0.818669  0.204505  1
  Tm  Tm3  1  0.500000  0.181331  0.204505  1
  Tm  Tm4  1  0.000000  0.679572  0.796349  1
  Tm  Tm5  1  0.000000  0.320428  0.796349  1
  Fe  Fe6  1  0.000000  0.500000  0.986367  1
  Co  Co7  1  0.500000  0.500000  0.700114  1
  Co  Co8  1  0.000000  0.000000  0.299542  1
  Co  Co9  1  0.500000  0.000000  0.014396  1
  Co  Co10  1  0.500000  0.330731  0.990595  1
  Co  Co11  1  0.500000  0.669269  0.990595  1
  Co  Co12  1  0.000000  0.166827  0.009764  1
  Co  Co13  1  0.000000  0.833173  0.009764  1
  Co  Co14  1  0.500000  0.295892  0.431691  1
  Co  Co15  1  0.500000  0.704108  0.431691  1
  Co  Co16  1  0.000000  0.204457  0.568549  1
  Co  Co17  1  0.000000  0.795543  0.568549  1
  Co  Co18  1  0.500000  0.877532  0.706488  1
  Co  Co19  1  0.500000  0.122468  0.706488  1
  Co  Co20  1  0.000000  0.622913  0.293315  1
  Co  Co21  1  0.000000  0.377087  0.293315  1
  Mo  Mo22  1  0.500000  0.500000  0.156280  1
  Mo  Mo23  1  0.000000  0.000000  0.842993  1
  P  P24  1  0.500000  0.500000  0.882002  1
  P  P25  1  0.000000  0.000000  0.120211  1
  P  P26  1  0.500000  0.500000  0.350157  1
  P  P27  1  0.000000  0.000000  0.649411  1
  P  P28  1  0.500000  0.312047  0.616626  1
  P  P29  1  0.500000  0.687953  0.616626  1
  P  P30  1  0.000000  0.188081  0.383579  1
  P  P31  1  0.000000  0.811919  0.383579  1
  P  P32  1  0.500000  0.843966  0.892188  1
  P  P33  1  0.500000  0.156034  0.892188  1
  P  P34  1  0.000000  0.655071  0.105929  1
  P  P35  1  0.000000  0.344929  0.105929  1
