# generated using pymatgen
data_YLuFe3Re14C3
_symmetry_space_group_name_H-M   'P 1'
_cell_length_a   6.91924052
_cell_length_b   6.91924217
_cell_length_c   6.91924200
_cell_angle_alpha   82.41631505
_cell_angle_beta   82.41631323
_cell_angle_gamma   82.41631240
_symmetry_Int_Tables_number   1
_chemical_formula_structural   YLuFe3Re14C3
_chemical_formula_sum   'Y1 Lu1 Fe3 Re14 C3'
_cell_volume   323.27549909
_cell_formula_units_Z   1
loop_
 _symmetry_equiv_pos_site_id
 _symmetry_equiv_pos_as_xyz
  1  'x, y, z'
loop_
 _atom_site_type_symbol
 _atom_site_label
 _atom_site_symmetry_multiplicity
 _atom_site_fract_x
 _atom_site_fract_y
 _atom_site_fract_z
 _atom_site_occupancy
  Y  Y0  1  0.648580  0.648580  0.648580  1
  Lu  Lu1  1  0.351092  0.351092  0.351092  1
  Fe  Fe2  1  0.999380  0.999380  0.500263  1
  Fe  Fe3  1  0.500263  0.999380  0.999380  1
  Fe  Fe4  1  0.999380  0.500263  0.999380  1
  Re  Re5  1  0.722074  0.277688  0.000082  1
  Re  Re6  1  0.000082  0.722074  0.277688  1
  Re  Re7  1  0.277688  0.000082  0.722074  1
  Re  Re8  1  0.000082  0.277688  0.722074  1
  Re  Re9  1  0.722074  0.000082  0.277688  1
  Re  Re10  1  0.277688  0.722074  0.000082  1
  Re  Re11  1  0.346323  0.346323  0.861801  1
  Re  Re12  1  0.861801  0.346323  0.346323  1
  Re  Re13  1  0.346323  0.861801  0.346323  1
  Re  Re14  1  0.652907  0.652907  0.140424  1
  Re  Re15  1  0.140424  0.652907  0.652907  1
  Re  Re16  1  0.652907  0.140424  0.652907  1
  Re  Re17  1  0.897631  0.897631  0.897631  1
  Re  Re18  1  0.102720  0.102720  0.102720  1
  C  C19  1  0.498284  0.498284  0.004012  1
  C  C20  1  0.004012  0.498284  0.498284  1
  C  C21  1  0.498284  0.004012  0.498284  1
