# generated using pymatgen
data_TmTh6NpH30
_symmetry_space_group_name_H-M   'P 1'
_cell_length_a   7.83258477
_cell_length_b   7.81700704
_cell_length_c   7.78132002
_cell_angle_alpha   109.34704480
_cell_angle_beta   109.44339202
_cell_angle_gamma   109.55753712
_symmetry_Int_Tables_number   1
_chemical_formula_structural   TmTh6NpH30
_chemical_formula_sum   'Tm1 Th6 Np1 H30'
_cell_volume   367.05189050
_cell_formula_units_Z   1
loop_
 _symmetry_equiv_pos_site_id
 _symmetry_equiv_pos_as_xyz
  1  'x, y, z'
loop_
 _atom_site_type_symbol
 _atom_site_label
 _atom_site_symmetry_multiplicity
 _atom_site_fract_x
 _atom_site_fract_y
 _atom_site_fract_z
 _atom_site_occupancy
  Tm  Tm0  1  0.498999  0.999663  0.085299  1
  Th  Th1  1  0.993457  0.079380  0.494122  1
  Th  Th2  1  0.086050  0.506281  0.001997  1
  Th  Th3  1  0.999437  0.584404  0.504500  1
  Th  Th4  1  0.583444  0.502915  0.998860  1
  Th  Th5  1  0.503581  0.998655  0.587922  1
  Th  Th6  1  0.416492  0.409803  0.411488  1
  Np  Np7  1  0.912635  0.912967  0.913100  1
  H  H8  1  0.650246  0.964141  0.367466  1
  H  H9  1  0.217688  0.317297  0.845333  1
  H  H10  1  0.187245  0.403248  0.534475  1
  H  H11  1  0.096022  0.281267  0.127365  1
  H  H12  1  0.284076  0.122566  0.091916  1
  H  H13  1  0.127278  0.092997  0.278032  1
  H  H14  1  0.472206  0.154474  0.876438  1
  H  H15  1  0.718546  0.349634  0.813435  1
  H  H16  1  0.627262  0.378861  0.250528  1
  H  H17  1  0.250905  0.624297  0.377167  1
  H  H18  1  0.750250  0.873659  0.123074  1
  H  H19  1  0.122699  0.750600  0.875188  1
  H  H20  1  0.374352  0.247700  0.623610  1
  H  H21  1  0.876549  0.126631  0.751328  1
  H  H22  1  0.781702  0.595204  0.632496  1
  H  H23  1  0.319571  0.849576  0.221181  1
  H  H24  1  0.373941  0.661785  0.968028  1
  H  H25  1  0.963275  0.367858  0.651483  1
  H  H26  1  0.536800  0.184951  0.403841  1
  H  H27  1  0.405686  0.537689  0.187239  1
  H  H28  1  0.837587  0.215963  0.311069  1
  H  H29  1  0.905125  0.689242  0.033971  1
  H  H30  1  0.812534  0.716766  0.347932  1
  H  H31  1  0.152119  0.868752  0.465812  1
  H  H32  1  0.685025  0.028881  0.907336  1
  H  H33  1  0.347277  0.817907  0.724944  1
  H  H34  1  0.871416  0.470684  0.153812  1
  H  H35  1  0.632357  0.779749  0.594397  1
  H  H36  1  0.596554  0.629444  0.778740  1
  H  H37  1  0.029611  0.904109  0.685075  1
