# generated using pymatgen
data_HoTh3(ZnCo)4
_symmetry_space_group_name_H-M   'P 1'
_cell_length_a   3.83615400
_cell_length_b   6.90238904
_cell_length_c   8.28276340
_cell_angle_alpha   90.67918386
_cell_angle_beta   90.00000000
_cell_angle_gamma   90.00000000
_symmetry_Int_Tables_number   1
_chemical_formula_structural   HoTh3(ZnCo)4
_chemical_formula_sum   'Ho1 Th3 Zn4 Co4'
_cell_volume   219.30079666
_cell_formula_units_Z   1
loop_
 _symmetry_equiv_pos_site_id
 _symmetry_equiv_pos_as_xyz
  1  'x, y, z'
loop_
 _atom_site_type_symbol
 _atom_site_label
 _atom_site_symmetry_multiplicity
 _atom_site_fract_x
 _atom_site_fract_y
 _atom_site_fract_z
 _atom_site_occupancy
  Ho  Ho0  1  0.750000  0.950339  0.687147  1
  Th  Th1  1  0.250000  0.541585  0.183943  1
  Th  Th2  1  0.750000  0.452537  0.809999  1
  Th  Th3  1  0.250000  0.043585  0.321365  1
  Zn  Zn4  1  0.250000  0.117704  0.940872  1
  Zn  Zn5  1  0.750000  0.873739  0.049974  1
  Zn  Zn6  1  0.250000  0.639883  0.555084  1
  Zn  Zn7  1  0.750000  0.376714  0.447479  1
  Co  Co8  1  0.750000  0.759779  0.356583  1
  Co  Co9  1  0.250000  0.255408  0.637908  1
  Co  Co10  1  0.750000  0.255581  0.140360  1
  Co  Co11  1  0.250000  0.733147  0.869286  1
