# generated using pymatgen
data_Tb19YFeCo3Sb8
_symmetry_space_group_name_H-M   'P 1'
_cell_length_a   7.95084705
_cell_length_b   8.79475500
_cell_length_c   12.26756700
_cell_angle_alpha   90.00000000
_cell_angle_beta   90.05711517
_cell_angle_gamma   90.00000000
_symmetry_Int_Tables_number   1
_chemical_formula_structural   Tb19YFeCo3Sb8
_chemical_formula_sum   'Tb19 Y1 Fe1 Co3 Sb8'
_cell_volume   857.81841944
_cell_formula_units_Z   1
loop_
 _symmetry_equiv_pos_site_id
 _symmetry_equiv_pos_as_xyz
  1  'x, y, z'
loop_
 _atom_site_type_symbol
 _atom_site_label
 _atom_site_symmetry_multiplicity
 _atom_site_fract_x
 _atom_site_fract_y
 _atom_site_fract_z
 _atom_site_occupancy
  Tb  Tb0  1  0.653847  0.250000  0.296801  1
  Tb  Tb1  1  0.846054  0.250000  0.797375  1
  Tb  Tb2  1  0.346341  0.750000  0.702415  1
  Tb  Tb3  1  0.455091  0.750000  0.997095  1
  Tb  Tb4  1  0.953002  0.250000  0.502923  1
  Tb  Tb5  1  0.543906  0.250000  0.002214  1
  Tb  Tb6  1  0.045917  0.750000  0.497291  1
  Tb  Tb7  1  0.621085  0.750000  0.305654  1
  Tb  Tb8  1  0.122584  0.250000  0.193620  1
  Tb  Tb9  1  0.377650  0.250000  0.694169  1
  Tb  Tb10  1  0.878161  0.750000  0.806173  1
  Tb  Tb11  1  0.820589  0.964523  0.065131  1
  Tb  Tb12  1  0.323051  0.032030  0.436408  1
  Tb  Tb13  1  0.178701  0.465356  0.935288  1
  Tb  Tb14  1  0.679949  0.537832  0.564592  1
  Tb  Tb15  1  0.178701  0.034644  0.935288  1
  Tb  Tb16  1  0.679949  0.962168  0.564592  1
  Tb  Tb17  1  0.820589  0.535477  0.065131  1
  Tb  Tb18  1  0.323051  0.467970  0.436408  1
  Y  Y19  1  0.156266  0.750000  0.205381  1
  Fe  Fe20  1  0.428174  0.750000  0.487704  1
  Co  Co21  1  0.935336  0.250000  0.009909  1
  Co  Co22  1  0.567587  0.250000  0.510039  1
  Co  Co23  1  0.065203  0.750000  0.990149  1
  Sb  Sb24  1  0.927644  0.992217  0.326664  1
  Sb  Sb25  1  0.426987  0.007780  0.172647  1
  Sb  Sb26  1  0.072150  0.491941  0.672992  1
  Sb  Sb27  1  0.572828  0.507585  0.826822  1
  Sb  Sb28  1  0.072150  0.008059  0.672992  1
  Sb  Sb29  1  0.572828  0.992415  0.826822  1
  Sb  Sb30  1  0.927644  0.507783  0.326664  1
  Sb  Sb31  1  0.426987  0.492220  0.172647  1
