# generated using pymatgen
data_Tb16InHg3Ru4
_symmetry_space_group_name_H-M   'P 1'
_cell_length_a   9.65480020
_cell_length_b   9.65479998
_cell_length_c   9.62535034
_cell_angle_alpha   59.89874131
_cell_angle_beta   59.89874192
_cell_angle_gamma   59.99999917
_symmetry_Int_Tables_number   1
_chemical_formula_structural   Tb16InHg3Ru4
_chemical_formula_sum   'Tb16 In1 Hg3 Ru4'
_cell_volume   633.46368367
_cell_formula_units_Z   1
loop_
 _symmetry_equiv_pos_site_id
 _symmetry_equiv_pos_as_xyz
  1  'x, y, z'
loop_
 _atom_site_type_symbol
 _atom_site_label
 _atom_site_symmetry_multiplicity
 _atom_site_fract_x
 _atom_site_fract_y
 _atom_site_fract_z
 _atom_site_occupancy
  Tb  Tb0  1  0.098883  0.703564  0.098670  1
  Tb  Tb1  1  0.940223  0.940223  0.559647  1
  Tb  Tb2  1  0.941970  0.558696  0.940638  1
  Tb  Tb3  1  0.311345  0.690269  0.308115  1
  Tb  Tb4  1  0.940223  0.559907  0.559647  1
  Tb  Tb5  1  0.310584  0.310584  0.687006  1
  Tb  Tb6  1  0.098883  0.098883  0.098670  1
  Tb  Tb7  1  0.558696  0.558696  0.940638  1
  Tb  Tb8  1  0.100235  0.100235  0.699296  1
  Tb  Tb9  1  0.691826  0.310584  0.687006  1
  Tb  Tb10  1  0.690269  0.690269  0.308115  1
  Tb  Tb11  1  0.690269  0.311345  0.308115  1
  Tb  Tb12  1  0.310584  0.691826  0.687006  1
  Tb  Tb13  1  0.559907  0.940223  0.559647  1
  Tb  Tb14  1  0.703564  0.098883  0.098670  1
  Tb  Tb15  1  0.558696  0.941970  0.940638  1
  In  In16  1  0.329101  0.329101  0.012695  1
  Hg  Hg17  1  0.333981  0.333981  0.334327  1
  Hg  Hg18  1  0.997711  0.333981  0.334327  1
  Hg  Hg19  1  0.333981  0.997711  0.334327  1
  Ru  Ru20  1  0.889039  0.889039  0.890455  1
  Ru  Ru21  1  0.889522  0.889522  0.331436  1
  Ru  Ru22  1  0.331466  0.889039  0.890455  1
  Ru  Ru23  1  0.889039  0.331466  0.890455  1
