# generated using pymatgen
data_Tb5YReB14Ru
_symmetry_space_group_name_H-M   'P 1'
_cell_length_a   8.10308200
_cell_length_b   8.10308153
_cell_length_c   9.36229600
_cell_angle_alpha   90.00000000
_cell_angle_beta   90.00000000
_cell_angle_gamma   154.73124739
_symmetry_Int_Tables_number   1
_chemical_formula_structural   Tb5YReB14Ru
_chemical_formula_sum   'Tb5 Y1 Re1 B14 Ru1'
_cell_volume   262.40559663
_cell_formula_units_Z   1
loop_
 _symmetry_equiv_pos_site_id
 _symmetry_equiv_pos_as_xyz
  1  'x, y, z'
loop_
 _atom_site_type_symbol
 _atom_site_label
 _atom_site_symmetry_multiplicity
 _atom_site_fract_x
 _atom_site_fract_y
 _atom_site_fract_z
 _atom_site_occupancy
  Tb  Tb0  1  0.894613  0.105387  0.939611  1
  Tb  Tb1  1  0.105562  0.894438  0.060886  1
  Tb  Tb2  1  0.756900  0.243100  0.250000  1
  Tb  Tb3  1  0.894613  0.105387  0.560389  1
  Tb  Tb4  1  0.105562  0.894438  0.439114  1
  Y  Y5  1  0.242979  0.757021  0.750000  1
  Re  Re6  1  0.947050  0.052950  0.250000  1
  B  B7  1  0.542783  0.457217  0.250000  1
  B  B8  1  0.458212  0.541788  0.750000  1
  B  B9  1  0.520910  0.479090  0.903150  1
  B  B10  1  0.479242  0.520758  0.096034  1
  B  B11  1  0.479242  0.520758  0.403966  1
  B  B12  1  0.520910  0.479090  0.596850  1
  B  B13  1  0.631182  0.368818  0.848146  1
  B  B14  1  0.368045  0.631955  0.151134  1
  B  B15  1  0.726764  0.273236  0.965153  1
  B  B16  1  0.272702  0.727298  0.033245  1
  B  B17  1  0.272702  0.727298  0.466755  1
  B  B18  1  0.726764  0.273236  0.534847  1
  B  B19  1  0.631182  0.368818  0.651854  1
  B  B20  1  0.368045  0.631955  0.348866  1
  Ru  Ru21  1  0.054036  0.945964  0.750000  1
