# generated using pymatgen
data_Dy20Co2NiBi8Ru
_symmetry_space_group_name_H-M   'P 1'
_cell_length_a   8.00820757
_cell_length_b   8.91010100
_cell_length_c   12.41521465
_cell_angle_alpha   90.00000000
_cell_angle_beta   90.14980627
_cell_angle_gamma   90.00000000
_symmetry_Int_Tables_number   1
_chemical_formula_structural   Dy20Co2NiBi8Ru
_chemical_formula_sum   'Dy20 Co2 Ni1 Bi8 Ru1'
_cell_volume   885.87143239
_cell_formula_units_Z   1
loop_
 _symmetry_equiv_pos_site_id
 _symmetry_equiv_pos_as_xyz
  1  'x, y, z'
loop_
 _atom_site_type_symbol
 _atom_site_label
 _atom_site_symmetry_multiplicity
 _atom_site_fract_x
 _atom_site_fract_y
 _atom_site_fract_z
 _atom_site_occupancy
  Dy  Dy0  1  0.842474  0.750000  0.794528  1
  Dy  Dy1  1  0.154229  0.250000  0.200223  1
  Dy  Dy2  1  0.348270  0.250000  0.698326  1
  Dy  Dy3  1  0.653470  0.750000  0.297528  1
  Dy  Dy4  1  0.377998  0.750000  0.694531  1
  Dy  Dy5  1  0.617253  0.250000  0.310557  1
  Dy  Dy6  1  0.881282  0.250000  0.810775  1
  Dy  Dy7  1  0.120811  0.750000  0.190901  1
  Dy  Dy8  1  0.951201  0.750000  0.502426  1
  Dy  Dy9  1  0.051044  0.250000  0.496905  1
  Dy  Dy10  1  0.451428  0.250000  0.997879  1
  Dy  Dy11  1  0.546678  0.750000  0.001649  1
  Dy  Dy12  1  0.677453  0.040725  0.564166  1
  Dy  Dy13  1  0.323404  0.963571  0.436653  1
  Dy  Dy14  1  0.176567  0.967124  0.936110  1
  Dy  Dy15  1  0.323404  0.536429  0.436653  1
  Dy  Dy16  1  0.822747  0.040461  0.063354  1
  Dy  Dy17  1  0.677453  0.459275  0.564166  1
  Dy  Dy18  1  0.822747  0.459539  0.063354  1
  Dy  Dy19  1  0.176567  0.532876  0.936110  1
  Co  Co20  1  0.433299  0.250000  0.490670  1
  Co  Co21  1  0.062666  0.250000  0.992306  1
  Ni  Ni22  1  0.934381  0.750000  0.007579  1
  Bi  Bi23  1  0.572138  0.490636  0.827574  1
  Bi  Bi24  1  0.428312  0.508520  0.173060  1
  Bi  Bi25  1  0.070918  0.507350  0.674643  1
  Bi  Bi26  1  0.428312  0.991480  0.173060  1
  Bi  Bi27  1  0.929787  0.491318  0.325093  1
  Bi  Bi28  1  0.572138  0.009364  0.827574  1
  Bi  Bi29  1  0.929787  0.008682  0.325093  1
  Bi  Bi30  1  0.070918  0.992650  0.674643  1
  Ru  Ru31  1  0.570862  0.750000  0.511914  1
