# generated using pymatgen
data_Tb6Er3Lu7(CdIr)4
_symmetry_space_group_name_H-M   'P 1'
_cell_length_a   9.54502505
_cell_length_b   9.54293037
_cell_length_c   9.54317700
_cell_angle_alpha   59.99770561
_cell_angle_beta   60.00509517
_cell_angle_gamma   60.00645957
_symmetry_Int_Tables_number   1
_chemical_formula_structural   Tb6Er3Lu7(CdIr)4
_chemical_formula_sum   'Tb6 Er3 Lu7 Cd4 Ir4'
_cell_volume   614.70563650
_cell_formula_units_Z   1
loop_
 _symmetry_equiv_pos_site_id
 _symmetry_equiv_pos_as_xyz
  1  'x, y, z'
loop_
 _atom_site_type_symbol
 _atom_site_label
 _atom_site_symmetry_multiplicity
 _atom_site_fract_x
 _atom_site_fract_y
 _atom_site_fract_z
 _atom_site_occupancy
  Tb  Tb0  1  0.189020  0.810915  0.810933  1
  Tb  Tb1  1  0.811706  0.188608  0.188587  1
  Tb  Tb2  1  0.811703  0.188587  0.811110  1
  Tb  Tb3  1  0.189021  0.810904  0.189127  1
  Tb  Tb4  1  0.811697  0.811105  0.188600  1
  Tb  Tb5  1  0.189011  0.189094  0.810935  1
  Er  Er6  1  0.599355  0.599421  0.599387  1
  Er  Er7  1  0.599368  0.599417  0.201825  1
  Er  Er8  1  0.599360  0.201831  0.599396  1
  Lu  Lu9  1  0.203418  0.598874  0.598856  1
  Lu  Lu10  1  0.062989  0.437052  0.437036  1
  Lu  Lu11  1  0.436416  0.063341  0.063340  1
  Lu  Lu12  1  0.436411  0.063334  0.436932  1
  Lu  Lu13  1  0.063000  0.437059  0.062934  1
  Lu  Lu14  1  0.436353  0.436934  0.063350  1
  Lu  Lu15  1  0.062991  0.062915  0.437033  1
  Cd  Cd16  1  0.830329  0.830318  0.830173  1
  Cd  Cd17  1  0.830416  0.830181  0.509150  1
  Cd  Cd18  1  0.830289  0.509192  0.830279  1
  Cd  Cd19  1  0.509146  0.830227  0.830389  1
  Ir  Ir20  1  0.390687  0.391937  0.391926  1
  Ir  Ir21  1  0.390690  0.391934  0.825449  1
  Ir  Ir22  1  0.390688  0.825460  0.391927  1
  Ir  Ir23  1  0.825941  0.391365  0.391333  1
