# generated using pymatgen
data_Mn3Nb4AlCr4
_symmetry_space_group_name_H-M   'P 1'
_cell_length_a   4.85028734
_cell_length_b   4.84823828
_cell_length_c   8.15545118
_cell_angle_alpha   89.56824471
_cell_angle_beta   89.56719195
_cell_angle_gamma   60.31620164
_symmetry_Int_Tables_number   1
_chemical_formula_structural   Mn3Nb4AlCr4
_chemical_formula_sum   'Mn3 Nb4 Al1 Cr4'
_cell_volume   166.60517558
_cell_formula_units_Z   1
loop_
 _symmetry_equiv_pos_site_id
 _symmetry_equiv_pos_as_xyz
  1  'x, y, z'
loop_
 _atom_site_type_symbol
 _atom_site_label
 _atom_site_symmetry_multiplicity
 _atom_site_fract_x
 _atom_site_fract_y
 _atom_site_fract_z
 _atom_site_occupancy
  Mn  Mn0  1  0.000244  0.000280  0.504220  1
  Mn  Mn1  1  0.829586  0.346171  0.744803  1
  Mn  Mn2  1  0.346200  0.829546  0.744801  1
  Nb  Nb3  1  0.333620  0.333655  0.562760  1
  Nb  Nb4  1  0.665745  0.665590  0.441023  1
  Nb  Nb5  1  0.666096  0.666100  0.066560  1
  Nb  Nb6  1  0.334185  0.334193  0.931352  1
  Al  Al7  1  0.000846  0.001089  0.996857  1
  Cr  Cr8  1  0.828902  0.828890  0.743024  1
  Cr  Cr9  1  0.169246  0.656702  0.254686  1
  Cr  Cr10  1  0.656710  0.169221  0.254713  1
  Cr  Cr11  1  0.168619  0.168561  0.255200  1
