# generated using pymatgen
data_Y8Sc12Ga11Ge5
_symmetry_space_group_name_H-M   'P 1'
_cell_length_a   7.23354089
_cell_length_b   7.54265340
_cell_length_c   14.39483146
_cell_angle_alpha   90.01230873
_cell_angle_beta   89.95330830
_cell_angle_gamma   90.05210100
_symmetry_Int_Tables_number   1
_chemical_formula_structural   Y8Sc12Ga11Ge5
_chemical_formula_sum   'Y8 Sc12 Ga11 Ge5'
_cell_volume   785.38272197
_cell_formula_units_Z   1
loop_
 _symmetry_equiv_pos_site_id
 _symmetry_equiv_pos_as_xyz
  1  'x, y, z'
loop_
 _atom_site_type_symbol
 _atom_site_label
 _atom_site_symmetry_multiplicity
 _atom_site_fract_x
 _atom_site_fract_y
 _atom_site_fract_z
 _atom_site_occupancy
  Y  Y0  1  0.011765  0.176697  0.095076  1
  Y  Y1  1  0.988108  0.820473  0.905225  1
  Y  Y2  1  0.488095  0.678111  0.904957  1
  Y  Y3  1  0.988212  0.822553  0.595595  1
  Y  Y4  1  0.512447  0.322545  0.095313  1
  Y  Y5  1  0.011209  0.177314  0.404140  1
  Y  Y6  1  0.511461  0.322406  0.403928  1
  Y  Y7  1  0.488383  0.677660  0.595665  1
  Sc  Sc8  1  0.164456  0.504561  0.749720  1
  Sc  Sc9  1  0.836470  0.496004  0.249948  1
  Sc  Sc10  1  0.335414  0.004588  0.249932  1
  Sc  Sc11  1  0.663535  0.995716  0.749722  1
  Sc  Sc12  1  0.328394  0.172751  0.622567  1
  Sc  Sc13  1  0.671125  0.827209  0.377282  1
  Sc  Sc14  1  0.171009  0.673125  0.377433  1
  Sc  Sc15  1  0.670630  0.825936  0.122502  1
  Sc  Sc16  1  0.828336  0.326794  0.622699  1
  Sc  Sc17  1  0.328205  0.173705  0.878350  1
  Sc  Sc18  1  0.828477  0.328731  0.877868  1
  Sc  Sc19  1  0.173810  0.673040  0.121580  1
  Ga  Ga20  1  0.030000  0.118693  0.751394  1
  Ga  Ga21  1  0.968894  0.880418  0.249245  1
  Ga  Ga22  1  0.468700  0.618109  0.249371  1
  Ga  Ga23  1  0.530339  0.381010  0.750470  1
  Ga  Ga24  1  0.159118  0.463518  0.541618  1
  Ga  Ga25  1  0.840469  0.536296  0.458392  1
  Ga  Ga26  1  0.340335  0.963960  0.458271  1
  Ga  Ga27  1  0.840828  0.536415  0.042325  1
  Ga  Ga28  1  0.659323  0.036142  0.541460  1
  Ga  Ga29  1  0.158942  0.464222  0.958614  1
  Ga  Ga30  1  0.662742  0.036448  0.958096  1
  Ge  Ge31  1  0.286868  0.873310  0.750937  1
  Ge  Ge32  1  0.713449  0.126426  0.248964  1
  Ge  Ge33  1  0.213046  0.372844  0.249179  1
  Ge  Ge34  1  0.786604  0.626803  0.750607  1
  Ge  Ge35  1  0.340803  0.965465  0.041556  1
