# generated using pymatgen
data_Y2LuPaPt4
_symmetry_space_group_name_H-M   'P 1'
_cell_length_a   4.55149300
_cell_length_b   5.58475373
_cell_length_c   6.97714503
_cell_angle_alpha   89.40173737
_cell_angle_beta   90.00000000
_cell_angle_gamma   90.00000000
_symmetry_Int_Tables_number   1
_chemical_formula_structural   Y2LuPaPt4
_chemical_formula_sum   'Y2 Lu1 Pa1 Pt4'
_cell_volume   177.34215467
_cell_formula_units_Z   1
loop_
 _symmetry_equiv_pos_site_id
 _symmetry_equiv_pos_as_xyz
  1  'x, y, z'
loop_
 _atom_site_type_symbol
 _atom_site_label
 _atom_site_symmetry_multiplicity
 _atom_site_fract_x
 _atom_site_fract_y
 _atom_site_fract_z
 _atom_site_occupancy
  Y  Y0  1  0.750000  0.353111  0.813794  1
  Y  Y1  1  0.250000  0.857874  0.683766  1
  Lu  Lu2  1  0.750000  0.145854  0.320407  1
  Pa  Pa3  1  0.250000  0.645291  0.182571  1
  Pt  Pt4  1  0.250000  0.159843  0.059950  1
  Pt  Pt5  1  0.750000  0.833909  0.968062  1
  Pt  Pt6  1  0.750000  0.658943  0.442373  1
  Pt  Pt7  1  0.250000  0.345175  0.529079  1
