# generated using pymatgen
data_Dy16MgCo4Hg3
_symmetry_space_group_name_H-M   'P 1'
_cell_length_a   9.49442727
_cell_length_b   9.49724029
_cell_length_c   9.49724000
_cell_angle_alpha   60.00000100
_cell_angle_beta   59.99019961
_cell_angle_gamma   59.99019126
_symmetry_Int_Tables_number   1
_chemical_formula_structural   Dy16MgCo4Hg3
_chemical_formula_sum   'Dy16 Mg1 Co4 Hg3'
_cell_volume   605.45830379
_cell_formula_units_Z   1
loop_
 _symmetry_equiv_pos_site_id
 _symmetry_equiv_pos_as_xyz
  1  'x, y, z'
loop_
 _atom_site_type_symbol
 _atom_site_label
 _atom_site_symmetry_multiplicity
 _atom_site_fract_x
 _atom_site_fract_y
 _atom_site_fract_z
 _atom_site_occupancy
  Dy  Dy0  1  0.810622  0.188928  0.188928  1
  Dy  Dy1  1  0.185169  0.813871  0.813871  1
  Dy  Dy2  1  0.185169  0.813871  0.187090  1
  Dy  Dy3  1  0.810622  0.188928  0.811522  1
  Dy  Dy4  1  0.185169  0.187090  0.813871  1
  Dy  Dy5  1  0.810622  0.811522  0.188928  1
  Dy  Dy6  1  0.936571  0.562626  0.562626  1
  Dy  Dy7  1  0.561633  0.937553  0.937553  1
  Dy  Dy8  1  0.561633  0.937553  0.563261  1
  Dy  Dy9  1  0.936571  0.562626  0.938176  1
  Dy  Dy10  1  0.561633  0.563261  0.937553  1
  Dy  Dy11  1  0.936571  0.938176  0.562626  1
  Dy  Dy12  1  0.347342  0.345564  0.345564  1
  Dy  Dy13  1  0.347342  0.345564  0.961529  1
  Dy  Dy14  1  0.347342  0.961529  0.345564  1
  Dy  Dy15  1  0.953688  0.348770  0.348770  1
  Mg  Mg16  1  0.284955  0.571682  0.571682  1
  Co  Co17  1  0.139127  0.141947  0.141947  1
  Co  Co18  1  0.139127  0.141947  0.576979  1
  Co  Co19  1  0.139127  0.576979  0.141947  1
  Co  Co20  1  0.575860  0.141380  0.141380  1
  Hg  Hg21  1  0.581368  0.585364  0.585364  1
  Hg  Hg22  1  0.581368  0.585364  0.247904  1
  Hg  Hg23  1  0.581368  0.247904  0.585364  1
