# generated using pymatgen
data_TbHf(NiP)3
_symmetry_space_group_name_H-M   'P 1'
_cell_length_a   3.74983800
_cell_length_b   10.15113600
_cell_length_c   12.27723200
_cell_angle_alpha   90.00000000
_cell_angle_beta   90.00000000
_cell_angle_gamma   90.00000000
_symmetry_Int_Tables_number   1
_chemical_formula_structural   TbHf(NiP)3
_chemical_formula_sum   'Tb4 Hf4 Ni12 P12'
_cell_volume   467.33425430
_cell_formula_units_Z   4
loop_
 _symmetry_equiv_pos_site_id
 _symmetry_equiv_pos_as_xyz
  1  'x, y, z'
loop_
 _atom_site_type_symbol
 _atom_site_label
 _atom_site_symmetry_multiplicity
 _atom_site_fract_x
 _atom_site_fract_y
 _atom_site_fract_z
 _atom_site_occupancy
  Tb  Tb0  1  0.250000  0.071125  0.207410  1
  Tb  Tb1  1  0.750000  0.928875  0.792590  1
  Tb  Tb2  1  0.750000  0.571125  0.292590  1
  Tb  Tb3  1  0.250000  0.428875  0.707410  1
  Hf  Hf4  1  0.250000  0.159763  0.497443  1
  Hf  Hf5  1  0.750000  0.840237  0.502557  1
  Hf  Hf6  1  0.750000  0.659763  0.002557  1
  Hf  Hf7  1  0.250000  0.340237  0.997443  1
  Ni  Ni8  1  0.250000  0.728590  0.664298  1
  Ni  Ni9  1  0.750000  0.271410  0.335702  1
  Ni  Ni10  1  0.750000  0.228590  0.835702  1
  Ni  Ni11  1  0.250000  0.771410  0.164298  1
  Ni  Ni12  1  0.250000  0.365657  0.217818  1
  Ni  Ni13  1  0.750000  0.634343  0.782182  1
  Ni  Ni14  1  0.750000  0.865657  0.282182  1
  Ni  Ni15  1  0.250000  0.134343  0.717818  1
  Ni  Ni16  1  0.250000  0.599318  0.483818  1
  Ni  Ni17  1  0.750000  0.400682  0.516182  1
  Ni  Ni18  1  0.750000  0.099318  0.016182  1
  Ni  Ni19  1  0.250000  0.900682  0.983818  1
  P  P20  1  0.250000  0.944909  0.621270  1
  P  P21  1  0.750000  0.055091  0.378730  1
  P  P22  1  0.750000  0.444909  0.878730  1
  P  P23  1  0.250000  0.555091  0.121270  1
  P  P24  1  0.250000  0.393503  0.402759  1
  P  P25  1  0.750000  0.606497  0.597241  1
  P  P26  1  0.750000  0.893503  0.097241  1
  P  P27  1  0.250000  0.106497  0.902759  1
  P  P28  1  0.250000  0.770989  0.355479  1
  P  P29  1  0.750000  0.229011  0.644521  1
  P  P30  1  0.750000  0.270989  0.144521  1
  P  P31  1  0.250000  0.729011  0.855479  1
