# generated using pymatgen
data_Nd6Cd23Pb
_symmetry_space_group_name_H-M   'P 1'
_cell_length_a   10.13871610
_cell_length_b   10.13880849
_cell_length_c   10.13850099
_cell_angle_alpha   59.92672195
_cell_angle_beta   59.92704226
_cell_angle_gamma   59.92888335
_symmetry_Int_Tables_number   1
_chemical_formula_structural   Nd6Cd23Pb
_chemical_formula_sum   'Nd6 Cd23 Pb1'
_cell_volume   735.72299593
_cell_formula_units_Z   1
loop_
 _symmetry_equiv_pos_site_id
 _symmetry_equiv_pos_as_xyz
  1  'x, y, z'
loop_
 _atom_site_type_symbol
 _atom_site_label
 _atom_site_symmetry_multiplicity
 _atom_site_fract_x
 _atom_site_fract_y
 _atom_site_fract_z
 _atom_site_occupancy
  Nd  Nd0  1  0.779844  0.779842  0.220757  1
  Nd  Nd1  1  0.220156  0.779242  0.220156  1
  Nd  Nd2  1  0.779246  0.220154  0.220154  1
  Nd  Nd3  1  0.220155  0.220157  0.779242  1
  Nd  Nd4  1  0.779844  0.220758  0.779845  1
  Nd  Nd5  1  0.220755  0.779845  0.779846  1
  Cd  Cd6  1  0.839917  0.839915  0.479406  1
  Cd  Cd7  1  0.839914  0.479407  0.839916  1
  Cd  Cd8  1  0.479405  0.839915  0.839918  1
  Cd  Cd9  1  0.840416  0.840418  0.840418  1
  Cd  Cd10  1  0.160083  0.160085  0.520594  1
  Cd  Cd11  1  0.160086  0.520593  0.160084  1
  Cd  Cd12  1  0.520595  0.160085  0.160082  1
  Cd  Cd13  1  0.159584  0.159582  0.159581  1
  Cd  Cd14  1  0.625419  0.625417  0.125420  1
  Cd  Cd15  1  0.625413  0.125427  0.625418  1
  Cd  Cd16  1  0.125425  0.625415  0.625420  1
  Cd  Cd17  1  0.625404  0.625407  0.625409  1
  Cd  Cd18  1  0.374581  0.374583  0.874579  1
  Cd  Cd19  1  0.374587  0.874573  0.374582  1
  Cd  Cd20  1  0.874575  0.374586  0.374580  1
  Cd  Cd21  1  0.374596  0.374594  0.374591  1
  Cd  Cd22  1  0.000000  0.000000  0.500000  1
  Cd  Cd23  1  0.500000  0.000000  0.500000  1
  Cd  Cd24  1  0.000000  0.500000  0.500000  1
  Cd  Cd25  1  0.500000  0.500000  0.000000  1
  Cd  Cd26  1  0.000000  0.500000  0.000000  1
  Cd  Cd27  1  0.500000  0.000000  0.000000  1
  Cd  Cd28  1  0.500000  0.500000  0.500000  1
  Pb  Pb29  1  0.000000  0.999999  0.000002  1
