# generated using pymatgen
data_Dy2Ge(AsRh2)6
_symmetry_space_group_name_H-M   'P 1'
_cell_length_a   9.97935900
_cell_length_b   9.97935976
_cell_length_c   3.93624100
_cell_angle_alpha   90.00000000
_cell_angle_beta   90.00000000
_cell_angle_gamma   120.00000079
_symmetry_Int_Tables_number   1
_chemical_formula_structural   Dy2Ge(AsRh2)6
_chemical_formula_sum   'Dy2 Ge1 As6 Rh12'
_cell_volume   339.48268999
_cell_formula_units_Z   1
loop_
 _symmetry_equiv_pos_site_id
 _symmetry_equiv_pos_as_xyz
  1  'x, y, z'
loop_
 _atom_site_type_symbol
 _atom_site_label
 _atom_site_symmetry_multiplicity
 _atom_site_fract_x
 _atom_site_fract_y
 _atom_site_fract_z
 _atom_site_occupancy
  Dy  Dy0  1  0.333333  0.666667  0.749328  1
  Dy  Dy1  1  0.666667  0.333333  0.251346  1
  Ge  Ge2  1  0.000000  0.000000  0.582401  1
  As  As3  1  0.881673  0.594884  0.751242  1
  As  As4  1  0.405116  0.286789  0.751242  1
  As  As5  1  0.713211  0.118327  0.751242  1
  As  As6  1  0.115826  0.403670  0.250788  1
  As  As7  1  0.596330  0.712155  0.250788  1
  As  As8  1  0.287845  0.884174  0.250788  1
  Rh  Rh9  1  0.618322  0.552122  0.751462  1
  Rh  Rh10  1  0.447878  0.066200  0.751462  1
  Rh  Rh11  1  0.933800  0.381678  0.751462  1
  Rh  Rh12  1  0.382971  0.448312  0.250684  1
  Rh  Rh13  1  0.551688  0.934659  0.250684  1
  Rh  Rh14  1  0.065341  0.617029  0.250684  1
  Rh  Rh15  1  0.119135  0.846120  0.752156  1
  Rh  Rh16  1  0.153880  0.273015  0.752156  1
  Rh  Rh17  1  0.726985  0.880865  0.752156  1
  Rh  Rh18  1  0.883694  0.145474  0.250736  1
  Rh  Rh19  1  0.854526  0.738221  0.250736  1
  Rh  Rh20  1  0.261779  0.116306  0.250736  1
