# generated using pymatgen
data_NbNi4Pd
_symmetry_space_group_name_H-M   'P 1'
_cell_length_a   4.73029556
_cell_length_b   4.73029534
_cell_length_c   4.73029600
_cell_angle_alpha   59.99999540
_cell_angle_beta   59.99999695
_cell_angle_gamma   60.00000449
_symmetry_Int_Tables_number   1
_chemical_formula_structural   NbNi4Pd
_chemical_formula_sum   'Nb1 Ni4 Pd1'
_cell_volume   74.84276858
_cell_formula_units_Z   1
loop_
 _symmetry_equiv_pos_site_id
 _symmetry_equiv_pos_as_xyz
  1  'x, y, z'
loop_
 _atom_site_type_symbol
 _atom_site_label
 _atom_site_symmetry_multiplicity
 _atom_site_fract_x
 _atom_site_fract_y
 _atom_site_fract_z
 _atom_site_occupancy
  Nb  Nb0  1  0.000000  0.000000  0.000000  1
  Ni  Ni1  1  0.375183  0.375183  0.375183  1
  Ni  Ni2  1  0.874452  0.375183  0.375183  1
  Ni  Ni3  1  0.375183  0.874452  0.375183  1
  Ni  Ni4  1  0.375183  0.375183  0.874452  1
  Pd  Pd5  1  0.750001  0.750001  0.750001  1
