# generated using pymatgen
data_U8Al9Ga7
_symmetry_space_group_name_H-M   'P 1'
_cell_length_a   5.60997200
_cell_length_b   5.60886460
_cell_length_c   16.76366478
_cell_angle_alpha   90.04563116
_cell_angle_beta   90.00000000
_cell_angle_gamma   120.00653139
_symmetry_Int_Tables_number   1
_chemical_formula_structural   U8Al9Ga7
_chemical_formula_sum   'U8 Al9 Ga7'
_cell_volume   456.77936773
_cell_formula_units_Z   1
loop_
 _symmetry_equiv_pos_site_id
 _symmetry_equiv_pos_as_xyz
  1  'x, y, z'
loop_
 _atom_site_type_symbol
 _atom_site_label
 _atom_site_symmetry_multiplicity
 _atom_site_fract_x
 _atom_site_fract_y
 _atom_site_fract_z
 _atom_site_occupancy
  U  U0  1  0.333196  0.666392  0.829325  1
  U  U1  1  0.000068  0.000135  0.075783  1
  U  U2  1  0.999932  0.999865  0.924217  1
  U  U3  1  0.666804  0.333608  0.170675  1
  U  U4  1  0.000465  0.000929  0.576639  1
  U  U5  1  0.667325  0.334650  0.329283  1
  U  U6  1  0.999535  0.999071  0.423361  1
  U  U7  1  0.332675  0.665350  0.670717  1
  Al  Al8  1  0.500000  0.500000  0.500000  1
  Al  Al9  1  0.667497  0.334992  0.628750  1
  Al  Al10  1  0.500000  0.500000  0.000000  1
  Al  Al11  1  0.000000  0.500000  0.500000  1
  Al  Al12  1  0.332503  0.665008  0.371250  1
  Al  Al13  1  0.666515  0.333029  0.871348  1
  Al  Al14  1  0.500000  0.000000  0.000000  1
  Al  Al15  1  0.333485  0.666971  0.128652  1
  Al  Al16  1  0.000000  0.500000  0.000000  1
  Ga  Ga17  1  0.843039  0.156099  0.749928  1
  Ga  Ga18  1  0.500000  0.000000  0.500000  1
  Ga  Ga19  1  0.313060  0.156099  0.749928  1
  Ga  Ga20  1  0.156961  0.843901  0.250072  1
  Ga  Ga21  1  0.843773  0.687547  0.750292  1
  Ga  Ga22  1  0.156227  0.312453  0.249708  1
  Ga  Ga23  1  0.686940  0.843901  0.250072  1
