# generated using pymatgen
data_Dy15Er2Tm3(CoBi2)4
_symmetry_space_group_name_H-M   'P 1'
_cell_length_a   7.98440983
_cell_length_b   8.87222899
_cell_length_c   12.42195568
_cell_angle_alpha   89.91611242
_cell_angle_beta   90.03924146
_cell_angle_gamma   90.01059872
_symmetry_Int_Tables_number   1
_chemical_formula_structural   Dy15Er2Tm3(CoBi2)4
_chemical_formula_sum   'Dy15 Er2 Tm3 Co4 Bi8'
_cell_volume   879.96411843
_cell_formula_units_Z   1
loop_
 _symmetry_equiv_pos_site_id
 _symmetry_equiv_pos_as_xyz
  1  'x, y, z'
loop_
 _atom_site_type_symbol
 _atom_site_label
 _atom_site_symmetry_multiplicity
 _atom_site_fract_x
 _atom_site_fract_y
 _atom_site_fract_z
 _atom_site_occupancy
  Dy  Dy0  1  0.848397  0.750477  0.801698  1
  Dy  Dy1  1  0.151841  0.249571  0.198435  1
  Dy  Dy2  1  0.348579  0.249680  0.698081  1
  Dy  Dy3  1  0.651392  0.750165  0.301918  1
  Dy  Dy4  1  0.380505  0.750252  0.687710  1
  Dy  Dy5  1  0.618293  0.249525  0.312311  1
  Dy  Dy6  1  0.881191  0.249192  0.811803  1
  Dy  Dy7  1  0.119062  0.751059  0.188305  1
  Dy  Dy8  1  0.951142  0.750851  0.502531  1
  Dy  Dy9  1  0.051289  0.249275  0.497433  1
  Dy  Dy10  1  0.450012  0.248955  0.997518  1
  Dy  Dy11  1  0.549407  0.750968  0.002484  1
  Dy  Dy12  1  0.676120  0.464906  0.562847  1
  Dy  Dy13  1  0.823794  0.464782  0.063127  1
  Dy  Dy14  1  0.176171  0.535358  0.936981  1
  Er  Er15  1  0.325797  0.535243  0.436912  1
  Er  Er16  1  0.826024  0.036216  0.063144  1
  Tm  Tm17  1  0.672781  0.035541  0.562706  1
  Tm  Tm18  1  0.327142  0.964008  0.436796  1
  Tm  Tm19  1  0.172913  0.963939  0.936969  1
  Co  Co20  1  0.558906  0.750826  0.507039  1
  Co  Co21  1  0.438872  0.248908  0.492524  1
  Co  Co22  1  0.060923  0.248768  0.992468  1
  Co  Co23  1  0.939702  0.751339  0.007546  1
  Bi  Bi24  1  0.570605  0.492045  0.826283  1
  Bi  Bi25  1  0.429182  0.508130  0.173866  1
  Bi  Bi26  1  0.070174  0.507921  0.673767  1
  Bi  Bi27  1  0.430541  0.992099  0.173970  1
  Bi  Bi28  1  0.930492  0.492172  0.326638  1
  Bi  Bi29  1  0.569064  0.007656  0.825928  1
  Bi  Bi30  1  0.930596  0.007974  0.326473  1
  Bi  Bi31  1  0.069094  0.992198  0.673785  1
