# generated using pymatgen
data_TmLuB8IrRu
_symmetry_space_group_name_H-M   'P 1'
_cell_length_a   3.53456100
_cell_length_b   5.92849212
_cell_length_c   11.48901177
_cell_angle_alpha   90.08997199
_cell_angle_beta   90.00000000
_cell_angle_gamma   90.00000000
_symmetry_Int_Tables_number   1
_chemical_formula_structural   TmLuB8IrRu
_chemical_formula_sum   'Tm2 Lu2 B16 Ir2 Ru2'
_cell_volume   240.74754502
_cell_formula_units_Z   2
loop_
 _symmetry_equiv_pos_site_id
 _symmetry_equiv_pos_as_xyz
  1  'x, y, z'
loop_
 _atom_site_type_symbol
 _atom_site_label
 _atom_site_symmetry_multiplicity
 _atom_site_fract_x
 _atom_site_fract_y
 _atom_site_fract_z
 _atom_site_occupancy
  Tm  Tm0  1  0.500000  0.631876  0.348639  1
  Tm  Tm1  1  0.500000  0.368124  0.651361  1
  Lu  Lu2  1  0.500000  0.130076  0.147117  1
  Lu  Lu3  1  0.500000  0.869924  0.852883  1
  B  B4  1  0.000000  0.475305  0.191873  1
  B  B5  1  0.000000  0.524695  0.808127  1
  B  B6  1  0.000000  0.976890  0.305671  1
  B  B7  1  0.000000  0.023110  0.694329  1
  B  B8  1  0.000000  0.291263  0.311021  1
  B  B9  1  0.000000  0.708737  0.688979  1
  B  B10  1  0.000000  0.791793  0.186004  1
  B  B11  1  0.000000  0.208207  0.813996  1
  B  B12  1  0.000000  0.363994  0.471202  1
  B  B13  1  0.000000  0.636006  0.528798  1
  B  B14  1  0.000000  0.865347  0.030399  1
  B  B15  1  0.000000  0.134653  0.969601  1
  B  B16  1  0.000000  0.386892  0.046785  1
  B  B17  1  0.000000  0.613108  0.953215  1
  B  B18  1  0.000000  0.887248  0.451961  1
  B  B19  1  0.000000  0.112752  0.548039  1
  Ir  Ir20  1  0.500000  0.145899  0.403145  1
  Ir  Ir21  1  0.500000  0.854101  0.596855  1
  Ru  Ru22  1  0.500000  0.641539  0.093344  1
  Ru  Ru23  1  0.500000  0.358461  0.906656  1
