# generated using pymatgen
data_Dy4Tm2CoTe2
_symmetry_space_group_name_H-M   'P 1'
_cell_length_a   8.21556600
_cell_length_b   8.39104534
_cell_length_c   3.90898300
_cell_angle_alpha   90.00000000
_cell_angle_beta   90.00000000
_cell_angle_gamma   119.31059955
_symmetry_Int_Tables_number   1
_chemical_formula_structural   Dy4Tm2CoTe2
_chemical_formula_sum   'Dy4 Tm2 Co1 Te2'
_cell_volume   234.97584837
_cell_formula_units_Z   1
loop_
 _symmetry_equiv_pos_site_id
 _symmetry_equiv_pos_as_xyz
  1  'x, y, z'
loop_
 _atom_site_type_symbol
 _atom_site_label
 _atom_site_symmetry_multiplicity
 _atom_site_fract_x
 _atom_site_fract_y
 _atom_site_fract_z
 _atom_site_occupancy
  Dy  Dy0  1  0.000461  0.404187  0.500000  1
  Dy  Dy1  1  0.596274  0.595813  0.500000  1
  Dy  Dy2  1  0.388664  0.000000  0.500000  1
  Dy  Dy3  1  0.764916  0.000000  0.000000  1
  Tm  Tm4  1  0.992005  0.762201  0.000000  1
  Tm  Tm5  1  0.229804  0.237799  0.000000  1
  Co  Co6  1  0.031370  0.000000  0.500000  1
  Te  Te7  1  0.332030  0.667553  0.000000  1
  Te  Te8  1  0.664477  0.332447  0.000000  1
