# generated using pymatgen
data_Y4Er7TmNi4
_symmetry_space_group_name_H-M   'P 1'
_cell_length_a   6.31467546
_cell_length_b   6.79598085
_cell_length_c   9.46777886
_cell_angle_alpha   89.96615607
_cell_angle_beta   90.09860757
_cell_angle_gamma   90.00200250
_symmetry_Int_Tables_number   1
_chemical_formula_structural   Y4Er7TmNi4
_chemical_formula_sum   'Y4 Er7 Tm1 Ni4'
_cell_volume   406.30350455
_cell_formula_units_Z   1
loop_
 _symmetry_equiv_pos_site_id
 _symmetry_equiv_pos_as_xyz
  1  'x, y, z'
loop_
 _atom_site_type_symbol
 _atom_site_label
 _atom_site_symmetry_multiplicity
 _atom_site_fract_x
 _atom_site_fract_y
 _atom_site_fract_z
 _atom_site_occupancy
  Y  Y0  1  0.862688  0.529605  0.249386  1
  Y  Y1  1  0.636791  0.029530  0.249330  1
  Y  Y2  1  0.137421  0.470781  0.750008  1
  Y  Y3  1  0.362989  0.970831  0.750299  1
  Er  Er4  1  0.179563  0.177629  0.434909  1
  Er  Er5  1  0.679399  0.322374  0.564629  1
  Er  Er6  1  0.820482  0.822159  0.933583  1
  Er  Er7  1  0.680448  0.322285  0.933088  1
  Er  Er8  1  0.820132  0.822509  0.564919  1
  Er  Er9  1  0.319789  0.678145  0.434685  1
  Er  Er10  1  0.180058  0.177606  0.066522  1
  Tm  Tm11  1  0.320852  0.676733  0.066815  1
  Ni  Ni12  1  0.057393  0.892149  0.250966  1
  Ni  Ni13  1  0.441659  0.392289  0.252884  1
  Ni  Ni14  1  0.941982  0.107693  0.749359  1
  Ni  Ni15  1  0.558354  0.607684  0.748615  1
