# generated using pymatgen
data_DyTm3Fe16(MoP3)4
_symmetry_space_group_name_H-M   'P 1'
_cell_length_a   3.70184100
_cell_length_b   10.38737467
_cell_length_c   12.00491181
_cell_angle_alpha   90.06391688
_cell_angle_beta   90.00000000
_cell_angle_gamma   90.00000000
_symmetry_Int_Tables_number   1
_chemical_formula_structural   DyTm3Fe16(MoP3)4
_chemical_formula_sum   'Dy1 Tm3 Fe16 Mo4 P12'
_cell_volume   461.61749677
_cell_formula_units_Z   1
loop_
 _symmetry_equiv_pos_site_id
 _symmetry_equiv_pos_as_xyz
  1  'x, y, z'
loop_
 _atom_site_type_symbol
 _atom_site_label
 _atom_site_symmetry_multiplicity
 _atom_site_fract_x
 _atom_site_fract_y
 _atom_site_fract_z
 _atom_site_occupancy
  Dy  Dy0  1  0.250000  0.583080  0.708640  1
  Tm  Tm1  1  0.250000  0.917158  0.208576  1
  Tm  Tm2  1  0.750000  0.417181  0.291476  1
  Tm  Tm3  1  0.750000  0.082679  0.791180  1
  Fe  Fe4  1  0.250000  0.410238  0.492103  1
  Fe  Fe5  1  0.250000  0.089106  0.992562  1
  Fe  Fe6  1  0.750000  0.589392  0.506596  1
  Fe  Fe7  1  0.750000  0.910551  0.007438  1
  Fe  Fe8  1  0.250000  0.217163  0.177406  1
  Fe  Fe9  1  0.250000  0.282168  0.677463  1
  Fe  Fe10  1  0.750000  0.783182  0.823146  1
  Fe  Fe11  1  0.750000  0.717337  0.322463  1
  Fe  Fe12  1  0.250000  0.878528  0.700561  1
  Fe  Fe13  1  0.250000  0.623019  0.201252  1
  Fe  Fe14  1  0.750000  0.122839  0.298856  1
  Fe  Fe15  1  0.750000  0.376262  0.799649  1
  Fe  Fe16  1  0.250000  0.462973  0.933741  1
  Fe  Fe17  1  0.250000  0.036642  0.432422  1
  Fe  Fe18  1  0.750000  0.536438  0.067842  1
  Fe  Fe19  1  0.750000  0.964098  0.566547  1
  Mo  Mo20  1  0.250000  0.706925  0.988297  1
  Mo  Mo21  1  0.250000  0.793372  0.487790  1
  Mo  Mo22  1  0.750000  0.292826  0.012166  1
  Mo  Mo23  1  0.750000  0.206621  0.511472  1
  P  P24  1  0.250000  0.424849  0.114411  1
  P  P25  1  0.250000  0.075246  0.613604  1
  P  P26  1  0.750000  0.574623  0.887311  1
  P  P27  1  0.750000  0.925118  0.385747  1
  P  P28  1  0.250000  0.265220  0.866319  1
  P  P29  1  0.250000  0.234695  0.366141  1
  P  P30  1  0.750000  0.734787  0.133737  1
  P  P31  1  0.750000  0.767367  0.633784  1
  P  P32  1  0.250000  0.593710  0.387562  1
  P  P33  1  0.250000  0.905837  0.887151  1
  P  P34  1  0.750000  0.404978  0.612130  1
  P  P35  1  0.750000  0.093792  0.112460  1
