# generated using pymatgen
data_HoTm5Os2
_symmetry_space_group_name_H-M   'P 1'
_cell_length_a   7.35620739
_cell_length_b   8.90469800
_cell_length_c   6.22691819
_cell_angle_alpha   90.00000000
_cell_angle_beta   90.16119922
_cell_angle_gamma   90.00000000
_symmetry_Int_Tables_number   1
_chemical_formula_structural   HoTm5Os2
_chemical_formula_sum   'Ho2 Tm10 Os4'
_cell_volume   407.89144834
_cell_formula_units_Z   2
loop_
 _symmetry_equiv_pos_site_id
 _symmetry_equiv_pos_as_xyz
  1  'x, y, z'
loop_
 _atom_site_type_symbol
 _atom_site_label
 _atom_site_symmetry_multiplicity
 _atom_site_fract_x
 _atom_site_fract_y
 _atom_site_fract_z
 _atom_site_occupancy
  Ho  Ho0  1  0.039302  0.250000  0.628580  1
  Ho  Ho1  1  0.960698  0.750000  0.371420  1
  Tm  Tm2  1  0.460018  0.750000  0.129215  1
  Tm  Tm3  1  0.539982  0.250000  0.870785  1
  Tm  Tm4  1  0.175834  0.062682  0.164545  1
  Tm  Tm5  1  0.824166  0.937318  0.835455  1
  Tm  Tm6  1  0.327109  0.937363  0.667520  1
  Tm  Tm7  1  0.824166  0.562682  0.835455  1
  Tm  Tm8  1  0.672891  0.062637  0.332480  1
  Tm  Tm9  1  0.175834  0.437318  0.164545  1
  Tm  Tm10  1  0.672891  0.437363  0.332480  1
  Tm  Tm11  1  0.327109  0.562637  0.667520  1
  Os  Os12  1  0.383248  0.250000  0.460983  1
  Os  Os13  1  0.616752  0.750000  0.539017  1
  Os  Os14  1  0.118438  0.750000  0.959245  1
  Os  Os15  1  0.881562  0.250000  0.040755  1
