# generated using pymatgen
data_Th4ScCdGa4
_symmetry_space_group_name_H-M   'P 1'
_cell_length_a   7.55342700
_cell_length_b   7.55342700
_cell_length_c   4.43868600
_cell_angle_alpha   90.00000000
_cell_angle_beta   90.00000000
_cell_angle_gamma   90.00000000
_symmetry_Int_Tables_number   1
_chemical_formula_structural   Th4ScCdGa4
_chemical_formula_sum   'Th4 Sc1 Cd1 Ga4'
_cell_volume   253.24594264
_cell_formula_units_Z   1
loop_
 _symmetry_equiv_pos_site_id
 _symmetry_equiv_pos_as_xyz
  1  'x, y, z'
loop_
 _atom_site_type_symbol
 _atom_site_label
 _atom_site_symmetry_multiplicity
 _atom_site_fract_x
 _atom_site_fract_y
 _atom_site_fract_z
 _atom_site_occupancy
  Th  Th0  1  0.671154  0.178368  0.500000  1
  Th  Th1  1  0.178368  0.328846  0.500000  1
  Th  Th2  1  0.821632  0.671154  0.500000  1
  Th  Th3  1  0.328846  0.821632  0.500000  1
  Sc  Sc4  1  0.000000  0.000000  0.000000  1
  Cd  Cd5  1  0.500000  0.500000  0.000000  1
  Ga  Ga6  1  0.881026  0.370694  0.000000  1
  Ga  Ga7  1  0.370694  0.118974  0.000000  1
  Ga  Ga8  1  0.629306  0.881026  0.000000  1
  Ga  Ga9  1  0.118974  0.629306  0.000000  1
