# generated using pymatgen
data_Ho2ScPa(Al3Ir)6
_symmetry_space_group_name_H-M   'P 1'
_cell_length_a   7.55801103
_cell_length_b   7.54547427
_cell_length_c   9.38003900
_cell_angle_alpha   90.00000000
_cell_angle_beta   90.00000000
_cell_angle_gamma   119.59779286
_symmetry_Int_Tables_number   1
_chemical_formula_structural   Ho2ScPa(Al3Ir)6
_chemical_formula_sum   'Ho2 Sc1 Pa1 Al18 Ir6'
_cell_volume   465.13097789
_cell_formula_units_Z   1
loop_
 _symmetry_equiv_pos_site_id
 _symmetry_equiv_pos_as_xyz
  1  'x, y, z'
loop_
 _atom_site_type_symbol
 _atom_site_label
 _atom_site_symmetry_multiplicity
 _atom_site_fract_x
 _atom_site_fract_y
 _atom_site_fract_z
 _atom_site_occupancy
  Ho  Ho0  1  0.673349  0.995200  0.250000  1
  Ho  Ho1  1  0.328859  0.003933  0.750000  1
  Sc  Sc2  1  0.004501  0.328449  0.750000  1
  Pa  Pa3  1  0.995690  0.672025  0.250000  1
  Al  Al4  1  0.132458  0.132834  0.250000  1
  Al  Al5  1  0.874578  0.877190  0.750000  1
  Al  Al6  1  0.000792  0.332290  0.071134  1
  Al  Al7  1  0.999305  0.661324  0.917756  1
  Al  Al8  1  0.999305  0.661324  0.582244  1
  Al  Al9  1  0.339397  0.004454  0.425214  1
  Al  Al10  1  0.000792  0.332290  0.428866  1
  Al  Al11  1  0.668012  0.002976  0.578911  1
  Al  Al12  1  0.668012  0.002976  0.921089  1
  Al  Al13  1  0.339397  0.004454  0.074786  1
  Al  Al14  1  0.329645  0.331976  0.559102  1
  Al  Al15  1  0.662589  0.665498  0.450501  1
  Al  Al16  1  0.662589  0.665498  0.049499  1
  Al  Al17  1  0.329645  0.331976  0.940898  1
  Al  Al18  1  0.339135  0.546992  0.250000  1
  Al  Al19  1  0.660326  0.448439  0.750000  1
  Al  Al20  1  0.546913  0.342397  0.250000  1
  Al  Al21  1  0.446593  0.658319  0.750000  1
  Ir  Ir22  1  0.673749  0.329594  0.001732  1
  Ir  Ir23  1  0.325813  0.672270  0.001762  1
  Ir  Ir24  1  0.325813  0.672270  0.498238  1
  Ir  Ir25  1  0.673749  0.329594  0.498268  1
  Ir  Ir26  1  0.999499  0.996729  0.002896  1
  Ir  Ir27  1  0.999499  0.996729  0.497104  1
