# generated using pymatgen
data_Er6Al24CuRu6Au
_symmetry_space_group_name_H-M   'P 1'
_cell_length_a   8.82192212
_cell_length_b   8.82191992
_cell_length_c   9.45677462
_cell_angle_alpha   90.19098219
_cell_angle_beta   89.80901751
_cell_angle_gamma   119.61478493
_symmetry_Int_Tables_number   1
_chemical_formula_structural   Er6Al24CuRu6Au
_chemical_formula_sum   'Er6 Al24 Cu1 Ru6 Au1'
_cell_volume   639.83723657
_cell_formula_units_Z   1
loop_
 _symmetry_equiv_pos_site_id
 _symmetry_equiv_pos_as_xyz
  1  'x, y, z'
loop_
 _atom_site_type_symbol
 _atom_site_label
 _atom_site_symmetry_multiplicity
 _atom_site_fract_x
 _atom_site_fract_y
 _atom_site_fract_z
 _atom_site_occupancy
  Er  Er0  1  0.188097  0.385104  0.250513  1
  Er  Er1  1  0.811903  0.614896  0.749487  1
  Er  Er2  1  0.614896  0.811903  0.250513  1
  Er  Er3  1  0.385104  0.188097  0.749487  1
  Er  Er4  1  0.194392  0.805608  0.251156  1
  Er  Er5  1  0.805608  0.194392  0.748844  1
  Al  Al6  1  0.328479  0.671521  0.022799  1
  Al  Al7  1  0.671521  0.328479  0.977201  1
  Al  Al8  1  0.667679  0.332321  0.522390  1
  Al  Al9  1  0.332321  0.667679  0.477610  1
  Al  Al10  1  0.156529  0.323413  0.578286  1
  Al  Al11  1  0.843471  0.676587  0.421714  1
  Al  Al12  1  0.676587  0.843471  0.578286  1
  Al  Al13  1  0.847476  0.678125  0.079223  1
  Al  Al14  1  0.323413  0.156529  0.421714  1
  Al  Al15  1  0.152524  0.321875  0.920777  1
  Al  Al16  1  0.163693  0.836307  0.577515  1
  Al  Al17  1  0.321875  0.152524  0.079223  1
  Al  Al18  1  0.836307  0.163693  0.422485  1
  Al  Al19  1  0.678125  0.847476  0.920777  1
  Al  Al20  1  0.836602  0.163398  0.077831  1
  Al  Al21  1  0.163398  0.836602  0.922169  1
  Al  Al22  1  0.559444  0.121151  0.250131  1
  Al  Al23  1  0.440556  0.878849  0.749869  1
  Al  Al24  1  0.878849  0.440556  0.250131  1
  Al  Al25  1  0.121151  0.559444  0.749869  1
  Al  Al26  1  0.562221  0.437779  0.256701  1
  Al  Al27  1  0.437779  0.562221  0.743299  1
  Al  Al28  1  0.997957  0.002043  0.250125  1
  Al  Al29  1  0.002043  0.997957  0.749875  1
  Cu  Cu30  1  0.500000  0.500000  0.500000  1
  Ru  Ru31  1  0.500000  0.000000  0.000000  1
  Ru  Ru32  1  0.000000  0.500000  0.000000  1
  Ru  Ru33  1  0.500000  0.000000  0.500000  1
  Ru  Ru34  1  0.000000  0.500000  0.500000  1
  Ru  Ru35  1  0.000000  0.000000  0.000000  1
  Ru  Ru36  1  0.000000  0.000000  0.500000  1
  Au  Au37  1  0.500000  0.500000  0.000000  1
