# generated using pymatgen
data_TbY7(Er3Pb4)4
_symmetry_space_group_name_H-M   'P 1'
_cell_length_a   8.20823222
_cell_length_b   8.28692711
_cell_length_c   15.64140200
_cell_angle_alpha   90.00850421
_cell_angle_beta   89.98663974
_cell_angle_gamma   90.00353503
_symmetry_Int_Tables_number   1
_chemical_formula_structural   TbY7(Er3Pb4)4
_chemical_formula_sum   'Tb1 Y7 Er12 Pb16'
_cell_volume   1063.94410862
_cell_formula_units_Z   1
loop_
 _symmetry_equiv_pos_site_id
 _symmetry_equiv_pos_as_xyz
  1  'x, y, z'
loop_
 _atom_site_type_symbol
 _atom_site_label
 _atom_site_symmetry_multiplicity
 _atom_site_fract_x
 _atom_site_fract_y
 _atom_site_fract_z
 _atom_site_occupancy
  Tb  Tb0  1  0.034607  0.176735  0.900239  1
  Y  Y1  1  0.534477  0.323390  0.900171  1
  Y  Y2  1  0.034363  0.176745  0.599810  1
  Y  Y3  1  0.465474  0.676631  0.400087  1
  Y  Y4  1  0.965659  0.823257  0.099875  1
  Y  Y5  1  0.465513  0.676729  0.099883  1
  Y  Y6  1  0.965649  0.823324  0.400112  1
  Y  Y7  1  0.534516  0.323350  0.599801  1
  Er  Er8  1  0.376284  0.841125  0.879025  1
  Er  Er9  1  0.876286  0.658799  0.620978  1
  Er  Er10  1  0.623720  0.158741  0.378900  1
  Er  Er11  1  0.123757  0.341246  0.121122  1
  Er  Er12  1  0.623779  0.158676  0.121112  1
  Er  Er13  1  0.123725  0.341248  0.378881  1
  Er  Er14  1  0.376225  0.841224  0.621003  1
  Er  Er15  1  0.876151  0.658740  0.879025  1
  Er  Er16  1  0.208152  0.504528  0.750001  1
  Er  Er17  1  0.708110  0.995333  0.749947  1
  Er  Er18  1  0.791892  0.495506  0.249990  1
  Er  Er19  1  0.291891  0.004510  0.249956  1
  Pb  Pb20  1  0.282994  0.034454  0.043027  1
  Pb  Pb21  1  0.782877  0.465481  0.456957  1
  Pb  Pb22  1  0.717094  0.965349  0.542727  1
  Pb  Pb23  1  0.216998  0.534720  0.957266  1
  Pb  Pb24  1  0.717051  0.965272  0.957296  1
  Pb  Pb25  1  0.216934  0.534634  0.542727  1
  Pb  Pb26  1  0.282828  0.034663  0.457007  1
  Pb  Pb27  1  0.783059  0.465300  0.042982  1
  Pb  Pb28  1  0.571158  0.627166  0.750006  1
  Pb  Pb29  1  0.071138  0.872982  0.750129  1
  Pb  Pb30  1  0.428895  0.372764  0.249981  1
  Pb  Pb31  1  0.928846  0.127289  0.250016  1
  Pb  Pb32  1  0.346193  0.152732  0.750022  1
  Pb  Pb33  1  0.846128  0.347336  0.749928  1
  Pb  Pb34  1  0.653809  0.847290  0.250010  1
  Pb  Pb35  1  0.153769  0.652731  0.250002  1
