# generated using pymatgen
data_SmEr2Al12CuRu3
_symmetry_space_group_name_H-M   'P 1'
_cell_length_a   8.80251004
_cell_length_b   8.78425386
_cell_length_c   9.52591700
_cell_angle_alpha   90.00000000
_cell_angle_beta   90.00000000
_cell_angle_gamma   119.21681164
_symmetry_Int_Tables_number   1
_chemical_formula_structural   SmEr2Al12CuRu3
_chemical_formula_sum   'Sm2 Er4 Al24 Cu2 Ru6'
_cell_volume   642.86892787
_cell_formula_units_Z   2
loop_
 _symmetry_equiv_pos_site_id
 _symmetry_equiv_pos_as_xyz
  1  'x, y, z'
loop_
 _atom_site_type_symbol
 _atom_site_label
 _atom_site_symmetry_multiplicity
 _atom_site_fract_x
 _atom_site_fract_y
 _atom_site_fract_z
 _atom_site_occupancy
  Sm  Sm0  1  0.188703  0.382073  0.250000  1
  Sm  Sm1  1  0.811297  0.617927  0.750000  1
  Er  Er2  1  0.613825  0.811461  0.250000  1
  Er  Er3  1  0.386175  0.188539  0.750000  1
  Er  Er4  1  0.195285  0.804766  0.250000  1
  Er  Er5  1  0.804715  0.195234  0.750000  1
  Al  Al6  1  0.331628  0.668819  0.021058  1
  Al  Al7  1  0.668372  0.331181  0.978942  1
  Al  Al8  1  0.668372  0.331181  0.521058  1
  Al  Al9  1  0.331628  0.668819  0.478942  1
  Al  Al10  1  0.156693  0.323583  0.578266  1
  Al  Al11  1  0.843307  0.676417  0.421734  1
  Al  Al12  1  0.675656  0.843584  0.576330  1
  Al  Al13  1  0.843307  0.676417  0.078266  1
  Al  Al14  1  0.324344  0.156416  0.423670  1
  Al  Al15  1  0.156693  0.323583  0.921734  1
  Al  Al16  1  0.164951  0.836961  0.577588  1
  Al  Al17  1  0.324344  0.156416  0.076330  1
  Al  Al18  1  0.835049  0.163039  0.422412  1
  Al  Al19  1  0.675656  0.843584  0.923670  1
  Al  Al20  1  0.835049  0.163039  0.077588  1
  Al  Al21  1  0.164951  0.836961  0.922412  1
  Al  Al22  1  0.560848  0.122172  0.250000  1
  Al  Al23  1  0.439152  0.877828  0.750000  1
  Al  Al24  1  0.876349  0.439175  0.250000  1
  Al  Al25  1  0.123651  0.560825  0.750000  1
  Al  Al26  1  0.562613  0.438745  0.250000  1
  Al  Al27  1  0.437387  0.561255  0.750000  1
  Al  Al28  1  0.995114  0.999041  0.250000  1
  Al  Al29  1  0.004886  0.000959  0.750000  1
  Cu  Cu30  1  0.500000  0.500000  0.000000  1
  Cu  Cu31  1  0.500000  0.500000  0.500000  1
  Ru  Ru32  1  0.500000  0.000000  0.000000  1
  Ru  Ru33  1  0.000000  0.500000  0.000000  1
  Ru  Ru34  1  0.500000  0.000000  0.500000  1
  Ru  Ru35  1  0.000000  0.500000  0.500000  1
  Ru  Ru36  1  0.000000  0.000000  0.000000  1
  Ru  Ru37  1  0.000000  0.000000  0.500000  1
