# generated using pymatgen
data_Y2Tm10Co5Sn
_symmetry_space_group_name_H-M   'P 1'
_cell_length_a   8.19927771
_cell_length_b   8.19927737
_cell_length_c   8.17177632
_cell_angle_alpha   110.96059755
_cell_angle_beta   110.68260898
_cell_angle_gamma   106.94583793
_symmetry_Int_Tables_number   1
_chemical_formula_structural   Y2Tm10Co5Sn
_chemical_formula_sum   'Y2 Tm10 Co5 Sn1'
_cell_volume   421.51079396
_cell_formula_units_Z   1
loop_
 _symmetry_equiv_pos_site_id
 _symmetry_equiv_pos_as_xyz
  1  'x, y, z'
loop_
 _atom_site_type_symbol
 _atom_site_label
 _atom_site_symmetry_multiplicity
 _atom_site_fract_x
 _atom_site_fract_y
 _atom_site_fract_z
 _atom_site_occupancy
  Y  Y0  1  0.287851  0.186750  0.474602  1
  Y  Y1  1  0.712149  0.813250  0.525398  1
  Tm  Tm2  1  0.288667  0.813240  0.101906  1
  Tm  Tm3  1  0.711333  0.186760  0.898094  1
  Tm  Tm4  1  0.620339  0.312136  0.305645  1
  Tm  Tm5  1  0.379661  0.687864  0.694355  1
  Tm  Tm6  1  0.006491  0.314695  0.694355  1
  Tm  Tm7  1  0.993509  0.685305  0.305645  1
  Tm  Tm8  1  0.209883  0.404075  0.191154  1
  Tm  Tm9  1  0.790117  0.595925  0.808846  1
  Tm  Tm10  1  0.212922  0.018730  0.808846  1
  Tm  Tm11  1  0.787078  0.981270  0.191154  1
  Co  Co12  1  0.999192  0.375584  0.374777  1
  Co  Co13  1  0.000808  0.624416  0.625223  1
  Co  Co14  1  0.387292  0.887292  0.500000  1
  Co  Co15  1  0.612708  0.112708  0.500000  1
  Co  Co16  1  0.000000  0.000000  0.000000  1
  Sn  Sn17  1  0.500000  0.500000  0.000000  1
