# generated using pymatgen
data_Er7U(Si3Pt)4
_symmetry_space_group_name_H-M   'P 1'
_cell_length_a   8.10535400
_cell_length_b   8.10535446
_cell_length_c   8.00361700
_cell_angle_alpha   90.00000000
_cell_angle_beta   90.00000000
_cell_angle_gamma   119.99999813
_symmetry_Int_Tables_number   1
_chemical_formula_structural   Er7U(Si3Pt)4
_chemical_formula_sum   'Er7 U1 Si12 Pt4'
_cell_volume   455.36635265
_cell_formula_units_Z   1
loop_
 _symmetry_equiv_pos_site_id
 _symmetry_equiv_pos_as_xyz
  1  'x, y, z'
loop_
 _atom_site_type_symbol
 _atom_site_label
 _atom_site_symmetry_multiplicity
 _atom_site_fract_x
 _atom_site_fract_y
 _atom_site_fract_z
 _atom_site_occupancy
  Er  Er0  1  0.000000  0.000000  0.750000  1
  Er  Er1  1  0.498032  0.501968  0.250000  1
  Er  Er2  1  0.498032  0.996065  0.250000  1
  Er  Er3  1  0.003935  0.501968  0.250000  1
  Er  Er4  1  0.502034  0.497966  0.750000  1
  Er  Er5  1  0.995931  0.497966  0.750000  1
  Er  Er6  1  0.502034  0.004069  0.750000  1
  U  U7  1  0.000000  0.000000  0.250000  1
  Si  Si8  1  0.835367  0.164633  0.496216  1
  Si  Si9  1  0.835367  0.670736  0.496216  1
  Si  Si10  1  0.329264  0.164633  0.496216  1
  Si  Si11  1  0.835367  0.164633  0.003784  1
  Si  Si12  1  0.835367  0.670736  0.003784  1
  Si  Si13  1  0.329264  0.164633  0.003784  1
  Si  Si14  1  0.164633  0.835367  0.001245  1
  Si  Si15  1  0.670735  0.835367  0.001245  1
  Si  Si16  1  0.164633  0.329265  0.001245  1
  Si  Si17  1  0.164633  0.835367  0.498755  1
  Si  Si18  1  0.670735  0.835367  0.498755  1
  Si  Si19  1  0.164633  0.329265  0.498755  1
  Pt  Pt20  1  0.666667  0.333333  0.496242  1
  Pt  Pt21  1  0.666667  0.333333  0.003758  1
  Pt  Pt22  1  0.333333  0.666667  0.993888  1
  Pt  Pt23  1  0.333333  0.666667  0.506112  1
