# generated using pymatgen
data_LiEr2ZnPt2
_symmetry_space_group_name_H-M   'P 1'
_cell_length_a   4.02676600
_cell_length_b   6.95419400
_cell_length_c   8.30289600
_cell_angle_alpha   90.00000000
_cell_angle_beta   90.00000000
_cell_angle_gamma   90.00000000
_symmetry_Int_Tables_number   1
_chemical_formula_structural   LiEr2ZnPt2
_chemical_formula_sum   'Li2 Er4 Zn2 Pt4'
_cell_volume   232.50526567
_cell_formula_units_Z   2
loop_
 _symmetry_equiv_pos_site_id
 _symmetry_equiv_pos_as_xyz
  1  'x, y, z'
loop_
 _atom_site_type_symbol
 _atom_site_label
 _atom_site_symmetry_multiplicity
 _atom_site_fract_x
 _atom_site_fract_y
 _atom_site_fract_z
 _atom_site_occupancy
  Li  Li0  1  0.250000  0.630097  0.559635  1
  Li  Li1  1  0.250000  0.130097  0.940365  1
  Er  Er2  1  0.250000  0.045152  0.318685  1
  Er  Er3  1  0.250000  0.545152  0.181315  1
  Er  Er4  1  0.750000  0.955663  0.684999  1
  Er  Er5  1  0.750000  0.455663  0.815001  1
  Zn  Zn6  1  0.750000  0.370049  0.437482  1
  Zn  Zn7  1  0.750000  0.870049  0.062518  1
  Pt  Pt8  1  0.250000  0.247248  0.621543  1
  Pt  Pt9  1  0.250000  0.747248  0.878457  1
  Pt  Pt10  1  0.750000  0.751792  0.377905  1
  Pt  Pt11  1  0.750000  0.251792  0.122095  1
