# generated using pymatgen
data_PrRe3Si2Os
_symmetry_space_group_name_H-M   'P 1'
_cell_length_a   7.43332874
_cell_length_b   7.43332847
_cell_length_c   4.08375200
_cell_angle_alpha   90.00000000
_cell_angle_beta   90.00000000
_cell_angle_gamma   148.04198176
_symmetry_Int_Tables_number   1
_chemical_formula_structural   PrRe3Si2Os
_chemical_formula_sum   'Pr1 Re3 Si2 Os1'
_cell_volume   119.43347366
_cell_formula_units_Z   1
loop_
 _symmetry_equiv_pos_site_id
 _symmetry_equiv_pos_as_xyz
  1  'x, y, z'
loop_
 _atom_site_type_symbol
 _atom_site_label
 _atom_site_symmetry_multiplicity
 _atom_site_fract_x
 _atom_site_fract_y
 _atom_site_fract_z
 _atom_site_occupancy
  Pr  Pr0  1  0.998660  0.001340  0.000000  1
  Re  Re1  1  0.188815  0.811185  0.500000  1
  Re  Re2  1  0.694766  0.305234  0.000000  1
  Re  Re3  1  0.304516  0.695484  0.000000  1
  Si  Si4  1  0.587582  0.412418  0.500000  1
  Si  Si5  1  0.410966  0.589034  0.500000  1
  Os  Os6  1  0.814695  0.185305  0.500000  1
