# generated using pymatgen
data_Be10CoAu
_symmetry_space_group_name_H-M   'P 1'
_cell_length_a   4.19989200
_cell_length_b   4.19989272
_cell_length_c   6.85297100
_cell_angle_alpha   90.00000000
_cell_angle_beta   90.00000000
_cell_angle_gamma   119.99999431
_symmetry_Int_Tables_number   1
_chemical_formula_structural   Be10CoAu
_chemical_formula_sum   'Be10 Co1 Au1'
_cell_volume   104.68534069
_cell_formula_units_Z   1
loop_
 _symmetry_equiv_pos_site_id
 _symmetry_equiv_pos_as_xyz
  1  'x, y, z'
loop_
 _atom_site_type_symbol
 _atom_site_label
 _atom_site_symmetry_multiplicity
 _atom_site_fract_x
 _atom_site_fract_y
 _atom_site_fract_z
 _atom_site_occupancy
  Be  Be0  1  0.336613  0.168308  0.039508  1
  Be  Be1  1  0.831694  0.168308  0.039508  1
  Be  Be2  1  0.831693  0.663387  0.039508  1
  Be  Be3  1  0.000000  0.000000  0.301047  1
  Be  Be4  1  0.666667  0.333333  0.393324  1
  Be  Be5  1  0.166646  0.333290  0.561994  1
  Be  Be6  1  0.166645  0.833356  0.561994  1
  Be  Be7  1  0.666712  0.833356  0.561994  1
  Be  Be8  1  0.000000  0.000000  0.800423  1
  Be  Be9  1  0.333333  0.666666  0.842072  1
  Co  Co10  1  0.666667  0.333333  0.744607  1
  Au  Au11  1  0.333333  0.666666  0.242158  1
