# generated using pymatgen
data_Er4CoAg
_symmetry_space_group_name_H-M   'P 1'
_cell_length_a   9.31823889
_cell_length_b   9.31114666
_cell_length_c   9.31114700
_cell_angle_alpha   60.00000234
_cell_angle_beta   60.02517656
_cell_angle_gamma   60.02517699
_symmetry_Int_Tables_number   1
_chemical_formula_structural   Er4CoAg
_chemical_formula_sum   'Er16 Co4 Ag4'
_cell_volume   571.46595846
_cell_formula_units_Z   4
loop_
 _symmetry_equiv_pos_site_id
 _symmetry_equiv_pos_as_xyz
  1  'x, y, z'
loop_
 _atom_site_type_symbol
 _atom_site_label
 _atom_site_symmetry_multiplicity
 _atom_site_fract_x
 _atom_site_fract_y
 _atom_site_fract_z
 _atom_site_occupancy
  Er  Er0  1  0.597673  0.598115  0.598115  1
  Er  Er1  1  0.597673  0.598115  0.206097  1
  Er  Er2  1  0.597673  0.206097  0.598115  1
  Er  Er3  1  0.204503  0.598499  0.598499  1
  Er  Er4  1  0.060934  0.438843  0.438843  1
  Er  Er5  1  0.438432  0.061566  0.061566  1
  Er  Er6  1  0.438432  0.061566  0.438434  1
  Er  Er7  1  0.060934  0.438843  0.061382  1
  Er  Er8  1  0.438432  0.438434  0.061566  1
  Er  Er9  1  0.060934  0.061382  0.438843  1
  Er  Er10  1  0.188267  0.812372  0.812372  1
  Er  Er11  1  0.812784  0.187250  0.187250  1
  Er  Er12  1  0.812784  0.187250  0.812717  1
  Er  Er13  1  0.188267  0.812372  0.186990  1
  Er  Er14  1  0.812784  0.812717  0.187250  1
  Er  Er15  1  0.188267  0.186990  0.812372  1
  Co  Co16  1  0.390160  0.391771  0.391771  1
  Co  Co17  1  0.390160  0.391771  0.826299  1
  Co  Co18  1  0.390160  0.826299  0.391771  1
  Co  Co19  1  0.825436  0.391522  0.391522  1
  Ag  Ag20  1  0.508219  0.830594  0.830594  1
  Ag  Ag21  1  0.832367  0.831396  0.831396  1
  Ag  Ag22  1  0.832367  0.831396  0.504842  1
  Ag  Ag23  1  0.832367  0.504842  0.831396  1
