# generated using pymatgen
data_Sr2InSn3Ir4
_symmetry_space_group_name_H-M   'P 1'
_cell_length_a   4.54895400
_cell_length_b   4.54895400
_cell_length_c   11.02197400
_cell_angle_alpha   90.00000000
_cell_angle_beta   90.00000000
_cell_angle_gamma   90.00000000
_symmetry_Int_Tables_number   1
_chemical_formula_structural   Sr2InSn3Ir4
_chemical_formula_sum   'Sr2 In1 Sn3 Ir4'
_cell_volume   228.07751503
_cell_formula_units_Z   1
loop_
 _symmetry_equiv_pos_site_id
 _symmetry_equiv_pos_as_xyz
  1  'x, y, z'
loop_
 _atom_site_type_symbol
 _atom_site_label
 _atom_site_symmetry_multiplicity
 _atom_site_fract_x
 _atom_site_fract_y
 _atom_site_fract_z
 _atom_site_occupancy
  Sr  Sr0  1  0.000000  0.500000  0.243831  1
  Sr  Sr1  1  0.500000  0.000000  0.756169  1
  In  In2  1  0.000000  0.000000  0.500000  1
  Sn  Sn3  1  0.500000  0.000000  0.127221  1
  Sn  Sn4  1  0.500000  0.500000  0.500000  1
  Sn  Sn5  1  0.000000  0.500000  0.872779  1
  Ir  Ir6  1  0.000000  0.000000  0.000000  1
  Ir  Ir7  1  0.500000  0.500000  0.000000  1
  Ir  Ir8  1  0.500000  0.000000  0.366385  1
  Ir  Ir9  1  0.000000  0.500000  0.633616  1
