# generated using pymatgen
data_Gd6Lu4Si6F
_symmetry_space_group_name_H-M   'P 1'
_cell_length_a   8.35610500
_cell_length_b   8.35610544
_cell_length_c   6.20044600
_cell_angle_alpha   90.00000000
_cell_angle_beta   90.00000000
_cell_angle_gamma   119.99999431
_symmetry_Int_Tables_number   1
_chemical_formula_structural   Gd6Lu4Si6F
_chemical_formula_sum   'Gd6 Lu4 Si6 F1'
_cell_volume   374.93966407
_cell_formula_units_Z   1
loop_
 _symmetry_equiv_pos_site_id
 _symmetry_equiv_pos_as_xyz
  1  'x, y, z'
loop_
 _atom_site_type_symbol
 _atom_site_label
 _atom_site_symmetry_multiplicity
 _atom_site_fract_x
 _atom_site_fract_y
 _atom_site_fract_z
 _atom_site_occupancy
  Gd  Gd0  1  0.999864  0.749760  0.245504  1
  Gd  Gd1  1  0.250501  0.250797  0.246232  1
  Gd  Gd2  1  0.749640  0.999974  0.250705  1
  Gd  Gd3  1  0.000136  0.250240  0.754496  1
  Gd  Gd4  1  0.749499  0.749203  0.753768  1
  Gd  Gd5  1  0.250360  0.000026  0.749295  1
  Lu  Lu6  1  0.332686  0.666139  0.499965  1
  Lu  Lu7  1  0.667314  0.333861  0.500035  1
  Lu  Lu8  1  0.666350  0.332370  0.000052  1
  Lu  Lu9  1  0.333650  0.667630  0.999948  1
  Si  Si10  1  0.000084  0.395382  0.248667  1
  Si  Si11  1  0.604738  0.604574  0.248550  1
  Si  Si12  1  0.395082  0.000093  0.249220  1
  Si  Si13  1  0.999916  0.604618  0.751333  1
  Si  Si14  1  0.395262  0.395426  0.751450  1
  Si  Si15  1  0.604918  0.999907  0.750780  1
  F  F16  1  0.000000  0.000000  0.500000  1
