# generated using pymatgen
data_Ho2Er14Cd4Ni3Os
_symmetry_space_group_name_H-M   'P 1'
_cell_length_a   9.52563094
_cell_length_b   9.52563104
_cell_length_c   9.52562201
_cell_angle_alpha   59.48707278
_cell_angle_beta   59.48707157
_cell_angle_gamma   59.48413944
_symmetry_Int_Tables_number   1
_chemical_formula_structural   Ho2Er14Cd4Ni3Os
_chemical_formula_sum   'Ho2 Er14 Cd4 Ni3 Os1'
_cell_volume   604.03161406
_cell_formula_units_Z   1
loop_
 _symmetry_equiv_pos_site_id
 _symmetry_equiv_pos_as_xyz
  1  'x, y, z'
loop_
 _atom_site_type_symbol
 _atom_site_label
 _atom_site_symmetry_multiplicity
 _atom_site_fract_x
 _atom_site_fract_y
 _atom_site_fract_z
 _atom_site_occupancy
  Ho  Ho0  1  0.347246  0.347246  0.347322  1
  Ho  Ho1  1  0.352013  0.352013  0.953086  1
  Er  Er2  1  0.351947  0.953215  0.351986  1
  Er  Er3  1  0.953215  0.351947  0.351986  1
  Er  Er4  1  0.810329  0.187836  0.187855  1
  Er  Er5  1  0.186206  0.811377  0.811255  1
  Er  Er6  1  0.187836  0.810329  0.187855  1
  Er  Er7  1  0.811377  0.186206  0.811255  1
  Er  Er8  1  0.187799  0.187799  0.810297  1
  Er  Er9  1  0.811301  0.811301  0.186223  1
  Er  Er10  1  0.935167  0.566537  0.566547  1
  Er  Er11  1  0.557092  0.939413  0.939453  1
  Er  Er12  1  0.566537  0.935167  0.566547  1
  Er  Er13  1  0.939413  0.557092  0.939453  1
  Er  Er14  1  0.566593  0.566593  0.935111  1
  Er  Er15  1  0.939500  0.939500  0.557016  1
  Cd  Cd16  1  0.580213  0.580213  0.580049  1
  Cd  Cd17  1  0.579697  0.579697  0.255322  1
  Cd  Cd18  1  0.579689  0.255325  0.579650  1
  Cd  Cd19  1  0.255325  0.579689  0.579650  1
  Ni  Ni20  1  0.141431  0.141431  0.575222  1
  Ni  Ni21  1  0.141330  0.575338  0.141516  1
  Ni  Ni22  1  0.575338  0.141330  0.141516  1
  Os  Os23  1  0.143407  0.143407  0.143830  1
