# generated using pymatgen
data_PrTaTeO6
_symmetry_space_group_name_H-M   'P 1'
_cell_length_a   6.80662831
_cell_length_b   7.44602103
_cell_length_c   10.81201052
_cell_angle_alpha   100.21262585
_cell_angle_beta   103.06521773
_cell_angle_gamma   89.70872603
_symmetry_Int_Tables_number   1
_chemical_formula_structural   PrTaTeO6
_chemical_formula_sum   'Pr4 Ta4 Te4 O24'
_cell_volume   524.98498154
_cell_formula_units_Z   4
loop_
 _symmetry_equiv_pos_site_id
 _symmetry_equiv_pos_as_xyz
  1  'x, y, z'
loop_
 _atom_site_type_symbol
 _atom_site_label
 _atom_site_symmetry_multiplicity
 _atom_site_fract_x
 _atom_site_fract_y
 _atom_site_fract_z
 _atom_site_occupancy
  Pr  Pr0  1  0.324630  0.285379  0.154089  1
  Pr  Pr1  1  0.237379  0.138359  0.492065  1
  Pr  Pr2  1  0.762620  0.861640  0.507935  1
  Pr  Pr3  1  0.675368  0.714620  0.845910  1
  Ta  Ta4  1  0.813827  0.545804  0.198097  1
  Ta  Ta5  1  0.821834  0.039796  0.199674  1
  Ta  Ta6  1  0.178166  0.960205  0.800326  1
  Ta  Ta7  1  0.186174  0.454197  0.801904  1
  Te  Te8  1  0.327547  0.798495  0.200494  1
  Te  Te9  1  0.266236  0.629042  0.495857  1
  Te  Te10  1  0.733762  0.370957  0.504143  1
  Te  Te11  1  0.672452  0.201506  0.799506  1
  O  O12  1  0.756046  0.566854  0.028834  1
  O  O13  1  0.813601  0.943517  0.032892  1
  O  O14  1  0.711767  0.286184  0.180957  1
  O  O15  1  0.506495  0.985143  0.182616  1
  O  O16  1  0.501156  0.598460  0.209138  1
  O  O17  1  0.090523  0.502118  0.223485  1
  O  O18  1  0.105453  0.108892  0.257691  1
  O  O19  1  0.854168  0.815032  0.281414  1
  O  O20  1  0.397700  0.870243  0.386244  1
  O  O21  1  0.462323  0.322434  0.402910  1
  O  O22  1  0.818179  0.546401  0.411599  1
  O  O23  1  0.850175  0.147687  0.427864  1
  O  O24  1  0.149826  0.852313  0.572138  1
  O  O25  1  0.181821  0.453598  0.588401  1
  O  O26  1  0.537677  0.677567  0.597089  1
  O  O27  1  0.602297  0.129758  0.613757  1
  O  O28  1  0.145831  0.184967  0.718586  1
  O  O29  1  0.894547  0.891107  0.742309  1
  O  O30  1  0.909477  0.497882  0.776515  1
  O  O31  1  0.498844  0.401540  0.790861  1
  O  O32  1  0.493506  0.014856  0.817384  1
  O  O33  1  0.288234  0.713817  0.819043  1
  O  O34  1  0.186398  0.056482  0.967108  1
  O  O35  1  0.243952  0.433148  0.971165  1
