# generated using pymatgen
data_Gd5YErRhO12
_symmetry_space_group_name_H-M   'P 1'
_cell_length_a   6.70232319
_cell_length_b   6.70686971
_cell_length_c   6.70463143
_cell_angle_alpha   95.11472666
_cell_angle_beta   95.14578975
_cell_angle_gamma   95.08638485
_symmetry_Int_Tables_number   1
_chemical_formula_structural   Gd5YErRhO12
_chemical_formula_sum   'Gd5 Y1 Er1 Rh1 O12'
_cell_volume   297.55160017
_cell_formula_units_Z   1
loop_
 _symmetry_equiv_pos_site_id
 _symmetry_equiv_pos_as_xyz
  1  'x, y, z'
loop_
 _atom_site_type_symbol
 _atom_site_label
 _atom_site_symmetry_multiplicity
 _atom_site_fract_x
 _atom_site_fract_y
 _atom_site_fract_z
 _atom_site_occupancy
  Gd  Gd0  1  0.428446  0.734022  0.912521  1
  Gd  Gd1  1  0.087012  0.573909  0.265966  1
  Gd  Gd2  1  0.911049  0.425936  0.732157  1
  Gd  Gd3  1  0.572903  0.265482  0.089128  1
  Gd  Gd4  1  0.266634  0.087186  0.571795  1
  Y  Y5  1  0.998070  0.999096  0.999071  1
  Er  Er6  1  0.736147  0.913456  0.427292  1
  Rh  Rh7  1  0.500838  0.500078  0.499763  1
  O  O8  1  0.060935  0.913894  0.319556  1
  O  O9  1  0.681492  0.933217  0.093732  1
  O  O10  1  0.462212  0.802755  0.581442  1
  O  O11  1  0.086751  0.681080  0.934385  1
  O  O12  1  0.799758  0.591596  0.455204  1
  O  O13  1  0.415503  0.544890  0.198671  1
  O  O14  1  0.584303  0.455040  0.800677  1
  O  O15  1  0.198803  0.415543  0.545341  1
  O  O16  1  0.913404  0.318114  0.064636  1
  O  O17  1  0.548320  0.196550  0.416612  1
  O  O18  1  0.317681  0.065037  0.913032  1
  O  O19  1  0.929738  0.083117  0.679018  1
