# generated using pymatgen
data_CeZrTcB6
_symmetry_space_group_name_H-M   'P 1'
_cell_length_a   3.64889700
_cell_length_b   9.07250900
_cell_length_c   11.47832500
_cell_angle_alpha   90.00000000
_cell_angle_beta   90.00000000
_cell_angle_gamma   90.00000000
_symmetry_Int_Tables_number   1
_chemical_formula_structural   CeZrTcB6
_chemical_formula_sum   'Ce4 Zr4 Tc4 B24'
_cell_volume   379.98594173
_cell_formula_units_Z   4
loop_
 _symmetry_equiv_pos_site_id
 _symmetry_equiv_pos_as_xyz
  1  'x, y, z'
loop_
 _atom_site_type_symbol
 _atom_site_label
 _atom_site_symmetry_multiplicity
 _atom_site_fract_x
 _atom_site_fract_y
 _atom_site_fract_z
 _atom_site_occupancy
  Ce  Ce0  1  0.000000  0.322992  0.414303  1
  Ce  Ce1  1  0.000000  0.677008  0.585697  1
  Ce  Ce2  1  0.000000  0.822992  0.085697  1
  Ce  Ce3  1  0.000000  0.177008  0.914303  1
  Zr  Zr4  1  0.000000  0.945227  0.373620  1
  Zr  Zr5  1  0.000000  0.054773  0.626380  1
  Zr  Zr6  1  0.000000  0.445227  0.126380  1
  Zr  Zr7  1  0.000000  0.554773  0.873620  1
  Tc  Tc8  1  0.000000  0.642648  0.317511  1
  Tc  Tc9  1  0.000000  0.357352  0.682489  1
  Tc  Tc10  1  0.000000  0.142648  0.182489  1
  Tc  Tc11  1  0.000000  0.857352  0.817511  1
  B  B12  1  0.500000  0.555500  0.431791  1
  B  B13  1  0.500000  0.444500  0.568209  1
  B  B14  1  0.500000  0.055500  0.068209  1
  B  B15  1  0.500000  0.944500  0.931791  1
  B  B16  1  0.500000  0.752554  0.417271  1
  B  B17  1  0.500000  0.247446  0.582729  1
  B  B18  1  0.500000  0.252554  0.082729  1
  B  B19  1  0.500000  0.747446  0.917271  1
  B  B20  1  0.500000  0.795624  0.264380  1
  B  B21  1  0.500000  0.204376  0.735620  1
  B  B22  1  0.500000  0.295624  0.235620  1
  B  B23  1  0.500000  0.704376  0.764380  1
  B  B24  1  0.500000  0.631080  0.183196  1
  B  B25  1  0.500000  0.368920  0.816804  1
  B  B26  1  0.500000  0.131080  0.316804  1
  B  B27  1  0.500000  0.868920  0.683196  1
  B  B28  1  0.500000  0.983804  0.214142  1
  B  B29  1  0.500000  0.016196  0.785858  1
  B  B30  1  0.500000  0.483804  0.285858  1
  B  B31  1  0.500000  0.516196  0.714142  1
  B  B32  1  0.500000  0.600804  0.026791  1
  B  B33  1  0.500000  0.399196  0.973209  1
  B  B34  1  0.500000  0.100804  0.473209  1
  B  B35  1  0.500000  0.899196  0.526791  1
