# generated using pymatgen
data_Ti5AlSnSb
_symmetry_space_group_name_H-M   'P 1'
_cell_length_a   7.90021955
_cell_length_b   7.90021964
_cell_length_c   7.90021992
_cell_angle_alpha   96.19856662
_cell_angle_beta   96.25524894
_cell_angle_gamma   141.54230395
_symmetry_Int_Tables_number   1
_chemical_formula_structural   Ti5AlSnSb
_chemical_formula_sum   'Ti10 Al2 Sn2 Sb2'
_cell_volume   289.55594310
_cell_formula_units_Z   2
loop_
 _symmetry_equiv_pos_site_id
 _symmetry_equiv_pos_as_xyz
  1  'x, y, z'
loop_
 _atom_site_type_symbol
 _atom_site_label
 _atom_site_symmetry_multiplicity
 _atom_site_fract_x
 _atom_site_fract_y
 _atom_site_fract_z
 _atom_site_occupancy
  Ti  Ti0  1  0.218706  0.925867  0.144571  1
  Ti  Ti1  1  0.424439  0.718052  0.142490  1
  Ti  Ti2  1  0.075123  0.218026  0.293150  1
  Ti  Ti3  1  0.718706  0.574133  0.292839  1
  Ti  Ti4  1  0.749367  0.249999  0.499368  1
  Ti  Ti5  1  0.249367  0.749999  0.499368  1
  Ti  Ti6  1  0.282359  0.423350  0.705710  1
  Ti  Ti7  1  0.924439  0.781948  0.706387  1
  Ti  Ti8  1  0.782359  0.076650  0.859010  1
  Ti  Ti9  1  0.575122  0.281974  0.857097  1
  Al  Al10  1  0.249941  0.249999  0.999942  1
  Al  Al11  1  0.749941  0.749999  0.999942  1
  Sn  Sn12  1  0.664340  0.835578  0.499917  1
  Sn  Sn13  1  0.164340  0.664422  0.828762  1
  Sb  Sb14  1  0.835722  0.335746  0.171468  1
  Sb  Sb15  1  0.335722  0.164254  0.499974  1
