# generated using pymatgen
data_NdYBe2(Re2C)2
_symmetry_space_group_name_H-M   'P 1'
_cell_length_a   5.64288021
_cell_length_b   5.64287902
_cell_length_c   7.34203500
_cell_angle_alpha   90.00000000
_cell_angle_beta   90.00000000
_cell_angle_gamma   140.03978469
_symmetry_Int_Tables_number   1
_chemical_formula_structural   NdYBe2(Re2C)2
_chemical_formula_sum   'Nd1 Y1 Be2 Re4 C2'
_cell_volume   150.15018625
_cell_formula_units_Z   1
loop_
 _symmetry_equiv_pos_site_id
 _symmetry_equiv_pos_as_xyz
  1  'x, y, z'
loop_
 _atom_site_type_symbol
 _atom_site_label
 _atom_site_symmetry_multiplicity
 _atom_site_fract_x
 _atom_site_fract_y
 _atom_site_fract_z
 _atom_site_occupancy
  Nd  Nd0  1  0.534535  0.465465  0.250000  1
  Y  Y1  1  0.465295  0.534705  0.750000  1
  Be  Be2  1  0.257723  0.742277  0.250000  1
  Be  Be3  1  0.742363  0.257637  0.750000  1
  Re  Re4  1  0.818982  0.181018  0.060757  1
  Re  Re5  1  0.181452  0.818548  0.935539  1
  Re  Re6  1  0.181452  0.818548  0.564461  1
  Re  Re7  1  0.818982  0.181018  0.439243  1
  C  C8  1  0.999608  0.000392  0.994003  1
  C  C9  1  0.999608  0.000392  0.505997  1
