# generated using pymatgen
data_EuPu2Ni7B2
_symmetry_space_group_name_H-M   'P 1'
_cell_length_a   5.14891700
_cell_length_b   5.14891595
_cell_length_c   14.27990900
_cell_angle_alpha   90.00000000
_cell_angle_beta   90.00000000
_cell_angle_gamma   120.00000032
_symmetry_Int_Tables_number   1
_chemical_formula_structural   EuPu2Ni7B2
_chemical_formula_sum   'Eu2 Pu4 Ni14 B4'
_cell_volume   327.85949362
_cell_formula_units_Z   2
loop_
 _symmetry_equiv_pos_site_id
 _symmetry_equiv_pos_as_xyz
  1  'x, y, z'
loop_
 _atom_site_type_symbol
 _atom_site_label
 _atom_site_symmetry_multiplicity
 _atom_site_fract_x
 _atom_site_fract_y
 _atom_site_fract_z
 _atom_site_occupancy
  Eu  Eu0  1  0.333333  0.666667  0.537073  1
  Eu  Eu1  1  0.666667  0.333333  0.037073  1
  Pu  Pu2  1  0.333333  0.666667  0.750678  1
  Pu  Pu3  1  0.666667  0.333333  0.250678  1
  Pu  Pu4  1  0.666667  0.333333  0.462209  1
  Pu  Pu5  1  0.333333  0.666667  0.962209  1
  Ni  Ni6  1  0.000000  0.000000  0.999811  1
  Ni  Ni7  1  0.000000  0.000000  0.499811  1
  Ni  Ni8  1  0.165955  0.331908  0.149553  1
  Ni  Ni9  1  0.834045  0.668092  0.649553  1
  Ni  Ni10  1  0.668092  0.834045  0.149553  1
  Ni  Ni11  1  0.165955  0.834045  0.149553  1
  Ni  Ni12  1  0.834045  0.165955  0.649553  1
  Ni  Ni13  1  0.331908  0.165955  0.649553  1
  Ni  Ni14  1  0.834304  0.668609  0.850512  1
  Ni  Ni15  1  0.834304  0.165696  0.850512  1
  Ni  Ni16  1  0.331391  0.165696  0.850512  1
  Ni  Ni17  1  0.668609  0.834304  0.350512  1
  Ni  Ni18  1  0.165696  0.834304  0.350512  1
  Ni  Ni19  1  0.165696  0.331391  0.350512  1
  B  B20  1  0.333333  0.666667  0.250023  1
  B  B21  1  0.666667  0.333333  0.750023  1
  B  B22  1  0.000000  0.000000  0.250009  1
  B  B23  1  0.000000  0.000000  0.750009  1
