# generated using pymatgen
data_PrYIn8Ru
_symmetry_space_group_name_H-M   'P 1'
_cell_length_a   4.67368000
_cell_length_b   4.67368000
_cell_length_c   12.44075000
_cell_angle_alpha   90.00000000
_cell_angle_beta   90.00000000
_cell_angle_gamma   90.00000000
_symmetry_Int_Tables_number   1
_chemical_formula_structural   PrYIn8Ru
_chemical_formula_sum   'Pr1 Y1 In8 Ru1'
_cell_volume   271.74684466
_cell_formula_units_Z   1
loop_
 _symmetry_equiv_pos_site_id
 _symmetry_equiv_pos_as_xyz
  1  'x, y, z'
loop_
 _atom_site_type_symbol
 _atom_site_label
 _atom_site_symmetry_multiplicity
 _atom_site_fract_x
 _atom_site_fract_y
 _atom_site_fract_z
 _atom_site_occupancy
  Pr  Pr0  1  0.500000  0.500000  0.190325  1
  Y  Y1  1  0.500000  0.500000  0.805907  1
  In  In2  1  0.000000  0.500000  0.622326  1
  In  In3  1  0.000000  0.000000  0.191704  1
  In  In4  1  0.000000  0.500000  0.383022  1
  In  In5  1  0.500000  0.000000  0.622326  1
  In  In6  1  0.000000  0.000000  0.809005  1
  In  In7  1  0.500000  0.000000  0.383022  1
  In  In8  1  0.000000  0.500000  0.994609  1
  In  In9  1  0.500000  0.000000  0.994609  1
  Ru  Ru10  1  0.500000  0.500000  0.503146  1
