# generated using pymatgen
data_La2Nd2Re15Si8Mo
_symmetry_space_group_name_H-M   'P 1'
_cell_length_a   4.19193700
_cell_length_b   7.35714967
_cell_length_c   15.62505544
_cell_angle_alpha   89.63457969
_cell_angle_beta   90.00000000
_cell_angle_gamma   90.00000000
_symmetry_Int_Tables_number   1
_chemical_formula_structural   La2Nd2Re15Si8Mo
_chemical_formula_sum   'La2 Nd2 Re15 Si8 Mo1'
_cell_volume   481.87797046
_cell_formula_units_Z   1
loop_
 _symmetry_equiv_pos_site_id
 _symmetry_equiv_pos_as_xyz
  1  'x, y, z'
loop_
 _atom_site_type_symbol
 _atom_site_label
 _atom_site_symmetry_multiplicity
 _atom_site_fract_x
 _atom_site_fract_y
 _atom_site_fract_z
 _atom_site_occupancy
  La  La0  1  0.000000  0.583109  0.118986  1
  La  La1  1  0.000000  0.421915  0.880076  1
  Nd  Nd2  1  0.500000  0.079297  0.384027  1
  Nd  Nd3  1  0.500000  0.920956  0.616371  1
  Re  Re4  1  0.000000  0.866235  0.946175  1
  Re  Re5  1  0.500000  0.639205  0.448564  1
  Re  Re6  1  0.500000  0.359896  0.551974  1
  Re  Re7  1  0.000000  0.733667  0.322287  1
  Re  Re8  1  0.000000  0.265890  0.677730  1
  Re  Re9  1  0.500000  0.227266  0.182685  1
  Re  Re10  1  0.500000  0.770956  0.817823  1
  Re  Re11  1  0.000000  0.433120  0.418798  1
  Re  Re12  1  0.000000  0.566404  0.581626  1
  Re  Re13  1  0.500000  0.933769  0.082244  1
  Re  Re14  1  0.500000  0.064487  0.917304  1
  Re  Re15  1  0.000000  0.993656  0.209724  1
  Re  Re16  1  0.000000  0.006320  0.790834  1
  Re  Re17  1  0.500000  0.487903  0.295665  1
  Re  Re18  1  0.500000  0.512312  0.704403  1
  Si  Si19  1  0.000000  0.825333  0.475806  1
  Si  Si20  1  0.000000  0.173883  0.524205  1
  Si  Si21  1  0.500000  0.322104  0.025588  1
  Si  Si22  1  0.500000  0.678706  0.973832  1
  Si  Si23  1  0.000000  0.293532  0.275587  1
  Si  Si24  1  0.000000  0.707911  0.723857  1
  Si  Si25  1  0.500000  0.794739  0.229692  1
  Si  Si26  1  0.500000  0.205768  0.770563  1
  Mo  Mo27  1  0.000000  0.131662  0.053572  1
