# generated using pymatgen
data_Yb3YSb3
_symmetry_space_group_name_H-M   'P 1'
_cell_length_a   8.10468532
_cell_length_b   8.10468588
_cell_length_c   9.39164078
_cell_angle_alpha   55.08305743
_cell_angle_beta   55.08305428
_cell_angle_gamma   70.84797468
_symmetry_Int_Tables_number   1
_chemical_formula_structural   Yb3YSb3
_chemical_formula_sum   'Yb6 Y2 Sb6'
_cell_volume   414.78499384
_cell_formula_units_Z   2
loop_
 _symmetry_equiv_pos_site_id
 _symmetry_equiv_pos_as_xyz
  1  'x, y, z'
loop_
 _atom_site_type_symbol
 _atom_site_label
 _atom_site_symmetry_multiplicity
 _atom_site_fract_x
 _atom_site_fract_y
 _atom_site_fract_z
 _atom_site_occupancy
  Yb  Yb0  1  0.999875  0.137611  0.109011  1
  Yb  Yb1  1  0.862389  0.000125  0.890989  1
  Yb  Yb2  1  0.499245  0.853325  0.751096  1
  Yb  Yb3  1  0.146675  0.500755  0.248904  1
  Yb  Yb4  1  0.998915  0.648566  0.601635  1
  Yb  Yb5  1  0.351434  0.001085  0.398365  1
  Y  Y6  1  0.642419  0.499377  0.246922  1
  Y  Y7  1  0.500623  0.357581  0.753078  1
  Sb  Sb8  1  0.866046  0.133954  0.500000  1
  Sb  Sb9  1  0.625923  0.374077  0.000000  1
  Sb  Sb10  1  0.258891  0.256270  0.622164  1
  Sb  Sb11  1  0.743730  0.741109  0.377836  1
  Sb  Sb12  1  0.122501  0.618664  0.878483  1
  Sb  Sb13  1  0.381336  0.877499  0.121517  1
