# generated using pymatgen
data_LuNbB2Ru5W
_symmetry_space_group_name_H-M   'P 1'
_cell_length_a   9.50971696
_cell_length_b   9.50971655
_cell_length_c   3.04678900
_cell_angle_alpha   90.00000000
_cell_angle_beta   90.00000000
_cell_angle_gamma   90.18483492
_symmetry_Int_Tables_number   1
_chemical_formula_structural   LuNbB2Ru5W
_chemical_formula_sum   'Lu2 Nb2 B4 Ru10 W2'
_cell_volume   275.53405420
_cell_formula_units_Z   2
loop_
 _symmetry_equiv_pos_site_id
 _symmetry_equiv_pos_as_xyz
  1  'x, y, z'
loop_
 _atom_site_type_symbol
 _atom_site_label
 _atom_site_symmetry_multiplicity
 _atom_site_fract_x
 _atom_site_fract_y
 _atom_site_fract_z
 _atom_site_occupancy
  Lu  Lu0  1  0.824385  0.675615  0.000000  1
  Lu  Lu1  1  0.175615  0.324385  0.000000  1
  Nb  Nb2  1  0.323841  0.823841  0.000000  1
  Nb  Nb3  1  0.676159  0.176159  0.000000  1
  B  B4  1  0.620889  0.879111  0.000000  1
  B  B5  1  0.379111  0.120889  0.000000  1
  B  B6  1  0.120332  0.620332  0.000000  1
  B  B7  1  0.879668  0.379668  0.000000  1
  Ru  Ru8  1  0.563196  0.719567  0.500000  1
  Ru  Ru9  1  0.436804  0.280433  0.500000  1
  Ru  Ru10  1  0.077368  0.786436  0.500000  1
  Ru  Ru11  1  0.922632  0.213564  0.500000  1
  Ru  Ru12  1  0.286436  0.577368  0.500000  1
  Ru  Ru13  1  0.713564  0.422632  0.500000  1
  Ru  Ru14  1  0.219567  0.063196  0.500000  1
  Ru  Ru15  1  0.780433  0.936804  0.500000  1
  Ru  Ru16  1  0.500000  0.000000  0.500000  1
  Ru  Ru17  1  0.000000  0.500000  0.500000  1
  W  W18  1  0.500000  0.500000  0.000000  1
  W  W19  1  0.000000  0.000000  0.000000  1
