# generated using pymatgen
data_Mg2Sc8In2GaAu7
_symmetry_space_group_name_H-M   'P 1'
_cell_length_a   7.68327821
_cell_length_b   7.73012423
_cell_length_c   6.95797083
_cell_angle_alpha   89.98011914
_cell_angle_beta   90.08685640
_cell_angle_gamma   90.49214168
_symmetry_Int_Tables_number   1
_chemical_formula_structural   Mg2Sc8In2GaAu7
_chemical_formula_sum   'Mg2 Sc8 In2 Ga1 Au7'
_cell_volume   413.23689705
_cell_formula_units_Z   1
loop_
 _symmetry_equiv_pos_site_id
 _symmetry_equiv_pos_as_xyz
  1  'x, y, z'
loop_
 _atom_site_type_symbol
 _atom_site_label
 _atom_site_symmetry_multiplicity
 _atom_site_fract_x
 _atom_site_fract_y
 _atom_site_fract_z
 _atom_site_occupancy
  Mg  Mg0  1  0.500845  0.998425  0.251039  1
  Mg  Mg1  1  0.500090  0.000259  0.748224  1
  Sc  Sc2  1  0.135356  0.164265  0.999521  1
  Sc  Sc3  1  0.859633  0.832795  0.002333  1
  Sc  Sc4  1  0.662341  0.358827  0.503092  1
  Sc  Sc5  1  0.335185  0.639363  0.503816  1
  Sc  Sc6  1  0.696178  0.334374  0.995141  1
  Sc  Sc7  1  0.308967  0.671274  0.996950  1
  Sc  Sc8  1  0.833631  0.809872  0.497202  1
  Sc  Sc9  1  0.168505  0.191969  0.500744  1
  In  In10  1  0.000592  0.499907  0.251923  1
  In  In11  1  0.000934  0.500906  0.746076  1
  Ga  Ga12  1  0.379478  0.357381  0.217412  1
  Au  Au13  1  0.623197  0.645192  0.773937  1
  Au  Au14  1  0.616274  0.635902  0.226066  1
  Au  Au15  1  0.856218  0.121119  0.722781  1
  Au  Au16  1  0.854416  0.123694  0.275847  1
  Au  Au17  1  0.378162  0.356394  0.788265  1
  Au  Au18  1  0.146153  0.879346  0.275784  1
  Au  Au19  1  0.143846  0.878735  0.723848  1
