# generated using pymatgen
data_Na4YMoO6
_symmetry_space_group_name_H-M   'P 1'
_cell_length_a   5.73373602
_cell_length_b   5.73372655
_cell_length_c   5.81657934
_cell_angle_alpha   99.41506215
_cell_angle_beta   99.41531527
_cell_angle_gamma   120.28965335
_symmetry_Int_Tables_number   1
_chemical_formula_structural   Na4YMoO6
_chemical_formula_sum   'Na4 Y1 Mo1 O6'
_cell_volume   155.94928481
_cell_formula_units_Z   1
loop_
 _symmetry_equiv_pos_site_id
 _symmetry_equiv_pos_as_xyz
  1  'x, y, z'
loop_
 _atom_site_type_symbol
 _atom_site_label
 _atom_site_symmetry_multiplicity
 _atom_site_fract_x
 _atom_site_fract_y
 _atom_site_fract_z
 _atom_site_occupancy
  Na  Na0  1  0.497582  0.502418  0.000001  1
  Na  Na1  1  0.004261  0.995742  0.500001  1
  Na  Na2  1  0.657847  0.342151  0.500001  1
  Na  Na3  1  0.339872  0.660130  0.500002  1
  Y  Y4  1  0.837118  0.162883  0.000001  1
  Mo  Mo5  1  0.166686  0.833314  0.999999  1
  O  O6  1  0.959229  0.609620  0.202230  1
  O  O7  1  0.221613  0.195155  0.217831  1
  O  O8  1  0.546415  0.925844  0.215457  1
  O  O9  1  0.074155  0.453585  0.784542  1
  O  O10  1  0.804845  0.778388  0.782168  1
  O  O11  1  0.390378  0.040772  0.797770  1
