# generated using pymatgen
data_NdTm(Si7Rh3)2
_symmetry_space_group_name_H-M   'P 1'
_cell_length_a   8.01393062
_cell_length_b   8.01393079
_cell_length_c   8.01393305
_cell_angle_alpha   57.11519877
_cell_angle_beta   57.11519630
_cell_angle_gamma   57.11519189
_symmetry_Int_Tables_number   1
_chemical_formula_structural   NdTm(Si7Rh3)2
_chemical_formula_sum   'Nd1 Tm1 Si14 Rh6'
_cell_volume   339.73949037
_cell_formula_units_Z   1
loop_
 _symmetry_equiv_pos_site_id
 _symmetry_equiv_pos_as_xyz
  1  'x, y, z'
loop_
 _atom_site_type_symbol
 _atom_site_label
 _atom_site_symmetry_multiplicity
 _atom_site_fract_x
 _atom_site_fract_y
 _atom_site_fract_z
 _atom_site_occupancy
  Nd  Nd0  1  0.000000  0.000000  0.000000  1
  Tm  Tm1  1  0.500000  0.500000  0.500000  1
  Si  Si2  1  0.749914  0.749914  0.749914  1
  Si  Si3  1  0.250086  0.250086  0.250086  1
  Si  Si4  1  0.851116  0.065656  0.671205  1
  Si  Si5  1  0.671205  0.851116  0.065656  1
  Si  Si6  1  0.065656  0.671205  0.851116  1
  Si  Si7  1  0.647359  0.827277  0.435652  1
  Si  Si8  1  0.435652  0.647359  0.827277  1
  Si  Si9  1  0.827277  0.435652  0.647359  1
  Si  Si10  1  0.172723  0.564348  0.352641  1
  Si  Si11  1  0.564348  0.352641  0.172723  1
  Si  Si12  1  0.352641  0.172723  0.564348  1
  Si  Si13  1  0.934344  0.328795  0.148884  1
  Si  Si14  1  0.328795  0.148884  0.934344  1
  Si  Si15  1  0.148884  0.934344  0.328795  1
  Rh  Rh16  1  0.071084  0.432981  0.747908  1
  Rh  Rh17  1  0.252092  0.928916  0.567019  1
  Rh  Rh18  1  0.567019  0.252092  0.928916  1
  Rh  Rh19  1  0.928916  0.567019  0.252092  1
  Rh  Rh20  1  0.432981  0.747908  0.071084  1
  Rh  Rh21  1  0.747908  0.071084  0.432981  1
