# generated using pymatgen
data_LiHo2Er14In3Rh4
_symmetry_space_group_name_H-M   'P 1'
_cell_length_a   9.55953362
_cell_length_b   9.58651122
_cell_length_c   9.56630704
_cell_angle_alpha   60.05981472
_cell_angle_beta   59.97683172
_cell_angle_gamma   60.08025171
_symmetry_Int_Tables_number   1
_chemical_formula_structural   LiHo2Er14In3Rh4
_chemical_formula_sum   'Li1 Ho2 Er14 In3 Rh4'
_cell_volume   620.45349140
_cell_formula_units_Z   1
loop_
 _symmetry_equiv_pos_site_id
 _symmetry_equiv_pos_as_xyz
  1  'x, y, z'
loop_
 _atom_site_type_symbol
 _atom_site_label
 _atom_site_symmetry_multiplicity
 _atom_site_fract_x
 _atom_site_fract_y
 _atom_site_fract_z
 _atom_site_occupancy
  Li  Li0  1  0.427161  0.718468  0.427221  1
  Ho  Ho1  1  0.188682  0.190677  0.810227  1
  Ho  Ho2  1  0.436922  0.062155  0.064045  1
  Er  Er3  1  0.436964  0.062207  0.437079  1
  Er  Er4  1  0.063255  0.436394  0.063532  1
  Er  Er5  1  0.649297  0.052118  0.649240  1
  Er  Er6  1  0.186173  0.814705  0.813175  1
  Er  Er7  1  0.063390  0.062115  0.437330  1
  Er  Er8  1  0.810335  0.190556  0.188729  1
  Er  Er9  1  0.813562  0.814267  0.186147  1
  Er  Er10  1  0.651339  0.649175  0.047596  1
  Er  Er11  1  0.651271  0.649307  0.651736  1
  Er  Er12  1  0.063342  0.436262  0.436856  1
  Er  Er13  1  0.048448  0.648998  0.651240  1
  Er  Er14  1  0.810422  0.190585  0.810314  1
  Er  Er15  1  0.437058  0.435889  0.063557  1
  Er  Er16  1  0.186089  0.814601  0.185961  1
  In  In17  1  0.416330  0.421173  0.746238  1
  In  In18  1  0.746292  0.421105  0.416293  1
  In  In19  1  0.416325  0.421109  0.416254  1
  Rh  Rh20  1  0.856472  0.430474  0.856514  1
  Rh  Rh21  1  0.856432  0.859234  0.427946  1
  Rh  Rh22  1  0.427944  0.859199  0.856402  1
  Rh  Rh23  1  0.856492  0.859231  0.856365  1
