# generated using pymatgen
data_Sc2Al10Os3
_symmetry_space_group_name_H-M   'P 1'
_cell_length_a   8.88837000
_cell_length_b   8.88837000
_cell_length_c   6.20705200
_cell_angle_alpha   90.00000000
_cell_angle_beta   90.00000000
_cell_angle_gamma   90.00000000
_symmetry_Int_Tables_number   1
_chemical_formula_structural   Sc2Al10Os3
_chemical_formula_sum   'Sc4 Al20 Os6'
_cell_volume   490.37648180
_cell_formula_units_Z   2
loop_
 _symmetry_equiv_pos_site_id
 _symmetry_equiv_pos_as_xyz
  1  'x, y, z'
loop_
 _atom_site_type_symbol
 _atom_site_label
 _atom_site_symmetry_multiplicity
 _atom_site_fract_x
 _atom_site_fract_y
 _atom_site_fract_z
 _atom_site_occupancy
  Sc  Sc0  1  0.682131  0.182131  0.000000  1
  Sc  Sc1  1  0.317869  0.817869  0.000000  1
  Sc  Sc2  1  0.817869  0.682131  0.000000  1
  Sc  Sc3  1  0.182131  0.317869  0.000000  1
  Al  Al4  1  0.938386  0.205448  0.285795  1
  Al  Al5  1  0.705448  0.438386  0.285795  1
  Al  Al6  1  0.500000  0.000000  0.283408  1
  Al  Al7  1  0.561614  0.705448  0.714205  1
  Al  Al8  1  0.294552  0.561614  0.714205  1
  Al  Al9  1  0.794552  0.938386  0.285795  1
  Al  Al10  1  0.938386  0.205448  0.714205  1
  Al  Al11  1  0.294552  0.561614  0.285795  1
  Al  Al12  1  0.061614  0.794552  0.285795  1
  Al  Al13  1  0.705448  0.438386  0.714205  1
  Al  Al14  1  0.438386  0.294552  0.714205  1
  Al  Al15  1  0.061614  0.794552  0.714205  1
  Al  Al16  1  0.205448  0.061614  0.714205  1
  Al  Al17  1  0.794552  0.938386  0.714205  1
  Al  Al18  1  0.205448  0.061614  0.285795  1
  Al  Al19  1  0.000000  0.500000  0.716592  1
  Al  Al20  1  0.000000  0.500000  0.283408  1
  Al  Al21  1  0.561614  0.705448  0.285795  1
  Al  Al22  1  0.438386  0.294552  0.285795  1
  Al  Al23  1  0.500000  0.000000  0.716592  1
  Os  Os24  1  0.678059  0.178059  0.500000  1
  Os  Os25  1  0.821941  0.678059  0.500000  1
  Os  Os26  1  0.178059  0.321941  0.500000  1
  Os  Os27  1  0.000000  0.000000  0.000000  1
  Os  Os28  1  0.321941  0.821941  0.500000  1
  Os  Os29  1  0.500000  0.500000  0.000000  1
