# generated using pymatgen
data_Pr4CuSi4Rh9
_symmetry_space_group_name_H-M   'P 1'
_cell_length_a   11.95833154
_cell_length_b   11.95833077
_cell_length_c   11.95833064
_cell_angle_alpha   27.19634920
_cell_angle_beta   27.19635746
_cell_angle_gamma   27.19635388
_symmetry_Int_Tables_number   1
_chemical_formula_structural   Pr4CuSi4Rh9
_chemical_formula_sum   'Pr4 Cu1 Si4 Rh9'
_cell_volume   315.15487568
_cell_formula_units_Z   1
loop_
 _symmetry_equiv_pos_site_id
 _symmetry_equiv_pos_as_xyz
  1  'x, y, z'
loop_
 _atom_site_type_symbol
 _atom_site_label
 _atom_site_symmetry_multiplicity
 _atom_site_fract_x
 _atom_site_fract_y
 _atom_site_fract_z
 _atom_site_occupancy
  Pr  Pr0  1  0.948356  0.948356  0.948356  1
  Pr  Pr1  1  0.851101  0.851101  0.851101  1
  Pr  Pr2  1  0.148899  0.148899  0.148899  1
  Pr  Pr3  1  0.051644  0.051644  0.051644  1
  Cu  Cu4  1  0.500000  0.500000  0.500000  1
  Si  Si5  1  0.279269  0.279269  0.279269  1
  Si  Si6  1  0.386810  0.386810  0.386810  1
  Si  Si7  1  0.720731  0.720731  0.720731  1
  Si  Si8  1  0.613190  0.613190  0.613190  1
  Rh  Rh9  1  0.603700  0.603700  0.106537  1
  Rh  Rh10  1  0.893463  0.396300  0.396300  1
  Rh  Rh11  1  0.500000  0.000000  0.500000  1
  Rh  Rh12  1  0.396300  0.893463  0.396300  1
  Rh  Rh13  1  0.500000  0.500000  0.000000  1
  Rh  Rh14  1  0.106537  0.603700  0.603700  1
  Rh  Rh15  1  0.000000  0.500000  0.500000  1
  Rh  Rh16  1  0.396300  0.396300  0.893463  1
  Rh  Rh17  1  0.603700  0.106537  0.603700  1
