# generated using pymatgen
data_La7Y9(TmSi4)4
_symmetry_space_group_name_H-M   'P 1'
_cell_length_a   7.79837191
_cell_length_b   7.79374350
_cell_length_c   14.44645782
_cell_angle_alpha   90.16057539
_cell_angle_beta   89.98302655
_cell_angle_gamma   90.07101325
_symmetry_Int_Tables_number   1
_chemical_formula_structural   La7Y9(TmSi4)4
_chemical_formula_sum   'La7 Y9 Tm4 Si16'
_cell_volume   878.03002610
_cell_formula_units_Z   1
loop_
 _symmetry_equiv_pos_site_id
 _symmetry_equiv_pos_as_xyz
  1  'x, y, z'
loop_
 _atom_site_type_symbol
 _atom_site_label
 _atom_site_symmetry_multiplicity
 _atom_site_fract_x
 _atom_site_fract_y
 _atom_site_fract_z
 _atom_site_occupancy
  La  La0  1  0.007399  0.357417  0.542021  1
  La  La1  1  0.643545  0.992850  0.959837  1
  La  La2  1  0.139729  0.510465  0.793166  1
  La  La3  1  0.857807  0.489767  0.290319  1
  La  La4  1  0.508777  0.140226  0.206366  1
  La  La5  1  0.489452  0.859392  0.708521  1
  La  La6  1  0.357634  0.007260  0.456732  1
  Y  Y7  1  0.360892  0.491440  0.374057  1
  Y  Y8  1  0.860753  0.005684  0.373575  1
  Y  Y9  1  0.994032  0.136929  0.123963  1
  Y  Y10  1  0.007867  0.861821  0.624734  1
  Y  Y11  1  0.640504  0.511831  0.876874  1
  Y  Y12  1  0.491261  0.360999  0.625425  1
  Y  Y13  1  0.510332  0.640043  0.124264  1
  Y  Y14  1  0.136565  0.992519  0.876752  1
  Y  Y15  1  0.997884  0.635825  0.044431  1
  Tm  Tm16  1  0.680782  0.682217  0.499708  1
  Tm  Tm17  1  0.816448  0.184302  0.751235  1
  Tm  Tm18  1  0.181577  0.814498  0.249220  1
  Tm  Tm19  1  0.317174  0.319585  0.000060  1
  Si  Si20  1  0.063691  0.708858  0.437013  1
  Si  Si21  1  0.938800  0.294630  0.939125  1
  Si  Si22  1  0.710301  0.064916  0.562332  1
  Si  Si23  1  0.210156  0.437706  0.185936  1
  Si  Si24  1  0.787652  0.565637  0.687288  1
  Si  Si25  1  0.436021  0.212447  0.813650  1
  Si  Si26  1  0.565806  0.787342  0.311826  1
  Si  Si27  1  0.287038  0.931363  0.062881  1
  Si  Si28  1  0.843666  0.800708  0.807501  1
  Si  Si29  1  0.153058  0.202058  0.307752  1
  Si  Si30  1  0.803074  0.842565  0.186962  1
  Si  Si31  1  0.296076  0.653238  0.557669  1
  Si  Si32  1  0.708456  0.351584  0.060224  1
  Si  Si33  1  0.653452  0.295842  0.441507  1
  Si  Si34  1  0.341035  0.701161  0.943757  1
  Si  Si35  1  0.201304  0.154876  0.693323  1
