# generated using pymatgen
data_Gd3Ho5(OsI4)2
_symmetry_space_group_name_H-M   'P 1'
_cell_length_a   11.41751402
_cell_length_b   11.42977783
_cell_length_c   6.33578300
_cell_angle_alpha   89.49525446
_cell_angle_beta   89.54943806
_cell_angle_gamma   88.47979754
_symmetry_Int_Tables_number   1
_chemical_formula_structural   Gd3Ho5(OsI4)2
_chemical_formula_sum   'Gd3 Ho5 Os2 I8'
_cell_volume   826.47029426
_cell_formula_units_Z   1
loop_
 _symmetry_equiv_pos_site_id
 _symmetry_equiv_pos_as_xyz
  1  'x, y, z'
loop_
 _atom_site_type_symbol
 _atom_site_label
 _atom_site_symmetry_multiplicity
 _atom_site_fract_x
 _atom_site_fract_y
 _atom_site_fract_z
 _atom_site_occupancy
  Gd  Gd0  1  0.200903  0.916368  0.999000  1
  Gd  Gd1  1  0.798585  0.084896  0.001385  1
  Gd  Gd2  1  0.084489  0.799857  0.502081  1
  Ho  Ho3  1  0.917795  0.194687  0.497569  1
  Ho  Ho4  1  0.807883  0.922874  0.504312  1
  Ho  Ho5  1  0.191856  0.077188  0.495732  1
  Ho  Ho6  1  0.076306  0.192077  0.995153  1
  Ho  Ho7  1  0.922869  0.809114  0.004493  1
  Os  Os8  1  0.999672  0.000517  0.250533  1
  Os  Os9  1  0.999701  0.000458  0.749346  1
  I  I10  1  0.356289  0.851209  0.500260  1
  I  I11  1  0.646969  0.150612  0.499383  1
  I  I12  1  0.148569  0.644622  0.999559  1
  I  I13  1  0.851190  0.355807  0.001554  1
  I  I14  1  0.349232  0.147191  0.002885  1
  I  I15  1  0.650874  0.853309  0.997217  1
  I  I16  1  0.853752  0.651270  0.496972  1
  I  I17  1  0.143063  0.347945  0.502567  1
