# generated using pymatgen
data_Ti8Tc3OsRu4
_symmetry_space_group_name_H-M   'P 1'
_cell_length_a   6.19329900
_cell_length_b   6.19328500
_cell_length_c   6.17967800
_cell_angle_alpha   89.99955545
_cell_angle_beta   89.99964807
_cell_angle_gamma   90.00049957
_symmetry_Int_Tables_number   1
_chemical_formula_structural   Ti8Tc3OsRu4
_chemical_formula_sum   'Ti8 Tc3 Os1 Ru4'
_cell_volume   237.03307971
_cell_formula_units_Z   1
loop_
 _symmetry_equiv_pos_site_id
 _symmetry_equiv_pos_as_xyz
  1  'x, y, z'
loop_
 _atom_site_type_symbol
 _atom_site_label
 _atom_site_symmetry_multiplicity
 _atom_site_fract_x
 _atom_site_fract_y
 _atom_site_fract_z
 _atom_site_occupancy
  Ti  Ti0  1  0.499390  0.999392  0.250845  1
  Ti  Ti1  1  0.499390  0.500605  0.250847  1
  Ti  Ti2  1  0.000608  0.999395  0.250845  1
  Ti  Ti3  1  0.000608  0.500609  0.250846  1
  Ti  Ti4  1  0.000608  0.999392  0.749153  1
  Ti  Ti5  1  0.000609  0.500606  0.749154  1
  Ti  Ti6  1  0.499394  0.999393  0.749156  1
  Ti  Ti7  1  0.499394  0.500609  0.749156  1
  Tc  Tc8  1  0.249999  0.750002  0.000002  1
  Tc  Tc9  1  0.750000  0.250000  0.499997  1
  Tc  Tc10  1  0.250002  0.750000  0.500003  1
  Os  Os11  1  0.749999  0.250000  0.000000  1
  Ru  Ru12  1  0.250000  0.250000  0.000003  1
  Ru  Ru13  1  0.749998  0.750002  0.999998  1
  Ru  Ru14  1  0.750002  0.750001  0.499992  1
  Ru  Ru15  1  0.250000  0.250001  0.500009  1
