# generated using pymatgen
data_Ho5Tm11ZnIn3Rh4
_symmetry_space_group_name_H-M   'P 1'
_cell_length_a   9.52398217
_cell_length_b   9.51096986
_cell_length_c   9.51096919
_cell_angle_alpha   60.03083379
_cell_angle_beta   59.97868690
_cell_angle_gamma   59.97868935
_symmetry_Int_Tables_number   1
_chemical_formula_structural   Ho5Tm11ZnIn3Rh4
_chemical_formula_sum   'Ho5 Tm11 Zn1 In3 Rh4'
_cell_volume   609.13592929
_cell_formula_units_Z   1
loop_
 _symmetry_equiv_pos_site_id
 _symmetry_equiv_pos_as_xyz
  1  'x, y, z'
loop_
 _atom_site_type_symbol
 _atom_site_label
 _atom_site_symmetry_multiplicity
 _atom_site_fract_x
 _atom_site_fract_y
 _atom_site_fract_z
 _atom_site_occupancy
  Ho  Ho0  1  0.061720  0.062024  0.438172  1
  Ho  Ho1  1  0.436081  0.068842  0.435700  1
  Ho  Ho2  1  0.061720  0.438172  0.062024  1
  Ho  Ho3  1  0.054421  0.646786  0.646786  1
  Ho  Ho4  1  0.436081  0.435700  0.068842  1
  Tm  Tm5  1  0.646967  0.053197  0.647339  1
  Tm  Tm6  1  0.188891  0.812518  0.188475  1
  Tm  Tm7  1  0.188891  0.188475  0.812518  1
  Tm  Tm8  1  0.810107  0.810236  0.190874  1
  Tm  Tm9  1  0.439297  0.060734  0.060734  1
  Tm  Tm10  1  0.812478  0.188760  0.188760  1
  Tm  Tm11  1  0.067728  0.436692  0.436692  1
  Tm  Tm12  1  0.810107  0.190874  0.810236  1
  Tm  Tm13  1  0.190887  0.810572  0.810572  1
  Tm  Tm14  1  0.646967  0.647339  0.053197  1
  Tm  Tm15  1  0.651638  0.651830  0.651830  1
  Zn  Zn16  1  0.416301  0.416152  0.416152  1
  In  In17  1  0.744742  0.417720  0.417720  1
  In  In18  1  0.418343  0.744644  0.417018  1
  In  In19  1  0.418343  0.417018  0.744644  1
  Rh  Rh20  1  0.858027  0.858895  0.426470  1
  Rh  Rh21  1  0.855001  0.857443  0.857443  1
  Rh  Rh22  1  0.427235  0.858908  0.858908  1
  Rh  Rh23  1  0.858027  0.426470  0.858895  1
