# generated using pymatgen
data_MnCr3Br7F
_symmetry_space_group_name_H-M   'P 1'
_cell_length_a   8.20002252
_cell_length_b   7.66552874
_cell_length_c   8.20002198
_cell_angle_alpha   59.18927984
_cell_angle_beta   53.00582658
_cell_angle_gamma   59.18928241
_symmetry_Int_Tables_number   1
_chemical_formula_structural   MnCr3Br7F
_chemical_formula_sum   'Mn1 Cr3 Br7 F1'
_cell_volume   337.57678211
_cell_formula_units_Z   1
loop_
 _symmetry_equiv_pos_site_id
 _symmetry_equiv_pos_as_xyz
  1  'x, y, z'
loop_
 _atom_site_type_symbol
 _atom_site_label
 _atom_site_symmetry_multiplicity
 _atom_site_fract_x
 _atom_site_fract_y
 _atom_site_fract_z
 _atom_site_occupancy
  Mn  Mn0  1  0.134956  0.619590  0.134956  1
  Cr  Cr1  1  0.606211  0.141268  0.133723  1
  Cr  Cr2  1  0.125870  0.127462  0.125870  1
  Cr  Cr3  1  0.133723  0.141268  0.606211  1
  Br  Br4  1  0.374231  0.369420  0.881415  1
  Br  Br5  1  0.896513  0.887314  0.896513  1
  Br  Br6  1  0.883211  0.881495  0.375624  1
  Br  Br7  1  0.375624  0.881495  0.883211  1
  Br  Br8  1  0.383287  0.876519  0.383287  1
  Br  Br9  1  0.872697  0.374313  0.872697  1
  Br  Br10  1  0.881415  0.369420  0.374231  1
  F  F11  1  0.332259  0.330438  0.332259  1
