# generated using pymatgen
data_CeYHgRh2
_symmetry_space_group_name_H-M   'P 1'
_cell_length_a   7.67865704
_cell_length_b   7.67865754
_cell_length_c   3.64388500
_cell_angle_alpha   90.00000000
_cell_angle_beta   90.00000000
_cell_angle_gamma   86.29328393
_symmetry_Int_Tables_number   1
_chemical_formula_structural   CeYHgRh2
_chemical_formula_sum   'Ce2 Y2 Hg2 Rh4'
_cell_volume   214.40048171
_cell_formula_units_Z   2
loop_
 _symmetry_equiv_pos_site_id
 _symmetry_equiv_pos_as_xyz
  1  'x, y, z'
loop_
 _atom_site_type_symbol
 _atom_site_label
 _atom_site_symmetry_multiplicity
 _atom_site_fract_x
 _atom_site_fract_y
 _atom_site_fract_z
 _atom_site_occupancy
  Ce  Ce0  1  0.169953  0.330047  0.500000  1
  Ce  Ce1  1  0.830047  0.669953  0.500000  1
  Y  Y2  1  0.668378  0.168378  0.500000  1
  Y  Y3  1  0.331622  0.831622  0.500000  1
  Hg  Hg4  1  0.000000  0.000000  0.000000  1
  Hg  Hg5  1  0.500000  0.500000  0.000000  1
  Rh  Rh6  1  0.128331  0.628331  0.000000  1
  Rh  Rh7  1  0.871669  0.371669  0.000000  1
  Rh  Rh8  1  0.640581  0.859419  0.000000  1
  Rh  Rh9  1  0.359419  0.140581  0.000000  1
