# generated using pymatgen
data_CeNd2Sn3IrRu2
_symmetry_space_group_name_H-M   'P 1'
_cell_length_a   7.23270447
_cell_length_b   7.78147806
_cell_length_c   4.24043100
_cell_angle_alpha   90.00000000
_cell_angle_beta   90.00000000
_cell_angle_gamma   122.54330734
_symmetry_Int_Tables_number   1
_chemical_formula_structural   CeNd2Sn3IrRu2
_chemical_formula_sum   'Ce1 Nd2 Sn3 Ir1 Ru2'
_cell_volume   201.18366168
_cell_formula_units_Z   1
loop_
 _symmetry_equiv_pos_site_id
 _symmetry_equiv_pos_as_xyz
  1  'x, y, z'
loop_
 _atom_site_type_symbol
 _atom_site_label
 _atom_site_symmetry_multiplicity
 _atom_site_fract_x
 _atom_site_fract_y
 _atom_site_fract_z
 _atom_site_occupancy
  Ce  Ce0  1  0.000000  0.584432  0.000000  1
  Nd  Nd1  1  0.413999  0.410022  0.000000  1
  Nd  Nd2  1  0.586001  0.996023  0.000000  1
  Sn  Sn3  1  0.000000  0.229884  0.500000  1
  Sn  Sn4  1  0.731030  0.746531  0.500000  1
  Sn  Sn5  1  0.268970  0.015501  0.500000  1
  Ir  Ir6  1  0.000000  0.988618  0.000000  1
  Ru  Ru7  1  0.736818  0.382903  0.500000  1
  Ru  Ru8  1  0.263182  0.646087  0.500000  1
