# generated using pymatgen
data_SmCu2Pt2Au
_symmetry_space_group_name_H-M   'P 1'
_cell_length_a   5.11665893
_cell_length_b   5.22273956
_cell_length_c   5.22273824
_cell_angle_alpha   63.60686035
_cell_angle_beta   60.66963789
_cell_angle_gamma   60.66964755
_symmetry_Int_Tables_number   1
_chemical_formula_structural   SmCu2Pt2Au
_chemical_formula_sum   'Sm1 Cu2 Pt2 Au1'
_cell_volume   102.16337256
_cell_formula_units_Z   1
loop_
 _symmetry_equiv_pos_site_id
 _symmetry_equiv_pos_as_xyz
  1  'x, y, z'
loop_
 _atom_site_type_symbol
 _atom_site_label
 _atom_site_symmetry_multiplicity
 _atom_site_fract_x
 _atom_site_fract_y
 _atom_site_fract_z
 _atom_site_occupancy
  Sm  Sm0  1  0.996138  0.003862  0.003862  1
  Cu  Cu1  1  0.129497  0.619349  0.619349  1
  Cu  Cu2  1  0.631804  0.619349  0.619349  1
  Pt  Pt3  1  0.626561  0.623712  0.123168  1
  Pt  Pt4  1  0.626561  0.123168  0.623712  1
  Au  Au5  1  0.239439  0.260561  0.260561  1
