# generated using pymatgen
data_Ce2V2Ni10P7
_symmetry_space_group_name_H-M   'P 1'
_cell_length_a   9.16851242
_cell_length_b   9.11270702
_cell_length_c   3.69662200
_cell_angle_alpha   90.00000000
_cell_angle_beta   90.00000000
_cell_angle_gamma   119.94698355
_symmetry_Int_Tables_number   1
_chemical_formula_structural   Ce2V2Ni10P7
_chemical_formula_sum   'Ce2 V2 Ni10 P7'
_cell_volume   267.61701723
_cell_formula_units_Z   1
loop_
 _symmetry_equiv_pos_site_id
 _symmetry_equiv_pos_as_xyz
  1  'x, y, z'
loop_
 _atom_site_type_symbol
 _atom_site_label
 _atom_site_symmetry_multiplicity
 _atom_site_fract_x
 _atom_site_fract_y
 _atom_site_fract_z
 _atom_site_occupancy
  Ce  Ce0  1  0.337645  0.666934  0.000000  1
  Ce  Ce1  1  0.667149  0.336295  0.500001  1
  V  V2  1  0.213706  0.098307  0.500001  1
  V  V3  1  0.900879  0.112797  0.500001  1
  Ni  Ni4  1  0.431906  0.059335  0.000000  1
  Ni  Ni5  1  0.153177  0.280701  0.000000  1
  Ni  Ni6  1  0.940226  0.372506  0.000000  1
  Ni  Ni7  1  0.626524  0.564292  0.000000  1
  Ni  Ni8  1  0.125032  0.845486  0.000000  1
  Ni  Ni9  1  0.723876  0.874397  0.000000  1
  Ni  Ni10  1  0.380651  0.433814  0.500001  1
  Ni  Ni11  1  0.048205  0.619023  0.500001  1
  Ni  Ni12  1  0.881585  0.785236  0.500001  1
  Ni  Ni13  1  0.566391  0.948724  0.500001  1
  P  P14  1  0.000411  0.998419  0.000000  1
  P  P15  1  0.704938  0.110262  0.000000  1
  P  P16  1  0.403799  0.294319  0.000000  1
  P  P17  1  0.890306  0.597292  0.000000  1
  P  P18  1  0.107736  0.401772  0.500001  1
  P  P19  1  0.601857  0.709114  0.500001  1
  P  P20  1  0.293999  0.890974  0.500001  1
