# generated using pymatgen
data_Sc4Fe8Co11MoP12
_symmetry_space_group_name_H-M   'P 1'
_cell_length_a   3.62825700
_cell_length_b   10.15920719
_cell_length_c   11.68468677
_cell_angle_alpha   90.03483434
_cell_angle_beta   90.00000000
_cell_angle_gamma   90.00000000
_symmetry_Int_Tables_number   1
_chemical_formula_structural   Sc4Fe8Co11MoP12
_chemical_formula_sum   'Sc4 Fe8 Co11 Mo1 P12'
_cell_volume   430.69998255
_cell_formula_units_Z   1
loop_
 _symmetry_equiv_pos_site_id
 _symmetry_equiv_pos_as_xyz
  1  'x, y, z'
loop_
 _atom_site_type_symbol
 _atom_site_label
 _atom_site_symmetry_multiplicity
 _atom_site_fract_x
 _atom_site_fract_y
 _atom_site_fract_z
 _atom_site_occupancy
  Sc  Sc0  1  0.250000  0.579754  0.706066  1
  Sc  Sc1  1  0.250000  0.921713  0.205074  1
  Sc  Sc2  1  0.750000  0.421351  0.295138  1
  Sc  Sc3  1  0.750000  0.079933  0.792774  1
  Fe  Fe4  1  0.250000  0.095686  0.986544  1
  Fe  Fe5  1  0.250000  0.458107  0.933218  1
  Fe  Fe6  1  0.250000  0.037009  0.428977  1
  Fe  Fe7  1  0.750000  0.533043  0.068758  1
  Fe  Fe8  1  0.750000  0.963463  0.567315  1
  Fe  Fe9  1  0.250000  0.787579  0.491363  1
  Fe  Fe10  1  0.750000  0.291778  0.009437  1
  Fe  Fe11  1  0.750000  0.212162  0.508840  1
  Co  Co12  1  0.250000  0.224392  0.173832  1
  Co  Co13  1  0.250000  0.275837  0.675661  1
  Co  Co14  1  0.750000  0.775957  0.822421  1
  Co  Co15  1  0.750000  0.723732  0.327410  1
  Co  Co16  1  0.250000  0.880044  0.699320  1
  Co  Co17  1  0.250000  0.617524  0.205865  1
  Co  Co18  1  0.750000  0.122746  0.296572  1
  Co  Co19  1  0.750000  0.379129  0.798425  1
  Co  Co20  1  0.250000  0.406203  0.486916  1
  Co  Co21  1  0.750000  0.591332  0.516167  1
  Co  Co22  1  0.750000  0.909173  0.015583  1
  Mo  Mo23  1  0.250000  0.708927  0.989951  1
  P  P24  1  0.250000  0.423018  0.116257  1
  P  P25  1  0.250000  0.076344  0.612380  1
  P  P26  1  0.750000  0.574265  0.883574  1
  P  P27  1  0.750000  0.924999  0.384799  1
  P  P28  1  0.250000  0.260648  0.866168  1
  P  P29  1  0.250000  0.236336  0.365769  1
  P  P30  1  0.750000  0.735263  0.139229  1
  P  P31  1  0.750000  0.764928  0.633014  1
  P  P32  1  0.250000  0.598744  0.393912  1
  P  P33  1  0.250000  0.908026  0.887706  1
  P  P34  1  0.750000  0.398256  0.609521  1
  P  P35  1  0.750000  0.102599  0.106043  1
