# generated using pymatgen
data_ErTm2Hf5Pt4
_symmetry_space_group_name_H-M   'P 1'
_cell_length_a   4.62096700
_cell_length_b   6.90588742
_cell_length_c   8.17272603
_cell_angle_alpha   89.74158147
_cell_angle_beta   90.00000000
_cell_angle_gamma   90.00000000
_symmetry_Int_Tables_number   1
_chemical_formula_structural   ErTm2Hf5Pt4
_chemical_formula_sum   'Er1 Tm2 Hf5 Pt4'
_cell_volume   260.80438249
_cell_formula_units_Z   1
loop_
 _symmetry_equiv_pos_site_id
 _symmetry_equiv_pos_as_xyz
  1  'x, y, z'
loop_
 _atom_site_type_symbol
 _atom_site_label
 _atom_site_symmetry_multiplicity
 _atom_site_fract_x
 _atom_site_fract_y
 _atom_site_fract_z
 _atom_site_occupancy
  Er  Er0  1  0.250000  0.483043  0.181137  1
  Tm  Tm1  1  0.750000  0.014457  0.675854  1
  Tm  Tm2  1  0.750000  0.515841  0.819300  1
  Hf  Hf3  1  0.250000  0.851344  0.925810  1
  Hf  Hf4  1  0.250000  0.348311  0.578362  1
  Hf  Hf5  1  0.750000  0.144024  0.081281  1
  Hf  Hf6  1  0.750000  0.653710  0.420047  1
  Hf  Hf7  1  0.250000  0.987421  0.329070  1
  Pt  Pt8  1  0.250000  0.234074  0.904398  1
  Pt  Pt9  1  0.250000  0.740134  0.590243  1
  Pt  Pt10  1  0.750000  0.764468  0.095037  1
  Pt  Pt11  1  0.750000  0.263172  0.399465  1
