# generated using pymatgen
data_Dy16Er4(Ir3Os)3
_symmetry_space_group_name_H-M   'P 1'
_cell_length_a   10.84697800
_cell_length_b   10.84697800
_cell_length_c   6.39551500
_cell_angle_alpha   90.00000000
_cell_angle_beta   90.00000000
_cell_angle_gamma   90.00000000
_symmetry_Int_Tables_number   1
_chemical_formula_structural   Dy16Er4(Ir3Os)3
_chemical_formula_sum   'Dy16 Er4 Ir9 Os3'
_cell_volume   752.47667175
_cell_formula_units_Z   1
loop_
 _symmetry_equiv_pos_site_id
 _symmetry_equiv_pos_as_xyz
  1  'x, y, z'
loop_
 _atom_site_type_symbol
 _atom_site_label
 _atom_site_symmetry_multiplicity
 _atom_site_fract_x
 _atom_site_fract_y
 _atom_site_fract_z
 _atom_site_occupancy
  Dy  Dy0  1  0.293755  0.086506  0.378039  1
  Dy  Dy1  1  0.293765  0.913736  0.878152  1
  Dy  Dy2  1  0.706235  0.086264  0.878152  1
  Dy  Dy3  1  0.706245  0.913494  0.378039  1
  Dy  Dy4  1  0.586264  0.793765  0.878152  1
  Dy  Dy5  1  0.586506  0.206245  0.378039  1
  Dy  Dy6  1  0.413494  0.793755  0.378039  1
  Dy  Dy7  1  0.413736  0.206235  0.878152  1
  Dy  Dy8  1  0.208061  0.412871  0.623524  1
  Dy  Dy9  1  0.207699  0.587203  0.119680  1
  Dy  Dy10  1  0.792301  0.412797  0.119680  1
  Dy  Dy11  1  0.791939  0.587129  0.623524  1
  Dy  Dy12  1  0.912797  0.707699  0.119680  1
  Dy  Dy13  1  0.912871  0.291939  0.623524  1
  Dy  Dy14  1  0.087129  0.708061  0.623524  1
  Dy  Dy15  1  0.087203  0.292301  0.119680  1
  Er  Er16  1  0.000000  0.000000  0.499608  1
  Er  Er17  1  0.000000  0.000000  0.999822  1
  Er  Er18  1  0.500000  0.500000  0.999822  1
  Er  Er19  1  0.500000  0.500000  0.499608  1
  Ir  Ir20  1  0.848848  0.152457  0.250314  1
  Ir  Ir21  1  0.848653  0.847702  0.749821  1
  Ir  Ir22  1  0.151347  0.152298  0.749821  1
  Ir  Ir23  1  0.151152  0.847543  0.250314  1
  Ir  Ir24  1  0.652298  0.348653  0.749821  1
  Ir  Ir25  1  0.652457  0.651152  0.250314  1
  Ir  Ir26  1  0.347543  0.348848  0.250314  1
  Ir  Ir27  1  0.347702  0.651347  0.749821  1
  Ir  Ir28  1  0.000000  0.500000  0.377560  1
  Os  Os29  1  0.500000  0.000000  0.124723  1
  Os  Os30  1  0.500000  0.000000  0.624574  1
  Os  Os31  1  0.000000  0.500000  0.876165  1
