# generated using pymatgen
data_Sc5Nb3Co16(As2P)4
_symmetry_space_group_name_H-M   'P 1'
_cell_length_a   12.34924099
_cell_length_b   12.37229665
_cell_length_c   3.69717800
_cell_angle_alpha   90.00000000
_cell_angle_beta   90.00000000
_cell_angle_gamma   119.98397072
_symmetry_Int_Tables_number   1
_chemical_formula_structural   Sc5Nb3Co16(As2P)4
_chemical_formula_sum   'Sc5 Nb3 Co16 As8 P4'
_cell_volume   489.28478103
_cell_formula_units_Z   1
loop_
 _symmetry_equiv_pos_site_id
 _symmetry_equiv_pos_as_xyz
  1  'x, y, z'
loop_
 _atom_site_type_symbol
 _atom_site_label
 _atom_site_symmetry_multiplicity
 _atom_site_fract_x
 _atom_site_fract_y
 _atom_site_fract_z
 _atom_site_occupancy
  Sc  Sc0  1  0.823210  0.998849  0.500000  1
  Sc  Sc1  1  0.001228  0.822968  0.500000  1
  Sc  Sc2  1  0.177588  0.178807  0.500000  1
  Sc  Sc3  1  0.323872  0.655894  0.000000  1
  Sc  Sc4  1  0.666762  0.334076  0.000000  1
  Nb  Nb5  1  0.449783  0.007815  0.000000  1
  Nb  Nb6  1  0.997568  0.444602  0.000000  1
  Nb  Nb7  1  0.556608  0.550782  0.000000  1
  Co  Co8  1  0.291326  0.006224  0.500000  1
  Co  Co9  1  0.997419  0.288529  0.500000  1
  Co  Co10  1  0.714841  0.708583  0.500000  1
  Co  Co11  1  0.626443  0.799387  0.000000  1
  Co  Co12  1  0.200597  0.825434  0.000000  1
  Co  Co13  1  0.172793  0.379442  0.000000  1
  Co  Co14  1  0.382758  0.179217  0.000000  1
  Co  Co15  1  0.795086  0.616478  0.000000  1
  Co  Co16  1  0.822996  0.206505  0.000000  1
  Co  Co17  1  0.527233  0.879111  0.500000  1
  Co  Co18  1  0.127333  0.640564  0.500000  1
  Co  Co19  1  0.345259  0.475978  0.500000  1
  Co  Co20  1  0.489054  0.354291  0.500000  1
  Co  Co21  1  0.865796  0.511309  0.500000  1
  Co  Co22  1  0.646611  0.137593  0.500000  1
  Co  Co23  1  0.000006  0.000538  0.000000  1
  As  As24  1  0.177916  0.002648  0.000000  1
  As  As25  1  0.998007  0.176112  0.000000  1
  As  As26  1  0.825271  0.821800  0.000000  1
  As  As27  1  0.509978  0.682466  0.500000  1
  As  As28  1  0.318214  0.828131  0.500000  1
  As  As29  1  0.655759  0.002135  0.000000  1
  As  As30  1  0.999372  0.652930  0.000000  1
  As  As31  1  0.345615  0.346903  0.000000  1
  P  P32  1  0.166728  0.481695  0.500000  1
  P  P33  1  0.486770  0.174334  0.500000  1
  P  P34  1  0.686546  0.513100  0.500000  1
  P  P35  1  0.827649  0.314767  0.500000  1
