# generated using pymatgen
data_Zr3Co6ReB2
_symmetry_space_group_name_H-M   'P 1'
_cell_length_a   4.97785709
_cell_length_b   4.97748068
_cell_length_c   14.04459900
_cell_angle_alpha   90.00000000
_cell_angle_beta   90.00000000
_cell_angle_gamma   119.98919703
_symmetry_Int_Tables_number   1
_chemical_formula_structural   Zr3Co6ReB2
_chemical_formula_sum   'Zr6 Co12 Re2 B4'
_cell_volume   301.39722458
_cell_formula_units_Z   2
loop_
 _symmetry_equiv_pos_site_id
 _symmetry_equiv_pos_as_xyz
  1  'x, y, z'
loop_
 _atom_site_type_symbol
 _atom_site_label
 _atom_site_symmetry_multiplicity
 _atom_site_fract_x
 _atom_site_fract_y
 _atom_site_fract_z
 _atom_site_occupancy
  Zr  Zr0  1  0.333343  0.666725  0.250000  1
  Zr  Zr1  1  0.666657  0.333275  0.750000  1
  Zr  Zr2  1  0.333287  0.666663  0.035414  1
  Zr  Zr3  1  0.666713  0.333337  0.535414  1
  Zr  Zr4  1  0.666713  0.333337  0.964586  1
  Zr  Zr5  1  0.333287  0.666663  0.464586  1
  Co  Co6  1  0.833010  0.666069  0.147044  1
  Co  Co7  1  0.166988  0.832952  0.647055  1
  Co  Co8  1  0.666000  0.832944  0.647043  1
  Co  Co9  1  0.334000  0.167056  0.147043  1
  Co  Co10  1  0.833012  0.167048  0.147055  1
  Co  Co11  1  0.166990  0.333931  0.852956  1
  Co  Co12  1  0.166988  0.832952  0.852945  1
  Co  Co13  1  0.166990  0.333931  0.647044  1
  Co  Co14  1  0.666000  0.832944  0.852957  1
  Co  Co15  1  0.334000  0.167056  0.352957  1
  Co  Co16  1  0.833010  0.666069  0.352956  1
  Co  Co17  1  0.833012  0.167048  0.352945  1
  Re  Re18  1  0.000000  0.000000  0.000000  1
  Re  Re19  1  0.000000  0.000000  0.500000  1
  B  B20  1  0.999977  0.000123  0.250000  1
  B  B21  1  0.000023  0.999877  0.750000  1
  B  B22  1  0.333280  0.666688  0.750000  1
  B  B23  1  0.666720  0.333312  0.250000  1
