# generated using pymatgen
data_HfZrV2(SeO3)8
_symmetry_space_group_name_H-M   'P 1'
_cell_length_a   8.40477713
_cell_length_b   8.48546661
_cell_length_c   8.29810450
_cell_angle_alpha   89.53383023
_cell_angle_beta   90.03689260
_cell_angle_gamma   90.07568963
_symmetry_Int_Tables_number   1
_chemical_formula_structural   HfZrV2(SeO3)8
_chemical_formula_sum   'Hf1 Zr1 V2 Se8 O24'
_cell_volume   591.78777473
_cell_formula_units_Z   1
loop_
 _symmetry_equiv_pos_site_id
 _symmetry_equiv_pos_as_xyz
  1  'x, y, z'
loop_
 _atom_site_type_symbol
 _atom_site_label
 _atom_site_symmetry_multiplicity
 _atom_site_fract_x
 _atom_site_fract_y
 _atom_site_fract_z
 _atom_site_occupancy
  Hf  Hf0  1  0.000000  0.000000  0.500000  1
  Zr  Zr1  1  0.500000  0.000000  0.000000  1
  V  V2  1  0.000000  0.500000  0.000000  1
  V  V3  1  0.500000  0.500000  0.500000  1
  Se  Se4  1  0.307047  0.660662  0.198388  1
  Se  Se5  1  0.808003  0.336587  0.302885  1
  Se  Se6  1  0.673484  0.799150  0.667595  1
  Se  Se7  1  0.170845  0.200703  0.829892  1
  Se  Se8  1  0.692953  0.339338  0.801612  1
  Se  Se9  1  0.191997  0.663413  0.697115  1
  Se  Se10  1  0.326516  0.200850  0.332405  1
  Se  Se11  1  0.829155  0.799297  0.170108  1
  O  O12  1  0.225745  0.544633  0.048694  1
  O  O13  1  0.726655  0.452838  0.452150  1
  O  O14  1  0.766507  0.944815  0.556870  1
  O  O15  1  0.262707  0.054935  0.941622  1
  O  O16  1  0.531897  0.907672  0.765616  1
  O  O17  1  0.447885  0.525872  0.270562  1
  O  O18  1  0.948520  0.471838  0.229953  1
  O  O19  1  0.030132  0.092137  0.730012  1
  O  O20  1  0.931160  0.220702  0.419240  1
  O  O21  1  0.555844  0.720787  0.513380  1
  O  O22  1  0.430543  0.776082  0.081865  1
  O  O23  1  0.052906  0.278486  0.983477  1
  O  O24  1  0.774255  0.455367  0.951306  1
  O  O25  1  0.273345  0.547162  0.547850  1
  O  O26  1  0.233493  0.055185  0.443130  1
  O  O27  1  0.737293  0.945065  0.058378  1
  O  O28  1  0.468103  0.092328  0.234384  1
  O  O29  1  0.552115  0.474128  0.729438  1
  O  O30  1  0.051480  0.528162  0.770047  1
  O  O31  1  0.969868  0.907863  0.269988  1
  O  O32  1  0.068840  0.779298  0.580760  1
  O  O33  1  0.444156  0.279213  0.486620  1
  O  O34  1  0.569457  0.223918  0.918135  1
  O  O35  1  0.947094  0.721514  0.016523  1
