# generated using pymatgen
data_Dy3Tm(Mn5P3)4
_symmetry_space_group_name_H-M   'P 1'
_cell_length_a   3.58724400
_cell_length_b   10.72637322
_cell_length_c   12.21043525
_cell_angle_alpha   89.97662929
_cell_angle_beta   90.00000000
_cell_angle_gamma   90.00000000
_symmetry_Int_Tables_number   1
_chemical_formula_structural   Dy3Tm(Mn5P3)4
_chemical_formula_sum   'Dy3 Tm1 Mn20 P12'
_cell_volume   469.83452928
_cell_formula_units_Z   1
loop_
 _symmetry_equiv_pos_site_id
 _symmetry_equiv_pos_as_xyz
  1  'x, y, z'
loop_
 _atom_site_type_symbol
 _atom_site_label
 _atom_site_symmetry_multiplicity
 _atom_site_fract_x
 _atom_site_fract_y
 _atom_site_fract_z
 _atom_site_occupancy
  Dy  Dy0  1  0.750000  0.413506  0.294241  1
  Dy  Dy1  1  0.750000  0.086511  0.794149  1
  Dy  Dy2  1  0.250000  0.913547  0.205736  1
  Tm  Tm3  1  0.250000  0.586264  0.705856  1
  Mn  Mn4  1  0.250000  0.410163  0.493839  1
  Mn  Mn5  1  0.750000  0.712269  0.320096  1
  Mn  Mn6  1  0.750000  0.787158  0.819691  1
  Mn  Mn7  1  0.250000  0.288240  0.679987  1
  Mn  Mn8  1  0.250000  0.617788  0.192733  1
  Mn  Mn9  1  0.750000  0.382842  0.806784  1
  Mn  Mn10  1  0.750000  0.117853  0.307220  1
  Mn  Mn11  1  0.250000  0.881439  0.692895  1
  Mn  Mn12  1  0.250000  0.033852  0.434448  1
  Mn  Mn13  1  0.750000  0.965546  0.565902  1
  Mn  Mn14  1  0.750000  0.533989  0.065003  1
  Mn  Mn15  1  0.250000  0.466523  0.933668  1
  Mn  Mn16  1  0.750000  0.910000  0.006581  1
  Mn  Mn17  1  0.250000  0.089997  0.993333  1
  Mn  Mn18  1  0.250000  0.716672  0.982524  1
  Mn  Mn19  1  0.750000  0.283327  0.017464  1
  Mn  Mn20  1  0.750000  0.217010  0.517737  1
  Mn  Mn21  1  0.250000  0.783340  0.482621  1
  Mn  Mn22  1  0.250000  0.212284  0.179933  1
  Mn  Mn23  1  0.750000  0.589946  0.507586  1
  P  P24  1  0.250000  0.591566  0.383962  1
  P  P25  1  0.750000  0.409730  0.616929  1
  P  P26  1  0.750000  0.091465  0.116230  1
  P  P27  1  0.250000  0.908235  0.883796  1
  P  P28  1  0.750000  0.763081  0.625322  1
  P  P29  1  0.250000  0.235511  0.375365  1
  P  P30  1  0.250000  0.411032  0.115029  1
  P  P31  1  0.750000  0.589098  0.883362  1
  P  P32  1  0.750000  0.910927  0.384738  1
  P  P33  1  0.250000  0.089075  0.615361  1
  P  P34  1  0.250000  0.264715  0.875260  1
  P  P35  1  0.750000  0.735500  0.124617  1
