# generated using pymatgen
data_Er2Re7Si4Tc
_symmetry_space_group_name_H-M   'P 1'
_cell_length_a   7.38413501
_cell_length_b   7.41015303
_cell_length_c   4.13092800
_cell_angle_alpha   90.00000000
_cell_angle_beta   90.00000000
_cell_angle_gamma   90.00772630
_symmetry_Int_Tables_number   1
_chemical_formula_structural   Er2Re7Si4Tc
_chemical_formula_sum   'Er2 Re7 Si4 Tc1'
_cell_volume   226.03434157
_cell_formula_units_Z   1
loop_
 _symmetry_equiv_pos_site_id
 _symmetry_equiv_pos_as_xyz
  1  'x, y, z'
loop_
 _atom_site_type_symbol
 _atom_site_label
 _atom_site_symmetry_multiplicity
 _atom_site_fract_x
 _atom_site_fract_y
 _atom_site_fract_z
 _atom_site_occupancy
  Er  Er0  1  0.500163  0.500393  0.000000  1
  Er  Er1  1  0.000126  0.000446  0.500000  1
  Re  Re2  1  0.158120  0.594688  0.500000  1
  Re  Re3  1  0.093302  0.340572  0.000000  1
  Re  Re4  1  0.907728  0.656823  0.000000  1
  Re  Re5  1  0.405273  0.841974  0.500000  1
  Re  Re6  1  0.592610  0.158680  0.500000  1
  Re  Re7  1  0.343207  0.093596  0.000000  1
  Re  Re8  1  0.840926  0.405921  0.500000  1
  Si  Si9  1  0.209069  0.792324  0.000000  1
  Si  Si10  1  0.790169  0.206974  0.000000  1
  Si  Si11  1  0.708743  0.710159  0.500000  1
  Si  Si12  1  0.290415  0.292185  0.500000  1
  Tc  Tc13  1  0.660150  0.905262  0.000000  1
