# generated using pymatgen
data_Bi6Sb(OsO9)2
_symmetry_space_group_name_H-M   'P 1'
_cell_length_a   9.32504000
_cell_length_b   9.32504041
_cell_length_c   5.36019900
_cell_angle_alpha   90.00000000
_cell_angle_beta   90.00000000
_cell_angle_gamma   119.99999856
_symmetry_Int_Tables_number   1
_chemical_formula_structural   Bi6Sb(OsO9)2
_chemical_formula_sum   'Bi6 Sb1 Os2 O18'
_cell_volume   403.65745442
_cell_formula_units_Z   1
loop_
 _symmetry_equiv_pos_site_id
 _symmetry_equiv_pos_as_xyz
  1  'x, y, z'
loop_
 _atom_site_type_symbol
 _atom_site_label
 _atom_site_symmetry_multiplicity
 _atom_site_fract_x
 _atom_site_fract_y
 _atom_site_fract_z
 _atom_site_occupancy
  Bi  Bi0  1  0.994667  0.374069  0.501417  1
  Bi  Bi1  1  0.283942  0.284953  0.005789  1
  Bi  Bi2  1  0.001012  0.716058  0.005789  1
  Bi  Bi3  1  0.625931  0.620598  0.501417  1
  Bi  Bi4  1  0.379402  0.005333  0.501417  1
  Bi  Bi5  1  0.715047  0.998988  0.005789  1
  Sb  Sb6  1  0.666667  0.333333  0.995471  1
  Os  Os7  1  0.000000  0.000000  0.496191  1
  Os  Os8  1  0.333333  0.666667  0.007850  1
  O  O9  1  0.078112  0.195280  0.699383  1
  O  O10  1  0.225810  0.472591  0.216191  1
  O  O11  1  0.140126  0.599002  0.802520  1
  O  O12  1  0.400998  0.541124  0.802520  1
  O  O13  1  0.246782  0.774190  0.216191  1
  O  O14  1  0.117167  0.921888  0.699383  1
  O  O15  1  0.527409  0.753218  0.216191  1
  O  O16  1  0.195189  0.066987  0.285166  1
  O  O17  1  0.458876  0.859874  0.802520  1
  O  O18  1  0.804720  0.882833  0.699383  1
  O  O19  1  0.459617  0.229703  0.779993  1
  O  O20  1  0.592413  0.130056  0.209703  1
  O  O21  1  0.537643  0.407587  0.209703  1
  O  O22  1  0.770297  0.229915  0.779993  1
  O  O23  1  0.933013  0.128202  0.285166  1
  O  O24  1  0.770085  0.540383  0.779993  1
  O  O25  1  0.869944  0.462357  0.209703  1
  O  O26  1  0.871798  0.804811  0.285166  1
