# generated using pymatgen
data_Pr4Ho6Co2Br15
_symmetry_space_group_name_H-M   'P 1'
_cell_length_a   9.51731409
_cell_length_b   10.28763578
_cell_length_c   11.05113900
_cell_angle_alpha   92.38168600
_cell_angle_beta   113.79445781
_cell_angle_gamma   110.79492641
_symmetry_Int_Tables_number   1
_chemical_formula_structural   Pr4Ho6Co2Br15
_chemical_formula_sum   'Pr4 Ho6 Co2 Br15'
_cell_volume   903.70003807
_cell_formula_units_Z   1
loop_
 _symmetry_equiv_pos_site_id
 _symmetry_equiv_pos_as_xyz
  1  'x, y, z'
loop_
 _atom_site_type_symbol
 _atom_site_label
 _atom_site_symmetry_multiplicity
 _atom_site_fract_x
 _atom_site_fract_y
 _atom_site_fract_z
 _atom_site_occupancy
  Pr  Pr0  1  0.802310  0.403926  0.272023  1
  Pr  Pr1  1  0.197690  0.596074  0.727977  1
  Pr  Pr2  1  0.669668  0.751550  0.819103  1
  Pr  Pr3  1  0.330332  0.248450  0.180897  1
  Ho  Ho4  1  0.526964  0.710618  0.097968  1
  Ho  Ho5  1  0.473036  0.289382  0.902032  1
  Ho  Ho6  1  0.590008  0.045361  0.330469  1
  Ho  Ho7  1  0.409992  0.954639  0.669531  1
  Ho  Ho8  1  0.721346  0.076026  0.046614  1
  Ho  Ho9  1  0.278654  0.923974  0.953386  1
  Co  Co10  1  0.467366  0.830918  0.883252  1
  Co  Co11  1  0.532634  0.169082  0.116748  1
  Br  Br12  1  0.000000  0.000000  0.000000  1
  Br  Br13  1  0.629941  0.893802  0.580333  1
  Br  Br14  1  0.370059  0.106198  0.419667  1
  Br  Br15  1  0.877888  0.292049  0.525422  1
  Br  Br16  1  0.122112  0.707951  0.474578  1
  Br  Br17  1  0.308498  0.768375  0.187336  1
  Br  Br18  1  0.691502  0.231625  0.812664  1
  Br  Br19  1  0.050985  0.331508  0.216045  1
  Br  Br20  1  0.178940  0.059584  0.703655  1
  Br  Br21  1  0.821060  0.940416  0.296345  1
  Br  Br22  1  0.256702  0.417376  0.951231  1
  Br  Br23  1  0.743298  0.582624  0.048769  1
  Br  Br24  1  0.406110  0.456656  0.670851  1
  Br  Br25  1  0.593890  0.543344  0.329149  1
  Br  Br26  1  0.949015  0.668492  0.783955  1
