# generated using pymatgen
data_CrFe2Sb12Au
_symmetry_space_group_name_H-M   'P 1'
_cell_length_a   8.05590099
_cell_length_b   8.09301826
_cell_length_c   9.39251905
_cell_angle_alpha   55.14569361
_cell_angle_beta   54.89521718
_cell_angle_gamma   70.41030691
_symmetry_Int_Tables_number   1
_chemical_formula_structural   CrFe2Sb12Au
_chemical_formula_sum   'Cr1 Fe2 Sb12 Au1'
_cell_volume   411.08206444
_cell_formula_units_Z   1
loop_
 _symmetry_equiv_pos_site_id
 _symmetry_equiv_pos_as_xyz
  1  'x, y, z'
loop_
 _atom_site_type_symbol
 _atom_site_label
 _atom_site_symmetry_multiplicity
 _atom_site_fract_x
 _atom_site_fract_y
 _atom_site_fract_z
 _atom_site_occupancy
  Cr  Cr0  1  0.500000  0.000000  0.000000  1
  Fe  Fe1  1  0.500000  0.000000  0.500000  1
  Fe  Fe2  1  0.000000  0.500000  0.500000  1
  Sb  Sb3  1  0.674415  0.675575  0.484715  1
  Sb  Sb4  1  0.325585  0.324425  0.515285  1
  Sb  Sb5  1  0.640569  0.652389  0.203357  1
  Sb  Sb6  1  0.359431  0.347611  0.796643  1
  Sb  Sb7  1  0.170010  0.861287  0.641478  1
  Sb  Sb8  1  0.829990  0.138713  0.358522  1
  Sb  Sb9  1  0.850751  0.169151  0.653369  1
  Sb  Sb10  1  0.149249  0.830849  0.346631  1
  Sb  Sb11  1  0.810784  0.493890  0.830771  1
  Sb  Sb12  1  0.189216  0.506110  0.169229  1
  Sb  Sb13  1  0.507386  0.177527  0.167829  1
  Sb  Sb14  1  0.492614  0.822473  0.832171  1
  Au  Au15  1  0.000000  0.500000  0.000000  1
