# generated using pymatgen
data_Li3HoNi9P7Ru
_symmetry_space_group_name_H-M   'P 1'
_cell_length_a   9.10856289
_cell_length_b   9.02285430
_cell_length_c   3.66272500
_cell_angle_alpha   90.00000000
_cell_angle_beta   90.00000000
_cell_angle_gamma   119.90248621
_symmetry_Int_Tables_number   1
_chemical_formula_structural   Li3HoNi9P7Ru
_chemical_formula_sum   'Li3 Ho1 Ni9 P7 Ru1'
_cell_volume   260.94841067
_cell_formula_units_Z   1
loop_
 _symmetry_equiv_pos_site_id
 _symmetry_equiv_pos_as_xyz
  1  'x, y, z'
loop_
 _atom_site_type_symbol
 _atom_site_label
 _atom_site_symmetry_multiplicity
 _atom_site_fract_x
 _atom_site_fract_y
 _atom_site_fract_z
 _atom_site_occupancy
  Li  Li0  1  0.891499  0.115345  0.500000  1
  Li  Li1  1  0.220396  0.104915  0.500000  1
  Li  Li2  1  0.663101  0.331166  0.500000  1
  Ho  Ho3  1  0.335076  0.663354  0.000000  1
  Ni  Ni4  1  0.716497  0.884177  0.000000  1
  Ni  Ni5  1  0.159148  0.274659  0.000000  1
  Ni  Ni6  1  0.124443  0.838525  0.000000  1
  Ni  Ni7  1  0.633679  0.570035  0.000000  1
  Ni  Ni8  1  0.939373  0.370546  0.000000  1
  Ni  Ni9  1  0.430350  0.058704  0.000000  1
  Ni  Ni10  1  0.565751  0.956069  0.500000  1
  Ni  Ni11  1  0.389681  0.433647  0.500000  1
  Ni  Ni12  1  0.047691  0.609466  0.500000  1
  P  P13  1  0.595056  0.710690  0.500000  1
  P  P14  1  0.119541  0.405305  0.500000  1
  P  P15  1  0.288982  0.878177  0.500000  1
  P  P16  1  0.995086  0.991811  0.000000  1
  P  P17  1  0.881370  0.581876  0.000000  1
  P  P18  1  0.697201  0.123653  0.000000  1
  P  P19  1  0.422426  0.303094  0.000000  1
  Ru  Ru20  1  0.883655  0.794786  0.500000  1
