# generated using pymatgen
data_Ba4LiAuO6
_symmetry_space_group_name_H-M   'P 1'
_cell_length_a   7.30113977
_cell_length_b   7.30113960
_cell_length_c   11.40083400
_cell_angle_alpha   90.00000000
_cell_angle_beta   90.00000000
_cell_angle_gamma   132.57976366
_symmetry_Int_Tables_number   1
_chemical_formula_structural   Ba4LiAuO6
_chemical_formula_sum   'Ba8 Li2 Au2 O12'
_cell_volume   447.50102497
_cell_formula_units_Z   2
loop_
 _symmetry_equiv_pos_site_id
 _symmetry_equiv_pos_as_xyz
  1  'x, y, z'
loop_
 _atom_site_type_symbol
 _atom_site_label
 _atom_site_symmetry_multiplicity
 _atom_site_fract_x
 _atom_site_fract_y
 _atom_site_fract_z
 _atom_site_occupancy
  Ba  Ba0  1  0.184269  0.883980  0.750000  1
  Ba  Ba1  1  0.645639  0.354361  0.500000  1
  Ba  Ba2  1  0.815731  0.116020  0.250000  1
  Ba  Ba3  1  0.883980  0.184269  0.750000  1
  Ba  Ba4  1  0.116020  0.815731  0.250000  1
  Ba  Ba5  1  0.354361  0.645639  0.000000  1
  Ba  Ba6  1  0.354361  0.645639  0.500000  1
  Ba  Ba7  1  0.645639  0.354361  0.000000  1
  Li  Li8  1  0.528211  0.528211  0.250000  1
  Li  Li9  1  0.471789  0.471789  0.750000  1
  Au  Au10  1  0.000000  0.000000  0.000000  1
  Au  Au11  1  0.000000  0.000000  0.500000  1
  O  O12  1  0.260284  0.566638  0.250000  1
  O  O13  1  0.154319  0.845681  0.500000  1
  O  O14  1  0.566638  0.260284  0.250000  1
  O  O15  1  0.733005  0.733005  0.387580  1
  O  O16  1  0.154319  0.845681  0.000000  1
  O  O17  1  0.845681  0.154319  0.000000  1
  O  O18  1  0.433362  0.739716  0.750000  1
  O  O19  1  0.739716  0.433362  0.750000  1
  O  O20  1  0.733005  0.733005  0.112420  1
  O  O21  1  0.845681  0.154319  0.500000  1
  O  O22  1  0.266995  0.266995  0.612420  1
  O  O23  1  0.266995  0.266995  0.887580  1
