# generated using pymatgen
data_Rb8Li4Tb3HoBi8
_symmetry_space_group_name_H-M   'P 1'
_cell_length_a   11.42646447
_cell_length_b   11.42650358
_cell_length_c   7.37857701
_cell_angle_alpha   90.00255273
_cell_angle_beta   89.99776698
_cell_angle_gamma   99.44559771
_symmetry_Int_Tables_number   1
_chemical_formula_structural   Rb8Li4Tb3HoBi8
_chemical_formula_sum   'Rb8 Li4 Tb3 Ho1 Bi8'
_cell_volume   950.31885209
_cell_formula_units_Z   1
loop_
 _symmetry_equiv_pos_site_id
 _symmetry_equiv_pos_as_xyz
  1  'x, y, z'
loop_
 _atom_site_type_symbol
 _atom_site_label
 _atom_site_symmetry_multiplicity
 _atom_site_fract_x
 _atom_site_fract_y
 _atom_site_fract_z
 _atom_site_occupancy
  Rb  Rb0  1  0.571237  0.928545  0.749837  1
  Rb  Rb1  1  0.928545  0.571228  0.250158  1
  Rb  Rb2  1  0.428395  0.072128  0.249840  1
  Rb  Rb3  1  0.072102  0.428407  0.750182  1
  Rb  Rb4  1  0.674765  0.324733  0.784767  1
  Rb  Rb5  1  0.824897  0.175279  0.285058  1
  Rb  Rb6  1  0.324721  0.674754  0.215234  1
  Rb  Rb7  1  0.175285  0.824912  0.714929  1
  Li  Li8  1  0.620489  0.620491  0.000007  1
  Li  Li9  1  0.879185  0.879178  0.500000  1
  Li  Li10  1  0.378972  0.378972  0.999997  1
  Li  Li11  1  0.121680  0.121678  0.499996  1
  Tb  Tb12  1  0.869444  0.869443  0.000001  1
  Tb  Tb13  1  0.630028  0.630025  0.499999  1
  Tb  Tb14  1  0.130661  0.130656  0.999998  1
  Ho  Ho15  1  0.369931  0.369928  0.500004  1
  Bi  Bi16  1  0.348927  0.152324  0.748572  1
  Bi  Bi17  1  0.152323  0.348922  0.251425  1
  Bi  Bi18  1  0.650792  0.848833  0.250013  1
  Bi  Bi19  1  0.848837  0.650792  0.749986  1
  Bi  Bi20  1  0.903967  0.096271  0.758774  1
  Bi  Bi21  1  0.595149  0.403394  0.259165  1
  Bi  Bi22  1  0.096272  0.903962  0.241228  1
  Bi  Bi23  1  0.403398  0.595149  0.740831  1
