# generated using pymatgen
data_Sr4LiZn5Au12
_symmetry_space_group_name_H-M   'P 1'
_cell_length_a   8.91674738
_cell_length_b   8.92348561
_cell_length_c   8.91674762
_cell_angle_alpha   57.34076960
_cell_angle_beta   57.37549759
_cell_angle_gamma   57.34077720
_symmetry_Int_Tables_number   1
_chemical_formula_structural   Sr4LiZn5Au12
_chemical_formula_sum   'Sr4 Li1 Zn5 Au12'
_cell_volume   471.11326732
_cell_formula_units_Z   1
loop_
 _symmetry_equiv_pos_site_id
 _symmetry_equiv_pos_as_xyz
  1  'x, y, z'
loop_
 _atom_site_type_symbol
 _atom_site_label
 _atom_site_symmetry_multiplicity
 _atom_site_fract_x
 _atom_site_fract_y
 _atom_site_fract_z
 _atom_site_occupancy
  Sr  Sr0  1  0.907555  0.906467  0.907618  1
  Sr  Sr1  1  0.408084  0.406658  0.406796  1
  Sr  Sr2  1  0.093204  0.093342  0.091916  1
  Sr  Sr3  1  0.592382  0.593533  0.592445  1
  Li  Li4  1  0.557137  0.750000  0.942863  1
  Zn  Zn5  1  0.940783  0.558288  0.751170  1
  Zn  Zn6  1  0.748830  0.941712  0.559217  1
  Zn  Zn7  1  0.441363  0.250000  0.058637  1
  Zn  Zn8  1  0.059200  0.441071  0.250265  1
  Zn  Zn9  1  0.249735  0.058929  0.440800  1
  Au  Au10  1  0.482831  0.862028  0.204643  1
  Au  Au11  1  0.206282  0.478665  0.863905  1
  Au  Au12  1  0.863483  0.205696  0.479481  1
  Au  Au13  1  0.704760  0.366387  0.980529  1
  Au  Au14  1  0.979202  0.706391  0.363492  1
  Au  Au15  1  0.365241  0.977263  0.708021  1
  Au  Au16  1  0.519471  0.133613  0.795240  1
  Au  Au17  1  0.791979  0.522737  0.134759  1
  Au  Au18  1  0.136508  0.793609  0.520798  1
  Au  Au19  1  0.295357  0.637972  0.017169  1
  Au  Au20  1  0.020519  0.294304  0.636517  1
  Au  Au21  1  0.636095  0.021335  0.293718  1
