# generated using pymatgen
data_SmYHo2(MoN3)4
_symmetry_space_group_name_H-M   'P 1'
_cell_length_a   7.33333990
_cell_length_b   7.33333932
_cell_length_c   6.28271136
_cell_angle_alpha   73.88566686
_cell_angle_beta   73.88565993
_cell_angle_gamma   81.93568616
_symmetry_Int_Tables_number   1
_chemical_formula_structural   SmYHo2(MoN3)4
_chemical_formula_sum   'Sm1 Y1 Ho2 Mo4 N12'
_cell_volume   311.10928712
_cell_formula_units_Z   1
loop_
 _symmetry_equiv_pos_site_id
 _symmetry_equiv_pos_as_xyz
  1  'x, y, z'
loop_
 _atom_site_type_symbol
 _atom_site_label
 _atom_site_symmetry_multiplicity
 _atom_site_fract_x
 _atom_site_fract_y
 _atom_site_fract_z
 _atom_site_occupancy
  Sm  Sm0  1  0.704079  0.295921  0.250000  1
  Y  Y1  1  0.294247  0.705753  0.750000  1
  Ho  Ho2  1  0.913798  0.086202  0.750000  1
  Ho  Ho3  1  0.088674  0.911326  0.250000  1
  Mo  Mo4  1  0.800896  0.620775  0.766246  1
  Mo  Mo5  1  0.199172  0.380547  0.231506  1
  Mo  Mo6  1  0.619453  0.800828  0.268494  1
  Mo  Mo7  1  0.379225  0.199104  0.733754  1
  N  N8  1  0.217764  0.999312  0.849143  1
  N  N9  1  0.360588  0.348033  0.441278  1
  N  N10  1  0.634819  0.651472  0.562102  1
  N  N11  1  0.622287  0.111845  0.667445  1
  N  N12  1  0.000688  0.782236  0.650857  1
  N  N13  1  0.784927  0.996614  0.150406  1
  N  N14  1  0.110649  0.623298  0.163070  1
  N  N15  1  0.888155  0.377713  0.832555  1
  N  N16  1  0.003386  0.215073  0.349594  1
  N  N17  1  0.348528  0.365181  0.937898  1
  N  N18  1  0.651967  0.639412  0.058722  1
  N  N19  1  0.376702  0.889351  0.336930  1
