# generated using pymatgen
data_Tb4B4Ir9Pt
_symmetry_space_group_name_H-M   'P 1'
_cell_length_a   10.99419755
_cell_length_b   10.99419735
_cell_length_c   10.99419710
_cell_angle_alpha   29.00008561
_cell_angle_beta   29.00008480
_cell_angle_gamma   29.00009402
_symmetry_Int_Tables_number   1
_chemical_formula_structural   Tb4B4Ir9Pt
_chemical_formula_sum   'Tb4 B4 Ir9 Pt1'
_cell_volume   276.26674436
_cell_formula_units_Z   1
loop_
 _symmetry_equiv_pos_site_id
 _symmetry_equiv_pos_as_xyz
  1  'x, y, z'
loop_
 _atom_site_type_symbol
 _atom_site_label
 _atom_site_symmetry_multiplicity
 _atom_site_fract_x
 _atom_site_fract_y
 _atom_site_fract_z
 _atom_site_occupancy
  Tb  Tb0  1  0.151646  0.151646  0.151646  1
  Tb  Tb1  1  0.950186  0.950186  0.950186  1
  Tb  Tb2  1  0.848354  0.848354  0.848354  1
  Tb  Tb3  1  0.049814  0.049814  0.049814  1
  B  B4  1  0.617688  0.617688  0.617688  1
  B  B5  1  0.716630  0.716630  0.716630  1
  B  B6  1  0.382312  0.382312  0.382312  1
  B  B7  1  0.283370  0.283370  0.283370  1
  Ir  Ir8  1  0.406790  0.900010  0.406790  1
  Ir  Ir9  1  0.900010  0.406790  0.406790  1
  Ir  Ir10  1  0.500000  0.500000  0.000000  1
  Ir  Ir11  1  0.500000  0.000000  0.500000  1
  Ir  Ir12  1  0.000000  0.500000  0.500000  1
  Ir  Ir13  1  0.593210  0.099990  0.593210  1
  Ir  Ir14  1  0.593210  0.593210  0.099990  1
  Ir  Ir15  1  0.099990  0.593210  0.593210  1
  Ir  Ir16  1  0.406790  0.406790  0.900010  1
  Pt  Pt17  1  0.500000  0.500000  0.500000  1
