# generated using pymatgen
data_Tb5IrPb3
_symmetry_space_group_name_H-M   'P 1'
_cell_length_a   9.25894500
_cell_length_b   9.25894511
_cell_length_c   6.89868800
_cell_angle_alpha   90.00000000
_cell_angle_beta   90.00000000
_cell_angle_gamma   119.99999603
_symmetry_Int_Tables_number   1
_chemical_formula_structural   Tb5IrPb3
_chemical_formula_sum   'Tb10 Ir2 Pb6'
_cell_volume   512.17711197
_cell_formula_units_Z   2
loop_
 _symmetry_equiv_pos_site_id
 _symmetry_equiv_pos_as_xyz
  1  'x, y, z'
loop_
 _atom_site_type_symbol
 _atom_site_label
 _atom_site_symmetry_multiplicity
 _atom_site_fract_x
 _atom_site_fract_y
 _atom_site_fract_z
 _atom_site_occupancy
  Tb  Tb0  1  0.235899  0.235899  0.750000  1
  Tb  Tb1  1  0.000000  0.764101  0.750000  1
  Tb  Tb2  1  0.235899  0.000000  0.250000  1
  Tb  Tb3  1  0.764101  0.000000  0.750000  1
  Tb  Tb4  1  0.333333  0.666667  0.500000  1
  Tb  Tb5  1  0.666667  0.333333  0.500000  1
  Tb  Tb6  1  0.764101  0.764101  0.250000  1
  Tb  Tb7  1  0.000000  0.235899  0.250000  1
  Tb  Tb8  1  0.333333  0.666667  0.000000  1
  Tb  Tb9  1  0.666667  0.333333  0.000000  1
  Ir  Ir10  1  0.000000  0.000000  0.000000  1
  Ir  Ir11  1  0.000000  0.000000  0.500000  1
  Pb  Pb12  1  0.594637  0.000000  0.250000  1
  Pb  Pb13  1  0.000000  0.594637  0.250000  1
  Pb  Pb14  1  0.594637  0.594637  0.750000  1
  Pb  Pb15  1  0.405363  0.405363  0.250000  1
  Pb  Pb16  1  0.000000  0.405363  0.750000  1
  Pb  Pb17  1  0.405363  0.000000  0.750000  1
