# generated using pymatgen
data_Tb7Ho3Ir5Au
_symmetry_space_group_name_H-M   'P 1'
_cell_length_a   11.07649093
_cell_length_b   11.00871300
_cell_length_c   6.33753303
_cell_angle_alpha   90.00000000
_cell_angle_beta   89.87289345
_cell_angle_gamma   90.00000000
_symmetry_Int_Tables_number   1
_chemical_formula_structural   Tb7Ho3Ir5Au
_chemical_formula_sum   'Tb14 Ho6 Ir10 Au2'
_cell_volume   772.78362874
_cell_formula_units_Z   2
loop_
 _symmetry_equiv_pos_site_id
 _symmetry_equiv_pos_as_xyz
  1  'x, y, z'
loop_
 _atom_site_type_symbol
 _atom_site_label
 _atom_site_symmetry_multiplicity
 _atom_site_fract_x
 _atom_site_fract_y
 _atom_site_fract_z
 _atom_site_occupancy
  Tb  Tb0  1  0.291484  0.088734  0.371862  1
  Tb  Tb1  1  0.291484  0.911266  0.871862  1
  Tb  Tb2  1  0.698379  0.092208  0.865622  1
  Tb  Tb3  1  0.698379  0.907792  0.365622  1
  Tb  Tb4  1  0.578112  0.789049  0.877162  1
  Tb  Tb5  1  0.578112  0.210951  0.377162  1
  Tb  Tb6  1  0.408230  0.790289  0.376970  1
  Tb  Tb7  1  0.408230  0.209711  0.876970  1
  Tb  Tb8  1  0.210164  0.411369  0.621195  1
  Tb  Tb9  1  0.210164  0.588631  0.121195  1
  Tb  Tb10  1  0.789050  0.419464  0.123183  1
  Tb  Tb11  1  0.789050  0.580536  0.623183  1
  Tb  Tb12  1  0.917581  0.705773  0.139124  1
  Tb  Tb13  1  0.917581  0.294227  0.639124  1
  Ho  Ho14  1  0.096130  0.702592  0.623511  1
  Ho  Ho15  1  0.096130  0.297408  0.123511  1
  Ho  Ho16  1  0.009604  0.997234  0.499831  1
  Ho  Ho17  1  0.009604  0.002766  0.999831  1
  Ho  Ho18  1  0.499718  0.498852  0.000708  1
  Ho  Ho19  1  0.499718  0.501148  0.500708  1
  Ir  Ir20  1  0.152938  0.153538  0.751164  1
  Ir  Ir21  1  0.152938  0.846462  0.251164  1
  Ir  Ir22  1  0.654958  0.346949  0.748418  1
  Ir  Ir23  1  0.654958  0.653051  0.248418  1
  Ir  Ir24  1  0.347533  0.346796  0.251351  1
  Ir  Ir25  1  0.347533  0.653204  0.751351  1
  Ir  Ir26  1  0.499737  0.999637  0.120438  1
  Ir  Ir27  1  0.499737  0.000363  0.620438  1
  Ir  Ir28  1  0.000032  0.501008  0.879379  1
  Ir  Ir29  1  0.000032  0.498992  0.379379  1
  Au  Au30  1  0.846348  0.154376  0.250083  1
  Au  Au31  1  0.846348  0.845624  0.750083  1
