# generated using pymatgen
data_TbTmSi3Ni
_symmetry_space_group_name_H-M   'P 1'
_cell_length_a   7.93425609
_cell_length_b   7.93425602
_cell_length_c   8.01601700
_cell_angle_alpha   90.00000000
_cell_angle_beta   90.00000000
_cell_angle_gamma   119.98279442
_symmetry_Int_Tables_number   1
_chemical_formula_structural   TbTmSi3Ni
_chemical_formula_sum   'Tb4 Tm4 Si12 Ni4'
_cell_volume   437.09612335
_cell_formula_units_Z   4
loop_
 _symmetry_equiv_pos_site_id
 _symmetry_equiv_pos_as_xyz
  1  'x, y, z'
loop_
 _atom_site_type_symbol
 _atom_site_label
 _atom_site_symmetry_multiplicity
 _atom_site_fract_x
 _atom_site_fract_y
 _atom_site_fract_z
 _atom_site_occupancy
  Tb  Tb0  1  0.500557  0.001148  0.250000  1
  Tb  Tb1  1  0.499443  0.998852  0.750000  1
  Tb  Tb2  1  0.998852  0.499443  0.250000  1
  Tb  Tb3  1  0.001148  0.500557  0.750000  1
  Tm  Tm4  1  0.500506  0.499494  0.250000  1
  Tm  Tm5  1  0.499494  0.500506  0.750000  1
  Tm  Tm6  1  0.000001  0.999999  0.250000  1
  Tm  Tm7  1  0.999999  0.000001  0.750000  1
  Si  Si8  1  0.171219  0.341143  0.000653  1
  Si  Si9  1  0.828781  0.658857  0.999347  1
  Si  Si10  1  0.658857  0.828781  0.000653  1
  Si  Si11  1  0.828781  0.658857  0.500653  1
  Si  Si12  1  0.341143  0.171219  0.999347  1
  Si  Si13  1  0.171219  0.341143  0.499347  1
  Si  Si14  1  0.170373  0.829627  0.000681  1
  Si  Si15  1  0.341143  0.171219  0.500653  1
  Si  Si16  1  0.829627  0.170373  0.999319  1
  Si  Si17  1  0.658857  0.828781  0.499347  1
  Si  Si18  1  0.829627  0.170373  0.500681  1
  Si  Si19  1  0.170373  0.829627  0.499319  1
  Ni  Ni20  1  0.334171  0.665829  0.001492  1
  Ni  Ni21  1  0.665829  0.334171  0.998508  1
  Ni  Ni22  1  0.665829  0.334171  0.501492  1
  Ni  Ni23  1  0.334171  0.665829  0.498508  1
