# generated using pymatgen
data_Sr2Ir2O7
_symmetry_space_group_name_H-M   'P 1'
_cell_length_a   7.43414339
_cell_length_b   7.43414292
_cell_length_c   7.43414427
_cell_angle_alpha   120.02935440
_cell_angle_beta   117.63551583
_cell_angle_gamma   92.04653165
_symmetry_Int_Tables_number   1
_chemical_formula_structural   Sr2Ir2O7
_chemical_formula_sum   'Sr4 Ir4 O14'
_cell_volume   295.28998800
_cell_formula_units_Z   2
loop_
 _symmetry_equiv_pos_site_id
 _symmetry_equiv_pos_as_xyz
  1  'x, y, z'
loop_
 _atom_site_type_symbol
 _atom_site_label
 _atom_site_symmetry_multiplicity
 _atom_site_fract_x
 _atom_site_fract_y
 _atom_site_fract_z
 _atom_site_occupancy
  Sr  Sr0  1  0.500000  0.500000  0.500000  1
  Sr  Sr1  1  0.500000  0.000000  0.000000  1
  Sr  Sr2  1  0.500000  0.500000  0.000000  1
  Sr  Sr3  1  0.000000  0.000000  0.000000  1
  Ir  Ir4  1  0.000000  0.500000  0.000000  1
  Ir  Ir5  1  0.000000  0.000000  0.500000  1
  Ir  Ir6  1  0.000000  0.500000  0.500000  1
  Ir  Ir7  1  0.500000  0.000000  0.500000  1
  O  O8  1  0.952007  0.584936  0.771329  1
  O  O9  1  0.047993  0.819322  0.632929  1
  O  O10  1  0.686393  0.915064  0.367071  1
  O  O11  1  0.313607  0.680678  0.228671  1
  O  O12  1  0.047993  0.415064  0.228671  1
  O  O13  1  0.952007  0.180678  0.367071  1
  O  O14  1  0.313607  0.084936  0.632929  1
  O  O15  1  0.686393  0.319322  0.771329  1
  O  O16  1  0.103045  0.250000  0.853045  1
  O  O17  1  0.896955  0.750000  0.146955  1
  O  O18  1  0.687908  0.406759  0.281149  1
  O  O19  1  0.312092  0.593241  0.718851  1
  O  O20  1  0.374391  0.093241  0.281149  1
  O  O21  1  0.625609  0.906759  0.718851  1
