# generated using pymatgen
data_Tb2HoIn3Ga2Pd
_symmetry_space_group_name_H-M   'P 1'
_cell_length_a   7.25990532
_cell_length_b   7.26334568
_cell_length_c   4.44367100
_cell_angle_alpha   90.00000000
_cell_angle_beta   90.00000000
_cell_angle_gamma   120.01568813
_symmetry_Int_Tables_number   1
_chemical_formula_structural   Tb2HoIn3Ga2Pd
_chemical_formula_sum   'Tb2 Ho1 In3 Ga2 Pd1'
_cell_volume   202.89508331
_cell_formula_units_Z   1
loop_
 _symmetry_equiv_pos_site_id
 _symmetry_equiv_pos_as_xyz
  1  'x, y, z'
loop_
 _atom_site_type_symbol
 _atom_site_label
 _atom_site_symmetry_multiplicity
 _atom_site_fract_x
 _atom_site_fract_y
 _atom_site_fract_z
 _atom_site_occupancy
  Tb  Tb0  1  0.413244  0.413265  0.500000  1
  Tb  Tb1  1  0.586756  0.000020  0.500000  1
  Ho  Ho2  1  0.000000  0.587270  0.500000  1
  In  In3  1  0.751731  0.751559  0.000000  1
  In  In4  1  0.248269  0.999827  0.000000  1
  In  In5  1  0.000000  0.249143  0.000000  1
  Ga  Ga6  1  0.667072  0.333658  0.000000  1
  Ga  Ga7  1  0.332928  0.666586  0.000000  1
  Pd  Pd8  1  0.000000  0.998672  0.500000  1
