# generated using pymatgen
data_Sc3InGaNi3Sn
_symmetry_space_group_name_H-M   'P 1'
_cell_length_a   7.22849321
_cell_length_b   7.23171201
_cell_length_c   3.41717000
_cell_angle_alpha   90.00000000
_cell_angle_beta   90.00000000
_cell_angle_gamma   119.72321882
_symmetry_Int_Tables_number   1
_chemical_formula_structural   Sc3InGaNi3Sn
_chemical_formula_sum   'Sc3 In1 Ga1 Ni3 Sn1'
_cell_volume   155.12815726
_cell_formula_units_Z   1
loop_
 _symmetry_equiv_pos_site_id
 _symmetry_equiv_pos_as_xyz
  1  'x, y, z'
loop_
 _atom_site_type_symbol
 _atom_site_label
 _atom_site_symmetry_multiplicity
 _atom_site_fract_x
 _atom_site_fract_y
 _atom_site_fract_z
 _atom_site_occupancy
  Sc  Sc0  1  0.580528  0.002755  0.000000  1
  Sc  Sc1  1  0.015551  0.611563  0.000000  1
  Sc  Sc2  1  0.398010  0.385119  0.000000  1
  In  In3  1  0.996984  0.265538  0.500000  1
  Ga  Ga4  1  0.269611  0.002073  0.500000  1
  Ni  Ni5  1  0.016413  0.992701  0.000000  1
  Ni  Ni6  1  0.334297  0.673822  0.500000  1
  Ni  Ni7  1  0.656727  0.330289  0.500000  1
  Sn  Sn8  1  0.731879  0.736140  0.500000  1
