# generated using pymatgen
data_Tm4AgPd
_symmetry_space_group_name_H-M   'P 1'
_cell_length_a   9.45152546
_cell_length_b   9.45152641
_cell_length_c   9.45152600
_cell_angle_alpha   60.00000143
_cell_angle_beta   59.99999812
_cell_angle_gamma   59.99999801
_symmetry_Int_Tables_number   1
_chemical_formula_structural   Tm4AgPd
_chemical_formula_sum   'Tm16 Ag4 Pd4'
_cell_volume   597.02262313
_cell_formula_units_Z   4
loop_
 _symmetry_equiv_pos_site_id
 _symmetry_equiv_pos_as_xyz
  1  'x, y, z'
loop_
 _atom_site_type_symbol
 _atom_site_label
 _atom_site_symmetry_multiplicity
 _atom_site_fract_x
 _atom_site_fract_y
 _atom_site_fract_z
 _atom_site_occupancy
  Tm  Tm0  1  0.359375  0.359375  0.359375  1
  Tm  Tm1  1  0.359375  0.359375  0.921875  1
  Tm  Tm2  1  0.359375  0.921875  0.359375  1
  Tm  Tm3  1  0.921875  0.359375  0.359375  1
  Tm  Tm4  1  0.812820  0.187180  0.187180  1
  Tm  Tm5  1  0.187180  0.812820  0.812820  1
  Tm  Tm6  1  0.187180  0.812820  0.187180  1
  Tm  Tm7  1  0.812820  0.187180  0.812820  1
  Tm  Tm8  1  0.187180  0.187180  0.812820  1
  Tm  Tm9  1  0.812820  0.812820  0.187180  1
  Tm  Tm10  1  0.933857  0.566143  0.566143  1
  Tm  Tm11  1  0.566143  0.933857  0.933857  1
  Tm  Tm12  1  0.566143  0.933857  0.566143  1
  Tm  Tm13  1  0.933857  0.566143  0.933857  1
  Tm  Tm14  1  0.566143  0.566143  0.933857  1
  Tm  Tm15  1  0.933857  0.933857  0.566143  1
  Ag  Ag16  1  0.584287  0.584287  0.584287  1
  Ag  Ag17  1  0.584287  0.584287  0.247138  1
  Ag  Ag18  1  0.584287  0.247138  0.584287  1
  Ag  Ag19  1  0.247138  0.584287  0.584287  1
  Pd  Pd20  1  0.147176  0.147176  0.147176  1
  Pd  Pd21  1  0.147176  0.147176  0.558470  1
  Pd  Pd22  1  0.147176  0.558470  0.147176  1
  Pd  Pd23  1  0.558470  0.147176  0.147176  1
