# generated using pymatgen
data_Dy7HoRe3TcB24
_symmetry_space_group_name_H-M   'P 1'
_cell_length_a   3.68710900
_cell_length_b   9.18083633
_cell_length_c   11.56724101
_cell_angle_alpha   90.03275877
_cell_angle_beta   90.00000000
_cell_angle_gamma   90.00000000
_symmetry_Int_Tables_number   1
_chemical_formula_structural   Dy7HoRe3TcB24
_chemical_formula_sum   'Dy7 Ho1 Re3 Tc1 B24'
_cell_volume   391.55965302
_cell_formula_units_Z   1
loop_
 _symmetry_equiv_pos_site_id
 _symmetry_equiv_pos_as_xyz
  1  'x, y, z'
loop_
 _atom_site_type_symbol
 _atom_site_label
 _atom_site_symmetry_multiplicity
 _atom_site_fract_x
 _atom_site_fract_y
 _atom_site_fract_z
 _atom_site_occupancy
  Dy  Dy0  1  0.000000  0.323966  0.413851  1
  Dy  Dy1  1  0.000000  0.676271  0.586026  1
  Dy  Dy2  1  0.000000  0.823724  0.086027  1
  Dy  Dy3  1  0.000000  0.176541  0.913908  1
  Dy  Dy4  1  0.000000  0.942093  0.369677  1
  Dy  Dy5  1  0.000000  0.056857  0.629844  1
  Dy  Dy6  1  0.000000  0.443730  0.130614  1
  Ho  Ho7  1  0.000000  0.556839  0.870073  1
  Re  Re8  1  0.000000  0.361542  0.679315  1
  Re  Re9  1  0.000000  0.138749  0.179317  1
  Re  Re10  1  0.000000  0.861110  0.820779  1
  Tc  Tc11  1  0.000000  0.638781  0.320687  1
  B  B12  1  0.500000  0.553532  0.432698  1
  B  B13  1  0.500000  0.446676  0.567059  1
  B  B14  1  0.500000  0.053440  0.067074  1
  B  B15  1  0.500000  0.946638  0.932857  1
  B  B16  1  0.500000  0.748588  0.418480  1
  B  B17  1  0.500000  0.251027  0.581352  1
  B  B18  1  0.500000  0.249182  0.081415  1
  B  B19  1  0.500000  0.750800  0.918614  1
  B  B20  1  0.500000  0.791658  0.265406  1
  B  B21  1  0.500000  0.208035  0.734446  1
  B  B22  1  0.500000  0.292034  0.234651  1
  B  B23  1  0.500000  0.707753  0.765563  1
  B  B24  1  0.500000  0.631214  0.185879  1
  B  B25  1  0.500000  0.369198  0.814364  1
  B  B26  1  0.500000  0.130856  0.314342  1
  B  B27  1  0.500000  0.868912  0.685694  1
  B  B28  1  0.500000  0.982456  0.211745  1
  B  B29  1  0.500000  0.017437  0.788129  1
  B  B30  1  0.500000  0.482842  0.288342  1
  B  B31  1  0.500000  0.517585  0.712023  1
  B  B32  1  0.500000  0.600423  0.027940  1
  B  B33  1  0.500000  0.399977  0.972024  1
  B  B34  1  0.500000  0.100043  0.471795  1
  B  B35  1  0.500000  0.899497  0.527990  1
