# generated using pymatgen
data_Tb15CeCd4FeCo3
_symmetry_space_group_name_H-M   'P 1'
_cell_length_a   9.61924563
_cell_length_b   9.61924612
_cell_length_c   9.44661556
_cell_angle_alpha   60.26900236
_cell_angle_beta   60.26899845
_cell_angle_gamma   59.56015596
_symmetry_Int_Tables_number   1
_chemical_formula_structural   Tb15CeCd4FeCo3
_chemical_formula_sum   'Tb15 Ce1 Cd4 Fe1 Co3'
_cell_volume   618.47366715
_cell_formula_units_Z   1
loop_
 _symmetry_equiv_pos_site_id
 _symmetry_equiv_pos_as_xyz
  1  'x, y, z'
loop_
 _atom_site_type_symbol
 _atom_site_label
 _atom_site_symmetry_multiplicity
 _atom_site_fract_x
 _atom_site_fract_y
 _atom_site_fract_z
 _atom_site_occupancy
  Tb  Tb0  1  0.597429  0.597429  0.595947  1
  Tb  Tb1  1  0.191452  0.806734  0.812689  1
  Tb  Tb2  1  0.059920  0.059920  0.438299  1
  Tb  Tb3  1  0.435297  0.059099  0.061180  1
  Tb  Tb4  1  0.806734  0.191452  0.812689  1
  Tb  Tb5  1  0.437980  0.053769  0.440667  1
  Tb  Tb6  1  0.593083  0.216902  0.597024  1
  Tb  Tb7  1  0.816276  0.816276  0.183933  1
  Tb  Tb8  1  0.216902  0.593083  0.597024  1
  Tb  Tb9  1  0.806305  0.190269  0.192076  1
  Tb  Tb10  1  0.053769  0.437980  0.440667  1
  Tb  Tb11  1  0.190269  0.806305  0.192076  1
  Tb  Tb12  1  0.603568  0.603568  0.207597  1
  Tb  Tb13  1  0.180178  0.180178  0.818262  1
  Tb  Tb14  1  0.059099  0.435297  0.061180  1
  Ce  Ce15  1  0.432441  0.432441  0.082220  1
  Cd  Cd16  1  0.830278  0.830278  0.507776  1
  Cd  Cd17  1  0.830826  0.830826  0.829441  1
  Cd  Cd18  1  0.507723  0.835509  0.827908  1
  Cd  Cd19  1  0.835509  0.507723  0.827908  1
  Fe  Fe20  1  0.404445  0.404445  0.334767  1
  Co  Co21  1  0.825592  0.386339  0.397858  1
  Co  Co22  1  0.386339  0.825592  0.397858  1
  Co  Co23  1  0.398584  0.398584  0.842953  1
