# generated using pymatgen
data_Dy4Ho4Ti11Si16Rh
_symmetry_space_group_name_H-M   'P 1'
_cell_length_a   7.03103516
_cell_length_b   7.03114730
_cell_length_c   12.86112101
_cell_angle_alpha   89.89219231
_cell_angle_beta   90.11237728
_cell_angle_gamma   89.81022762
_symmetry_Int_Tables_number   1
_chemical_formula_structural   Dy4Ho4Ti11Si16Rh
_chemical_formula_sum   'Dy4 Ho4 Ti11 Si16 Rh1'
_cell_volume   635.79967031
_cell_formula_units_Z   1
loop_
 _symmetry_equiv_pos_site_id
 _symmetry_equiv_pos_as_xyz
  1  'x, y, z'
loop_
 _atom_site_type_symbol
 _atom_site_label
 _atom_site_symmetry_multiplicity
 _atom_site_fract_x
 _atom_site_fract_y
 _atom_site_fract_z
 _atom_site_occupancy
  Dy  Dy0  1  0.840952  0.498976  0.285058  1
  Dy  Dy1  1  0.503445  0.158653  0.217802  1
  Dy  Dy2  1  0.498947  0.840875  0.714975  1
  Dy  Dy3  1  0.342222  0.001844  0.468057  1
  Ho  Ho4  1  0.996234  0.659783  0.032766  1
  Ho  Ho5  1  0.001625  0.342451  0.532048  1
  Ho  Ho6  1  0.659786  0.996172  0.967181  1
  Ho  Ho7  1  0.158474  0.503156  0.782199  1
  Ti  Ti8  1  0.344252  0.506036  0.374873  1
  Ti  Ti9  1  0.850291  0.996211  0.376378  1
  Ti  Ti10  1  0.006189  0.151238  0.124772  1
  Ti  Ti11  1  0.996257  0.850275  0.623715  1
  Ti  Ti12  1  0.506067  0.344391  0.625232  1
  Ti  Ti13  1  0.151201  0.006168  0.875158  1
  Ti  Ti14  1  0.824477  0.173178  0.748676  1
  Ti  Ti15  1  0.173023  0.824418  0.251279  1
  Ti  Ti16  1  0.326467  0.326536  0.999953  1
  Ti  Ti17  1  0.493112  0.650958  0.127584  1
  Ti  Ti18  1  0.650870  0.493185  0.872344  1
  Si  Si19  1  0.049698  0.712778  0.435952  1
  Si  Si20  1  0.952237  0.291653  0.934470  1
  Si  Si21  1  0.713326  0.050010  0.564130  1
  Si  Si22  1  0.207911  0.453164  0.184265  1
  Si  Si23  1  0.790511  0.550289  0.682731  1
  Si  Si24  1  0.452969  0.208077  0.815736  1
  Si  Si25  1  0.550537  0.790011  0.317222  1
  Si  Si26  1  0.291474  0.952048  0.065427  1
  Si  Si27  1  0.797831  0.867720  0.185179  1
  Si  Si28  1  0.296822  0.627310  0.565813  1
  Si  Si29  1  0.704475  0.369286  0.065677  1
  Si  Si30  1  0.627841  0.297213  0.434386  1
  Si  Si31  1  0.369082  0.704270  0.934135  1
  Si  Si32  1  0.130861  0.203419  0.315938  1
  Si  Si33  1  0.203134  0.131390  0.684056  1
  Si  Si34  1  0.867922  0.797592  0.814819  1
  Rh  Rh35  1  0.669480  0.669266  0.500015  1
