# generated using pymatgen
data_Nd4InSn7Pd12
_symmetry_space_group_name_H-M   'P 1'
_cell_length_a   4.82021500
_cell_length_b   10.33170373
_cell_length_c   9.84794816
_cell_angle_alpha   89.83119580
_cell_angle_beta   90.00000000
_cell_angle_gamma   90.00000000
_symmetry_Int_Tables_number   1
_chemical_formula_structural   Nd4InSn7Pd12
_chemical_formula_sum   'Nd4 In1 Sn7 Pd12'
_cell_volume   490.43586533
_cell_formula_units_Z   1
loop_
 _symmetry_equiv_pos_site_id
 _symmetry_equiv_pos_as_xyz
  1  'x, y, z'
loop_
 _atom_site_type_symbol
 _atom_site_label
 _atom_site_symmetry_multiplicity
 _atom_site_fract_x
 _atom_site_fract_y
 _atom_site_fract_z
 _atom_site_occupancy
  Nd  Nd0  1  0.250000  0.432922  0.737992  1
  Nd  Nd1  1  0.250000  0.067207  0.238539  1
  Nd  Nd2  1  0.750000  0.567364  0.263063  1
  Nd  Nd3  1  0.750000  0.933359  0.761719  1
  In  In4  1  0.750000  0.649718  0.614359  1
  Sn  Sn5  1  0.250000  0.869606  0.520221  1
  Sn  Sn6  1  0.250000  0.625905  0.021124  1
  Sn  Sn7  1  0.750000  0.127138  0.480199  1
  Sn  Sn8  1  0.750000  0.374266  0.978515  1
  Sn  Sn9  1  0.250000  0.150809  0.888799  1
  Sn  Sn10  1  0.250000  0.348913  0.388101  1
  Sn  Sn11  1  0.750000  0.849049  0.110583  1
  Pd  Pd12  1  0.250000  0.137344  0.602293  1
  Pd  Pd13  1  0.250000  0.359128  0.102156  1
  Pd  Pd14  1  0.750000  0.867516  0.393902  1
  Pd  Pd15  1  0.750000  0.643505  0.901369  1
  Pd  Pd16  1  0.250000  0.728202  0.752685  1
  Pd  Pd17  1  0.250000  0.770858  0.251857  1
  Pd  Pd18  1  0.750000  0.270757  0.246456  1
  Pd  Pd19  1  0.750000  0.229263  0.747825  1
  Pd  Pd20  1  0.250000  0.905260  0.981414  1
  Pd  Pd21  1  0.250000  0.594261  0.480147  1
  Pd  Pd22  1  0.750000  0.094872  0.018497  1
  Pd  Pd23  1  0.750000  0.402780  0.518182  1
