# generated using pymatgen
data_Tb8HoLu11Sn16
_symmetry_space_group_name_H-M   'P 1'
_cell_length_a   7.94869101
_cell_length_b   8.07500139
_cell_length_c   15.26256500
_cell_angle_alpha   90.02870820
_cell_angle_beta   90.00278237
_cell_angle_gamma   90.07200327
_symmetry_Int_Tables_number   1
_chemical_formula_structural   Tb8HoLu11Sn16
_chemical_formula_sum   'Tb8 Ho1 Lu11 Sn16'
_cell_volume   979.63738249
_cell_formula_units_Z   1
loop_
 _symmetry_equiv_pos_site_id
 _symmetry_equiv_pos_as_xyz
  1  'x, y, z'
loop_
 _atom_site_type_symbol
 _atom_site_label
 _atom_site_symmetry_multiplicity
 _atom_site_fract_x
 _atom_site_fract_y
 _atom_site_fract_z
 _atom_site_occupancy
  Tb  Tb0  1  0.520125  0.320973  0.904066  1
  Tb  Tb1  1  0.020220  0.178792  0.595758  1
  Tb  Tb2  1  0.479605  0.678504  0.403989  1
  Tb  Tb3  1  0.979207  0.822261  0.097249  1
  Tb  Tb4  1  0.480845  0.678070  0.096144  1
  Tb  Tb5  1  0.979684  0.821530  0.403546  1
  Tb  Tb6  1  0.519361  0.321090  0.595527  1
  Tb  Tb7  1  0.020093  0.178529  0.903676  1
  Ho  Ho8  1  0.865909  0.663545  0.877523  1
  Lu  Lu9  1  0.364361  0.837439  0.876026  1
  Lu  Lu10  1  0.864866  0.662114  0.623141  1
  Lu  Lu11  1  0.635184  0.161728  0.376617  1
  Lu  Lu12  1  0.135294  0.337756  0.123636  1
  Lu  Lu13  1  0.634109  0.162092  0.124566  1
  Lu  Lu14  1  0.134959  0.337408  0.376579  1
  Lu  Lu15  1  0.365649  0.837965  0.622863  1
  Lu  Lu16  1  0.196460  0.504980  0.749641  1
  Lu  Lu17  1  0.695896  0.995449  0.749279  1
  Lu  Lu18  1  0.803855  0.494685  0.250394  1
  Lu  Lu19  1  0.303465  0.004858  0.250036  1
  Sn  Sn20  1  0.297735  0.039376  0.041302  1
  Sn  Sn21  1  0.797587  0.460082  0.458559  1
  Sn  Sn22  1  0.702719  0.960196  0.541341  1
  Sn  Sn23  1  0.204978  0.538791  0.958611  1
  Sn  Sn24  1  0.700638  0.962410  0.958794  1
  Sn  Sn25  1  0.201737  0.540193  0.541328  1
  Sn  Sn26  1  0.297421  0.039989  0.458115  1
  Sn  Sn27  1  0.797700  0.458654  0.042625  1
  Sn  Sn28  1  0.561546  0.620194  0.749466  1
  Sn  Sn29  1  0.062564  0.880683  0.749329  1
  Sn  Sn30  1  0.438290  0.380008  0.250456  1
  Sn  Sn31  1  0.938335  0.120443  0.250154  1
  Sn  Sn32  1  0.329609  0.148728  0.749799  1
  Sn  Sn33  1  0.829253  0.351366  0.749770  1
  Sn  Sn34  1  0.670063  0.850799  0.250126  1
  Sn  Sn35  1  0.170674  0.648321  0.249967  1
