# generated using pymatgen
data_NdSm(Bi3O7)2
_symmetry_space_group_name_H-M   'P 1'
_cell_length_a   6.72752946
_cell_length_b   6.94669721
_cell_length_c   7.94075773
_cell_angle_alpha   106.52133025
_cell_angle_beta   89.27611036
_cell_angle_gamma   99.41320665
_symmetry_Int_Tables_number   1
_chemical_formula_structural   NdSm(Bi3O7)2
_chemical_formula_sum   'Nd1 Sm1 Bi6 O14'
_cell_volume   350.76680300
_cell_formula_units_Z   1
loop_
 _symmetry_equiv_pos_site_id
 _symmetry_equiv_pos_as_xyz
  1  'x, y, z'
loop_
 _atom_site_type_symbol
 _atom_site_label
 _atom_site_symmetry_multiplicity
 _atom_site_fract_x
 _atom_site_fract_y
 _atom_site_fract_z
 _atom_site_occupancy
  Nd  Nd0  1  0.458809  0.999817  0.247714  1
  Sm  Sm1  1  0.541522  0.999803  0.751749  1
  Bi  Bi2  1  0.999781  0.999902  0.500474  1
  Bi  Bi3  1  0.000134  0.000010  0.999003  1
  Bi  Bi4  1  0.259697  0.507423  0.874946  1
  Bi  Bi5  1  0.741598  0.491000  0.124630  1
  Bi  Bi6  1  0.720542  0.469588  0.609329  1
  Bi  Bi7  1  0.279600  0.531639  0.392933  1
  O  O8  1  0.464758  0.646119  0.183764  1
  O  O9  1  0.534363  0.349488  0.814897  1
  O  O10  1  0.298389  0.940639  0.952141  1
  O  O11  1  0.701438  0.060423  0.042837  1
  O  O12  1  0.290841  0.911850  0.509864  1
  O  O13  1  0.708759  0.088532  0.494593  1
  O  O14  1  0.533801  0.355373  0.357240  1
  O  O15  1  0.468244  0.647950  0.644617  1
  O  O16  1  0.910252  0.681053  0.967537  1
  O  O17  1  0.090070  0.319235  0.032506  1
  O  O18  1  0.104703  0.320503  0.622826  1
  O  O19  1  0.896219  0.679665  0.376680  1
  O  O20  1  0.883806  0.926964  0.731236  1
  O  O21  1  0.112673  0.073023  0.268485  1
