# generated using pymatgen
data_NbSi4Pt3
_symmetry_space_group_name_H-M   'P 1'
_cell_length_a   3.59353600
_cell_length_b   5.56830800
_cell_length_c   24.84017000
_cell_angle_alpha   90.00000000
_cell_angle_beta   90.00000000
_cell_angle_gamma   90.00000000
_symmetry_Int_Tables_number   1
_chemical_formula_structural   NbSi4Pt3
_chemical_formula_sum   'Nb4 Si16 Pt12'
_cell_volume   497.04969667
_cell_formula_units_Z   4
loop_
 _symmetry_equiv_pos_site_id
 _symmetry_equiv_pos_as_xyz
  1  'x, y, z'
loop_
 _atom_site_type_symbol
 _atom_site_label
 _atom_site_symmetry_multiplicity
 _atom_site_fract_x
 _atom_site_fract_y
 _atom_site_fract_z
 _atom_site_occupancy
  Nb  Nb0  1  0.250000  0.503231  0.710718  1
  Nb  Nb1  1  0.750000  0.996769  0.210718  1
  Nb  Nb2  1  0.250000  0.003231  0.789282  1
  Nb  Nb3  1  0.750000  0.496769  0.289282  1
  Si  Si4  1  0.250000  0.181852  0.520239  1
  Si  Si5  1  0.750000  0.318148  0.020239  1
  Si  Si6  1  0.250000  0.681852  0.979761  1
  Si  Si7  1  0.750000  0.818148  0.479761  1
  Si  Si8  1  0.750000  0.314805  0.644972  1
  Si  Si9  1  0.250000  0.185195  0.144972  1
  Si  Si10  1  0.750000  0.814805  0.855028  1
  Si  Si11  1  0.250000  0.685195  0.355028  1
  Si  Si12  1  0.250000  0.656857  0.608496  1
  Si  Si13  1  0.750000  0.843143  0.108496  1
  Si  Si14  1  0.250000  0.156857  0.891504  1
  Si  Si15  1  0.750000  0.343143  0.391504  1
  Si  Si16  1  0.750000  0.837482  0.723896  1
  Si  Si17  1  0.250000  0.662518  0.223896  1
  Si  Si18  1  0.750000  0.337482  0.776104  1
  Si  Si19  1  0.250000  0.162518  0.276104  1
  Pt  Pt20  1  0.750000  0.002728  0.572477  1
  Pt  Pt21  1  0.250000  0.497272  0.072477  1
  Pt  Pt22  1  0.750000  0.502728  0.927523  1
  Pt  Pt23  1  0.250000  0.997272  0.427523  1
  Pt  Pt24  1  0.250000  0.004148  0.667219  1
  Pt  Pt25  1  0.750000  0.495852  0.167219  1
  Pt  Pt26  1  0.250000  0.504148  0.832781  1
  Pt  Pt27  1  0.750000  0.995852  0.332781  1
  Pt  Pt28  1  0.750000  0.504684  0.547669  1
  Pt  Pt29  1  0.250000  0.995316  0.047669  1
  Pt  Pt30  1  0.750000  0.004684  0.952331  1
  Pt  Pt31  1  0.250000  0.495316  0.452331  1
