# generated using pymatgen
data_Dy3Er5(Si3Rh)4
_symmetry_space_group_name_H-M   'P 1'
_cell_length_a   8.15477503
_cell_length_b   8.15477429
_cell_length_c   7.87200600
_cell_angle_alpha   90.00000000
_cell_angle_beta   90.00000000
_cell_angle_gamma   120.00948760
_symmetry_Int_Tables_number   1
_chemical_formula_structural   Dy3Er5(Si3Rh)4
_chemical_formula_sum   'Dy3 Er5 Si12 Rh4'
_cell_volume   453.31328785
_cell_formula_units_Z   1
loop_
 _symmetry_equiv_pos_site_id
 _symmetry_equiv_pos_as_xyz
  1  'x, y, z'
loop_
 _atom_site_type_symbol
 _atom_site_label
 _atom_site_symmetry_multiplicity
 _atom_site_fract_x
 _atom_site_fract_y
 _atom_site_fract_z
 _atom_site_occupancy
  Dy  Dy0  1  0.000144  0.999856  0.250000  1
  Dy  Dy1  1  0.999949  0.000051  0.750000  1
  Dy  Dy2  1  0.491540  0.508460  0.250000  1
  Er  Er3  1  0.491867  0.983912  0.250000  1
  Er  Er4  1  0.016088  0.508133  0.250000  1
  Er  Er5  1  0.508434  0.491566  0.750000  1
  Er  Er6  1  0.983109  0.491466  0.750000  1
  Er  Er7  1  0.508534  0.016891  0.750000  1
  Si  Si8  1  0.833078  0.166922  0.501591  1
  Si  Si9  1  0.832993  0.665869  0.501960  1
  Si  Si10  1  0.334131  0.167007  0.501960  1
  Si  Si11  1  0.833078  0.166922  0.998409  1
  Si  Si12  1  0.832993  0.665869  0.998040  1
  Si  Si13  1  0.334131  0.167007  0.998040  1
  Si  Si14  1  0.167220  0.832780  0.001644  1
  Si  Si15  1  0.665515  0.832894  0.000640  1
  Si  Si16  1  0.167106  0.334485  0.000640  1
  Si  Si17  1  0.167220  0.832780  0.498356  1
  Si  Si18  1  0.665515  0.832894  0.499360  1
  Si  Si19  1  0.167106  0.334485  0.499360  1
  Rh  Rh20  1  0.667046  0.332954  0.467979  1
  Rh  Rh21  1  0.667046  0.332954  0.032021  1
  Rh  Rh22  1  0.333080  0.666920  0.964327  1
  Rh  Rh23  1  0.333080  0.666920  0.535673  1
