# generated using pymatgen
data_TaAl2B4Ru10W3
_symmetry_space_group_name_H-M   'P 1'
_cell_length_a   9.30533501
_cell_length_b   9.30533501
_cell_length_c   2.93533700
_cell_angle_alpha   90.00000000
_cell_angle_beta   90.00000000
_cell_angle_gamma   90.00570166
_symmetry_Int_Tables_number   1
_chemical_formula_structural   TaAl2B4Ru10W3
_chemical_formula_sum   'Ta1 Al2 B4 Ru10 W3'
_cell_volume   254.16865647
_cell_formula_units_Z   1
loop_
 _symmetry_equiv_pos_site_id
 _symmetry_equiv_pos_as_xyz
  1  'x, y, z'
loop_
 _atom_site_type_symbol
 _atom_site_label
 _atom_site_symmetry_multiplicity
 _atom_site_fract_x
 _atom_site_fract_y
 _atom_site_fract_z
 _atom_site_occupancy
  Ta  Ta0  1  0.678334  0.178334  0.000000  1
  Al  Al1  1  0.500702  0.499065  0.000000  1
  Al  Al2  1  0.999065  0.000702  0.000000  1
  B  B3  1  0.625508  0.875757  0.000000  1
  B  B4  1  0.375757  0.125508  0.000000  1
  B  B5  1  0.125455  0.625455  0.000000  1
  B  B6  1  0.874751  0.374751  0.000000  1
  Ru  Ru7  1  0.566891  0.715097  0.500000  1
  Ru  Ru8  1  0.427359  0.285915  0.500000  1
  Ru  Ru9  1  0.068292  0.784835  0.500000  1
  Ru  Ru10  1  0.936655  0.217158  0.500000  1
  Ru  Ru11  1  0.284835  0.568292  0.500000  1
  Ru  Ru12  1  0.717158  0.436655  0.500000  1
  Ru  Ru13  1  0.215097  0.066891  0.500000  1
  Ru  Ru14  1  0.785915  0.927359  0.500000  1
  Ru  Ru15  1  0.497427  0.997427  0.500000  1
  Ru  Ru16  1  0.000743  0.500743  0.500000  1
  W  W17  1  0.821001  0.678062  0.000000  1
  W  W18  1  0.178062  0.321001  0.000000  1
  W  W19  1  0.320992  0.820992  0.000000  1
