# generated using pymatgen
data_Tb2YIn3HgPt2
_symmetry_space_group_name_H-M   'P 1'
_cell_length_a   7.74300967
_cell_length_b   7.73900330
_cell_length_c   4.01437500
_cell_angle_alpha   90.00000000
_cell_angle_beta   90.00000000
_cell_angle_gamma   120.06488303
_symmetry_Int_Tables_number   1
_chemical_formula_structural   Tb2YIn3HgPt2
_chemical_formula_sum   'Tb2 Y1 In3 Hg1 Pt2'
_cell_volume   208.18962831
_cell_formula_units_Z   1
loop_
 _symmetry_equiv_pos_site_id
 _symmetry_equiv_pos_as_xyz
  1  'x, y, z'
loop_
 _atom_site_type_symbol
 _atom_site_label
 _atom_site_symmetry_multiplicity
 _atom_site_fract_x
 _atom_site_fract_y
 _atom_site_fract_z
 _atom_site_occupancy
  Tb  Tb0  1  0.019599  0.412231  0.000000  1
  Tb  Tb1  1  0.587639  0.607388  0.000000  1
  Y  Y2  1  0.392743  0.981234  0.000000  1
  In  In3  1  0.251959  0.254504  0.500000  1
  In  In4  1  0.003568  0.748368  0.500000  1
  In  In5  1  0.744997  0.997234  0.500000  1
  Hg  Hg6  1  0.666714  0.333215  0.500000  1
  Pt  Pt7  1  0.999517  0.999883  0.000000  1
  Pt  Pt8  1  0.333264  0.665942  0.500000  1
