# generated using pymatgen
data_Tm20Al5CdNi2
_symmetry_space_group_name_H-M   'P 1'
_cell_length_a   9.35889204
_cell_length_b   9.37195775
_cell_length_c   9.49501800
_cell_angle_alpha   90.00000000
_cell_angle_beta   90.00000000
_cell_angle_gamma   120.04618484
_symmetry_Int_Tables_number   1
_chemical_formula_structural   Tm20Al5CdNi2
_chemical_formula_sum   'Tm20 Al5 Cd1 Ni2'
_cell_volume   720.90639758
_cell_formula_units_Z   1
loop_
 _symmetry_equiv_pos_site_id
 _symmetry_equiv_pos_as_xyz
  1  'x, y, z'
loop_
 _atom_site_type_symbol
 _atom_site_label
 _atom_site_symmetry_multiplicity
 _atom_site_fract_x
 _atom_site_fract_y
 _atom_site_fract_z
 _atom_site_occupancy
  Tm  Tm0  1  0.999790  0.999895  0.500005  1
  Tm  Tm1  1  0.999790  0.999895  0.999995  1
  Tm  Tm2  1  0.543525  0.455177  0.250000  1
  Tm  Tm3  1  0.543525  0.088347  0.250000  1
  Tm  Tm4  1  0.912962  0.456481  0.250000  1
  Tm  Tm5  1  0.456857  0.542672  0.750000  1
  Tm  Tm6  1  0.456857  0.914184  0.750000  1
  Tm  Tm7  1  0.085885  0.542942  0.750000  1
  Tm  Tm8  1  0.208052  0.791506  0.438913  1
  Tm  Tm9  1  0.208052  0.416547  0.438913  1
  Tm  Tm10  1  0.581387  0.790694  0.435066  1
  Tm  Tm11  1  0.791954  0.210050  0.559510  1
  Tm  Tm12  1  0.791954  0.581904  0.559510  1
  Tm  Tm13  1  0.417504  0.208752  0.561348  1
  Tm  Tm14  1  0.791954  0.210050  0.940490  1
  Tm  Tm15  1  0.791954  0.581904  0.940490  1
  Tm  Tm16  1  0.417504  0.208752  0.938652  1
  Tm  Tm17  1  0.208052  0.791506  0.061087  1
  Tm  Tm18  1  0.208052  0.416547  0.061087  1
  Tm  Tm19  1  0.581387  0.790694  0.064934  1
  Al  Al20  1  0.888466  0.110187  0.250000  1
  Al  Al21  1  0.888466  0.778279  0.250000  1
  Al  Al22  1  0.221314  0.110657  0.250000  1
  Al  Al23  1  0.115616  0.891181  0.750000  1
  Al  Al24  1  0.115616  0.224435  0.750000  1
  Cd  Cd25  1  0.774199  0.887099  0.750000  1
  Ni  Ni26  1  0.331191  0.665596  0.250000  1
  Ni  Ni27  1  0.668134  0.334067  0.750000  1
