# generated using pymatgen
data_Er5VRuO12
_symmetry_space_group_name_H-M   'P 1'
_cell_length_a   6.72925894
_cell_length_b   6.72925952
_cell_length_c   7.34487315
_cell_angle_alpha   74.03827413
_cell_angle_beta   74.03827032
_cell_angle_gamma   50.39888160
_symmetry_Int_Tables_number   1
_chemical_formula_structural   Er5VRuO12
_chemical_formula_sum   'Er5 V1 Ru1 O12'
_cell_volume   244.14461014
_cell_formula_units_Z   1
loop_
 _symmetry_equiv_pos_site_id
 _symmetry_equiv_pos_as_xyz
  1  'x, y, z'
loop_
 _atom_site_type_symbol
 _atom_site_label
 _atom_site_symmetry_multiplicity
 _atom_site_fract_x
 _atom_site_fract_y
 _atom_site_fract_z
 _atom_site_occupancy
  Er  Er0  1  0.306599  0.303199  0.359199  1
  Er  Er1  1  0.696801  0.693401  0.640801  1
  Er  Er2  1  0.310919  0.313523  0.827086  1
  Er  Er3  1  0.686477  0.689081  0.172914  1
  Er  Er4  1  0.000609  0.999391  0.500000  1
  V  V5  1  0.782732  0.217268  0.000000  1
  Ru  Ru6  1  0.233861  0.766139  0.000000  1
  O  O7  1  0.901545  0.417834  0.918785  1
  O  O8  1  0.424208  0.909684  0.916759  1
  O  O9  1  0.090316  0.575792  0.083241  1
  O  O10  1  0.582166  0.098455  0.081215  1
  O  O11  1  0.098019  0.594091  0.575512  1
  O  O12  1  0.596032  0.096961  0.574531  1
  O  O13  1  0.903039  0.403968  0.425469  1
  O  O14  1  0.405909  0.901981  0.424488  1
  O  O15  1  0.988666  0.011389  0.803492  1
  O  O16  1  0.988611  0.011334  0.196508  1
  O  O17  1  0.502115  0.498623  0.819498  1
  O  O18  1  0.501377  0.497885  0.180502  1
