# generated using pymatgen
data_DyY3Mg2(B2Rh5)2
_symmetry_space_group_name_H-M   'P 1'
_cell_length_a   9.65883766
_cell_length_b   9.65883766
_cell_length_c   3.18965200
_cell_angle_alpha   90.00000000
_cell_angle_beta   90.00000000
_cell_angle_gamma   89.91493577
_symmetry_Int_Tables_number   1
_chemical_formula_structural   DyY3Mg2(B2Rh5)2
_chemical_formula_sum   'Dy1 Y3 Mg2 B4 Rh10'
_cell_volume   297.57233847
_cell_formula_units_Z   1
loop_
 _symmetry_equiv_pos_site_id
 _symmetry_equiv_pos_as_xyz
  1  'x, y, z'
loop_
 _atom_site_type_symbol
 _atom_site_label
 _atom_site_symmetry_multiplicity
 _atom_site_fract_x
 _atom_site_fract_y
 _atom_site_fract_z
 _atom_site_occupancy
  Dy  Dy0  1  0.823986  0.676014  0.000000  1
  Y  Y1  1  0.676143  0.176114  0.000000  1
  Y  Y2  1  0.323886  0.823857  0.000000  1
  Y  Y3  1  0.175871  0.324129  0.000000  1
  Mg  Mg4  1  0.000044  0.000063  0.000000  1
  Mg  Mg5  1  0.499937  0.499956  0.000000  1
  B  B6  1  0.122057  0.622007  0.000000  1
  B  B7  1  0.877993  0.377943  0.000000  1
  B  B8  1  0.622039  0.877961  0.000000  1
  B  B9  1  0.377936  0.122064  0.000000  1
  Rh  Rh10  1  0.500106  0.999894  0.500000  1
  Rh  Rh11  1  0.999587  0.500413  0.500000  1
  Rh  Rh12  1  0.224546  0.070223  0.500000  1
  Rh  Rh13  1  0.775699  0.929043  0.500000  1
  Rh  Rh14  1  0.069473  0.775162  0.500000  1
  Rh  Rh15  1  0.724838  0.430527  0.500000  1
  Rh  Rh16  1  0.929868  0.224743  0.500000  1
  Rh  Rh17  1  0.275257  0.570132  0.500000  1
  Rh  Rh18  1  0.570957  0.724301  0.500000  1
  Rh  Rh19  1  0.429777  0.275454  0.500000  1
