# generated using pymatgen
data_Tb4Er2Al24CuOs7
_symmetry_space_group_name_H-M   'P 1'
_cell_length_a   8.84726500
_cell_length_b   8.84429681
_cell_length_c   9.54601984
_cell_angle_alpha   90.22237283
_cell_angle_beta   90.00000000
_cell_angle_gamma   120.01109113
_symmetry_Int_Tables_number   1
_chemical_formula_structural   Tb4Er2Al24CuOs7
_chemical_formula_sum   'Tb4 Er2 Al24 Cu1 Os7'
_cell_volume   646.80355523
_cell_formula_units_Z   1
loop_
 _symmetry_equiv_pos_site_id
 _symmetry_equiv_pos_as_xyz
  1  'x, y, z'
loop_
 _atom_site_type_symbol
 _atom_site_label
 _atom_site_symmetry_multiplicity
 _atom_site_fract_x
 _atom_site_fract_y
 _atom_site_fract_z
 _atom_site_occupancy
  Tb  Tb0  1  0.615187  0.806122  0.248575  1
  Tb  Tb1  1  0.384813  0.193878  0.751425  1
  Tb  Tb2  1  0.190934  0.806122  0.248575  1
  Tb  Tb3  1  0.809066  0.193878  0.751425  1
  Er  Er4  1  0.195659  0.391319  0.253324  1
  Er  Er5  1  0.804341  0.608681  0.746676  1
  Al  Al6  1  0.332131  0.664265  0.020036  1
  Al  Al7  1  0.667869  0.335735  0.979964  1
  Al  Al8  1  0.665978  0.331956  0.517110  1
  Al  Al9  1  0.334022  0.668044  0.482890  1
  Al  Al10  1  0.162964  0.325924  0.575405  1
  Al  Al11  1  0.837036  0.674076  0.424595  1
  Al  Al12  1  0.673782  0.836884  0.574946  1
  Al  Al13  1  0.836291  0.672584  0.073839  1
  Al  Al14  1  0.326218  0.163116  0.425054  1
  Al  Al15  1  0.163709  0.327416  0.926161  1
  Al  Al16  1  0.163103  0.836884  0.574946  1
  Al  Al17  1  0.324303  0.168418  0.079633  1
  Al  Al18  1  0.836897  0.163116  0.425054  1
  Al  Al19  1  0.675697  0.831582  0.920367  1
  Al  Al20  1  0.844114  0.168418  0.079633  1
  Al  Al21  1  0.155886  0.831582  0.920367  1
  Al  Al22  1  0.561960  0.123920  0.250263  1
  Al  Al23  1  0.438040  0.876080  0.749737  1
  Al  Al24  1  0.878774  0.439908  0.249012  1
  Al  Al25  1  0.121226  0.560092  0.750988  1
  Al  Al26  1  0.561133  0.439908  0.249012  1
  Al  Al27  1  0.438867  0.560092  0.750988  1
  Al  Al28  1  0.000825  0.001648  0.250346  1
  Al  Al29  1  0.999175  0.998352  0.749654  1
  Cu  Cu30  1  0.500000  0.000000  0.000000  1
  Os  Os31  1  0.000000  0.500000  0.000000  1
  Os  Os32  1  0.500000  0.000000  0.500000  1
  Os  Os33  1  0.500000  0.500000  0.000000  1
  Os  Os34  1  0.000000  0.500000  0.500000  1
  Os  Os35  1  0.500000  0.500000  0.500000  1
  Os  Os36  1  0.000000  0.000000  0.000000  1
  Os  Os37  1  0.000000  0.000000  0.500000  1
