# generated using pymatgen
data_EuErBO4
_symmetry_space_group_name_H-M   'P 1'
_cell_length_a   3.62434600
_cell_length_b   9.68358700
_cell_length_c   10.90044600
_cell_angle_alpha   90.00000000
_cell_angle_beta   90.00000000
_cell_angle_gamma   90.00000000
_symmetry_Int_Tables_number   1
_chemical_formula_structural   EuErBO4
_chemical_formula_sum   'Eu4 Er4 B4 O16'
_cell_volume   382.56935403
_cell_formula_units_Z   4
loop_
 _symmetry_equiv_pos_site_id
 _symmetry_equiv_pos_as_xyz
  1  'x, y, z'
loop_
 _atom_site_type_symbol
 _atom_site_label
 _atom_site_symmetry_multiplicity
 _atom_site_fract_x
 _atom_site_fract_y
 _atom_site_fract_z
 _atom_site_occupancy
  Eu  Eu0  1  0.250000  0.655480  0.083027  1
  Eu  Eu1  1  0.750000  0.344520  0.916973  1
  Eu  Eu2  1  0.750000  0.155480  0.416973  1
  Eu  Eu3  1  0.250000  0.844520  0.583027  1
  Er  Er4  1  0.250000  0.080091  0.110455  1
  Er  Er5  1  0.750000  0.919909  0.889545  1
  Er  Er6  1  0.750000  0.580091  0.389545  1
  Er  Er7  1  0.250000  0.419909  0.610455  1
  B  B8  1  0.250000  0.363063  0.205057  1
  B  B9  1  0.750000  0.636937  0.794943  1
  B  B10  1  0.750000  0.863063  0.294943  1
  B  B11  1  0.250000  0.136937  0.705057  1
  O  O12  1  0.250000  0.489085  0.265902  1
  O  O13  1  0.750000  0.510915  0.734098  1
  O  O14  1  0.750000  0.989085  0.234098  1
  O  O15  1  0.250000  0.010915  0.765902  1
  O  O16  1  0.250000  0.238537  0.268965  1
  O  O17  1  0.750000  0.761463  0.731035  1
  O  O18  1  0.750000  0.738537  0.231035  1
  O  O19  1  0.250000  0.261463  0.768965  1
  O  O20  1  0.250000  0.359502  0.076710  1
  O  O21  1  0.750000  0.640498  0.923290  1
  O  O22  1  0.750000  0.859502  0.423290  1
  O  O23  1  0.250000  0.140498  0.576710  1
  O  O24  1  0.250000  0.614404  0.501435  1
  O  O25  1  0.750000  0.385596  0.498565  1
  O  O26  1  0.750000  0.114404  0.998565  1
  O  O27  1  0.250000  0.885596  0.001435  1
