# generated using pymatgen
data_Tb6DyTh(ReB6)4
_symmetry_space_group_name_H-M   'P 1'
_cell_length_a   3.72373100
_cell_length_b   9.22190155
_cell_length_c   11.62517203
_cell_angle_alpha   90.03734256
_cell_angle_beta   90.00000000
_cell_angle_gamma   90.00000000
_symmetry_Int_Tables_number   1
_chemical_formula_structural   Tb6DyTh(ReB6)4
_chemical_formula_sum   'Tb6 Dy1 Th1 Re4 B24'
_cell_volume   399.20693565
_cell_formula_units_Z   1
loop_
 _symmetry_equiv_pos_site_id
 _symmetry_equiv_pos_as_xyz
  1  'x, y, z'
loop_
 _atom_site_type_symbol
 _atom_site_label
 _atom_site_symmetry_multiplicity
 _atom_site_fract_x
 _atom_site_fract_y
 _atom_site_fract_z
 _atom_site_occupancy
  Tb  Tb0  1  0.000000  0.677671  0.587192  1
  Tb  Tb1  1  0.000000  0.823273  0.085033  1
  Tb  Tb2  1  0.000000  0.176061  0.914001  1
  Tb  Tb3  1  0.000000  0.941502  0.369258  1
  Tb  Tb4  1  0.000000  0.056647  0.631489  1
  Tb  Tb5  1  0.000000  0.443009  0.128425  1
  Dy  Dy6  1  0.000000  0.557929  0.870233  1
  Th  Th7  1  0.000000  0.322466  0.414142  1
  Re  Re8  1  0.000000  0.638393  0.320725  1
  Re  Re9  1  0.000000  0.362538  0.680037  1
  Re  Re10  1  0.000000  0.138151  0.178392  1
  Re  Re11  1  0.000000  0.861503  0.821151  1
  B  B12  1  0.500000  0.555409  0.432038  1
  B  B13  1  0.500000  0.447070  0.569650  1
  B  B14  1  0.500000  0.052929  0.066591  1
  B  B15  1  0.500000  0.946554  0.932695  1
  B  B16  1  0.500000  0.749051  0.417726  1
  B  B17  1  0.500000  0.251973  0.585296  1
  B  B18  1  0.500000  0.247838  0.080676  1
  B  B19  1  0.500000  0.751491  0.918024  1
  B  B20  1  0.500000  0.790999  0.265101  1
  B  B21  1  0.500000  0.209316  0.736009  1
  B  B22  1  0.500000  0.289450  0.232192  1
  B  B23  1  0.500000  0.708903  0.765948  1
  B  B24  1  0.500000  0.631694  0.184936  1
  B  B25  1  0.500000  0.370099  0.814943  1
  B  B26  1  0.500000  0.129176  0.311907  1
  B  B27  1  0.500000  0.869085  0.686633  1
  B  B28  1  0.500000  0.982327  0.210762  1
  B  B29  1  0.500000  0.016744  0.788831  1
  B  B30  1  0.500000  0.485563  0.286556  1
  B  B31  1  0.500000  0.517947  0.713492  1
  B  B32  1  0.500000  0.601500  0.027565  1
  B  B33  1  0.500000  0.399469  0.971136  1
  B  B34  1  0.500000  0.097541  0.472683  1
  B  B35  1  0.500000  0.898732  0.528531  1
