# generated using pymatgen
data_Dy3HoAl4RuPt3
_symmetry_space_group_name_H-M   'P 1'
_cell_length_a   4.35463100
_cell_length_b   6.84603370
_cell_length_c   7.86892822
_cell_angle_alpha   89.76382812
_cell_angle_beta   90.00000000
_cell_angle_gamma   90.00000000
_symmetry_Int_Tables_number   1
_chemical_formula_structural   Dy3HoAl4RuPt3
_chemical_formula_sum   'Dy3 Ho1 Al4 Ru1 Pt3'
_cell_volume   234.58610637
_cell_formula_units_Z   1
loop_
 _symmetry_equiv_pos_site_id
 _symmetry_equiv_pos_as_xyz
  1  'x, y, z'
loop_
 _atom_site_type_symbol
 _atom_site_label
 _atom_site_symmetry_multiplicity
 _atom_site_fract_x
 _atom_site_fract_y
 _atom_site_fract_z
 _atom_site_occupancy
  Dy  Dy0  1  0.250000  0.033783  0.677552  1
  Dy  Dy1  1  0.750000  0.976422  0.320906  1
  Dy  Dy2  1  0.750000  0.467152  0.184442  1
  Ho  Ho3  1  0.250000  0.530657  0.819162  1
  Al  Al4  1  0.250000  0.144033  0.062292  1
  Al  Al5  1  0.250000  0.637825  0.436908  1
  Al  Al6  1  0.750000  0.858190  0.937918  1
  Al  Al7  1  0.750000  0.355984  0.560174  1
  Ru  Ru8  1  0.250000  0.264050  0.381244  1
  Pt  Pt9  1  0.250000  0.771021  0.118177  1
  Pt  Pt10  1  0.750000  0.729744  0.621011  1
  Pt  Pt11  1  0.750000  0.231141  0.880213  1
