# generated using pymatgen
data_Pr17Er3Si15Ge
_symmetry_space_group_name_H-M   'P 1'
_cell_length_a   7.88936828
_cell_length_b   7.86976946
_cell_length_c   15.28808200
_cell_angle_alpha   90.08167985
_cell_angle_beta   89.56033701
_cell_angle_gamma   89.91659052
_symmetry_Int_Tables_number   1
_chemical_formula_structural   Pr17Er3Si15Ge
_chemical_formula_sum   'Pr17 Er3 Si15 Ge1'
_cell_volume   949.16900546
_cell_formula_units_Z   1
loop_
 _symmetry_equiv_pos_site_id
 _symmetry_equiv_pos_as_xyz
  1  'x, y, z'
loop_
 _atom_site_type_symbol
 _atom_site_label
 _atom_site_symmetry_multiplicity
 _atom_site_fract_x
 _atom_site_fract_y
 _atom_site_fract_z
 _atom_site_occupancy
  Pr  Pr0  1  0.692030  0.693259  0.499273  1
  Pr  Pr1  1  0.377637  0.012390  0.446029  1
  Pr  Pr2  1  0.488273  0.876958  0.697281  1
  Pr  Pr3  1  0.512421  0.122376  0.195343  1
  Pr  Pr4  1  0.879199  0.487729  0.302825  1
  Pr  Pr5  1  0.122011  0.511416  0.805334  1
  Pr  Pr6  1  0.622204  0.987419  0.946215  1
  Pr  Pr7  1  0.009387  0.379413  0.553351  1
  Pr  Pr8  1  0.988528  0.621286  0.054570  1
  Pr  Pr9  1  0.126778  0.976688  0.878476  1
  Pr  Pr10  1  0.522519  0.626739  0.127345  1
  Pr  Pr11  1  0.478486  0.377393  0.629044  1
  Pr  Pr12  1  0.625768  0.521188  0.872961  1
  Pr  Pr13  1  0.375319  0.477807  0.370724  1
  Pr  Pr14  1  0.873699  0.022400  0.377628  1
  Pr  Pr15  1  0.978607  0.126981  0.121966  1
  Pr  Pr16  1  0.018840  0.871340  0.621795  1
  Er  Er17  1  0.311462  0.310054  0.000154  1
  Er  Er18  1  0.190818  0.811659  0.249576  1
  Er  Er19  1  0.806869  0.189386  0.751160  1
  Si  Si20  1  0.327818  0.688261  0.957409  1
  Si  Si21  1  0.668952  0.307787  0.456334  1
  Si  Si22  1  0.689389  0.327615  0.043064  1
  Si  Si23  1  0.306550  0.670152  0.543493  1
  Si  Si24  1  0.812110  0.828928  0.205791  1
  Si  Si25  1  0.171804  0.188921  0.293205  1
  Si  Si26  1  0.828996  0.810802  0.794668  1
  Si  Si27  1  0.286808  0.922254  0.063193  1
  Si  Si28  1  0.575263  0.790044  0.309309  1
  Si  Si29  1  0.424281  0.212006  0.814883  1
  Si  Si30  1  0.789071  0.574590  0.690876  1
  Si  Si31  1  0.214011  0.421555  0.186351  1
  Si  Si32  1  0.712973  0.082875  0.565001  1
  Si  Si33  1  0.922145  0.285714  0.936840  1
  Si  Si34  1  0.082474  0.714849  0.435024  1
  Ge  Ge35  1  0.186498  0.169768  0.703510  1
