# generated using pymatgen
data_RbAsS6
_symmetry_space_group_name_H-M   'P 1'
_cell_length_a   15.53644000
_cell_length_b   6.04037368
_cell_length_c   11.08796482
_cell_angle_alpha   72.79952131
_cell_angle_beta   90.00000000
_cell_angle_gamma   90.00000000
_symmetry_Int_Tables_number   1
_chemical_formula_structural   RbAsS6
_chemical_formula_sum   'Rb4 As4 S24'
_cell_volume   994.02195248
_cell_formula_units_Z   4
loop_
 _symmetry_equiv_pos_site_id
 _symmetry_equiv_pos_as_xyz
  1  'x, y, z'
loop_
 _atom_site_type_symbol
 _atom_site_label
 _atom_site_symmetry_multiplicity
 _atom_site_fract_x
 _atom_site_fract_y
 _atom_site_fract_z
 _atom_site_occupancy
  Rb  Rb0  1  0.078231  0.663946  0.705900  1
  Rb  Rb1  1  0.578231  0.336054  0.794100  1
  Rb  Rb2  1  0.921769  0.336054  0.294100  1
  Rb  Rb3  1  0.421769  0.663946  0.205900  1
  As  As4  1  0.425417  0.907465  0.628745  1
  As  As5  1  0.925417  0.092535  0.871255  1
  As  As6  1  0.574583  0.092535  0.371255  1
  As  As7  1  0.074583  0.907465  0.128745  1
  S  S8  1  0.387652  0.295844  0.619137  1
  S  S9  1  0.887652  0.704156  0.880863  1
  S  S10  1  0.612348  0.704156  0.380863  1
  S  S11  1  0.112348  0.295844  0.119137  1
  S  S12  1  0.284649  0.251927  0.739165  1
  S  S13  1  0.784649  0.748073  0.760835  1
  S  S14  1  0.715351  0.748073  0.260835  1
  S  S15  1  0.215351  0.251927  0.239165  1
  S  S16  1  0.067408  0.073444  0.869855  1
  S  S17  1  0.567408  0.926556  0.630145  1
  S  S18  1  0.932592  0.926556  0.130145  1
  S  S19  1  0.432592  0.073444  0.369855  1
  S  S20  1  0.063938  0.751362  0.362750  1
  S  S21  1  0.563938  0.248638  0.137250  1
  S  S22  1  0.936062  0.248638  0.637250  1
  S  S23  1  0.436062  0.751362  0.862750  1
  S  S24  1  0.181697  0.596398  0.419763  1
  S  S25  1  0.681697  0.403602  0.080237  1
  S  S26  1  0.818303  0.403602  0.580237  1
  S  S27  1  0.318303  0.596398  0.919763  1
  S  S28  1  0.172865  0.256495  0.416287  1
  S  S29  1  0.672865  0.743505  0.083713  1
  S  S30  1  0.827135  0.743505  0.583713  1
  S  S31  1  0.327135  0.256495  0.916287  1
