# generated using pymatgen
data_Tb15YCd4(CoPd)2
_symmetry_space_group_name_H-M   'P 1'
_cell_length_a   9.63928893
_cell_length_b   9.63928867
_cell_length_c   9.64224000
_cell_angle_alpha   59.98987124
_cell_angle_beta   59.98987210
_cell_angle_gamma   60.14672311
_symmetry_Int_Tables_number   1
_chemical_formula_structural   Tb15YCd4(CoPd)2
_chemical_formula_sum   'Tb15 Y1 Cd4 Co2 Pd2'
_cell_volume   634.11135688
_cell_formula_units_Z   1
loop_
 _symmetry_equiv_pos_site_id
 _symmetry_equiv_pos_as_xyz
  1  'x, y, z'
loop_
 _atom_site_type_symbol
 _atom_site_label
 _atom_site_symmetry_multiplicity
 _atom_site_fract_x
 _atom_site_fract_y
 _atom_site_fract_z
 _atom_site_occupancy
  Tb  Tb0  1  0.345817  0.345817  0.360443  1
  Tb  Tb1  1  0.345817  0.345817  0.947922  1
  Tb  Tb2  1  0.340066  0.956622  0.351656  1
  Tb  Tb3  1  0.956622  0.340066  0.351656  1
  Tb  Tb4  1  0.820472  0.188717  0.189507  1
  Tb  Tb5  1  0.188717  0.820472  0.801303  1
  Tb  Tb6  1  0.188717  0.820472  0.189507  1
  Tb  Tb7  1  0.820472  0.188717  0.801303  1
  Tb  Tb8  1  0.188402  0.188402  0.811598  1
  Tb  Tb9  1  0.809781  0.809781  0.190219  1
  Tb  Tb10  1  0.934937  0.562223  0.566016  1
  Tb  Tb11  1  0.562223  0.934937  0.936825  1
  Tb  Tb12  1  0.562223  0.934937  0.566016  1
  Tb  Tb13  1  0.934937  0.562223  0.936825  1
  Tb  Tb14  1  0.562719  0.562719  0.937281  1
  Y  Y15  1  0.934995  0.934995  0.565005  1
  Cd  Cd16  1  0.580819  0.580819  0.579818  1
  Cd  Cd17  1  0.580819  0.580819  0.258544  1
  Cd  Cd18  1  0.583431  0.254342  0.581113  1
  Cd  Cd19  1  0.254342  0.583431  0.581113  1
  Co  Co20  1  0.143029  0.143029  0.140799  1
  Co  Co21  1  0.143029  0.143029  0.573142  1
  Pd  Pd22  1  0.145866  0.571747  0.141194  1
  Pd  Pd23  1  0.571747  0.145866  0.141194  1
