# generated using pymatgen
data_Zr16Nb4Si15Sb
_symmetry_space_group_name_H-M   'P 1'
_cell_length_a   7.12143217
_cell_length_b   7.09670954
_cell_length_c   13.03921184
_cell_angle_alpha   89.96244677
_cell_angle_beta   89.73439196
_cell_angle_gamma   90.12342941
_symmetry_Int_Tables_number   1
_chemical_formula_structural   Zr16Nb4Si15Sb
_chemical_formula_sum   'Zr16 Nb4 Si15 Sb1'
_cell_volume   658.97652454
_cell_formula_units_Z   1
loop_
 _symmetry_equiv_pos_site_id
 _symmetry_equiv_pos_as_xyz
  1  'x, y, z'
loop_
 _atom_site_type_symbol
 _atom_site_label
 _atom_site_symmetry_multiplicity
 _atom_site_fract_x
 _atom_site_fract_y
 _atom_site_fract_z
 _atom_site_occupancy
  Zr  Zr0  1  0.361823  0.498066  0.375010  1
  Zr  Zr1  1  0.846216  0.008534  0.369156  1
  Zr  Zr2  1  0.003288  0.145725  0.124663  1
  Zr  Zr3  1  0.998987  0.857247  0.631237  1
  Zr  Zr4  1  0.645510  0.496771  0.876713  1
  Zr  Zr5  1  0.505655  0.352830  0.625662  1
  Zr  Zr6  1  0.496477  0.645506  0.122751  1
  Zr  Zr7  1  0.144802  0.002856  0.874146  1
  Zr  Zr8  1  0.999174  0.649874  0.033287  1
  Zr  Zr9  1  0.000110  0.336501  0.537167  1
  Zr  Zr10  1  0.651399  0.000363  0.966362  1
  Zr  Zr11  1  0.151072  0.501333  0.782855  1
  Zr  Zr12  1  0.837167  0.489675  0.275085  1
  Zr  Zr13  1  0.499606  0.150761  0.214281  1
  Zr  Zr14  1  0.502760  0.852167  0.719550  1
  Zr  Zr15  1  0.353893  0.005945  0.467822  1
  Nb  Nb16  1  0.665689  0.677022  0.501320  1
  Nb  Nb17  1  0.825477  0.175724  0.750551  1
  Nb  Nb18  1  0.177109  0.827334  0.245075  1
  Nb  Nb19  1  0.324177  0.325247  0.999695  1
  Si  Si20  1  0.951052  0.301406  0.935231  1
  Si  Si21  1  0.702043  0.047583  0.564753  1
  Si  Si22  1  0.198632  0.451712  0.185289  1
  Si  Si23  1  0.800827  0.550044  0.686399  1
  Si  Si24  1  0.450617  0.200028  0.815794  1
  Si  Si25  1  0.547289  0.801876  0.313050  1
  Si  Si26  1  0.301400  0.951780  0.062487  1
  Si  Si27  1  0.852836  0.796406  0.823223  1
  Si  Si28  1  0.149136  0.201180  0.319999  1
  Si  Si29  1  0.796561  0.852341  0.176684  1
  Si  Si30  1  0.306245  0.647502  0.580241  1
  Si  Si31  1  0.703165  0.353326  0.070820  1
  Si  Si32  1  0.648869  0.300578  0.431535  1
  Si  Si33  1  0.352400  0.702552  0.927929  1
  Si  Si34  1  0.206739  0.146841  0.680891  1
  Sb  Sb35  1  0.041796  0.695364  0.433288  1
