# generated using pymatgen
data_DyHo5Mn2(Co4P3)4
_symmetry_space_group_name_H-M   'P 1'
_cell_length_a   3.68520300
_cell_length_b   10.53140100
_cell_length_c   12.18741600
_cell_angle_alpha   90.00000000
_cell_angle_beta   90.00000000
_cell_angle_gamma   90.00000000
_symmetry_Int_Tables_number   1
_chemical_formula_structural   DyHo5Mn2(Co4P3)4
_chemical_formula_sum   'Dy1 Ho5 Mn2 Co16 P12'
_cell_volume   472.99788737
_cell_formula_units_Z   1
loop_
 _symmetry_equiv_pos_site_id
 _symmetry_equiv_pos_as_xyz
  1  'x, y, z'
loop_
 _atom_site_type_symbol
 _atom_site_label
 _atom_site_symmetry_multiplicity
 _atom_site_fract_x
 _atom_site_fract_y
 _atom_site_fract_z
 _atom_site_occupancy
  Dy  Dy0  1  0.500000  0.000000  0.477225  1
  Ho  Ho1  1  0.000000  0.500000  0.522769  1
  Ho  Ho2  1  0.500000  0.817879  0.205126  1
  Ho  Ho3  1  0.500000  0.182121  0.205126  1
  Ho  Ho4  1  0.000000  0.682049  0.794834  1
  Ho  Ho5  1  0.000000  0.317951  0.794834  1
  Mn  Mn6  1  0.500000  0.500000  0.158909  1
  Mn  Mn7  1  0.000000  0.000000  0.841130  1
  Co  Co8  1  0.500000  0.500000  0.702725  1
  Co  Co9  1  0.000000  0.000000  0.297073  1
  Co  Co10  1  0.000000  0.500000  0.985973  1
  Co  Co11  1  0.500000  0.000000  0.014012  1
  Co  Co12  1  0.500000  0.333167  0.993848  1
  Co  Co13  1  0.500000  0.666833  0.993848  1
  Co  Co14  1  0.000000  0.166937  0.006129  1
  Co  Co15  1  0.000000  0.833063  0.006129  1
  Co  Co16  1  0.500000  0.296706  0.430453  1
  Co  Co17  1  0.500000  0.703294  0.430453  1
  Co  Co18  1  0.000000  0.203500  0.569623  1
  Co  Co19  1  0.000000  0.796500  0.569623  1
  Co  Co20  1  0.500000  0.879388  0.709340  1
  Co  Co21  1  0.500000  0.120612  0.709340  1
  Co  Co22  1  0.000000  0.620541  0.290697  1
  Co  Co23  1  0.000000  0.379459  0.290697  1
  P  P24  1  0.500000  0.500000  0.882426  1
  P  P25  1  0.000000  0.000000  0.117602  1
  P  P26  1  0.500000  0.500000  0.345336  1
  P  P27  1  0.000000  0.000000  0.654915  1
  P  P28  1  0.500000  0.311226  0.616257  1
  P  P29  1  0.500000  0.688774  0.616257  1
  P  P30  1  0.000000  0.188973  0.383661  1
  P  P31  1  0.000000  0.811027  0.383661  1
  P  P32  1  0.500000  0.847218  0.892781  1
  P  P33  1  0.500000  0.152782  0.892781  1
  P  P34  1  0.000000  0.652740  0.107204  1
  P  P35  1  0.000000  0.347260  0.107204  1
