# generated using pymatgen
data_YErTm14(In3Os)2
_symmetry_space_group_name_H-M   'P 1'
_cell_length_a   10.26760700
_cell_length_b   10.27447866
_cell_length_c   7.04781915
_cell_angle_alpha   90.00006606
_cell_angle_beta   90.00000000
_cell_angle_gamma   119.97786878
_symmetry_Int_Tables_number   1
_chemical_formula_structural   YErTm14(In3Os)2
_chemical_formula_sum   'Y1 Er1 Tm14 In6 Os2'
_cell_volume   644.03760070
_cell_formula_units_Z   1
loop_
 _symmetry_equiv_pos_site_id
 _symmetry_equiv_pos_as_xyz
  1  'x, y, z'
loop_
 _atom_site_type_symbol
 _atom_site_label
 _atom_site_symmetry_multiplicity
 _atom_site_fract_x
 _atom_site_fract_y
 _atom_site_fract_z
 _atom_site_occupancy
  Y  Y0  1  0.532688  0.065376  0.793036  1
  Er  Er1  1  0.999848  0.999695  0.277758  1
  Tm  Tm2  1  0.932480  0.466160  0.793541  1
  Tm  Tm3  1  0.533681  0.466160  0.793541  1
  Tm  Tm4  1  0.465637  0.931275  0.293548  1
  Tm  Tm5  1  0.067754  0.534202  0.294312  1
  Tm  Tm6  1  0.466449  0.534202  0.294312  1
  Tm  Tm7  1  0.822977  0.645956  0.497359  1
  Tm  Tm8  1  0.354716  0.178062  0.495921  1
  Tm  Tm9  1  0.823348  0.178062  0.495921  1
  Tm  Tm10  1  0.177550  0.355102  0.997901  1
  Tm  Tm11  1  0.645674  0.821858  0.998093  1
  Tm  Tm12  1  0.176184  0.821858  0.998093  1
  Tm  Tm13  1  0.667007  0.334012  0.173879  1
  Tm  Tm14  1  0.332788  0.665577  0.674494  1
  Tm  Tm15  1  0.000148  0.000296  0.777811  1
  In  In16  1  0.836329  0.672657  0.040838  1
  In  In17  1  0.326049  0.163106  0.040949  1
  In  In18  1  0.837057  0.163106  0.040949  1
  In  In19  1  0.163489  0.326977  0.542157  1
  In  In20  1  0.673220  0.837117  0.542432  1
  In  In21  1  0.163898  0.837117  0.542432  1
  Os  Os22  1  0.667699  0.335397  0.567187  1
  Os  Os23  1  0.333331  0.666664  0.069442  1
