# generated using pymatgen
data_Pr3In3Ir2Pb
_symmetry_space_group_name_H-M   'P 1'
_cell_length_a   7.93127500
_cell_length_b   7.93127370
_cell_length_c   4.15951300
_cell_angle_alpha   90.00000000
_cell_angle_beta   90.00000000
_cell_angle_gamma   119.99999291
_symmetry_Int_Tables_number   1
_chemical_formula_structural   Pr3In3Ir2Pb
_chemical_formula_sum   'Pr3 In3 Ir2 Pb1'
_cell_volume   226.59957673
_cell_formula_units_Z   1
loop_
 _symmetry_equiv_pos_site_id
 _symmetry_equiv_pos_as_xyz
  1  'x, y, z'
loop_
 _atom_site_type_symbol
 _atom_site_label
 _atom_site_symmetry_multiplicity
 _atom_site_fract_x
 _atom_site_fract_y
 _atom_site_fract_z
 _atom_site_occupancy
  Pr  Pr0  1  0.580981  0.609842  0.000000  1
  Pr  Pr1  1  0.390158  0.971140  0.000000  1
  Pr  Pr2  1  0.028860  0.419019  0.000000  1
  In  In3  1  0.014820  0.765192  0.500000  1
  In  In4  1  0.234808  0.249629  0.500000  1
  In  In5  1  0.750371  0.985180  0.500000  1
  Ir  Ir6  1  0.000000  0.000000  0.000000  1
  Ir  Ir7  1  0.333333  0.666667  0.500000  1
  Pb  Pb8  1  0.666667  0.333333  0.500000  1
