# generated using pymatgen
data_Ho3Zr(Ta3Si4)2
_symmetry_space_group_name_H-M   'P 1'
_cell_length_a   6.98914464
_cell_length_b   6.99173809
_cell_length_c   12.92177534
_cell_angle_alpha   90.08834374
_cell_angle_beta   90.13167079
_cell_angle_gamma   90.00558822
_symmetry_Int_Tables_number   1
_chemical_formula_structural   Ho3Zr(Ta3Si4)2
_chemical_formula_sum   'Ho6 Zr2 Ta12 Si16'
_cell_volume   631.43652549
_cell_formula_units_Z   2
loop_
 _symmetry_equiv_pos_site_id
 _symmetry_equiv_pos_as_xyz
  1  'x, y, z'
loop_
 _atom_site_type_symbol
 _atom_site_label
 _atom_site_symmetry_multiplicity
 _atom_site_fract_x
 _atom_site_fract_y
 _atom_site_fract_z
 _atom_site_occupancy
  Ho  Ho0  1  0.998502  0.660297  0.030796  1
  Ho  Ho1  1  0.002909  0.339116  0.531979  1
  Ho  Ho2  1  0.659964  0.998459  0.968338  1
  Ho  Ho3  1  0.161406  0.502719  0.780064  1
  Ho  Ho4  1  0.840181  0.498693  0.282777  1
  Ho  Ho5  1  0.501790  0.160638  0.219588  1
  Zr  Zr6  1  0.504197  0.844524  0.717551  1
  Zr  Zr7  1  0.342958  0.995806  0.469247  1
  Ta  Ta8  1  0.345807  0.508641  0.377890  1
  Ta  Ta9  1  0.846484  0.994229  0.375666  1
  Ta  Ta10  1  0.008408  0.152817  0.126515  1
  Ta  Ta11  1  0.993086  0.847956  0.625653  1
  Ta  Ta12  1  0.650353  0.493411  0.874061  1
  Ta  Ta13  1  0.503310  0.345656  0.623569  1
  Ta  Ta14  1  0.492445  0.654090  0.124274  1
  Ta  Ta15  1  0.154610  0.004668  0.872034  1
  Ta  Ta16  1  0.667469  0.672534  0.500976  1
  Ta  Ta17  1  0.827573  0.167634  0.748792  1
  Ta  Ta18  1  0.170951  0.830551  0.251162  1
  Ta  Ta19  1  0.329910  0.329363  0.998664  1
  Si  Si20  1  0.045348  0.706217  0.437316  1
  Si  Si21  1  0.956499  0.294769  0.935790  1
  Si  Si22  1  0.700356  0.043808  0.563752  1
  Si  Si23  1  0.204342  0.456277  0.187138  1
  Si  Si24  1  0.792959  0.545022  0.686114  1
  Si  Si25  1  0.455779  0.200800  0.812480  1
  Si  Si26  1  0.542755  0.797041  0.314645  1
  Si  Si27  1  0.296236  0.956663  0.063142  1
  Si  Si28  1  0.863521  0.794598  0.817686  1
  Si  Si29  1  0.136648  0.202537  0.321694  1
  Si  Si30  1  0.795667  0.866686  0.182191  1
  Si  Si31  1  0.296932  0.639267  0.571219  1
  Si  Si32  1  0.704405  0.366754  0.068108  1
  Si  Si33  1  0.629973  0.291937  0.431249  1
  Si  Si34  1  0.366727  0.705894  0.929374  1
  Si  Si35  1  0.209541  0.129928  0.678508  1
