# generated using pymatgen
data_TbDy2Er2Sn3
_symmetry_space_group_name_H-M   'P 1'
_cell_length_a   8.95180004
_cell_length_b   8.95326977
_cell_length_c   6.51756600
_cell_angle_alpha   90.00000000
_cell_angle_beta   90.00000000
_cell_angle_gamma   120.00542846
_symmetry_Int_Tables_number   1
_chemical_formula_structural   TbDy2Er2Sn3
_chemical_formula_sum   'Tb2 Dy4 Er4 Sn6'
_cell_volume   452.36016472
_cell_formula_units_Z   2
loop_
 _symmetry_equiv_pos_site_id
 _symmetry_equiv_pos_as_xyz
  1  'x, y, z'
loop_
 _atom_site_type_symbol
 _atom_site_label
 _atom_site_symmetry_multiplicity
 _atom_site_fract_x
 _atom_site_fract_y
 _atom_site_fract_z
 _atom_site_occupancy
  Tb  Tb0  1  0.238803  0.238834  0.750000  1
  Tb  Tb1  1  0.238803  0.999969  0.250000  1
  Dy  Dy2  1  0.999957  0.761134  0.750000  1
  Dy  Dy3  1  0.999957  0.238823  0.250000  1
  Dy  Dy4  1  0.761193  0.761207  0.250000  1
  Dy  Dy5  1  0.761193  0.999986  0.750000  1
  Er  Er6  1  0.333338  0.666669  0.500000  1
  Er  Er7  1  0.666713  0.333356  0.000000  1
  Er  Er8  1  0.666713  0.333356  0.500000  1
  Er  Er9  1  0.333338  0.666669  0.000000  1
  Sn  Sn10  1  0.396238  0.999944  0.750000  1
  Sn  Sn11  1  0.396238  0.396295  0.250000  1
  Sn  Sn12  1  0.999933  0.603693  0.250000  1
  Sn  Sn13  1  0.999933  0.396240  0.750000  1
  Sn  Sn14  1  0.603825  0.603836  0.750000  1
  Sn  Sn15  1  0.603825  0.999988  0.250000  1
