# generated using pymatgen
data_FeH4I4N
_symmetry_space_group_name_H-M   'P 1'
_cell_length_a   10.50056135
_cell_length_b   10.50056217
_cell_length_c   10.50056123
_cell_angle_alpha   135.50768548
_cell_angle_beta   135.50768754
_cell_angle_gamma   64.74238713
_symmetry_Int_Tables_number   1
_chemical_formula_structural   FeH4I4N
_chemical_formula_sum   'Fe2 H8 I8 N2'
_cell_volume   560.63155623
_cell_formula_units_Z   2
loop_
 _symmetry_equiv_pos_site_id
 _symmetry_equiv_pos_as_xyz
  1  'x, y, z'
loop_
 _atom_site_type_symbol
 _atom_site_label
 _atom_site_symmetry_multiplicity
 _atom_site_fract_x
 _atom_site_fract_y
 _atom_site_fract_z
 _atom_site_occupancy
  Fe  Fe0  1  0.500000  0.500000  0.000000  1
  Fe  Fe1  1  0.250000  0.750000  0.500000  1
  H  H2  1  0.889717  0.283349  0.605133  1
  H  H3  1  0.715415  0.110283  0.393631  1
  H  H4  1  0.716651  0.321784  0.606369  1
  H  H5  1  0.071784  0.965415  0.105133  1
  H  H6  1  0.678216  0.284585  0.394867  1
  H  H7  1  0.033349  0.928216  0.893631  1
  H  H8  1  0.034585  0.139717  0.106369  1
  H  H9  1  0.860283  0.966651  0.894867  1
  I  I10  1  0.715970  0.350302  0.904924  1
  I  I11  1  0.100302  0.695379  0.134332  1
  I  I12  1  0.188953  0.284030  0.634332  1
  I  I13  1  0.445379  0.811047  0.095076  1
  I  I14  1  0.304621  0.438953  0.404924  1
  I  I15  1  0.561047  0.965970  0.865668  1
  I  I16  1  0.649698  0.554621  0.365668  1
  I  I17  1  0.034030  0.899698  0.595076  1
  N  N18  1  0.750000  0.250000  0.500000  1
  N  N19  1  0.000000  0.000000  0.000000  1
