# generated using pymatgen
data_Pr4YCo19(Si3P)3
_symmetry_space_group_name_H-M   'P 1'
_cell_length_a   12.27793800
_cell_length_b   12.25381257
_cell_length_c   3.75785300
_cell_angle_alpha   90.00000000
_cell_angle_beta   90.00000000
_cell_angle_gamma   120.06514371
_symmetry_Int_Tables_number   1
_chemical_formula_structural   Pr4YCo19(Si3P)3
_chemical_formula_sum   'Pr4 Y1 Co19 Si9 P3'
_cell_volume   489.30722601
_cell_formula_units_Z   1
loop_
 _symmetry_equiv_pos_site_id
 _symmetry_equiv_pos_as_xyz
  1  'x, y, z'
loop_
 _atom_site_type_symbol
 _atom_site_label
 _atom_site_symmetry_multiplicity
 _atom_site_fract_x
 _atom_site_fract_y
 _atom_site_fract_z
 _atom_site_occupancy
  Pr  Pr0  1  0.332905  0.666231  0.500000  1
  Pr  Pr1  1  0.666676  0.333769  0.500000  1
  Pr  Pr2  1  0.000742  0.184698  0.000000  1
  Pr  Pr3  1  0.816045  0.815302  0.000000  1
  Y  Y4  1  0.186095  0.000000  0.000000  1
  Co  Co5  1  0.625233  0.824151  0.500000  1
  Co  Co6  1  0.176504  0.803930  0.500000  1
  Co  Co7  1  0.198642  0.372901  0.500000  1
  Co  Co8  1  0.372574  0.196070  0.500000  1
  Co  Co9  1  0.825741  0.627099  0.500000  1
  Co  Co10  1  0.801081  0.175849  0.500000  1
  Co  Co11  1  0.000518  0.560263  0.500000  1
  Co  Co12  1  0.440255  0.439737  0.500000  1
  Co  Co13  1  0.557863  0.000000  0.500000  1
  Co  Co14  1  0.521083  0.643011  0.000000  1
  Co  Co15  1  0.355608  0.878737  0.000000  1
  Co  Co16  1  0.121807  0.478364  0.000000  1
  Co  Co17  1  0.476872  0.121263  0.000000  1
  Co  Co18  1  0.643442  0.521636  0.000000  1
  Co  Co19  1  0.878072  0.356989  0.000000  1
  Co  Co20  1  0.002049  0.723692  0.000000  1
  Co  Co21  1  0.278357  0.276308  0.000000  1
  Co  Co22  1  0.720680  0.000000  0.000000  1
  Co  Co23  1  0.001938  0.000000  0.500000  1
  Si  Si24  1  0.999939  0.374196  0.500000  1
  Si  Si25  1  0.625743  0.625804  0.500000  1
  Si  Si26  1  0.370996  0.000000  0.500000  1
  Si  Si27  1  0.524076  0.842804  0.000000  1
  Si  Si28  1  0.157790  0.682826  0.000000  1
  Si  Si29  1  0.317445  0.473828  0.000000  1
  Si  Si30  1  0.474964  0.317174  0.000000  1
  Si  Si31  1  0.843617  0.526172  0.000000  1
  Si  Si32  1  0.681272  0.157196  0.000000  1
  P  P33  1  0.003682  0.818314  0.500000  1
  P  P34  1  0.185368  0.181686  0.500000  1
  P  P35  1  0.814328  0.000000  0.500000  1
