# generated using pymatgen
data_Nb12Al8CuPt3C4
_symmetry_space_group_name_H-M   'P 1'
_cell_length_a   8.36453393
_cell_length_b   8.37928216
_cell_length_c   8.37928200
_cell_angle_alpha   60.00000852
_cell_angle_beta   59.94166567
_cell_angle_gamma   59.94166305
_symmetry_Int_Tables_number   1
_chemical_formula_structural   Nb12Al8CuPt3C4
_chemical_formula_sum   'Nb12 Al8 Cu1 Pt3 C4'
_cell_volume   414.91286346
_cell_formula_units_Z   1
loop_
 _symmetry_equiv_pos_site_id
 _symmetry_equiv_pos_as_xyz
  1  'x, y, z'
loop_
 _atom_site_type_symbol
 _atom_site_label
 _atom_site_symmetry_multiplicity
 _atom_site_fract_x
 _atom_site_fract_y
 _atom_site_fract_z
 _atom_site_occupancy
  Nb  Nb0  1  0.815969  0.816675  0.183677  1
  Nb  Nb1  1  0.183816  0.183718  0.816232  1
  Nb  Nb2  1  0.815969  0.183677  0.816675  1
  Nb  Nb3  1  0.183816  0.816232  0.183718  1
  Nb  Nb4  1  0.183816  0.816232  0.816232  1
  Nb  Nb5  1  0.815969  0.183677  0.183677  1
  Nb  Nb6  1  0.434031  0.433325  0.066323  1
  Nb  Nb7  1  0.066184  0.066282  0.433768  1
  Nb  Nb8  1  0.434031  0.066323  0.433325  1
  Nb  Nb9  1  0.066184  0.433768  0.066282  1
  Nb  Nb10  1  0.066184  0.433768  0.433768  1
  Nb  Nb11  1  0.434031  0.066323  0.066323  1
  Al  Al12  1  0.752684  0.415772  0.415772  1
  Al  Al13  1  0.412486  0.752647  0.417433  1
  Al  Al14  1  0.412486  0.417433  0.752647  1
  Al  Al15  1  0.412486  0.417433  0.417433  1
  Al  Al16  1  0.497316  0.834228  0.834228  1
  Al  Al17  1  0.837514  0.497353  0.832567  1
  Al  Al18  1  0.837514  0.832567  0.497353  1
  Al  Al19  1  0.837514  0.832567  0.832567  1
  Cu  Cu20  1  0.125000  0.625000  0.625000  1
  Pt  Pt21  1  0.625000  0.125000  0.625000  1
  Pt  Pt22  1  0.625000  0.625000  0.125000  1
  Pt  Pt23  1  0.625000  0.625000  0.625000  1
  C  C24  1  0.625000  0.125000  0.125000  1
  C  C25  1  0.125000  0.625000  0.125000  1
  C  C26  1  0.125000  0.125000  0.625000  1
  C  C27  1  0.125000  0.125000  0.125000  1
