# generated using pymatgen
data_Pr2Lu4IrRh17
_symmetry_space_group_name_H-M   'P 1'
_cell_length_a   5.23700900
_cell_length_b   5.23645940
_cell_length_c   17.47671800
_cell_angle_alpha   89.99928879
_cell_angle_beta   90.00188178
_cell_angle_gamma   119.99872775
_symmetry_Int_Tables_number   1
_chemical_formula_structural   Pr2Lu4IrRh17
_chemical_formula_sum   'Pr2 Lu4 Ir1 Rh17'
_cell_volume   415.06597968
_cell_formula_units_Z   1
loop_
 _symmetry_equiv_pos_site_id
 _symmetry_equiv_pos_as_xyz
  1  'x, y, z'
loop_
 _atom_site_type_symbol
 _atom_site_label
 _atom_site_symmetry_multiplicity
 _atom_site_fract_x
 _atom_site_fract_y
 _atom_site_fract_z
 _atom_site_occupancy
  Pr  Pr0  1  0.333305  0.666686  0.749809  1
  Pr  Pr1  1  0.666695  0.333314  0.250191  1
  Lu  Lu2  1  0.333323  0.666660  0.959181  1
  Lu  Lu3  1  0.666677  0.333340  0.040819  1
  Lu  Lu4  1  0.666676  0.333337  0.459652  1
  Lu  Lu5  1  0.333324  0.666663  0.540348  1
  Ir  Ir6  1  0.000000  0.000000  0.500000  1
  Rh  Rh7  1  0.167434  0.832575  0.376038  1
  Rh  Rh8  1  0.167432  0.334855  0.376034  1
  Rh  Rh9  1  0.665149  0.832570  0.376033  1
  Rh  Rh10  1  0.832566  0.167425  0.623962  1
  Rh  Rh11  1  0.832568  0.665145  0.623966  1
  Rh  Rh12  1  0.334851  0.167430  0.623967  1
  Rh  Rh13  1  0.832489  0.167488  0.876217  1
  Rh  Rh14  1  0.832496  0.665011  0.876212  1
  Rh  Rh15  1  0.334985  0.167502  0.876213  1
  Rh  Rh16  1  0.167511  0.832512  0.123783  1
  Rh  Rh17  1  0.167504  0.334989  0.123788  1
  Rh  Rh18  1  0.665015  0.832498  0.123787  1
  Rh  Rh19  1  0.333373  0.666689  0.249583  1
  Rh  Rh20  1  0.666627  0.333311  0.750417  1
  Rh  Rh21  1  0.999991  0.999991  0.249622  1
  Rh  Rh22  1  0.000009  0.000009  0.750378  1
  Rh  Rh23  1  0.000000  0.000000  0.000000  1
