# generated using pymatgen
data_Ta10SiB4As
_symmetry_space_group_name_H-M   'P 1'
_cell_length_a   7.29920912
_cell_length_b   7.29920878
_cell_length_c   7.29920986
_cell_angle_alpha   129.23535572
_cell_angle_beta   129.23536028
_cell_angle_gamma   74.63217117
_symmetry_Int_Tables_number   1
_chemical_formula_structural   Ta10SiB4As
_chemical_formula_sum   'Ta10 Si1 B4 As1'
_cell_volume   227.32061322
_cell_formula_units_Z   1
loop_
 _symmetry_equiv_pos_site_id
 _symmetry_equiv_pos_as_xyz
  1  'x, y, z'
loop_
 _atom_site_type_symbol
 _atom_site_label
 _atom_site_symmetry_multiplicity
 _atom_site_fract_x
 _atom_site_fract_y
 _atom_site_fract_z
 _atom_site_occupancy
  Ta  Ta0  1  0.529477  0.698337  0.504863  1
  Ta  Ta1  1  0.024614  0.529477  0.831139  1
  Ta  Ta2  1  0.698337  0.193474  0.168861  1
  Ta  Ta3  1  0.970523  0.475386  0.168861  1
  Ta  Ta4  1  0.193474  0.024614  0.495137  1
  Ta  Ta5  1  0.475386  0.306526  0.504863  1
  Ta  Ta6  1  0.801663  0.970523  0.495137  1
  Ta  Ta7  1  0.306526  0.801663  0.831139  1
  Ta  Ta8  1  0.999823  0.999823  0.000000  1
  Ta  Ta9  1  0.500177  0.500177  0.000000  1
  Si  Si10  1  0.750000  0.750000  0.000000  1
  B  B11  1  0.618815  0.118815  0.737629  1
  B  B12  1  0.118815  0.381185  0.500000  1
  B  B13  1  0.881185  0.618815  0.500000  1
  B  B14  1  0.381185  0.881185  0.262371  1
  As  As15  1  0.250000  0.250000  0.000000  1
