# generated using pymatgen
data_SmBeCo12
_symmetry_space_group_name_H-M   'P 1'
_cell_length_a   7.86044470
_cell_length_b   7.86044436
_cell_length_c   7.86044500
_cell_angle_alpha   60.00000153
_cell_angle_beta   60.00000296
_cell_angle_gamma   60.00000054
_symmetry_Int_Tables_number   1
_chemical_formula_structural   SmBeCo12
_chemical_formula_sum   'Sm2 Be2 Co24'
_cell_volume   343.42061912
_cell_formula_units_Z   2
loop_
 _symmetry_equiv_pos_site_id
 _symmetry_equiv_pos_as_xyz
  1  'x, y, z'
loop_
 _atom_site_type_symbol
 _atom_site_label
 _atom_site_symmetry_multiplicity
 _atom_site_fract_x
 _atom_site_fract_y
 _atom_site_fract_z
 _atom_site_occupancy
  Sm  Sm0  1  0.250000  0.250000  0.250000  1
  Sm  Sm1  1  0.750000  0.750000  0.750000  1
  Be  Be2  1  0.000000  0.000000  0.000000  1
  Be  Be3  1  0.500000  0.500000  0.500000  1
  Co  Co4  1  0.293937  0.059639  0.940361  1
  Co  Co5  1  0.706063  0.940361  0.059639  1
  Co  Co6  1  0.059639  0.293937  0.706063  1
  Co  Co7  1  0.940361  0.706063  0.293937  1
  Co  Co8  1  0.940361  0.293937  0.059639  1
  Co  Co9  1  0.206063  0.440361  0.793937  1
  Co  Co10  1  0.059639  0.706063  0.940361  1
  Co  Co11  1  0.793937  0.559639  0.206063  1
  Co  Co12  1  0.706063  0.059639  0.293937  1
  Co  Co13  1  0.440361  0.206063  0.559639  1
  Co  Co14  1  0.293937  0.940361  0.706063  1
  Co  Co15  1  0.559639  0.793937  0.440361  1
  Co  Co16  1  0.059639  0.940361  0.293937  1
  Co  Co17  1  0.559639  0.206063  0.793937  1
  Co  Co18  1  0.940361  0.059639  0.706063  1
  Co  Co19  1  0.440361  0.793937  0.206063  1
  Co  Co20  1  0.706063  0.293937  0.940361  1
  Co  Co21  1  0.206063  0.559639  0.440361  1
  Co  Co22  1  0.293937  0.706063  0.059639  1
  Co  Co23  1  0.793937  0.440361  0.559639  1
  Co  Co24  1  0.793937  0.206063  0.440361  1
  Co  Co25  1  0.206063  0.793937  0.559639  1
  Co  Co26  1  0.559639  0.440361  0.206063  1
  Co  Co27  1  0.440361  0.559639  0.793937  1
