# generated using pymatgen
data_YSc(NbSe2)6
_symmetry_space_group_name_H-M   'P 1'
_cell_length_a   6.07644000
_cell_length_b   6.07644138
_cell_length_c   14.03934700
_cell_angle_alpha   90.00000000
_cell_angle_beta   90.00000000
_cell_angle_gamma   119.99999248
_symmetry_Int_Tables_number   1
_chemical_formula_structural   YSc(NbSe2)6
_chemical_formula_sum   'Y1 Sc1 Nb6 Se12'
_cell_volume   448.92738601
_cell_formula_units_Z   1
loop_
 _symmetry_equiv_pos_site_id
 _symmetry_equiv_pos_as_xyz
  1  'x, y, z'
loop_
 _atom_site_type_symbol
 _atom_site_label
 _atom_site_symmetry_multiplicity
 _atom_site_fract_x
 _atom_site_fract_y
 _atom_site_fract_z
 _atom_site_occupancy
  Y  Y0  1  0.333333  0.666667  0.250000  1
  Sc  Sc1  1  0.666667  0.333333  0.750000  1
  Nb  Nb2  1  0.000000  0.000000  0.506845  1
  Nb  Nb3  1  0.000000  0.000000  0.993155  1
  Nb  Nb4  1  0.333333  0.666667  0.994925  1
  Nb  Nb5  1  0.666667  0.333333  0.992745  1
  Nb  Nb6  1  0.666667  0.333333  0.507255  1
  Nb  Nb7  1  0.333333  0.666667  0.505075  1
  Se  Se8  1  0.333335  0.325535  0.386820  1
  Se  Se9  1  0.674465  0.007799  0.386820  1
  Se  Se10  1  0.992201  0.666665  0.386820  1
  Se  Se11  1  0.329060  0.334365  0.625913  1
  Se  Se12  1  0.005304  0.670940  0.625913  1
  Se  Se13  1  0.665635  0.994696  0.625913  1
  Se  Se14  1  0.665635  0.670940  0.874087  1
  Se  Se15  1  0.329060  0.994696  0.874087  1
  Se  Se16  1  0.005304  0.334365  0.874087  1
  Se  Se17  1  0.674465  0.666665  0.113180  1
  Se  Se18  1  0.992201  0.325535  0.113180  1
  Se  Se19  1  0.333335  0.007799  0.113180  1
