# generated using pymatgen
data_Eu5(SnTe)2
_symmetry_space_group_name_H-M   'P 1'
_cell_length_a   8.57363300
_cell_length_b   8.56941800
_cell_length_c   16.41488800
_cell_angle_alpha   90.00000000
_cell_angle_beta   90.00000000
_cell_angle_gamma   90.00000000
_symmetry_Int_Tables_number   1
_chemical_formula_structural   Eu5(SnTe)2
_chemical_formula_sum   'Eu20 Sn8 Te8'
_cell_volume   1206.01897419
_cell_formula_units_Z   4
loop_
 _symmetry_equiv_pos_site_id
 _symmetry_equiv_pos_as_xyz
  1  'x, y, z'
loop_
 _atom_site_type_symbol
 _atom_site_label
 _atom_site_symmetry_multiplicity
 _atom_site_fract_x
 _atom_site_fract_y
 _atom_site_fract_z
 _atom_site_occupancy
  Eu  Eu0  1  0.074203  0.165305  0.386848  1
  Eu  Eu1  1  0.410088  0.835510  0.115202  1
  Eu  Eu2  1  0.089912  0.335510  0.615202  1
  Eu  Eu3  1  0.425797  0.665305  0.886848  1
  Eu  Eu4  1  0.910088  0.664490  0.115202  1
  Eu  Eu5  1  0.089912  0.335510  0.884798  1
  Eu  Eu6  1  0.241807  0.499454  0.250000  1
  Eu  Eu7  1  0.741807  0.000546  0.250000  1
  Eu  Eu8  1  0.425797  0.665305  0.613152  1
  Eu  Eu9  1  0.258193  0.999454  0.750000  1
  Eu  Eu10  1  0.589912  0.164490  0.615202  1
  Eu  Eu11  1  0.758193  0.500546  0.750000  1
  Eu  Eu12  1  0.910088  0.664490  0.384798  1
  Eu  Eu13  1  0.074203  0.165305  0.113152  1
  Eu  Eu14  1  0.925797  0.834695  0.886848  1
  Eu  Eu15  1  0.589912  0.164490  0.884798  1
  Eu  Eu16  1  0.574203  0.334695  0.113152  1
  Eu  Eu17  1  0.410088  0.835510  0.384798  1
  Eu  Eu18  1  0.925797  0.834695  0.613152  1
  Eu  Eu19  1  0.574203  0.334695  0.386848  1
  Sn  Sn20  1  0.631599  0.872930  0.750000  1
  Sn  Sn21  1  0.868401  0.372930  0.250000  1
  Sn  Sn22  1  0.615406  0.624793  0.250000  1
  Sn  Sn23  1  0.384594  0.375207  0.750000  1
  Sn  Sn24  1  0.131599  0.627070  0.750000  1
  Sn  Sn25  1  0.884594  0.124793  0.750000  1
  Sn  Sn26  1  0.368401  0.127070  0.250000  1
  Sn  Sn27  1  0.115406  0.875207  0.250000  1
  Te  Te28  1  0.755412  0.497091  0.547516  1
  Te  Te29  1  0.744588  0.997091  0.452484  1
  Te  Te30  1  0.244588  0.502909  0.452484  1
  Te  Te31  1  0.255412  0.002909  0.952484  1
  Te  Te32  1  0.755412  0.497091  0.952484  1
  Te  Te33  1  0.244588  0.502909  0.047516  1
  Te  Te34  1  0.255412  0.002909  0.547516  1
  Te  Te35  1  0.744588  0.997091  0.047516  1
