# generated using pymatgen
data_Th8Si12Os3Pd
_symmetry_space_group_name_H-M   'P 1'
_cell_length_a   8.27129200
_cell_length_b   8.27129237
_cell_length_c   8.41570900
_cell_angle_alpha   90.00000000
_cell_angle_beta   90.00000000
_cell_angle_gamma   119.99999052
_symmetry_Int_Tables_number   1
_chemical_formula_structural   Th8Si12Os3Pd
_chemical_formula_sum   'Th8 Si12 Os3 Pd1'
_cell_volume   498.61817920
_cell_formula_units_Z   1
loop_
 _symmetry_equiv_pos_site_id
 _symmetry_equiv_pos_as_xyz
  1  'x, y, z'
loop_
 _atom_site_type_symbol
 _atom_site_label
 _atom_site_symmetry_multiplicity
 _atom_site_fract_x
 _atom_site_fract_y
 _atom_site_fract_z
 _atom_site_occupancy
  Th  Th0  1  0.496341  0.503659  0.754362  1
  Th  Th1  1  0.496646  0.503354  0.245561  1
  Th  Th2  1  0.007317  0.503659  0.754362  1
  Th  Th3  1  0.006709  0.503354  0.245561  1
  Th  Th4  1  0.496341  0.992683  0.754362  1
  Th  Th5  1  0.496646  0.993291  0.245561  1
  Th  Th6  1  0.000000  0.000000  0.750957  1
  Th  Th7  1  0.000000  0.000000  0.249100  1
  Si  Si8  1  0.833926  0.166074  0.999753  1
  Si  Si9  1  0.165340  0.834660  0.000212  1
  Si  Si10  1  0.332149  0.166074  0.999753  1
  Si  Si11  1  0.166328  0.833672  0.499720  1
  Si  Si12  1  0.669319  0.834660  0.000212  1
  Si  Si13  1  0.835088  0.164912  0.500189  1
  Si  Si14  1  0.833926  0.667851  0.999753  1
  Si  Si15  1  0.667342  0.833672  0.499720  1
  Si  Si16  1  0.165340  0.330681  0.000212  1
  Si  Si17  1  0.329825  0.164912  0.500189  1
  Si  Si18  1  0.166328  0.332658  0.499720  1
  Si  Si19  1  0.835088  0.670175  0.500189  1
  Os  Os20  1  0.666667  0.333333  0.999962  1
  Os  Os21  1  0.333333  0.666667  0.000242  1
  Os  Os22  1  0.333333  0.666667  0.499915  1
  Pd  Pd23  1  0.666667  0.333333  0.500433  1
