# generated using pymatgen
data_Ti3Cr2P3Os
_symmetry_space_group_name_H-M   'P 1'
_cell_length_a   6.38119841
_cell_length_b   6.39558245
_cell_length_c   3.36153900
_cell_angle_alpha   90.00000000
_cell_angle_beta   90.00000000
_cell_angle_gamma   120.07459394
_symmetry_Int_Tables_number   1
_chemical_formula_structural   Ti3Cr2P3Os
_chemical_formula_sum   'Ti3 Cr2 P3 Os1'
_cell_volume   118.72008643
_cell_formula_units_Z   1
loop_
 _symmetry_equiv_pos_site_id
 _symmetry_equiv_pos_as_xyz
  1  'x, y, z'
loop_
 _atom_site_type_symbol
 _atom_site_label
 _atom_site_symmetry_multiplicity
 _atom_site_fract_x
 _atom_site_fract_y
 _atom_site_fract_z
 _atom_site_occupancy
  Ti  Ti0  1  0.413942  0.409757  0.500000  1
  Ti  Ti1  1  0.586058  0.995815  0.500000  1
  Ti  Ti2  1  0.000000  0.598545  0.500000  1
  Cr  Cr3  1  0.252094  0.000375  0.000000  1
  Cr  Cr4  1  0.747906  0.748281  0.000000  1
  P  P5  1  0.664416  0.334805  0.000000  1
  P  P6  1  0.335584  0.670390  0.000000  1
  P  P7  1  0.000000  0.992977  0.500000  1
  Os  Os8  1  0.000000  0.249057  0.000000  1
