# generated using pymatgen
data_Rb4HfReCl12
_symmetry_space_group_name_H-M   'P 1'
_cell_length_a   7.30947700
_cell_length_b   7.30962001
_cell_length_c   10.38348200
_cell_angle_alpha   90.00000000
_cell_angle_beta   90.00000000
_cell_angle_gamma   90.00277480
_symmetry_Int_Tables_number   1
_chemical_formula_structural   Rb4HfReCl12
_chemical_formula_sum   'Rb4 Hf1 Re1 Cl12'
_cell_volume   554.78424393
_cell_formula_units_Z   1
loop_
 _symmetry_equiv_pos_site_id
 _symmetry_equiv_pos_as_xyz
  1  'x, y, z'
loop_
 _atom_site_type_symbol
 _atom_site_label
 _atom_site_symmetry_multiplicity
 _atom_site_fract_x
 _atom_site_fract_y
 _atom_site_fract_z
 _atom_site_occupancy
  Rb  Rb0  1  0.500000  0.000000  0.748488  1
  Rb  Rb1  1  0.000000  0.500000  0.251524  1
  Rb  Rb2  1  0.500000  0.000000  0.251512  1
  Rb  Rb3  1  0.000000  0.500000  0.748476  1
  Hf  Hf4  1  0.000000  0.000000  0.000000  1
  Re  Re5  1  0.500000  0.500000  0.500000  1
  Cl  Cl6  1  0.000000  0.000000  0.762707  1
  Cl  Cl7  1  0.500000  0.500000  0.270675  1
  Cl  Cl8  1  0.730501  0.730484  0.500000  1
  Cl  Cl9  1  0.237895  0.237901  0.000000  1
  Cl  Cl10  1  0.730496  0.269492  0.500000  1
  Cl  Cl11  1  0.237897  0.762074  0.000000  1
  Cl  Cl12  1  0.000000  0.000000  0.237293  1
  Cl  Cl13  1  0.500000  0.500000  0.729325  1
  Cl  Cl14  1  0.269499  0.269516  0.500000  1
  Cl  Cl15  1  0.762105  0.762099  0.000000  1
  Cl  Cl16  1  0.269504  0.730508  0.500000  1
  Cl  Cl17  1  0.762103  0.237926  0.000000  1
