# generated using pymatgen
data_Ho5Tm11(Tl3Rh)2
_symmetry_space_group_name_H-M   'P 1'
_cell_length_a   10.32317200
_cell_length_b   10.32317196
_cell_length_c   6.96261000
_cell_angle_alpha   89.99866240
_cell_angle_beta   90.00133760
_cell_angle_gamma   119.99184204
_symmetry_Int_Tables_number   1
_chemical_formula_structural   Ho5Tm11(Tl3Rh)2
_chemical_formula_sum   'Ho5 Tm11 Tl6 Rh2'
_cell_volume   642.63551321
_cell_formula_units_Z   1
loop_
 _symmetry_equiv_pos_site_id
 _symmetry_equiv_pos_as_xyz
  1  'x, y, z'
loop_
 _atom_site_type_symbol
 _atom_site_label
 _atom_site_symmetry_multiplicity
 _atom_site_fract_x
 _atom_site_fract_y
 _atom_site_fract_z
 _atom_site_occupancy
  Ho  Ho0  1  0.532882  0.065753  0.516463  1
  Ho  Ho1  1  0.934240  0.467116  0.516447  1
  Ho  Ho2  1  0.532710  0.467292  0.516527  1
  Ho  Ho3  1  0.467060  0.934051  0.016491  1
  Ho  Ho4  1  0.065919  0.532928  0.016439  1
  Tm  Tm5  1  0.466716  0.533248  0.016564  1
  Tm  Tm6  1  0.176476  0.352468  0.720170  1
  Tm  Tm7  1  0.647564  0.823549  0.720170  1
  Tm  Tm8  1  0.176154  0.823853  0.719742  1
  Tm  Tm9  1  0.823369  0.647496  0.219376  1
  Tm  Tm10  1  0.352484  0.176626  0.219378  1
  Tm  Tm11  1  0.823927  0.176076  0.219720  1
  Tm  Tm12  1  0.666445  0.333567  0.895973  1
  Tm  Tm13  1  0.333547  0.666412  0.395766  1
  Tm  Tm14  1  0.000042  0.999970  0.499782  1
  Tm  Tm15  1  0.999998  0.999996  0.999929  1
  Tl  Tl16  1  0.837327  0.674509  0.763036  1
  Tl  Tl17  1  0.325545  0.162711  0.763057  1
  Tl  Tl18  1  0.837275  0.162744  0.762847  1
  Tl  Tl19  1  0.163020  0.325812  0.262659  1
  Tl  Tl20  1  0.674158  0.836966  0.262674  1
  Tl  Tl21  1  0.162692  0.837367  0.263050  1
  Rh  Rh22  1  0.666643  0.333450  0.285664  1
  Rh  Rh23  1  0.333806  0.666041  0.786076  1
