# generated using pymatgen
data_KBaFeCo3P4
_symmetry_space_group_name_H-M   'P 1'
_cell_length_a   6.96067955
_cell_length_b   6.96552162
_cell_length_c   5.27624600
_cell_angle_alpha   90.00000000
_cell_angle_beta   90.00000000
_cell_angle_gamma   135.45568948
_symmetry_Int_Tables_number   1
_chemical_formula_structural   KBaFeCo3P4
_chemical_formula_sum   'K1 Ba1 Fe1 Co3 P4'
_cell_volume   179.44594066
_cell_formula_units_Z   1
loop_
 _symmetry_equiv_pos_site_id
 _symmetry_equiv_pos_as_xyz
  1  'x, y, z'
loop_
 _atom_site_type_symbol
 _atom_site_label
 _atom_site_symmetry_multiplicity
 _atom_site_fract_x
 _atom_site_fract_y
 _atom_site_fract_z
 _atom_site_occupancy
  K  K0  1  0.000000  0.000000  0.000374  1
  Ba  Ba1  1  0.500000  0.500000  0.499428  1
  Fe  Fe2  1  0.500000  0.000000  0.749869  1
  Co  Co3  1  0.000000  0.500000  0.250236  1
  Co  Co4  1  0.000000  0.500000  0.749651  1
  Co  Co5  1  0.500000  0.000000  0.250162  1
  P  P6  1  0.655996  0.338637  0.997419  1
  P  P7  1  0.160938  0.844005  0.502721  1
  P  P8  1  0.839062  0.155995  0.502721  1
  P  P9  1  0.344004  0.661363  0.997419  1
