# generated using pymatgen
data_Ce3ErZnGaSiRh10
_symmetry_space_group_name_H-M   'P 1'
_cell_length_a   7.17244130
_cell_length_b   7.21941465
_cell_length_c   7.25866300
_cell_angle_alpha   107.67063054
_cell_angle_beta   110.68587984
_cell_angle_gamma   110.46760381
_symmetry_Int_Tables_number   1
_chemical_formula_structural   Ce3ErZnGaSiRh10
_chemical_formula_sum   'Ce3 Er1 Zn1 Ga1 Si1 Rh10'
_cell_volume   287.67770030
_cell_formula_units_Z   1
loop_
 _symmetry_equiv_pos_site_id
 _symmetry_equiv_pos_as_xyz
  1  'x, y, z'
loop_
 _atom_site_type_symbol
 _atom_site_label
 _atom_site_symmetry_multiplicity
 _atom_site_fract_x
 _atom_site_fract_y
 _atom_site_fract_z
 _atom_site_occupancy
  Ce  Ce0  1  0.026187  0.514274  0.016043  1
  Ce  Ce1  1  0.474723  0.970814  0.965046  1
  Ce  Ce2  1  0.475160  0.506006  0.507929  1
  Er  Er3  1  0.024761  0.009000  0.511132  1
  Zn  Zn4  1  0.748878  0.505220  0.250641  1
  Ga  Ga5  1  0.750161  0.243719  0.499488  1
  Si  Si6  1  0.003266  0.001761  0.001899  1
  Rh  Rh7  1  0.526604  0.264632  0.763331  1
  Rh  Rh8  1  0.232702  0.491718  0.747881  1
  Rh  Rh9  1  0.236065  0.740949  0.487589  1
  Rh  Rh10  1  0.510726  0.755608  0.253562  1
  Rh  Rh11  1  0.734565  0.723946  0.014398  1
  Rh  Rh12  1  0.302409  0.022069  0.287719  1
  Rh  Rh13  1  0.959964  0.255081  0.261886  1
  Rh  Rh14  1  0.296893  0.279214  0.010943  1
  Rh  Rh15  1  0.737026  0.013819  0.718932  1
  Rh  Rh16  1  0.959913  0.702166  0.701581  1
