# generated using pymatgen
data_Y2Er2Al4Pd3Ru
_symmetry_space_group_name_H-M   'P 1'
_cell_length_a   4.33464500
_cell_length_b   6.88497702
_cell_length_c   7.89927741
_cell_angle_alpha   90.11627323
_cell_angle_beta   90.00000000
_cell_angle_gamma   90.00000000
_symmetry_Int_Tables_number   1
_chemical_formula_structural   Y2Er2Al4Pd3Ru
_chemical_formula_sum   'Y2 Er2 Al4 Pd3 Ru1'
_cell_volume   235.74500631
_cell_formula_units_Z   1
loop_
 _symmetry_equiv_pos_site_id
 _symmetry_equiv_pos_as_xyz
  1  'x, y, z'
loop_
 _atom_site_type_symbol
 _atom_site_label
 _atom_site_symmetry_multiplicity
 _atom_site_fract_x
 _atom_site_fract_y
 _atom_site_fract_z
 _atom_site_occupancy
  Y  Y0  1  0.250000  0.035713  0.323273  1
  Y  Y1  1  0.250000  0.531511  0.179716  1
  Er  Er2  1  0.750000  0.978164  0.678277  1
  Er  Er3  1  0.750000  0.462987  0.815520  1
  Al  Al4  1  0.250000  0.143903  0.936927  1
  Al  Al5  1  0.250000  0.635189  0.561962  1
  Al  Al6  1  0.750000  0.858386  0.059971  1
  Al  Al7  1  0.750000  0.356732  0.443095  1
  Pd  Pd8  1  0.250000  0.772368  0.878390  1
  Pd  Pd9  1  0.750000  0.730282  0.378793  1
  Pd  Pd10  1  0.750000  0.230443  0.121475  1
  Ru  Ru11  1  0.250000  0.264321  0.622604  1
