# generated using pymatgen
data_LaPa3F15
_symmetry_space_group_name_H-M   'P 1'
_cell_length_a   8.86564682
_cell_length_b   8.86564643
_cell_length_c   8.84681607
_cell_angle_alpha   79.71583485
_cell_angle_beta   79.71582800
_cell_angle_gamma   100.29632989
_symmetry_Int_Tables_number   1
_chemical_formula_structural   LaPa3F15
_chemical_formula_sum   'La2 Pa6 F30'
_cell_volume   657.07086104
_cell_formula_units_Z   2
loop_
 _symmetry_equiv_pos_site_id
 _symmetry_equiv_pos_as_xyz
  1  'x, y, z'
loop_
 _atom_site_type_symbol
 _atom_site_label
 _atom_site_symmetry_multiplicity
 _atom_site_fract_x
 _atom_site_fract_y
 _atom_site_fract_z
 _atom_site_occupancy
  La  La0  1  0.177435  0.822565  0.250000  1
  La  La1  1  0.822565  0.177435  0.750000  1
  Pa  Pa2  1  0.750637  0.249363  0.250000  1
  Pa  Pa3  1  0.249363  0.750637  0.750000  1
  Pa  Pa4  1  0.750419  0.677606  0.677841  1
  Pa  Pa5  1  0.322394  0.249581  0.822159  1
  Pa  Pa6  1  0.249581  0.322394  0.322159  1
  Pa  Pa7  1  0.677606  0.750419  0.177841  1
  F  F8  1  0.467913  0.532087  0.250000  1
  F  F9  1  0.751175  0.959318  0.971665  1
  F  F10  1  0.040682  0.248825  0.528335  1
  F  F11  1  0.248825  0.040682  0.028335  1
  F  F12  1  0.959318  0.751175  0.471665  1
  F  F13  1  0.532087  0.467913  0.750000  1
  F  F14  1  0.224607  0.492999  0.776943  1
  F  F15  1  0.223590  0.718815  0.005175  1
  F  F16  1  0.989675  0.722722  0.780119  1
  F  F17  1  0.722722  0.989675  0.280119  1
  F  F18  1  0.718815  0.223590  0.505175  1
  F  F19  1  0.492999  0.224607  0.276943  1
  F  F20  1  0.775394  0.507001  0.223057  1
  F  F21  1  0.776410  0.281185  0.994825  1
  F  F22  1  0.010325  0.277278  0.219881  1
  F  F23  1  0.277278  0.010325  0.719881  1
  F  F24  1  0.281185  0.776410  0.494825  1
  F  F25  1  0.507001  0.775393  0.723057  1
  F  F26  1  0.542577  0.159227  0.818736  1
  F  F27  1  0.190646  0.062582  0.346403  1
  F  F28  1  0.655483  0.682887  0.447705  1
  F  F29  1  0.682887  0.655483  0.947705  1
  F  F30  1  0.062582  0.190646  0.846403  1
  F  F31  1  0.159227  0.542577  0.318736  1
  F  F32  1  0.457423  0.840773  0.181264  1
  F  F33  1  0.809354  0.937418  0.653597  1
  F  F34  1  0.344517  0.317113  0.552295  1
  F  F35  1  0.317113  0.344517  0.052295  1
  F  F36  1  0.937418  0.809354  0.153597  1
  F  F37  1  0.840773  0.457423  0.681264  1
