# generated using pymatgen
data_Er3Tm7InSn5
_symmetry_space_group_name_H-M   'P 1'
_cell_length_a   6.49144500
_cell_length_b   8.86256918
_cell_length_c   8.86108206
_cell_angle_alpha   120.00555069
_cell_angle_beta   89.99977300
_cell_angle_gamma   90.00046680
_symmetry_Int_Tables_number   1
_chemical_formula_structural   Er3Tm7InSn5
_chemical_formula_sum   'Er3 Tm7 In1 Sn5'
_cell_volume   441.46280314
_cell_formula_units_Z   1
loop_
 _symmetry_equiv_pos_site_id
 _symmetry_equiv_pos_as_xyz
  1  'x, y, z'
loop_
 _atom_site_type_symbol
 _atom_site_label
 _atom_site_symmetry_multiplicity
 _atom_site_fract_x
 _atom_site_fract_y
 _atom_site_fract_z
 _atom_site_occupancy
  Er  Er0  1  0.250018  0.761711  0.000000  1
  Er  Er1  1  0.250000  0.238747  0.238472  1
  Er  Er2  1  0.250000  0.000275  0.761528  1
  Tm  Tm3  1  0.501004  0.333931  0.667276  1
  Tm  Tm4  1  0.501004  0.666654  0.332724  1
  Tm  Tm5  1  0.998993  0.666666  0.332721  1
  Tm  Tm6  1  0.998993  0.333946  0.667279  1
  Tm  Tm7  1  0.749999  0.238774  0.000000  1
  Tm  Tm8  1  0.749997  0.761020  0.762717  1
  Tm  Tm9  1  0.749997  0.998303  0.237283  1
  In  In10  1  0.749993  0.603988  0.000000  1
  Sn  Sn11  1  0.750005  0.394654  0.394693  1
  Sn  Sn12  1  0.750005  0.999961  0.605307  1
  Sn  Sn13  1  0.250000  0.395534  0.000000  1
  Sn  Sn14  1  0.249996  0.605024  0.604215  1
  Sn  Sn15  1  0.249996  0.000809  0.395785  1
