# generated using pymatgen
data_Ca9PrRh4
_symmetry_space_group_name_H-M   'P 1'
_cell_length_a   8.73679718
_cell_length_b   8.73679699
_cell_length_c   7.58661165
_cell_angle_alpha   83.10324859
_cell_angle_beta   83.10324738
_cell_angle_gamma   44.46769508
_symmetry_Int_Tables_number   1
_chemical_formula_structural   Ca9PrRh4
_chemical_formula_sum   'Ca9 Pr1 Rh4'
_cell_volume   402.23457297
_cell_formula_units_Z   1
loop_
 _symmetry_equiv_pos_site_id
 _symmetry_equiv_pos_as_xyz
  1  'x, y, z'
loop_
 _atom_site_type_symbol
 _atom_site_label
 _atom_site_symmetry_multiplicity
 _atom_site_fract_x
 _atom_site_fract_y
 _atom_site_fract_z
 _atom_site_occupancy
  Ca  Ca0  1  0.021792  0.802568  0.914496  1
  Ca  Ca1  1  0.197432  0.978208  0.585504  1
  Ca  Ca2  1  0.982047  0.195130  0.081578  1
  Ca  Ca3  1  0.804870  0.017953  0.418422  1
  Ca  Ca4  1  0.361018  0.205285  0.821599  1
  Ca  Ca5  1  0.794715  0.638982  0.678401  1
  Ca  Ca6  1  0.641506  0.798510  0.178228  1
  Ca  Ca7  1  0.201490  0.358494  0.321772  1
  Ca  Ca8  1  0.570462  0.429538  0.750000  1
  Pr  Pr9  1  0.433763  0.566237  0.250000  1
  Rh  Rh10  1  0.177411  0.603252  0.573921  1
  Rh  Rh11  1  0.396748  0.822589  0.926079  1
  Rh  Rh12  1  0.817057  0.400313  0.415377  1
  Rh  Rh13  1  0.599687  0.182943  0.084623  1
