# generated using pymatgen
data_MnMo3(PO4)4
_symmetry_space_group_name_H-M   'P 1'
_cell_length_a   4.86717035
_cell_length_b   6.93901527
_cell_length_c   8.97358399
_cell_angle_alpha   90.57393733
_cell_angle_beta   88.95216994
_cell_angle_gamma   91.10257078
_symmetry_Int_Tables_number   1
_chemical_formula_structural   MnMo3(PO4)4
_chemical_formula_sum   'Mn1 Mo3 P4 O16'
_cell_volume   302.94722282
_cell_formula_units_Z   1
loop_
 _symmetry_equiv_pos_site_id
 _symmetry_equiv_pos_as_xyz
  1  'x, y, z'
loop_
 _atom_site_type_symbol
 _atom_site_label
 _atom_site_symmetry_multiplicity
 _atom_site_fract_x
 _atom_site_fract_y
 _atom_site_fract_z
 _atom_site_occupancy
  Mn  Mn0  1  0.000000  0.000000  0.000000  1
  Mo  Mo1  1  0.500000  0.500000  0.500000  1
  Mo  Mo2  1  0.000000  0.500000  0.000000  1
  Mo  Mo3  1  0.500000  0.000000  0.500000  1
  P  P4  1  0.983450  0.748181  0.678947  1
  P  P5  1  0.482423  0.255601  0.824221  1
  P  P6  1  0.016550  0.251819  0.321053  1
  P  P7  1  0.517577  0.744399  0.175779  1
  O  O8  1  0.150448  0.438520  0.376263  1
  O  O9  1  0.670552  0.557873  0.126570  1
  O  O10  1  0.846383  0.933724  0.631430  1
  O  O11  1  0.352779  0.070979  0.880020  1
  O  O12  1  0.849552  0.561480  0.623737  1
  O  O13  1  0.329448  0.442127  0.873430  1
  O  O14  1  0.153617  0.066276  0.368570  1
  O  O15  1  0.647221  0.929021  0.119980  1
  O  O16  1  0.215620  0.716615  0.120024  1
  O  O17  1  0.707947  0.247948  0.382548  1
  O  O18  1  0.784380  0.283385  0.879976  1
  O  O19  1  0.292053  0.752052  0.617452  1
  O  O20  1  0.534857  0.746892  0.351301  1
  O  O21  1  0.028990  0.258555  0.145464  1
  O  O22  1  0.465143  0.253108  0.648699  1
  O  O23  1  0.971010  0.741445  0.854536  1
