# generated using pymatgen
data_Li2Pr3MgIr2Pt
_symmetry_space_group_name_H-M   'P 1'
_cell_length_a   7.37845300
_cell_length_b   7.39275753
_cell_length_c   4.13622300
_cell_angle_alpha   90.00000000
_cell_angle_beta   90.00000000
_cell_angle_gamma   119.93602679
_symmetry_Int_Tables_number   1
_chemical_formula_structural   Li2Pr3MgIr2Pt
_chemical_formula_sum   'Li2 Pr3 Mg1 Ir2 Pt1'
_cell_volume   195.51764419
_cell_formula_units_Z   1
loop_
 _symmetry_equiv_pos_site_id
 _symmetry_equiv_pos_as_xyz
  1  'x, y, z'
loop_
 _atom_site_type_symbol
 _atom_site_label
 _atom_site_symmetry_multiplicity
 _atom_site_fract_x
 _atom_site_fract_y
 _atom_site_fract_z
 _atom_site_occupancy
  Li  Li0  1  0.000669  0.235241  0.500000  1
  Li  Li1  1  0.765428  0.764759  0.500000  1
  Pr  Pr2  1  0.419067  0.422252  0.000000  1
  Pr  Pr3  1  0.591438  0.000000  0.000000  1
  Pr  Pr4  1  0.996815  0.577748  0.000000  1
  Mg  Mg5  1  0.236261  0.000000  0.500000  1
  Ir  Ir6  1  0.656986  0.326692  0.500000  1
  Ir  Ir7  1  0.330293  0.673308  0.500000  1
  Pt  Pt8  1  0.003044  0.000000  0.000000  1
