# generated using pymatgen
data_Pa3Al3OsRh2
_symmetry_space_group_name_H-M   'P 1'
_cell_length_a   7.12193900
_cell_length_b   7.12193866
_cell_length_c   3.94960200
_cell_angle_alpha   90.00000000
_cell_angle_beta   90.00000000
_cell_angle_gamma   119.99999691
_symmetry_Int_Tables_number   1
_chemical_formula_structural   Pa3Al3OsRh2
_chemical_formula_sum   'Pa3 Al3 Os1 Rh2'
_cell_volume   173.49240129
_cell_formula_units_Z   1
loop_
 _symmetry_equiv_pos_site_id
 _symmetry_equiv_pos_as_xyz
  1  'x, y, z'
loop_
 _atom_site_type_symbol
 _atom_site_label
 _atom_site_symmetry_multiplicity
 _atom_site_fract_x
 _atom_site_fract_y
 _atom_site_fract_z
 _atom_site_occupancy
  Pa  Pa0  1  0.418208  0.415641  0.500000  1
  Pa  Pa1  1  0.584359  0.002567  0.500000  1
  Pa  Pa2  1  0.997433  0.581792  0.500000  1
  Al  Al3  1  0.762320  0.761417  0.000000  1
  Al  Al4  1  0.238583  0.000904  0.000000  1
  Al  Al5  1  0.999096  0.237680  0.000000  1
  Os  Os6  1  0.666667  0.333333  0.000000  1
  Rh  Rh7  1  0.333333  0.666667  0.000000  1
  Rh  Rh8  1  0.000000  0.000000  0.500000  1
