# generated using pymatgen
data_HoTlBi6(MoO6)4
_symmetry_space_group_name_H-M   'P 1'
_cell_length_a   10.45650791
_cell_length_b   10.45650735
_cell_length_c   5.54426372
_cell_angle_alpha   77.21211211
_cell_angle_beta   77.21211439
_cell_angle_gamma   68.63282286
_symmetry_Int_Tables_number   1
_chemical_formula_structural   HoTlBi6(MoO6)4
_chemical_formula_sum   'Ho1 Tl1 Bi6 Mo4 O24'
_cell_volume   543.88468295
_cell_formula_units_Z   1
loop_
 _symmetry_equiv_pos_site_id
 _symmetry_equiv_pos_as_xyz
  1  'x, y, z'
loop_
 _atom_site_type_symbol
 _atom_site_label
 _atom_site_symmetry_multiplicity
 _atom_site_fract_x
 _atom_site_fract_y
 _atom_site_fract_z
 _atom_site_occupancy
  Ho  Ho0  1  0.900420  0.099580  0.250000  1
  Tl  Tl1  1  0.100520  0.899480  0.750000  1
  Bi  Bi2  1  0.726222  0.957110  0.935413  1
  Bi  Bi3  1  0.275524  0.044271  0.061302  1
  Bi  Bi4  1  0.042890  0.273778  0.564587  1
  Bi  Bi5  1  0.955729  0.724476  0.438698  1
  Bi  Bi6  1  0.659779  0.340221  0.750000  1
  Bi  Bi7  1  0.341349  0.658651  0.250000  1
  Mo  Mo8  1  0.538252  0.797167  0.573685  1
  Mo  Mo9  1  0.461555  0.202906  0.424984  1
  Mo  Mo10  1  0.202833  0.461748  0.926315  1
  Mo  Mo11  1  0.797094  0.538445  0.075016  1
  O  O12  1  0.552288  0.638015  0.777968  1
  O  O13  1  0.446903  0.362685  0.222504  1
  O  O14  1  0.361985  0.447712  0.722032  1
  O  O15  1  0.637315  0.553097  0.277496  1
  O  O16  1  0.887617  0.932273  0.587550  1
  O  O17  1  0.108485  0.069775  0.405652  1
  O  O18  1  0.067727  0.112383  0.912450  1
  O  O19  1  0.930225  0.891515  0.094348  1
  O  O20  1  0.605112  0.169592  0.601795  1
  O  O21  1  0.397985  0.829104  0.389878  1
  O  O22  1  0.830408  0.394888  0.898205  1
  O  O23  1  0.170896  0.602015  0.110122  1
  O  O24  1  0.300276  0.207936  0.634642  1
  O  O25  1  0.700302  0.791592  0.366582  1
  O  O26  1  0.792064  0.699724  0.865358  1
  O  O27  1  0.208408  0.299698  0.133418  1
  O  O28  1  0.735811  0.156172  0.015818  1
  O  O29  1  0.266134  0.844872  0.981469  1
  O  O30  1  0.843828  0.264189  0.484182  1
  O  O31  1  0.155128  0.733866  0.518531  1
  O  O32  1  0.505166  0.929578  0.760043  1
  O  O33  1  0.494328  0.070979  0.238156  1
  O  O34  1  0.070422  0.494834  0.739957  1
  O  O35  1  0.929021  0.505672  0.261844  1
