# generated using pymatgen
data_K4Zr6GaI18
_symmetry_space_group_name_H-M   'P 1'
_cell_length_a   11.29460100
_cell_length_b   11.51756975
_cell_length_c   11.62695376
_cell_angle_alpha   118.98254379
_cell_angle_beta   100.19440421
_cell_angle_gamma   103.85809373
_symmetry_Int_Tables_number   1
_chemical_formula_structural   K4Zr6GaI18
_chemical_formula_sum   'K4 Zr6 Ga1 I18'
_cell_volume   1205.69058740
_cell_formula_units_Z   1
loop_
 _symmetry_equiv_pos_site_id
 _symmetry_equiv_pos_as_xyz
  1  'x, y, z'
loop_
 _atom_site_type_symbol
 _atom_site_label
 _atom_site_symmetry_multiplicity
 _atom_site_fract_x
 _atom_site_fract_y
 _atom_site_fract_z
 _atom_site_occupancy
  K  K0  1  0.651361  0.537955  0.226587  1
  K  K1  1  0.348639  0.462045  0.773413  1
  K  K2  1  0.685927  0.224938  0.564362  1
  K  K3  1  0.314073  0.775062  0.435638  1
  Zr  Zr4  1  0.150784  0.054276  0.233644  1
  Zr  Zr5  1  0.849216  0.945724  0.766356  1
  Zr  Zr6  1  0.859564  0.129614  0.135925  1
  Zr  Zr7  1  0.140436  0.870386  0.864075  1
  Zr  Zr8  1  0.145873  0.242114  0.043543  1
  Zr  Zr9  1  0.854127  0.757886  0.956457  1
  Ga  Ga10  1  0.000000  0.000000  0.000000  1
  I  I11  1  0.008112  0.412935  0.199006  1
  I  I12  1  0.991888  0.587065  0.800994  1
  I  I13  1  0.329054  0.333176  0.311624  1
  I  I14  1  0.670946  0.666824  0.688376  1
  I  I15  1  0.324297  0.525642  0.100758  1
  I  I16  1  0.675703  0.474358  0.899242  1
  I  I17  1  0.004658  0.793495  0.211865  1
  I  I18  1  0.995342  0.206505  0.788135  1
  I  I19  1  0.700513  0.278391  0.291077  1
  I  I20  1  0.299487  0.721609  0.708923  1
  I  I21  1  0.318732  0.127601  0.902896  1
  I  I22  1  0.681268  0.872399  0.097104  1
  I  I23  1  0.015104  0.206589  0.411477  1
  I  I24  1  0.984896  0.793411  0.588523  1
  I  I25  1  0.323095  0.922902  0.110827  1
  I  I26  1  0.676905  0.077098  0.889173  1
  I  I27  1  0.335109  0.121628  0.505631  1
  I  I28  1  0.664891  0.878372  0.494369  1
