# generated using pymatgen
data_TmBe12Ni
_symmetry_space_group_name_H-M   'P 1'
_cell_length_a   7.23747555
_cell_length_b   7.30139816
_cell_length_c   7.21117168
_cell_angle_alpha   59.82473415
_cell_angle_beta   59.56193646
_cell_angle_gamma   59.46848839
_symmetry_Int_Tables_number   1
_chemical_formula_structural   TmBe12Ni
_chemical_formula_sum   'Tm2 Be24 Ni2'
_cell_volume   267.11108801
_cell_formula_units_Z   2
loop_
 _symmetry_equiv_pos_site_id
 _symmetry_equiv_pos_as_xyz
  1  'x, y, z'
loop_
 _atom_site_type_symbol
 _atom_site_label
 _atom_site_symmetry_multiplicity
 _atom_site_fract_x
 _atom_site_fract_y
 _atom_site_fract_z
 _atom_site_occupancy
  Tm  Tm0  1  0.248443  0.251557  0.248443  1
  Tm  Tm1  1  0.751557  0.748443  0.751557  1
  Be  Be2  1  0.500000  0.500000  0.500000  1
  Be  Be3  1  0.000000  0.000000  0.000000  1
  Be  Be4  1  0.568460  0.787623  0.431540  1
  Be  Be5  1  0.431540  0.212377  0.568460  1
  Be  Be6  1  0.294495  0.935491  0.705505  1
  Be  Be7  1  0.705505  0.064509  0.294495  1
  Be  Be8  1  0.932313  0.284790  0.067687  1
  Be  Be9  1  0.067687  0.715210  0.932313  1
  Be  Be10  1  0.205666  0.798293  0.560485  1
  Be  Be11  1  0.794334  0.201707  0.439515  1
  Be  Be12  1  0.439515  0.564445  0.794334  1
  Be  Be13  1  0.560485  0.435555  0.205666  1
  Be  Be14  1  0.710871  0.283911  0.935570  1
  Be  Be15  1  0.289129  0.716089  0.064430  1
  Be  Be16  1  0.064430  0.930351  0.289129  1
  Be  Be17  1  0.935570  0.069649  0.710871  1
  Be  Be18  1  0.561681  0.206874  0.795428  1
  Be  Be19  1  0.438319  0.793126  0.204572  1
  Be  Be20  1  0.795428  0.436016  0.561681  1
  Be  Be21  1  0.204572  0.563984  0.438319  1
  Be  Be22  1  0.936473  0.710633  0.289612  1
  Be  Be23  1  0.063527  0.289367  0.710388  1
  Be  Be24  1  0.289612  0.063281  0.936473  1
  Be  Be25  1  0.710388  0.936719  0.063527  1
  Ni  Ni26  1  0.800223  0.559994  0.199777  1
  Ni  Ni27  1  0.199777  0.440006  0.800223  1
