# generated using pymatgen
data_Ca2SmNi6(As2Pd)3
_symmetry_space_group_name_H-M   'P 1'
_cell_length_a   8.21893915
_cell_length_b   8.21893982
_cell_length_c   9.94765624
_cell_angle_alpha   74.55733831
_cell_angle_beta   74.55733695
_cell_angle_gamma   27.03314471
_symmetry_Int_Tables_number   1
_chemical_formula_structural   Ca2SmNi6(As2Pd)3
_chemical_formula_sum   'Ca2 Sm1 Ni6 As6 Pd3'
_cell_volume   293.73991031
_cell_formula_units_Z   1
loop_
 _symmetry_equiv_pos_site_id
 _symmetry_equiv_pos_as_xyz
  1  'x, y, z'
loop_
 _atom_site_type_symbol
 _atom_site_label
 _atom_site_symmetry_multiplicity
 _atom_site_fract_x
 _atom_site_fract_y
 _atom_site_fract_z
 _atom_site_occupancy
  Ca  Ca0  1  0.849505  0.849505  0.693278  1
  Ca  Ca1  1  0.150495  0.150495  0.306722  1
  Sm  Sm2  1  0.000000  0.000000  0.000000  1
  Ni  Ni3  1  0.946627  0.946627  0.327757  1
  Ni  Ni4  1  0.053373  0.053373  0.672243  1
  Ni  Ni5  1  0.781525  0.781525  0.392776  1
  Ni  Ni6  1  0.218475  0.218475  0.607224  1
  Ni  Ni7  1  0.373299  0.373299  0.208849  1
  Ni  Ni8  1  0.626701  0.626701  0.791151  1
  As  As9  1  0.798557  0.798557  0.150825  1
  As  As10  1  0.201443  0.201443  0.849175  1
  As  As11  1  0.527255  0.527255  0.222020  1
  As  As12  1  0.472745  0.472745  0.777980  1
  As  As13  1  0.645124  0.645124  0.547101  1
  As  As14  1  0.354876  0.354876  0.452899  1
  Pd  Pd15  1  0.500000  0.500000  0.500000  1
  Pd  Pd16  1  0.672704  0.672704  0.035057  1
  Pd  Pd17  1  0.327296  0.327296  0.964943  1
