# generated using pymatgen
data_Ho2Al7Ga2Ir3
_symmetry_space_group_name_H-M   'P 1'
_cell_length_a   7.52776089
_cell_length_b   7.52817073
_cell_length_c   9.53804500
_cell_angle_alpha   90.00000000
_cell_angle_beta   90.00000000
_cell_angle_gamma   119.54089906
_symmetry_Int_Tables_number   1
_chemical_formula_structural   Ho2Al7Ga2Ir3
_chemical_formula_sum   'Ho4 Al14 Ga4 Ir6'
_cell_volume   470.25765895
_cell_formula_units_Z   2
loop_
 _symmetry_equiv_pos_site_id
 _symmetry_equiv_pos_as_xyz
  1  'x, y, z'
loop_
 _atom_site_type_symbol
 _atom_site_label
 _atom_site_symmetry_multiplicity
 _atom_site_fract_x
 _atom_site_fract_y
 _atom_site_fract_z
 _atom_site_occupancy
  Ho  Ho0  1  0.997539  0.672972  0.250000  1
  Ho  Ho1  1  0.002461  0.327028  0.750000  1
  Ho  Ho2  1  0.670028  0.993858  0.250000  1
  Ho  Ho3  1  0.329972  0.006142  0.750000  1
  Al  Al4  1  0.001456  0.334877  0.073080  1
  Al  Al5  1  0.998544  0.665123  0.926920  1
  Al  Al6  1  0.998544  0.665123  0.573080  1
  Al  Al7  1  0.335246  0.001967  0.426847  1
  Al  Al8  1  0.001456  0.334877  0.426920  1
  Al  Al9  1  0.664754  0.998033  0.573153  1
  Al  Al10  1  0.664754  0.998033  0.926847  1
  Al  Al11  1  0.335246  0.001967  0.073153  1
  Al  Al12  1  0.333938  0.334230  0.555705  1
  Al  Al13  1  0.666062  0.665770  0.444295  1
  Al  Al14  1  0.666062  0.665770  0.055705  1
  Al  Al15  1  0.333938  0.334230  0.944295  1
  Al  Al16  1  0.548899  0.338442  0.250000  1
  Al  Al17  1  0.451101  0.661558  0.750000  1
  Ga  Ga18  1  0.130145  0.130785  0.250000  1
  Ga  Ga19  1  0.869855  0.869215  0.750000  1
  Ga  Ga20  1  0.338145  0.546095  0.250000  1
  Ga  Ga21  1  0.661855  0.453905  0.750000  1
  Ir  Ir22  1  0.671341  0.328031  0.002455  1
  Ir  Ir23  1  0.328659  0.671969  0.997545  1
  Ir  Ir24  1  0.328659  0.671969  0.502455  1
  Ir  Ir25  1  0.671341  0.328031  0.497545  1
  Ir  Ir26  1  0.000000  0.000000  0.000000  1
  Ir  Ir27  1  0.000000  0.000000  0.500000  1
