# generated using pymatgen
data_La7YbCd2CoRu
_symmetry_space_group_name_H-M   'P 1'
_cell_length_a   10.00752464
_cell_length_b   9.96137443
_cell_length_c   9.97108685
_cell_angle_alpha   60.36925439
_cell_angle_beta   60.33945270
_cell_angle_gamma   60.13317898
_symmetry_Int_Tables_number   1
_chemical_formula_structural   La7YbCd2CoRu
_chemical_formula_sum   'La14 Yb2 Cd4 Co2 Ru2'
_cell_volume   707.32445366
_cell_formula_units_Z   2
loop_
 _symmetry_equiv_pos_site_id
 _symmetry_equiv_pos_as_xyz
  1  'x, y, z'
loop_
 _atom_site_type_symbol
 _atom_site_label
 _atom_site_symmetry_multiplicity
 _atom_site_fract_x
 _atom_site_fract_y
 _atom_site_fract_z
 _atom_site_occupancy
  La  La0  1  0.565793  0.940205  0.932210  1
  La  La1  1  0.682949  0.692684  0.312673  1
  La  La2  1  0.159520  0.149870  0.538599  1
  La  La3  1  0.307821  0.695996  0.684417  1
  La  La4  1  0.156631  0.151017  0.157834  1
  La  La5  1  0.538568  0.151100  0.160578  1
  La  La6  1  0.307362  0.688462  0.314758  1
  La  La7  1  0.313193  0.309641  0.685784  1
  La  La8  1  0.688209  0.307444  0.689725  1
  La  La9  1  0.934862  0.564740  0.556468  1
  La  La10  1  0.557360  0.563454  0.934988  1
  La  La11  1  0.158982  0.535462  0.158273  1
  La  La12  1  0.685946  0.305079  0.314609  1
  La  La13  1  0.938077  0.561442  0.940766  1
  Yb  Yb14  1  0.935916  0.940095  0.561555  1
  Yb  Yb15  1  0.562195  0.939112  0.561210  1
  Cd  Cd16  1  0.237283  0.921079  0.921016  1
  Cd  Cd17  1  0.921910  0.921948  0.920160  1
  Cd  Cd18  1  0.921228  0.921595  0.237330  1
  Cd  Cd19  1  0.921231  0.236717  0.922152  1
  Co  Co20  1  0.365125  0.916044  0.359064  1
  Co  Co21  1  0.363049  0.359209  0.361795  1
  Ru  Ru22  1  0.912319  0.365584  0.362240  1
  Ru  Ru23  1  0.364466  0.362018  0.911791  1
