# generated using pymatgen
data_Li6CaCeUN6
_symmetry_space_group_name_H-M   'P 1'
_cell_length_a   6.11595400
_cell_length_b   6.11595577
_cell_length_c   5.44535200
_cell_angle_alpha   90.00000000
_cell_angle_beta   90.00000000
_cell_angle_gamma   120.00000124
_symmetry_Int_Tables_number   1
_chemical_formula_structural   Li6CaCeUN6
_chemical_formula_sum   'Li6 Ca1 Ce1 U1 N6'
_cell_volume   176.39453726
_cell_formula_units_Z   1
loop_
 _symmetry_equiv_pos_site_id
 _symmetry_equiv_pos_as_xyz
  1  'x, y, z'
loop_
 _atom_site_type_symbol
 _atom_site_label
 _atom_site_symmetry_multiplicity
 _atom_site_fract_x
 _atom_site_fract_y
 _atom_site_fract_z
 _atom_site_occupancy
  Li  Li0  1  0.977650  0.650283  0.605281  1
  Li  Li1  1  0.349717  0.327366  0.605281  1
  Li  Li2  1  0.672634  0.022350  0.605281  1
  Li  Li3  1  0.006893  0.335085  0.392377  1
  Li  Li4  1  0.664915  0.671808  0.392377  1
  Li  Li5  1  0.328192  0.993107  0.392377  1
  Ca  Ca6  1  0.000000  0.000000  0.997636  1
  Ce  Ce7  1  0.333333  0.666667  0.993354  1
  U  U8  1  0.666667  0.333333  0.006840  1
  N  N9  1  0.980836  0.633000  0.226478  1
  N  N10  1  0.367000  0.347835  0.226478  1
  N  N11  1  0.652165  0.019164  0.226478  1
  N  N12  1  0.976806  0.347550  0.776588  1
  N  N13  1  0.652450  0.629255  0.776588  1
  N  N14  1  0.370745  0.023194  0.776588  1
