# generated using pymatgen
data_DyY7(Ta3Si4)4
_symmetry_space_group_name_H-M   'P 1'
_cell_length_a   7.04397007
_cell_length_b   7.04400406
_cell_length_c   13.00915500
_cell_angle_alpha   90.00137880
_cell_angle_beta   90.00053724
_cell_angle_gamma   90.01563356
_symmetry_Int_Tables_number   1
_chemical_formula_structural   DyY7(Ta3Si4)4
_chemical_formula_sum   'Dy1 Y7 Ta12 Si16'
_cell_volume   645.48502597
_cell_formula_units_Z   1
loop_
 _symmetry_equiv_pos_site_id
 _symmetry_equiv_pos_as_xyz
  1  'x, y, z'
loop_
 _atom_site_type_symbol
 _atom_site_label
 _atom_site_symmetry_multiplicity
 _atom_site_fract_x
 _atom_site_fract_y
 _atom_site_fract_z
 _atom_site_occupancy
  Dy  Dy0  1  0.341791  0.002582  0.468135  1
  Y  Y1  1  0.997256  0.658272  0.031876  1
  Y  Y2  1  0.002819  0.341655  0.531814  1
  Y  Y3  1  0.658266  0.997288  0.968145  1
  Y  Y4  1  0.158297  0.502608  0.781727  1
  Y  Y5  1  0.841690  0.497361  0.281839  1
  Y  Y6  1  0.502620  0.158304  0.218271  1
  Y  Y7  1  0.497376  0.841706  0.718258  1
  Ta  Ta8  1  0.346817  0.507455  0.375636  1
  Ta  Ta9  1  0.846843  0.992685  0.374092  1
  Ta  Ta10  1  0.007349  0.153186  0.125948  1
  Ta  Ta11  1  0.992773  0.846949  0.625866  1
  Ta  Ta12  1  0.507357  0.346771  0.624302  1
  Ta  Ta13  1  0.153176  0.007392  0.874090  1
  Ta  Ta14  1  0.671373  0.671601  0.499962  1
  Ta  Ta15  1  0.828655  0.171344  0.749961  1
  Ta  Ta16  1  0.171451  0.828677  0.250042  1
  Ta  Ta17  1  0.328506  0.328494  0.999993  1
  Ta  Ta18  1  0.492507  0.653147  0.124400  1
  Ta  Ta19  1  0.653155  0.492537  0.875642  1
  Si  Si20  1  0.045608  0.706085  0.435988  1
  Si  Si21  1  0.954521  0.294064  0.935942  1
  Si  Si22  1  0.705770  0.045341  0.564020  1
  Si  Si23  1  0.205971  0.454340  0.185974  1
  Si  Si24  1  0.793952  0.545648  0.685900  1
  Si  Si25  1  0.454356  0.206011  0.814032  1
  Si  Si26  1  0.545484  0.794210  0.314145  1
  Si  Si27  1  0.294073  0.954552  0.064056  1
  Si  Si28  1  0.796613  0.865996  0.182196  1
  Si  Si29  1  0.297033  0.634237  0.567731  1
  Si  Si30  1  0.703068  0.365957  0.067796  1
  Si  Si31  1  0.633836  0.296697  0.432206  1
  Si  Si32  1  0.365960  0.703049  0.932215  1
  Si  Si33  1  0.134167  0.203219  0.317950  1
  Si  Si34  1  0.203504  0.133916  0.682049  1
  Si  Si35  1  0.866004  0.796660  0.817802  1
