# generated using pymatgen
data_ThU(Al5Tc)4
_symmetry_space_group_name_H-M   'P 1'
_cell_length_a   6.90492664
_cell_length_b   6.90492831
_cell_length_c   9.19713800
_cell_angle_alpha   90.00000000
_cell_angle_beta   90.00000000
_cell_angle_gamma   97.28293670
_symmetry_Int_Tables_number   1
_chemical_formula_structural   ThU(Al5Tc)4
_chemical_formula_sum   'Th1 U1 Al20 Tc4'
_cell_volume   434.96363732
_cell_formula_units_Z   1
loop_
 _symmetry_equiv_pos_site_id
 _symmetry_equiv_pos_as_xyz
  1  'x, y, z'
loop_
 _atom_site_type_symbol
 _atom_site_label
 _atom_site_symmetry_multiplicity
 _atom_site_fract_x
 _atom_site_fract_y
 _atom_site_fract_z
 _atom_site_occupancy
  Th  Th0  1  0.127821  0.872179  0.250000  1
  U  U1  1  0.871898  0.128102  0.750000  1
  Al  Al2  1  0.522865  0.782828  0.750000  1
  Al  Al3  1  0.478905  0.219522  0.250000  1
  Al  Al4  1  0.596287  0.862669  0.250000  1
  Al  Al5  1  0.773839  0.773176  0.997849  1
  Al  Al6  1  0.154445  0.845555  0.601884  1
  Al  Al7  1  0.226824  0.226161  0.997849  1
  Al  Al8  1  0.137331  0.403713  0.250000  1
  Al  Al9  1  0.623070  0.376930  0.948797  1
  Al  Al10  1  0.841307  0.158693  0.098594  1
  Al  Al11  1  0.377393  0.622607  0.457796  1
  Al  Al12  1  0.154445  0.845555  0.898116  1
  Al  Al13  1  0.217172  0.477135  0.750000  1
  Al  Al14  1  0.377393  0.622607  0.042204  1
  Al  Al15  1  0.841307  0.158693  0.401406  1
  Al  Al16  1  0.623070  0.376930  0.551203  1
  Al  Al17  1  0.408435  0.137956  0.750000  1
  Al  Al18  1  0.780478  0.521095  0.250000  1
  Al  Al19  1  0.773839  0.773176  0.502151  1
  Al  Al20  1  0.226824  0.226161  0.502151  1
  Al  Al21  1  0.862044  0.591565  0.750000  1
  Tc  Tc22  1  0.999195  0.497691  0.501615  1
  Tc  Tc23  1  0.999195  0.497691  0.998385  1
  Tc  Tc24  1  0.502309  0.000805  0.998385  1
  Tc  Tc25  1  0.502309  0.000805  0.501615  1
