# generated using pymatgen
data_Nb6Ga3PdN2
_symmetry_space_group_name_H-M   'P 1'
_cell_length_a   7.04706800
_cell_length_b   7.07064912
_cell_length_c   7.07005800
_cell_angle_alpha   90.00000000
_cell_angle_beta   90.00000000
_cell_angle_gamma   90.37267836
_symmetry_Int_Tables_number   1
_chemical_formula_structural   Nb6Ga3PdN2
_chemical_formula_sum   'Nb12 Ga6 Pd2 N4'
_cell_volume   352.27476804
_cell_formula_units_Z   2
loop_
 _symmetry_equiv_pos_site_id
 _symmetry_equiv_pos_as_xyz
  1  'x, y, z'
loop_
 _atom_site_type_symbol
 _atom_site_label
 _atom_site_symmetry_multiplicity
 _atom_site_fract_x
 _atom_site_fract_y
 _atom_site_fract_z
 _atom_site_occupancy
  Nb  Nb0  1  0.790897  0.958280  0.377042  1
  Nb  Nb1  1  0.709103  0.041720  0.877042  1
  Nb  Nb2  1  0.208408  0.453181  0.124337  1
  Nb  Nb3  1  0.291592  0.546819  0.624337  1
  Nb  Nb4  1  0.955278  0.380701  0.790654  1
  Nb  Nb5  1  0.041778  0.871134  0.709393  1
  Nb  Nb6  1  0.458222  0.128866  0.209393  1
  Nb  Nb7  1  0.544722  0.619299  0.290654  1
  Nb  Nb8  1  0.380054  0.788820  0.955392  1
  Nb  Nb9  1  0.872627  0.708120  0.042606  1
  Nb  Nb10  1  0.119946  0.211180  0.455392  1
  Nb  Nb11  1  0.627373  0.291880  0.542606  1
  Ga  Ga12  1  0.823517  0.319424  0.177015  1
  Ga  Ga13  1  0.676483  0.680576  0.677015  1
  Ga  Ga14  1  0.562894  0.422380  0.927512  1
  Ga  Ga15  1  0.421560  0.934902  0.569816  1
  Ga  Ga16  1  0.937106  0.577620  0.427512  1
  Ga  Ga17  1  0.078440  0.065098  0.069816  1
  Pd  Pd18  1  0.183690  0.821981  0.317158  1
  Pd  Pd19  1  0.316310  0.178019  0.817158  1
  N  N20  1  0.878467  0.122787  0.629196  1
  N  N21  1  0.621533  0.877213  0.129196  1
  N  N22  1  0.127597  0.625213  0.879881  1
  N  N23  1  0.372403  0.374787  0.379881  1
