# generated using pymatgen
data_YbHf3Pa4(ReB6)4
_symmetry_space_group_name_H-M   'P 1'
_cell_length_a   3.64898100
_cell_length_b   9.04105703
_cell_length_c   11.41332240
_cell_angle_alpha   89.96681413
_cell_angle_beta   90.00000000
_cell_angle_gamma   90.00000000
_symmetry_Int_Tables_number   1
_chemical_formula_structural   YbHf3Pa4(ReB6)4
_chemical_formula_sum   'Yb1 Hf3 Pa4 Re4 B24'
_cell_volume   376.53280819
_cell_formula_units_Z   1
loop_
 _symmetry_equiv_pos_site_id
 _symmetry_equiv_pos_as_xyz
  1  'x, y, z'
loop_
 _atom_site_type_symbol
 _atom_site_label
 _atom_site_symmetry_multiplicity
 _atom_site_fract_x
 _atom_site_fract_y
 _atom_site_fract_z
 _atom_site_occupancy
  Yb  Yb0  1  0.000000  0.945038  0.374073  1
  Hf  Hf1  1  0.000000  0.055100  0.625629  1
  Hf  Hf2  1  0.000000  0.445774  0.124360  1
  Hf  Hf3  1  0.000000  0.555211  0.874871  1
  Pa  Pa4  1  0.000000  0.321527  0.413670  1
  Pa  Pa5  1  0.000000  0.678198  0.585700  1
  Pa  Pa6  1  0.000000  0.822852  0.086731  1
  Pa  Pa7  1  0.000000  0.177663  0.913753  1
  Re  Re8  1  0.000000  0.637277  0.319443  1
  Re  Re9  1  0.000000  0.360002  0.681058  1
  Re  Re10  1  0.000000  0.142151  0.177996  1
  Re  Re11  1  0.000000  0.859980  0.821374  1
  B  B12  1  0.500000  0.552159  0.433643  1
  B  B13  1  0.500000  0.445595  0.567076  1
  B  B14  1  0.500000  0.054843  0.066147  1
  B  B15  1  0.500000  0.945971  0.933677  1
  B  B16  1  0.500000  0.748623  0.418673  1
  B  B17  1  0.500000  0.248255  0.581222  1
  B  B18  1  0.500000  0.253706  0.079849  1
  B  B19  1  0.500000  0.747310  0.919662  1
  B  B20  1  0.500000  0.792880  0.264225  1
  B  B21  1  0.500000  0.204150  0.735304  1
  B  B22  1  0.500000  0.296123  0.233852  1
  B  B23  1  0.500000  0.704116  0.765153  1
  B  B24  1  0.500000  0.630129  0.182183  1
  B  B25  1  0.500000  0.369148  0.817649  1
  B  B26  1  0.500000  0.133159  0.315428  1
  B  B27  1  0.500000  0.868541  0.683422  1
  B  B28  1  0.500000  0.983639  0.213567  1
  B  B29  1  0.500000  0.018466  0.785063  1
  B  B30  1  0.500000  0.480911  0.284880  1
  B  B31  1  0.500000  0.518872  0.715368  1
  B  B32  1  0.500000  0.599859  0.026780  1
  B  B33  1  0.500000  0.400354  0.972221  1
  B  B34  1  0.500000  0.104760  0.474854  1
  B  B35  1  0.500000  0.897656  0.531443  1
