# generated using pymatgen
data_MnSi2Rh5
_symmetry_space_group_name_H-M   'P 1'
_cell_length_a   3.93534200
_cell_length_b   5.36405100
_cell_length_c   10.25185600
_cell_angle_alpha   90.00000000
_cell_angle_beta   90.00000000
_cell_angle_gamma   90.00000000
_symmetry_Int_Tables_number   1
_chemical_formula_structural   MnSi2Rh5
_chemical_formula_sum   'Mn2 Si4 Rh10'
_cell_volume   216.41027470
_cell_formula_units_Z   2
loop_
 _symmetry_equiv_pos_site_id
 _symmetry_equiv_pos_as_xyz
  1  'x, y, z'
loop_
 _atom_site_type_symbol
 _atom_site_label
 _atom_site_symmetry_multiplicity
 _atom_site_fract_x
 _atom_site_fract_y
 _atom_site_fract_z
 _atom_site_occupancy
  Mn  Mn0  1  0.500000  0.832556  0.358638  1
  Mn  Mn1  1  0.500000  0.332556  0.141362  1
  Si  Si2  1  0.000000  0.548042  0.491948  1
  Si  Si3  1  0.500000  0.135755  0.640823  1
  Si  Si4  1  0.500000  0.635755  0.859177  1
  Si  Si5  1  0.000000  0.048042  0.008052  1
  Rh  Rh6  1  0.000000  0.371425  0.716127  1
  Rh  Rh7  1  0.000000  0.082543  0.244317  1
  Rh  Rh8  1  0.000000  0.871425  0.783873  1
  Rh  Rh9  1  0.500000  0.828647  0.095169  1
  Rh  Rh10  1  0.500000  0.185220  0.885677  1
  Rh  Rh11  1  0.500000  0.685220  0.614323  1
  Rh  Rh12  1  0.000000  0.015814  0.514108  1
  Rh  Rh13  1  0.500000  0.328647  0.404831  1
  Rh  Rh14  1  0.000000  0.515814  0.985892  1
  Rh  Rh15  1  0.000000  0.582543  0.255683  1
