# generated using pymatgen
data_Sr4Sc2TaSbO12
_symmetry_space_group_name_H-M   'P 1'
_cell_length_a   5.76467139
_cell_length_b   5.75463551
_cell_length_c   9.95092694
_cell_angle_alpha   90.04674713
_cell_angle_beta   125.32742632
_cell_angle_gamma   89.98328115
_symmetry_Int_Tables_number   1
_chemical_formula_structural   Sr4Sc2TaSbO12
_chemical_formula_sum   'Sr4 Sc2 Ta1 Sb1 O12'
_cell_volume   269.32202634
_cell_formula_units_Z   1
loop_
 _symmetry_equiv_pos_site_id
 _symmetry_equiv_pos_as_xyz
  1  'x, y, z'
loop_
 _atom_site_type_symbol
 _atom_site_label
 _atom_site_symmetry_multiplicity
 _atom_site_fract_x
 _atom_site_fract_y
 _atom_site_fract_z
 _atom_site_occupancy
  Sr  Sr0  1  0.756171  0.485669  0.250833  1
  Sr  Sr1  1  0.752969  0.014256  0.749704  1
  Sr  Sr2  1  0.243829  0.514331  0.749167  1
  Sr  Sr3  1  0.247031  0.985744  0.250296  1
  Sc  Sc4  1  0.500000  0.500000  0.500000  1
  Sc  Sc5  1  0.500000  0.000000  0.000000  1
  Ta  Ta6  1  0.000000  0.000000  0.500000  1
  Sb  Sb7  1  0.000000  0.500000  0.000000  1
  O  O8  1  0.232533  0.223958  0.469713  1
  O  O9  1  0.230057  0.275220  0.967172  1
  O  O10  1  0.767467  0.776042  0.530287  1
  O  O11  1  0.769943  0.724780  0.032828  1
  O  O12  1  0.809461  0.235581  0.032808  1
  O  O13  1  0.807559  0.264239  0.530631  1
  O  O14  1  0.190539  0.764419  0.967192  1
  O  O15  1  0.192441  0.735761  0.469369  1
  O  O16  1  0.698426  0.006929  0.256676  1
  O  O17  1  0.694477  0.492786  0.756474  1
  O  O18  1  0.301574  0.993071  0.743324  1
  O  O19  1  0.305523  0.507214  0.243526  1
