# generated using pymatgen
data_Sn8PdRh
_symmetry_space_group_name_H-M   'P 1'
_cell_length_a   12.75276779
_cell_length_b   12.75276821
_cell_length_c   12.75276742
_cell_angle_alpha   150.92512601
_cell_angle_beta   150.92512821
_cell_angle_gamma   41.58509083
_symmetry_Int_Tables_number   1
_chemical_formula_structural   Sn8PdRh
_chemical_formula_sum   'Sn16 Pd2 Rh2'
_cell_volume   488.67062738
_cell_formula_units_Z   2
loop_
 _symmetry_equiv_pos_site_id
 _symmetry_equiv_pos_as_xyz
  1  'x, y, z'
loop_
 _atom_site_type_symbol
 _atom_site_label
 _atom_site_symmetry_multiplicity
 _atom_site_fract_x
 _atom_site_fract_y
 _atom_site_fract_z
 _atom_site_occupancy
  Sn  Sn0  1  0.139191  0.639426  0.148841  1
  Sn  Sn1  1  0.639191  0.490351  0.499765  1
  Sn  Sn2  1  0.885863  0.886546  0.647752  1
  Sn  Sn3  1  0.385863  0.738111  0.999317  1
  Sn  Sn4  1  0.613454  0.614137  0.352248  1
  Sn  Sn5  1  0.113454  0.761205  0.999317  1
  Sn  Sn6  1  0.860574  0.360809  0.851159  1
  Sn  Sn7  1  0.360574  0.509415  0.499765  1
  Sn  Sn8  1  0.990585  0.139426  0.500235  1
  Sn  Sn9  1  0.490585  0.990351  0.851159  1
  Sn  Sn10  1  0.738795  0.386546  0.000683  1
  Sn  Sn11  1  0.238795  0.238111  0.352248  1
  Sn  Sn12  1  0.761889  0.114137  0.000683  1
  Sn  Sn13  1  0.261889  0.261205  0.647752  1
  Sn  Sn14  1  0.009649  0.860809  0.500235  1
  Sn  Sn15  1  0.509649  0.009415  0.148841  1
  Pd  Pd16  1  0.750000  0.750000  0.000000  1
  Pd  Pd17  1  0.250000  0.250000  0.000000  1
  Rh  Rh18  1  0.000000  0.500000  0.500000  1
  Rh  Rh19  1  0.500000  0.000000  0.500000  1
