# generated using pymatgen
data_Er5Pa(Al3Os)8
_symmetry_space_group_name_H-M   'P 1'
_cell_length_a   8.78225900
_cell_length_b   8.82031080
_cell_length_c   9.54294500
_cell_angle_alpha   90.00000000
_cell_angle_beta   90.00000000
_cell_angle_gamma   119.85739641
_symmetry_Int_Tables_number   1
_chemical_formula_structural   Er5Pa(Al3Os)8
_chemical_formula_sum   'Er5 Pa1 Al24 Os8'
_cell_volume   641.09952885
_cell_formula_units_Z   1
loop_
 _symmetry_equiv_pos_site_id
 _symmetry_equiv_pos_as_xyz
  1  'x, y, z'
loop_
 _atom_site_type_symbol
 _atom_site_label
 _atom_site_symmetry_multiplicity
 _atom_site_fract_x
 _atom_site_fract_y
 _atom_site_fract_z
 _atom_site_occupancy
  Er  Er0  1  0.807383  0.614765  0.750000  1
  Er  Er1  1  0.609015  0.802236  0.250000  1
  Er  Er2  1  0.389524  0.192558  0.750000  1
  Er  Er3  1  0.193221  0.802236  0.250000  1
  Er  Er4  1  0.803033  0.192558  0.750000  1
  Pa  Pa5  1  0.196732  0.393464  0.250000  1
  Al  Al6  1  0.336407  0.672815  0.019914  1
  Al  Al7  1  0.667909  0.335816  0.978201  1
  Al  Al8  1  0.667909  0.335816  0.521799  1
  Al  Al9  1  0.336407  0.672815  0.480086  1
  Al  Al10  1  0.163022  0.326045  0.578238  1
  Al  Al11  1  0.836592  0.673185  0.424966  1
  Al  Al12  1  0.672736  0.835470  0.575305  1
  Al  Al13  1  0.836592  0.673185  0.075034  1
  Al  Al14  1  0.326613  0.162269  0.423835  1
  Al  Al15  1  0.163022  0.326045  0.921762  1
  Al  Al16  1  0.162734  0.835470  0.575305  1
  Al  Al17  1  0.326613  0.162269  0.076165  1
  Al  Al18  1  0.835657  0.162269  0.423835  1
  Al  Al19  1  0.672736  0.835470  0.924695  1
  Al  Al20  1  0.835657  0.162269  0.076165  1
  Al  Al21  1  0.162734  0.835470  0.924695  1
  Al  Al22  1  0.560027  0.120056  0.250000  1
  Al  Al23  1  0.437720  0.875442  0.750000  1
  Al  Al24  1  0.872681  0.437451  0.250000  1
  Al  Al25  1  0.120207  0.559656  0.750000  1
  Al  Al26  1  0.564771  0.437451  0.250000  1
  Al  Al27  1  0.439449  0.559656  0.750000  1
  Al  Al28  1  0.000587  0.001174  0.250000  1
  Al  Al29  1  0.000491  0.000982  0.750000  1
  Os  Os30  1  0.501789  0.003578  0.997758  1
  Os  Os31  1  0.003261  0.499745  0.004622  1
  Os  Os32  1  0.501789  0.003578  0.502242  1
  Os  Os33  1  0.496485  0.499745  0.004622  1
  Os  Os34  1  0.003261  0.499745  0.495378  1
  Os  Os35  1  0.496485  0.499745  0.495378  1
  Os  Os36  1  0.999375  0.998749  0.999215  1
  Os  Os37  1  0.999375  0.998749  0.500785  1
