# generated using pymatgen
data_SrZn12Ni
_symmetry_space_group_name_H-M   'P 1'
_cell_length_a   8.62675253
_cell_length_b   8.62675164
_cell_length_c   8.62675200
_cell_angle_alpha   59.99999862
_cell_angle_beta   60.00000205
_cell_angle_gamma   59.99999794
_symmetry_Int_Tables_number   1
_chemical_formula_structural   SrZn12Ni
_chemical_formula_sum   'Sr2 Zn24 Ni2'
_cell_volume   453.96978255
_cell_formula_units_Z   2
loop_
 _symmetry_equiv_pos_site_id
 _symmetry_equiv_pos_as_xyz
  1  'x, y, z'
loop_
 _atom_site_type_symbol
 _atom_site_label
 _atom_site_symmetry_multiplicity
 _atom_site_fract_x
 _atom_site_fract_y
 _atom_site_fract_z
 _atom_site_occupancy
  Sr  Sr0  1  0.750000  0.750000  0.750000  1
  Sr  Sr1  1  0.250000  0.250000  0.250000  1
  Zn  Zn2  1  0.705098  0.942553  0.294902  1
  Zn  Zn3  1  0.942553  0.705098  0.057447  1
  Zn  Zn4  1  0.057447  0.294902  0.942553  1
  Zn  Zn5  1  0.794902  0.557447  0.442553  1
  Zn  Zn6  1  0.557447  0.794902  0.205098  1
  Zn  Zn7  1  0.205098  0.557447  0.794902  1
  Zn  Zn8  1  0.794902  0.442553  0.205098  1
  Zn  Zn9  1  0.557447  0.442553  0.794902  1
  Zn  Zn10  1  0.205098  0.794902  0.442553  1
  Zn  Zn11  1  0.942553  0.057447  0.294902  1
  Zn  Zn12  1  0.294902  0.942553  0.057447  1
  Zn  Zn13  1  0.057447  0.705098  0.294902  1
  Zn  Zn14  1  0.057447  0.942553  0.705098  1
  Zn  Zn15  1  0.294902  0.705098  0.942553  1
  Zn  Zn16  1  0.705098  0.057447  0.942553  1
  Zn  Zn17  1  0.705098  0.294902  0.057447  1
  Zn  Zn18  1  0.942553  0.294902  0.705098  1
  Zn  Zn19  1  0.442553  0.794902  0.557447  1
  Zn  Zn20  1  0.442553  0.205098  0.794902  1
  Zn  Zn21  1  0.794902  0.205098  0.557447  1
  Zn  Zn22  1  0.442553  0.557447  0.205098  1
  Zn  Zn23  1  0.205098  0.442553  0.557447  1
  Zn  Zn24  1  0.557447  0.205098  0.442553  1
  Zn  Zn25  1  0.294902  0.057447  0.705098  1
  Ni  Ni26  1  0.000000  0.000000  0.000000  1
  Ni  Ni27  1  0.500000  0.500000  0.500000  1
