# generated using pymatgen
data_Ca(Yb2Ag3)2
_symmetry_space_group_name_H-M   'P 1'
_cell_length_a   16.11207098
_cell_length_b   16.11207097
_cell_length_c   4.05135300
_cell_angle_alpha   90.00000000
_cell_angle_beta   90.00000000
_cell_angle_gamma   164.23160761
_symmetry_Int_Tables_number   1
_chemical_formula_structural   Ca(Yb2Ag3)2
_chemical_formula_sum   'Ca1 Yb4 Ag6'
_cell_volume   285.80603726
_cell_formula_units_Z   1
loop_
 _symmetry_equiv_pos_site_id
 _symmetry_equiv_pos_as_xyz
  1  'x, y, z'
loop_
 _atom_site_type_symbol
 _atom_site_label
 _atom_site_symmetry_multiplicity
 _atom_site_fract_x
 _atom_site_fract_y
 _atom_site_fract_z
 _atom_site_occupancy
  Ca  Ca0  1  0.000000  0.000000  0.000000  1
  Yb  Yb1  1  0.618267  0.381731  0.000000  1
  Yb  Yb2  1  0.381731  0.618267  0.000000  1
  Yb  Yb3  1  0.802691  0.197307  0.500001  1
  Yb  Yb4  1  0.197307  0.802691  0.500001  1
  Ag  Ag5  1  0.719794  0.280204  0.000000  1
  Ag  Ag6  1  0.280204  0.719794  0.000000  1
  Ag  Ag7  1  0.903155  0.096844  0.500001  1
  Ag  Ag8  1  0.543037  0.456961  0.500001  1
  Ag  Ag9  1  0.456961  0.543037  0.500001  1
  Ag  Ag10  1  0.096844  0.903155  0.500001  1
