# generated using pymatgen
data_Ba3ZrFeOsO9
_symmetry_space_group_name_H-M   'P 1'
_cell_length_a   5.91346700
_cell_length_b   5.91346669
_cell_length_c   14.58458500
_cell_angle_alpha   90.00000000
_cell_angle_beta   90.00000000
_cell_angle_gamma   120.00000733
_symmetry_Int_Tables_number   1
_chemical_formula_structural   Ba3ZrFeOsO9
_chemical_formula_sum   'Ba6 Zr2 Fe2 Os2 O18'
_cell_volume   441.68129548
_cell_formula_units_Z   2
loop_
 _symmetry_equiv_pos_site_id
 _symmetry_equiv_pos_as_xyz
  1  'x, y, z'
loop_
 _atom_site_type_symbol
 _atom_site_label
 _atom_site_symmetry_multiplicity
 _atom_site_fract_x
 _atom_site_fract_y
 _atom_site_fract_z
 _atom_site_occupancy
  Ba  Ba0  1  0.666667  0.333333  0.596877  1
  Ba  Ba1  1  0.333333  0.666667  0.400700  1
  Ba  Ba2  1  0.333333  0.666667  0.096877  1
  Ba  Ba3  1  0.666667  0.333333  0.900700  1
  Ba  Ba4  1  0.000000  0.000000  0.751172  1
  Ba  Ba5  1  0.000000  0.000000  0.251172  1
  Zr  Zr6  1  0.000000  0.000000  0.497994  1
  Zr  Zr7  1  0.000000  0.000000  0.997994  1
  Fe  Fe8  1  0.666667  0.333333  0.350450  1
  Fe  Fe9  1  0.333333  0.666667  0.850450  1
  Os  Os10  1  0.333333  0.666667  0.661072  1
  Os  Os11  1  0.666667  0.333333  0.161072  1
  O  O12  1  0.485136  0.970272  0.745989  1
  O  O13  1  0.485136  0.514864  0.745989  1
  O  O14  1  0.029728  0.514864  0.745989  1
  O  O15  1  0.514864  0.029728  0.245989  1
  O  O16  1  0.514864  0.485136  0.245989  1
  O  O17  1  0.970272  0.485136  0.245989  1
  O  O18  1  0.171400  0.342799  0.584199  1
  O  O19  1  0.171400  0.828600  0.584199  1
  O  O20  1  0.657201  0.828600  0.584199  1
  O  O21  1  0.833312  0.666625  0.417037  1
  O  O22  1  0.833312  0.166688  0.417037  1
  O  O23  1  0.333375  0.166688  0.417037  1
  O  O24  1  0.828600  0.657201  0.084199  1
  O  O25  1  0.828600  0.171400  0.084199  1
  O  O26  1  0.342799  0.171400  0.084199  1
  O  O27  1  0.166688  0.333375  0.917037  1
  O  O28  1  0.166688  0.833312  0.917037  1
  O  O29  1  0.666625  0.833312  0.917037  1
