# generated using pymatgen
data_Tb7Y2Lu(SiB4)4
_symmetry_space_group_name_H-M   'P 1'
_cell_length_a   7.23745601
_cell_length_b   7.23753201
_cell_length_c   8.10211401
_cell_angle_alpha   89.99701953
_cell_angle_beta   90.00297342
_cell_angle_gamma   90.00353081
_symmetry_Int_Tables_number   1
_chemical_formula_structural   Tb7Y2Lu(SiB4)4
_chemical_formula_sum   'Tb7 Y2 Lu1 Si4 B16'
_cell_volume   424.39942026
_cell_formula_units_Z   1
loop_
 _symmetry_equiv_pos_site_id
 _symmetry_equiv_pos_as_xyz
  1  'x, y, z'
loop_
 _atom_site_type_symbol
 _atom_site_label
 _atom_site_symmetry_multiplicity
 _atom_site_fract_x
 _atom_site_fract_y
 _atom_site_fract_z
 _atom_site_occupancy
  Tb  Tb0  1  0.680607  0.179898  0.225014  1
  Tb  Tb1  1  0.319426  0.820146  0.774998  1
  Tb  Tb2  1  0.319433  0.820058  0.225011  1
  Tb  Tb3  1  0.819982  0.680693  0.224966  1
  Tb  Tb4  1  0.820034  0.680631  0.775078  1
  Tb  Tb5  1  0.680528  0.179910  0.775004  1
  Tb  Tb6  1  0.179970  0.319355  0.775167  1
  Y  Y7  1  0.179916  0.319407  0.224468  1
  Y  Y8  1  0.499954  0.499997  0.499971  1
  Lu  Lu9  1  0.000014  0.000082  0.499967  1
  Si  Si10  1  0.113327  0.617246  0.499953  1
  Si  Si11  1  0.886841  0.382597  0.499928  1
  Si  Si12  1  0.382565  0.113330  0.499931  1
  Si  Si13  1  0.617290  0.886800  0.499944  1
  B  B14  1  0.172380  0.039109  0.000026  1
  B  B15  1  0.827687  0.960928  0.000070  1
  B  B16  1  0.960901  0.172341  0.000024  1
  B  B17  1  0.327675  0.539138  0.000027  1
  B  B18  1  0.039083  0.827685  0.000058  1
  B  B19  1  0.672296  0.460874  0.000060  1
  B  B20  1  0.539109  0.672288  0.000076  1
  B  B21  1  0.460850  0.327634  0.000017  1
  B  B22  1  0.089948  0.589801  0.000017  1
  B  B23  1  0.910093  0.410158  0.000020  1
  B  B24  1  0.410165  0.089942  0.999924  1
  B  B25  1  0.589900  0.909994  0.000027  1
  B  B26  1  0.000031  0.000037  0.162380  1
  B  B27  1  0.000063  0.000024  0.837742  1
  B  B28  1  0.499983  0.499924  0.838560  1
  B  B29  1  0.499949  0.499971  0.161572  1
