# generated using pymatgen
data_Tb7Lu(OsI4)2
_symmetry_space_group_name_H-M   'P 1'
_cell_length_a   11.30954507
_cell_length_b   11.28985533
_cell_length_c   6.20712806
_cell_angle_alpha   90.00602364
_cell_angle_beta   89.98731505
_cell_angle_gamma   90.04094259
_symmetry_Int_Tables_number   1
_chemical_formula_structural   Tb7Lu(OsI4)2
_chemical_formula_sum   'Tb7 Lu1 Os2 I8'
_cell_volume   792.54529884
_cell_formula_units_Z   1
loop_
 _symmetry_equiv_pos_site_id
 _symmetry_equiv_pos_as_xyz
  1  'x, y, z'
loop_
 _atom_site_type_symbol
 _atom_site_label
 _atom_site_symmetry_multiplicity
 _atom_site_fract_x
 _atom_site_fract_y
 _atom_site_fract_z
 _atom_site_occupancy
  Tb  Tb0  1  0.081229  0.800079  0.500236  1
  Tb  Tb1  1  0.081933  0.199853  0.000198  1
  Tb  Tb2  1  0.199238  0.082597  0.500147  1
  Tb  Tb3  1  0.917970  0.800266  0.999883  1
  Tb  Tb4  1  0.916579  0.199898  0.499858  1
  Tb  Tb5  1  0.199366  0.918132  0.999702  1
  Tb  Tb6  1  0.799230  0.918947  0.499951  1
  Lu  Lu7  1  0.809799  0.078279  0.000507  1
  Os  Os8  1  0.000245  0.999863  0.250290  1
  Os  Os9  1  0.000150  0.999938  0.749840  1
  I  I10  1  0.642361  0.150163  0.497260  1
  I  I11  1  0.849525  0.642954  0.502575  1
  I  I12  1  0.356224  0.149868  0.997398  1
  I  I13  1  0.149120  0.357456  0.497356  1
  I  I14  1  0.643787  0.855058  0.002549  1
  I  I15  1  0.356426  0.850247  0.502241  1
  I  I16  1  0.149471  0.643057  0.997703  1
  I  I17  1  0.847346  0.353345  0.002306  1
