# generated using pymatgen
data_Tb16Cd2Hg2IrRu3
_symmetry_space_group_name_H-M   'P 1'
_cell_length_a   9.64106168
_cell_length_b   9.63506228
_cell_length_c   9.65846300
_cell_angle_alpha   59.91962308
_cell_angle_beta   59.94027241
_cell_angle_gamma   59.91337462
_symmetry_Int_Tables_number   1
_chemical_formula_structural   Tb16Cd2Hg2IrRu3
_chemical_formula_sum   'Tb16 Cd2 Hg2 Ir1 Ru3'
_cell_volume   633.32582463
_cell_formula_units_Z   1
loop_
 _symmetry_equiv_pos_site_id
 _symmetry_equiv_pos_as_xyz
  1  'x, y, z'
loop_
 _atom_site_type_symbol
 _atom_site_label
 _atom_site_symmetry_multiplicity
 _atom_site_fract_x
 _atom_site_fract_y
 _atom_site_fract_z
 _atom_site_occupancy
  Tb  Tb0  1  0.596311  0.598878  0.598360  1
  Tb  Tb1  1  0.596311  0.598878  0.206452  1
  Tb  Tb2  1  0.597154  0.205203  0.598821  1
  Tb  Tb3  1  0.207052  0.597866  0.597541  1
  Tb  Tb4  1  0.061791  0.438699  0.440074  1
  Tb  Tb5  1  0.438605  0.060409  0.061302  1
  Tb  Tb6  1  0.438605  0.060409  0.439684  1
  Tb  Tb7  1  0.061791  0.438699  0.059436  1
  Tb  Tb8  1  0.438244  0.437861  0.061947  1
  Tb  Tb9  1  0.060987  0.057811  0.440601  1
  Tb  Tb10  1  0.187655  0.811147  0.811495  1
  Tb  Tb11  1  0.810716  0.187573  0.189155  1
  Tb  Tb12  1  0.810716  0.187573  0.812556  1
  Tb  Tb13  1  0.187655  0.811147  0.189703  1
  Tb  Tb14  1  0.810870  0.812572  0.188279  1
  Tb  Tb15  1  0.188943  0.189220  0.810919  1
  Cd  Cd16  1  0.829251  0.510475  0.830137  1
  Cd  Cd17  1  0.510171  0.829136  0.830347  1
  Hg  Hg18  1  0.833205  0.833304  0.835750  1
  Hg  Hg19  1  0.833205  0.833304  0.497741  1
  Ir  Ir20  1  0.827146  0.391244  0.390805  1
  Ru  Ru21  1  0.390835  0.389386  0.389042  1
  Ru  Ru22  1  0.390835  0.389386  0.830736  1
  Ru  Ru23  1  0.391942  0.829820  0.389118  1
