# generated using pymatgen
data_TbPr2Hf(Al3Ir)6
_symmetry_space_group_name_H-M   'P 1'
_cell_length_a   7.57795770
_cell_length_b   7.56773239
_cell_length_c   9.48697400
_cell_angle_alpha   90.00000000
_cell_angle_beta   90.00000000
_cell_angle_gamma   119.49886911
_symmetry_Int_Tables_number   1
_chemical_formula_structural   TbPr2Hf(Al3Ir)6
_chemical_formula_sum   'Tb1 Pr2 Hf1 Al18 Ir6'
_cell_volume   473.52976026
_cell_formula_units_Z   1
loop_
 _symmetry_equiv_pos_site_id
 _symmetry_equiv_pos_as_xyz
  1  'x, y, z'
loop_
 _atom_site_type_symbol
 _atom_site_label
 _atom_site_symmetry_multiplicity
 _atom_site_fract_x
 _atom_site_fract_y
 _atom_site_fract_z
 _atom_site_occupancy
  Tb  Tb0  1  0.671260  0.995742  0.250000  1
  Pr  Pr1  1  0.005008  0.327594  0.750000  1
  Pr  Pr2  1  0.329759  0.006370  0.750000  1
  Hf  Hf3  1  0.997879  0.674634  0.250000  1
  Al  Al4  1  0.125453  0.123252  0.250000  1
  Al  Al5  1  0.867595  0.866011  0.750000  1
  Al  Al6  1  0.000096  0.339010  0.081916  1
  Al  Al7  1  0.997501  0.664889  0.934655  1
  Al  Al8  1  0.997501  0.664889  0.565345  1
  Al  Al9  1  0.332392  0.997762  0.418065  1
  Al  Al10  1  0.000096  0.339010  0.418084  1
  Al  Al11  1  0.664492  0.995754  0.569893  1
  Al  Al12  1  0.664492  0.995754  0.930107  1
  Al  Al13  1  0.332392  0.997762  0.081935  1
  Al  Al14  1  0.334744  0.334953  0.542167  1
  Al  Al15  1  0.669388  0.666943  0.441412  1
  Al  Al16  1  0.669388  0.666943  0.058588  1
  Al  Al17  1  0.334744  0.334953  0.957833  1
  Al  Al18  1  0.336377  0.550152  0.250000  1
  Al  Al19  1  0.660985  0.455258  0.750000  1
  Al  Al20  1  0.556626  0.345506  0.250000  1
  Al  Al21  1  0.453668  0.659338  0.750000  1
  Ir  Ir22  1  0.672886  0.329443  0.003219  1
  Ir  Ir23  1  0.328284  0.672305  0.004044  1
  Ir  Ir24  1  0.328284  0.672305  0.495956  1
  Ir  Ir25  1  0.672886  0.329443  0.496781  1
  Ir  Ir26  1  0.997912  0.997011  0.003986  1
  Ir  Ir27  1  0.997912  0.997011  0.496014  1
