# generated using pymatgen
data_Tb3Zn(Ga4Pd)2
_symmetry_space_group_name_H-M   'P 1'
_cell_length_a   8.17011709
_cell_length_b   8.17011713
_cell_length_c   8.17011649
_cell_angle_alpha   149.21238447
_cell_angle_beta   109.04038134
_cell_angle_gamma   79.32108288
_symmetry_Int_Tables_number   1
_chemical_formula_structural   Tb3Zn(Ga4Pd)2
_chemical_formula_sum   'Tb3 Zn1 Ga8 Pd2'
_cell_volume   258.74391367
_cell_formula_units_Z   1
loop_
 _symmetry_equiv_pos_site_id
 _symmetry_equiv_pos_as_xyz
  1  'x, y, z'
loop_
 _atom_site_type_symbol
 _atom_site_label
 _atom_site_symmetry_multiplicity
 _atom_site_fract_x
 _atom_site_fract_y
 _atom_site_fract_z
 _atom_site_occupancy
  Tb  Tb0  1  0.500000  0.500000  0.000000  1
  Tb  Tb1  1  0.200727  0.200727  0.000000  1
  Tb  Tb2  1  0.799273  0.799273  0.000000  1
  Zn  Zn3  1  0.000000  0.500000  0.500000  1
  Ga  Ga4  1  0.647637  0.363590  0.284047  1
  Ga  Ga5  1  0.352363  0.636410  0.715953  1
  Ga  Ga6  1  0.079542  0.363590  0.715953  1
  Ga  Ga7  1  0.920458  0.636410  0.284047  1
  Ga  Ga8  1  0.521513  0.155914  0.365599  1
  Ga  Ga9  1  0.478487  0.844086  0.634401  1
  Ga  Ga10  1  0.790314  0.155914  0.634401  1
  Ga  Ga11  1  0.209686  0.844086  0.365599  1
  Pd  Pd12  1  0.183422  0.000000  0.183422  1
  Pd  Pd13  1  0.816578  0.000000  0.816578  1
