# generated using pymatgen
data_Tb11Hg9PdPt3
_symmetry_space_group_name_H-M   'P 1'
_cell_length_a   13.20868000
_cell_length_b   13.20702017
_cell_length_c   3.72130900
_cell_angle_alpha   90.00000000
_cell_angle_beta   90.00000000
_cell_angle_gamma   112.45038070
_symmetry_Int_Tables_number   1
_chemical_formula_structural   Tb11Hg9PdPt3
_chemical_formula_sum   'Tb11 Hg9 Pd1 Pt3'
_cell_volume   599.97193702
_cell_formula_units_Z   1
loop_
 _symmetry_equiv_pos_site_id
 _symmetry_equiv_pos_as_xyz
  1  'x, y, z'
loop_
 _atom_site_type_symbol
 _atom_site_label
 _atom_site_symmetry_multiplicity
 _atom_site_fract_x
 _atom_site_fract_y
 _atom_site_fract_z
 _atom_site_occupancy
  Tb  Tb0  1  0.415635  0.077245  0.000000  1
  Tb  Tb1  1  0.583931  0.922357  0.000000  1
  Tb  Tb2  1  0.077642  0.415808  0.000000  1
  Tb  Tb3  1  0.924430  0.584711  0.000000  1
  Tb  Tb4  1  0.167586  0.834002  0.000000  1
  Tb  Tb5  1  0.833159  0.166888  0.000000  1
  Tb  Tb6  1  0.373450  0.626357  0.000000  1
  Tb  Tb7  1  0.625271  0.370871  0.000000  1
  Tb  Tb8  1  0.306476  0.306671  0.000000  1
  Tb  Tb9  1  0.693498  0.696143  0.000000  1
  Tb  Tb10  1  0.000255  0.999786  0.000000  1
  Hg  Hg11  1  0.367522  0.845941  0.500000  1
  Hg  Hg12  1  0.632508  0.153454  0.500000  1
  Hg  Hg13  1  0.844816  0.370262  0.500000  1
  Hg  Hg14  1  0.153064  0.631998  0.500000  1
  Hg  Hg15  1  0.210960  0.060691  0.500000  1
  Hg  Hg16  1  0.789246  0.939554  0.500000  1
  Hg  Hg17  1  0.060649  0.211044  0.500000  1
  Hg  Hg18  1  0.935532  0.785481  0.500000  1
  Hg  Hg19  1  0.502942  0.500385  0.500000  1
  Pd  Pd20  1  0.750529  0.549800  0.500000  1
  Pt  Pt21  1  0.450368  0.249434  0.500000  1
  Pt  Pt22  1  0.550645  0.750644  0.500000  1
  Pt  Pt23  1  0.249888  0.450472  0.500000  1
