# generated using pymatgen
data_DyTm5Al23VOs8
_symmetry_space_group_name_H-M   'P 1'
_cell_length_a   8.80547236
_cell_length_b   8.80547359
_cell_length_c   9.49835903
_cell_angle_alpha   89.99229712
_cell_angle_beta   90.00770551
_cell_angle_gamma   119.96811675
_symmetry_Int_Tables_number   1
_chemical_formula_structural   DyTm5Al23VOs8
_chemical_formula_sum   'Dy1 Tm5 Al23 V1 Os8'
_cell_volume   638.00491444
_cell_formula_units_Z   1
loop_
 _symmetry_equiv_pos_site_id
 _symmetry_equiv_pos_as_xyz
  1  'x, y, z'
loop_
 _atom_site_type_symbol
 _atom_site_label
 _atom_site_symmetry_multiplicity
 _atom_site_fract_x
 _atom_site_fract_y
 _atom_site_fract_z
 _atom_site_occupancy
  Dy  Dy0  1  0.807225  0.192775  0.750679  1
  Tm  Tm1  1  0.196623  0.393193  0.245476  1
  Tm  Tm2  1  0.805910  0.612004  0.750155  1
  Tm  Tm3  1  0.606807  0.803377  0.245476  1
  Tm  Tm4  1  0.387996  0.194090  0.750155  1
  Tm  Tm5  1  0.196366  0.803634  0.245589  1
  Al  Al6  1  0.666372  0.333628  0.976970  1
  Al  Al7  1  0.666573  0.333427  0.520056  1
  Al  Al8  1  0.333260  0.666740  0.481365  1
  Al  Al9  1  0.162493  0.324432  0.575549  1
  Al  Al10  1  0.837374  0.674695  0.424485  1
  Al  Al11  1  0.675568  0.837507  0.575549  1
  Al  Al12  1  0.835843  0.671609  0.076904  1
  Al  Al13  1  0.325305  0.162626  0.424485  1
  Al  Al14  1  0.160966  0.321011  0.925177  1
  Al  Al15  1  0.162044  0.837956  0.575637  1
  Al  Al16  1  0.328391  0.164157  0.076904  1
  Al  Al17  1  0.837227  0.162773  0.423893  1
  Al  Al18  1  0.678989  0.839034  0.925177  1
  Al  Al19  1  0.835725  0.164275  0.077565  1
  Al  Al20  1  0.160264  0.839736  0.925023  1
  Al  Al21  1  0.561755  0.123659  0.253229  1
  Al  Al22  1  0.440753  0.882675  0.751255  1
  Al  Al23  1  0.876341  0.438245  0.253229  1
  Al  Al24  1  0.117325  0.559247  0.751255  1
  Al  Al25  1  0.561834  0.438166  0.253257  1
  Al  Al26  1  0.441744  0.558256  0.751475  1
  Al  Al27  1  0.999888  0.000112  0.250506  1
  Al  Al28  1  0.000884  0.999116  0.749907  1
  V  V29  1  0.333115  0.666885  0.986117  1
  Os  Os30  1  0.494879  0.990456  0.005655  1
  Os  Os31  1  0.009544  0.505121  0.005655  1
  Os  Os32  1  0.498767  0.998562  0.503232  1
  Os  Os33  1  0.495253  0.504747  0.005453  1
  Os  Os34  1  0.001438  0.501233  0.503232  1
  Os  Os35  1  0.499365  0.500635  0.503662  1
  Os  Os36  1  0.999909  0.000091  0.001117  1
  Os  Os37  1  0.999885  0.000115  0.499494  1
