# generated using pymatgen
data_Pr2Re(TcB3)2
_symmetry_space_group_name_H-M   'P 1'
_cell_length_a   6.32923768
_cell_length_b   6.32923793
_cell_length_c   7.66582338
_cell_angle_alpha   89.34921016
_cell_angle_beta   89.34920740
_cell_angle_gamma   114.71924147
_symmetry_Int_Tables_number   1
_chemical_formula_structural   Pr2Re(TcB3)2
_chemical_formula_sum   'Pr4 Re2 Tc4 B12'
_cell_volume   278.88621448
_cell_formula_units_Z   2
loop_
 _symmetry_equiv_pos_site_id
 _symmetry_equiv_pos_as_xyz
  1  'x, y, z'
loop_
 _atom_site_type_symbol
 _atom_site_label
 _atom_site_symmetry_multiplicity
 _atom_site_fract_x
 _atom_site_fract_y
 _atom_site_fract_z
 _atom_site_occupancy
  Pr  Pr0  1  0.907396  0.560239  0.326726  1
  Pr  Pr1  1  0.439761  0.092604  0.173274  1
  Pr  Pr2  1  0.092284  0.440479  0.673273  1
  Pr  Pr3  1  0.559521  0.907716  0.826727  1
  Re  Re4  1  0.989170  0.803303  0.911563  1
  Re  Re5  1  0.196697  0.010830  0.588437  1
  Tc  Tc6  1  0.416810  0.583190  0.250000  1
  Tc  Tc7  1  0.582760  0.417240  0.750000  1
  Tc  Tc8  1  0.010958  0.196645  0.087966  1
  Tc  Tc9  1  0.803355  0.989042  0.412034  1
  B  B10  1  0.761119  0.846509  0.130433  1
  B  B11  1  0.153491  0.238881  0.369567  1
  B  B12  1  0.240940  0.152494  0.867145  1
  B  B13  1  0.847506  0.759060  0.632855  1
  B  B14  1  0.418009  0.843951  0.482435  1
  B  B15  1  0.156049  0.581991  0.017565  1
  B  B16  1  0.582387  0.157469  0.517756  1
  B  B17  1  0.842531  0.417613  0.982244  1
  B  B18  1  0.560060  0.651026  0.531983  1
  B  B19  1  0.348974  0.439940  0.968017  1
  B  B20  1  0.440743  0.350520  0.467885  1
  B  B21  1  0.649480  0.559257  0.032115  1
