# generated using pymatgen
data_Er9Th(Sn3N)2
_symmetry_space_group_name_H-M   'P 1'
_cell_length_a   8.90280986
_cell_length_b   8.90280930
_cell_length_c   6.39262300
_cell_angle_alpha   90.00000000
_cell_angle_beta   90.00000000
_cell_angle_gamma   120.35968571
_symmetry_Int_Tables_number   1
_chemical_formula_structural   Er9Th(Sn3N)2
_chemical_formula_sum   'Er9 Th1 Sn6 N2'
_cell_volume   437.19821971
_cell_formula_units_Z   1
loop_
 _symmetry_equiv_pos_site_id
 _symmetry_equiv_pos_as_xyz
  1  'x, y, z'
loop_
 _atom_site_type_symbol
 _atom_site_label
 _atom_site_symmetry_multiplicity
 _atom_site_fract_x
 _atom_site_fract_y
 _atom_site_fract_z
 _atom_site_occupancy
  Er  Er0  1  0.666355  0.333117  0.000871  1
  Er  Er1  1  0.333117  0.666355  0.000871  1
  Er  Er2  1  0.333117  0.666355  0.499129  1
  Er  Er3  1  0.666355  0.333117  0.499129  1
  Er  Er4  1  0.219906  0.002747  0.750000  1
  Er  Er5  1  0.002747  0.219906  0.750000  1
  Er  Er6  1  0.214850  0.214850  0.250000  1
  Er  Er7  1  0.785536  0.001050  0.250000  1
  Er  Er8  1  0.001050  0.785536  0.250000  1
  Th  Th9  1  0.783301  0.783301  0.750000  1
  Sn  Sn10  1  0.400553  0.400553  0.750000  1
  Sn  Sn11  1  0.594715  0.003032  0.750000  1
  Sn  Sn12  1  0.003032  0.594715  0.750000  1
  Sn  Sn13  1  0.597187  0.597187  0.250000  1
  Sn  Sn14  1  0.401306  0.999476  0.250000  1
  Sn  Sn15  1  0.999476  0.401306  0.250000  1
  N  N16  1  0.998698  0.998698  0.000255  1
  N  N17  1  0.998698  0.998698  0.499745  1
