# generated using pymatgen
data_Cs2ZrCuAgTe4
_symmetry_space_group_name_H-M   'P 1'
_cell_length_a   8.38115855
_cell_length_b   8.38115795
_cell_length_c   6.61771900
_cell_angle_alpha   90.00000000
_cell_angle_beta   90.00000000
_cell_angle_gamma   134.95924391
_symmetry_Int_Tables_number   1
_chemical_formula_structural   Cs2ZrCuAgTe4
_chemical_formula_sum   'Cs2 Zr1 Cu1 Ag1 Te4'
_cell_volume   328.93501968
_cell_formula_units_Z   1
loop_
 _symmetry_equiv_pos_site_id
 _symmetry_equiv_pos_as_xyz
  1  'x, y, z'
loop_
 _atom_site_type_symbol
 _atom_site_label
 _atom_site_symmetry_multiplicity
 _atom_site_fract_x
 _atom_site_fract_y
 _atom_site_fract_z
 _atom_site_occupancy
  Cs  Cs0  1  0.500000  0.000000  0.259655  1
  Cs  Cs1  1  0.000000  0.500000  0.740345  1
  Zr  Zr2  1  0.000000  0.000000  0.000000  1
  Cu  Cu3  1  0.500000  0.500000  0.000000  1
  Ag  Ag4  1  0.000000  0.000000  0.500000  1
  Te  Te5  1  0.840256  0.639183  0.234139  1
  Te  Te6  1  0.159744  0.360817  0.234139  1
  Te  Te7  1  0.639183  0.840256  0.765861  1
  Te  Te8  1  0.360817  0.159744  0.765861  1
