# generated using pymatgen
data_YbGd3(ZnPt)4
_symmetry_space_group_name_H-M   'P 1'
_cell_length_a   4.14848100
_cell_length_b   7.08259729
_cell_length_c   8.59731400
_cell_angle_alpha   90.23640470
_cell_angle_beta   90.00000000
_cell_angle_gamma   90.00000000
_symmetry_Int_Tables_number   1
_chemical_formula_structural   YbGd3(ZnPt)4
_chemical_formula_sum   'Yb1 Gd3 Zn4 Pt4'
_cell_volume   252.60430408
_cell_formula_units_Z   1
loop_
 _symmetry_equiv_pos_site_id
 _symmetry_equiv_pos_as_xyz
  1  'x, y, z'
loop_
 _atom_site_type_symbol
 _atom_site_label
 _atom_site_symmetry_multiplicity
 _atom_site_fract_x
 _atom_site_fract_y
 _atom_site_fract_z
 _atom_site_occupancy
  Yb  Yb0  1  0.750000  0.454439  0.815296  1
  Gd  Gd1  1  0.250000  0.045210  0.319494  1
  Gd  Gd2  1  0.250000  0.544305  0.178612  1
  Gd  Gd3  1  0.750000  0.953613  0.684926  1
  Zn  Zn4  1  0.250000  0.141545  0.937314  1
  Zn  Zn5  1  0.250000  0.631554  0.563282  1
  Zn  Zn6  1  0.750000  0.864807  0.060664  1
  Zn  Zn7  1  0.750000  0.366391  0.440148  1
  Pt  Pt8  1  0.250000  0.249501  0.622091  1
  Pt  Pt9  1  0.250000  0.758371  0.875597  1
  Pt  Pt10  1  0.750000  0.746000  0.375208  1
  Pt  Pt11  1  0.750000  0.244267  0.127369  1
