# generated using pymatgen
data_Y13Th3(CoHg)4
_symmetry_space_group_name_H-M   'P 1'
_cell_length_a   9.59515358
_cell_length_b   9.61274148
_cell_length_c   9.61274100
_cell_angle_alpha   59.99999820
_cell_angle_beta   59.93934456
_cell_angle_gamma   59.93934660
_symmetry_Int_Tables_number   1
_chemical_formula_structural   Y13Th3(CoHg)4
_chemical_formula_sum   'Y13 Th3 Co4 Hg4'
_cell_volume   626.37247337
_cell_formula_units_Z   1
loop_
 _symmetry_equiv_pos_site_id
 _symmetry_equiv_pos_as_xyz
  1  'x, y, z'
loop_
 _atom_site_type_symbol
 _atom_site_label
 _atom_site_symmetry_multiplicity
 _atom_site_fract_x
 _atom_site_fract_y
 _atom_site_fract_z
 _atom_site_occupancy
  Y  Y0  1  0.198848  0.600384  0.600384  1
  Y  Y1  1  0.061613  0.438940  0.438940  1
  Y  Y2  1  0.439062  0.061878  0.061878  1
  Y  Y3  1  0.439062  0.061878  0.437182  1
  Y  Y4  1  0.061613  0.438940  0.060507  1
  Y  Y5  1  0.439062  0.437182  0.061878  1
  Y  Y6  1  0.061613  0.060507  0.438940  1
  Y  Y7  1  0.186910  0.813491  0.813491  1
  Y  Y8  1  0.812597  0.187095  0.187095  1
  Y  Y9  1  0.812597  0.187095  0.813214  1
  Y  Y10  1  0.186910  0.813491  0.186108  1
  Y  Y11  1  0.812597  0.813214  0.187095  1
  Y  Y12  1  0.186910  0.186108  0.813491  1
  Th  Th13  1  0.592551  0.596915  0.596915  1
  Th  Th14  1  0.592551  0.596915  0.213619  1
  Th  Th15  1  0.592551  0.213619  0.596915  1
  Co  Co16  1  0.400704  0.390378  0.390378  1
  Co  Co17  1  0.400704  0.390378  0.818541  1
  Co  Co18  1  0.400704  0.818541  0.390378  1
  Co  Co19  1  0.815020  0.394994  0.394994  1
  Hg  Hg20  1  0.837304  0.834278  0.834278  1
  Hg  Hg21  1  0.837304  0.834278  0.494139  1
  Hg  Hg22  1  0.837304  0.494139  0.834278  1
  Hg  Hg23  1  0.493910  0.835363  0.835363  1
