# generated using pymatgen
data_Zn9Fe3(Mo3N)4
_symmetry_space_group_name_H-M   'P 1'
_cell_length_a   7.99390628
_cell_length_b   8.01238782
_cell_length_c   7.99390600
_cell_angle_alpha   60.07627426
_cell_angle_beta   60.00000118
_cell_angle_gamma   60.07626672
_symmetry_Int_Tables_number   1
_chemical_formula_structural   Zn9Fe3(Mo3N)4
_chemical_formula_sum   'Zn9 Fe3 Mo12 N4'
_cell_volume   362.46390396
_cell_formula_units_Z   1
loop_
 _symmetry_equiv_pos_site_id
 _symmetry_equiv_pos_as_xyz
  1  'x, y, z'
loop_
 _atom_site_type_symbol
 _atom_site_label
 _atom_site_symmetry_multiplicity
 _atom_site_fract_x
 _atom_site_fract_y
 _atom_site_fract_z
 _atom_site_occupancy
  Zn  Zn0  1  0.417328  0.748015  0.417328  1
  Zn  Zn1  1  0.834709  0.834744  0.495840  1
  Zn  Zn2  1  0.834709  0.834744  0.834709  1
  Zn  Zn3  1  0.495840  0.834744  0.834709  1
  Zn  Zn4  1  0.835139  0.494584  0.835139  1
  Zn  Zn5  1  0.624334  0.623422  0.127910  1
  Zn  Zn6  1  0.624334  0.623422  0.624334  1
  Zn  Zn7  1  0.127910  0.623422  0.624334  1
  Zn  Zn8  1  0.624320  0.127039  0.624320  1
  Fe  Fe9  1  0.415905  0.413425  0.754763  1
  Fe  Fe10  1  0.415905  0.413425  0.415905  1
  Fe  Fe11  1  0.754763  0.413425  0.415905  1
  Mo  Mo12  1  0.804279  0.195881  0.195562  1
  Mo  Mo13  1  0.192764  0.806488  0.192764  1
  Mo  Mo14  1  0.807984  0.806488  0.192764  1
  Mo  Mo15  1  0.192764  0.806488  0.807984  1
  Mo  Mo16  1  0.804279  0.195881  0.804279  1
  Mo  Mo17  1  0.195562  0.195881  0.804279  1
  Mo  Mo18  1  0.439051  0.065986  0.055912  1
  Mo  Mo19  1  0.062975  0.437304  0.062975  1
  Mo  Mo20  1  0.436745  0.437304  0.062975  1
  Mo  Mo21  1  0.062975  0.437304  0.436745  1
  Mo  Mo22  1  0.439051  0.065986  0.439051  1
  Mo  Mo23  1  0.055912  0.065986  0.439051  1
  N  N24  1  0.123509  0.122709  0.630273  1
  N  N25  1  0.123509  0.122709  0.123509  1
  N  N26  1  0.630273  0.122709  0.123509  1
  N  N27  1  0.123170  0.630490  0.123170  1
