# generated using pymatgen
data_Hf9NbRe2WSe
_symmetry_space_group_name_H-M   'P 1'
_cell_length_a   8.69860088
_cell_length_b   8.79231417
_cell_length_c   8.67132000
_cell_angle_alpha   90.00000000
_cell_angle_beta   90.00000000
_cell_angle_gamma   120.35701343
_symmetry_Int_Tables_number   1
_chemical_formula_structural   Hf9NbRe2WSe
_chemical_formula_sum   'Hf18 Nb2 Re4 W2 Se2'
_cell_volume   572.26186092
_cell_formula_units_Z   2
loop_
 _symmetry_equiv_pos_site_id
 _symmetry_equiv_pos_as_xyz
  1  'x, y, z'
loop_
 _atom_site_type_symbol
 _atom_site_label
 _atom_site_symmetry_multiplicity
 _atom_site_fract_x
 _atom_site_fract_y
 _atom_site_fract_z
 _atom_site_occupancy
  Hf  Hf0  1  0.194312  0.808059  0.453924  1
  Hf  Hf1  1  0.194312  0.386254  0.453924  1
  Hf  Hf2  1  0.613562  0.806780  0.456610  1
  Hf  Hf3  1  0.806779  0.191440  0.553003  1
  Hf  Hf4  1  0.806779  0.615338  0.553003  1
  Hf  Hf5  1  0.382904  0.191452  0.549832  1
  Hf  Hf6  1  0.806779  0.191440  0.946997  1
  Hf  Hf7  1  0.806779  0.615338  0.946997  1
  Hf  Hf8  1  0.382904  0.191452  0.950168  1
  Hf  Hf9  1  0.194312  0.808059  0.046076  1
  Hf  Hf10  1  0.194312  0.386254  0.046076  1
  Hf  Hf11  1  0.613562  0.806780  0.043390  1
  Hf  Hf12  1  0.538386  0.454104  0.250000  1
  Hf  Hf13  1  0.538386  0.084281  0.250000  1
  Hf  Hf14  1  0.916901  0.458451  0.250000  1
  Hf  Hf15  1  0.456156  0.545638  0.750000  1
  Hf  Hf16  1  0.456156  0.910519  0.750000  1
  Hf  Hf17  1  0.090586  0.545293  0.750000  1
  Nb  Nb18  1  0.892081  0.110571  0.250000  1
  Nb  Nb19  1  0.892081  0.781511  0.250000  1
  Re  Re20  1  0.224400  0.112200  0.250000  1
  Re  Re21  1  0.778298  0.889149  0.750000  1
  Re  Re22  1  0.000888  0.000443  0.501713  1
  Re  Re23  1  0.000888  0.000443  0.998287  1
  W  W24  1  0.109875  0.891205  0.750000  1
  W  W25  1  0.109875  0.218668  0.750000  1
  Se  Se26  1  0.332417  0.666210  0.250000  1
  Se  Se27  1  0.665331  0.332665  0.750000  1
