# generated using pymatgen
data_Y12Al2Co3Ru
_symmetry_space_group_name_H-M   'P 1'
_cell_length_a   8.38350345
_cell_length_b   8.38350348
_cell_length_c   8.38350349
_cell_angle_alpha   112.23796766
_cell_angle_beta   110.03940481
_cell_angle_gamma   106.19334348
_symmetry_Int_Tables_number   1
_chemical_formula_structural   Y12Al2Co3Ru
_chemical_formula_sum   'Y12 Al2 Co3 Ru1'
_cell_volume   452.29839397
_cell_formula_units_Z   1
loop_
 _symmetry_equiv_pos_site_id
 _symmetry_equiv_pos_as_xyz
  1  'x, y, z'
loop_
 _atom_site_type_symbol
 _atom_site_label
 _atom_site_symmetry_multiplicity
 _atom_site_fract_x
 _atom_site_fract_y
 _atom_site_fract_z
 _atom_site_occupancy
  Y  Y0  1  0.051503  0.746717  0.304785  1
  Y  Y1  1  0.962152  0.265973  0.696180  1
  Y  Y2  1  0.558068  0.253283  0.304785  1
  Y  Y3  1  0.430208  0.734027  0.696180  1
  Y  Y4  1  0.675649  0.861720  0.186688  1
  Y  Y5  1  0.324967  0.511039  0.186688  1
  Y  Y6  1  0.324967  0.138280  0.813929  1
  Y  Y7  1  0.675649  0.488961  0.813929  1
  Y  Y8  1  0.178337  0.220885  0.399222  1
  Y  Y9  1  0.816238  0.215730  0.031968  1
  Y  Y10  1  0.178337  0.779115  0.957451  1
  Y  Y11  1  0.816238  0.784270  0.600506  1
  Al  Al12  1  0.987286  0.500000  0.487286  1
  Al  Al13  1  0.505845  0.000000  0.505845  1
  Co  Co14  1  0.336620  0.500000  0.836620  1
  Co  Co15  1  0.888033  0.887896  0.000137  1
  Co  Co16  1  0.112240  0.112104  0.000137  1
  Ru  Ru17  1  0.677665  0.500000  0.177665  1
