# generated using pymatgen
data_ZnIn3P6N13
_symmetry_space_group_name_H-M   'P 1'
_cell_length_a   7.24899671
_cell_length_b   7.24899687
_cell_length_c   7.24899713
_cell_angle_alpha   109.55143952
_cell_angle_beta   109.55143505
_cell_angle_gamma   109.55144713
_symmetry_Int_Tables_number   1
_chemical_formula_structural   ZnIn3P6N13
_chemical_formula_sum   'Zn1 In3 P6 N13'
_cell_volume   292.35816871
_cell_formula_units_Z   1
loop_
 _symmetry_equiv_pos_site_id
 _symmetry_equiv_pos_as_xyz
  1  'x, y, z'
loop_
 _atom_site_type_symbol
 _atom_site_label
 _atom_site_symmetry_multiplicity
 _atom_site_fract_x
 _atom_site_fract_y
 _atom_site_fract_z
 _atom_site_occupancy
  Zn  Zn0  1  0.316352  0.316352  0.316352  1
  In  In1  1  0.001212  0.711714  0.001212  1
  In  In2  1  0.711714  0.001212  0.001212  1
  In  In3  1  0.001212  0.001212  0.711714  1
  P  P4  1  0.495951  0.246783  0.744164  1
  P  P5  1  0.495951  0.744164  0.246783  1
  P  P6  1  0.744164  0.495951  0.246783  1
  P  P7  1  0.246783  0.744164  0.495951  1
  P  P8  1  0.744164  0.246783  0.495951  1
  P  P9  1  0.246783  0.495951  0.744164  1
  N  N10  1  0.997071  0.720367  0.434248  1
  N  N11  1  0.285649  0.557204  0.557204  1
  N  N12  1  0.720367  0.434248  0.997071  1
  N  N13  1  0.272405  0.710413  0.272405  1
  N  N14  1  0.434248  0.997071  0.720367  1
  N  N15  1  0.710413  0.272405  0.272405  1
  N  N16  1  0.557204  0.285649  0.557204  1
  N  N17  1  0.720367  0.997071  0.434248  1
  N  N18  1  0.272405  0.272405  0.710413  1
  N  N19  1  0.434248  0.720367  0.997071  1
  N  N20  1  0.557204  0.557204  0.285649  1
  N  N21  1  0.997071  0.434248  0.720367  1
  N  N22  1  0.037061  0.037061  0.037061  1
