# generated using pymatgen
data_Ho2GaTc3
_symmetry_space_group_name_H-M   'P 1'
_cell_length_a   5.33640000
_cell_length_b   5.33640003
_cell_length_c   9.00721800
_cell_angle_alpha   90.00000000
_cell_angle_beta   90.00000000
_cell_angle_gamma   119.99999981
_symmetry_Int_Tables_number   1
_chemical_formula_structural   Ho2GaTc3
_chemical_formula_sum   'Ho4 Ga2 Tc6'
_cell_volume   222.13554618
_cell_formula_units_Z   2
loop_
 _symmetry_equiv_pos_site_id
 _symmetry_equiv_pos_as_xyz
  1  'x, y, z'
loop_
 _atom_site_type_symbol
 _atom_site_label
 _atom_site_symmetry_multiplicity
 _atom_site_fract_x
 _atom_site_fract_y
 _atom_site_fract_z
 _atom_site_occupancy
  Ho  Ho0  1  0.333333  0.666667  0.431928  1
  Ho  Ho1  1  0.666667  0.333333  0.568072  1
  Ho  Ho2  1  0.666667  0.333333  0.931928  1
  Ho  Ho3  1  0.333333  0.666667  0.068072  1
  Ga  Ga4  1  0.000000  0.000000  0.500000  1
  Ga  Ga5  1  0.000000  0.000000  0.000000  1
  Tc  Tc6  1  0.829010  0.170990  0.250000  1
  Tc  Tc7  1  0.829010  0.658020  0.250000  1
  Tc  Tc8  1  0.341980  0.170990  0.250000  1
  Tc  Tc9  1  0.170990  0.829010  0.750000  1
  Tc  Tc10  1  0.170990  0.341980  0.750000  1
  Tc  Tc11  1  0.658020  0.829010  0.750000  1
