# generated using pymatgen
data_Y2Ho4CrB14Ru
_symmetry_space_group_name_H-M   'P 1'
_cell_length_a   8.04442524
_cell_length_b   8.04442601
_cell_length_c   9.31797100
_cell_angle_alpha   90.00000000
_cell_angle_beta   90.00000000
_cell_angle_gamma   155.05683452
_symmetry_Int_Tables_number   1
_chemical_formula_structural   Y2Ho4CrB14Ru
_chemical_formula_sum   'Y2 Ho4 Cr1 B14 Ru1'
_cell_volume   254.29314182
_cell_formula_units_Z   1
loop_
 _symmetry_equiv_pos_site_id
 _symmetry_equiv_pos_as_xyz
  1  'x, y, z'
loop_
 _atom_site_type_symbol
 _atom_site_label
 _atom_site_symmetry_multiplicity
 _atom_site_fract_x
 _atom_site_fract_y
 _atom_site_fract_z
 _atom_site_occupancy
  Y  Y0  1  0.757624  0.242376  0.250000  1
  Y  Y1  1  0.244113  0.755887  0.750000  1
  Ho  Ho2  1  0.105358  0.894642  0.061518  1
  Ho  Ho3  1  0.894651  0.105349  0.941072  1
  Ho  Ho4  1  0.105358  0.894642  0.438482  1
  Ho  Ho5  1  0.894651  0.105349  0.558928  1
  Cr  Cr6  1  0.947300  0.052700  0.250000  1
  B  B7  1  0.726811  0.273189  0.533822  1
  B  B8  1  0.272307  0.727693  0.466853  1
  B  B9  1  0.272307  0.727693  0.033147  1
  B  B10  1  0.726811  0.273189  0.966178  1
  B  B11  1  0.520607  0.479393  0.904711  1
  B  B12  1  0.478897  0.521103  0.096061  1
  B  B13  1  0.478897  0.521103  0.403939  1
  B  B14  1  0.520607  0.479393  0.595289  1
  B  B15  1  0.457540  0.542460  0.750000  1
  B  B16  1  0.541656  0.458344  0.250000  1
  B  B17  1  0.631305  0.368695  0.650009  1
  B  B18  1  0.368927  0.631073  0.348557  1
  B  B19  1  0.368927  0.631073  0.151443  1
  B  B20  1  0.631305  0.368695  0.849991  1
  Ru  Ru21  1  0.054043  0.945957  0.750000  1
