# generated using pymatgen
data_SmTh2(SnRu)3
_symmetry_space_group_name_H-M   'P 1'
_cell_length_a   7.57180185
_cell_length_b   7.57180291
_cell_length_c   4.15929400
_cell_angle_alpha   90.00000000
_cell_angle_beta   90.00000000
_cell_angle_gamma   122.21742968
_symmetry_Int_Tables_number   1
_chemical_formula_structural   SmTh2(SnRu)3
_chemical_formula_sum   'Sm1 Th2 Sn3 Ru3'
_cell_volume   201.74577546
_cell_formula_units_Z   1
loop_
 _symmetry_equiv_pos_site_id
 _symmetry_equiv_pos_as_xyz
  1  'x, y, z'
loop_
 _atom_site_type_symbol
 _atom_site_label
 _atom_site_symmetry_multiplicity
 _atom_site_fract_x
 _atom_site_fract_y
 _atom_site_fract_z
 _atom_site_occupancy
  Sm  Sm0  1  0.412248  0.412248  0.000000  1
  Th  Th1  1  0.585752  0.999548  0.000000  1
  Th  Th2  1  0.999548  0.585752  0.000000  1
  Sn  Sn3  1  0.250301  0.015047  0.500000  1
  Sn  Sn4  1  0.015047  0.250301  0.500000  1
  Sn  Sn5  1  0.737195  0.737195  0.500000  1
  Ru  Ru6  1  0.327287  0.689450  0.500000  1
  Ru  Ru7  1  0.689450  0.327287  0.500000  1
  Ru  Ru8  1  0.983173  0.983173  0.000000  1
