# generated using pymatgen
data_RbBaSc2(PO4)3
_symmetry_space_group_name_H-M   'P 1'
_cell_length_a   10.28998100
_cell_length_b   10.28998100
_cell_length_c   10.28998100
_cell_angle_alpha   90.00000000
_cell_angle_beta   90.00000000
_cell_angle_gamma   90.00000000
_symmetry_Int_Tables_number   1
_chemical_formula_structural   RbBaSc2(PO4)3
_chemical_formula_sum   'Rb4 Ba4 Sc8 P12 O48'
_cell_volume   1089.54135362
_cell_formula_units_Z   4
loop_
 _symmetry_equiv_pos_site_id
 _symmetry_equiv_pos_as_xyz
  1  'x, y, z'
loop_
 _atom_site_type_symbol
 _atom_site_label
 _atom_site_symmetry_multiplicity
 _atom_site_fract_x
 _atom_site_fract_y
 _atom_site_fract_z
 _atom_site_occupancy
  Rb  Rb0  1  0.200306  0.700306  0.799694  1
  Rb  Rb1  1  0.299694  0.299694  0.299694  1
  Rb  Rb2  1  0.700306  0.799694  0.200306  1
  Rb  Rb3  1  0.799694  0.200306  0.700306  1
  Ba  Ba4  1  0.069407  0.069407  0.069407  1
  Ba  Ba5  1  0.430593  0.930593  0.569407  1
  Ba  Ba6  1  0.569407  0.430593  0.930593  1
  Ba  Ba7  1  0.930593  0.569407  0.430593  1
  Sc  Sc8  1  0.084305  0.915695  0.415695  1
  Sc  Sc9  1  0.146825  0.353175  0.646825  1
  Sc  Sc10  1  0.353175  0.646825  0.146825  1
  Sc  Sc11  1  0.415695  0.084305  0.915695  1
  Sc  Sc12  1  0.584305  0.584305  0.584305  1
  Sc  Sc13  1  0.646825  0.146825  0.353175  1
  Sc  Sc14  1  0.853175  0.853175  0.853175  1
  Sc  Sc15  1  0.915695  0.415695  0.084305  1
  P  P16  1  0.038965  0.729801  0.128714  1
  P  P17  1  0.128714  0.038965  0.729801  1
  P  P18  1  0.229801  0.371286  0.961035  1
  P  P19  1  0.270199  0.628714  0.461035  1
  P  P20  1  0.371286  0.961035  0.229801  1
  P  P21  1  0.461035  0.270199  0.628714  1
  P  P22  1  0.538965  0.770199  0.871286  1
  P  P23  1  0.628714  0.461035  0.270199  1
  P  P24  1  0.729801  0.128714  0.038965  1
  P  P25  1  0.770199  0.871286  0.538965  1
  P  P26  1  0.871286  0.538965  0.770199  1
  P  P27  1  0.961035  0.229801  0.371286  1
  O  O28  1  0.002638  0.087519  0.347563  1
  O  O29  1  0.016877  0.802053  0.259510  1
  O  O30  1  0.026324  0.953861  0.800467  1
  O  O31  1  0.046139  0.300467  0.473676  1
  O  O32  1  0.083859  0.182003  0.738080  1
  O  O33  1  0.087519  0.347563  0.002638  1
  O  O34  1  0.152437  0.997362  0.587519  1
  O  O35  1  0.182003  0.738080  0.083859  1
  O  O36  1  0.197947  0.759510  0.483123  1
  O  O37  1  0.199533  0.526324  0.546139  1
  O  O38  1  0.240490  0.983123  0.302053  1
  O  O39  1  0.238080  0.416141  0.817997  1
  O  O40  1  0.261920  0.583859  0.317997  1
  O  O41  1  0.259510  0.016877  0.802053  1
  O  O42  1  0.300467  0.473676  0.046139  1
  O  O43  1  0.302053  0.240490  0.983123  1
  O  O44  1  0.317997  0.261920  0.583859  1
  O  O45  1  0.347563  0.002638  0.087519  1
  O  O46  1  0.412481  0.652437  0.502638  1
  O  O47  1  0.416141  0.817997  0.238080  1
  O  O48  1  0.453861  0.699533  0.973676  1
  O  O49  1  0.473676  0.046139  0.300467  1
  O  O50  1  0.483123  0.197947  0.759510  1
  O  O51  1  0.497362  0.912481  0.847563  1
  O  O52  1  0.502638  0.412481  0.652437  1
  O  O53  1  0.516877  0.697947  0.740490  1
  O  O54  1  0.526324  0.546139  0.199533  1
  O  O55  1  0.546139  0.199533  0.526324  1
  O  O56  1  0.583859  0.317997  0.261920  1
  O  O57  1  0.587519  0.152437  0.997362  1
  O  O58  1  0.652437  0.502638  0.412481  1
  O  O59  1  0.682003  0.761920  0.916141  1
  O  O60  1  0.697947  0.740490  0.516877  1
  O  O61  1  0.699533  0.973676  0.453861  1
  O  O62  1  0.740490  0.516877  0.697947  1
  O  O63  1  0.738080  0.083859  0.182003  1
  O  O64  1  0.761920  0.916141  0.682003  1
  O  O65  1  0.759510  0.483123  0.197947  1
  O  O66  1  0.800467  0.026324  0.953861  1
  O  O67  1  0.802053  0.259510  0.016877  1
  O  O68  1  0.817997  0.238080  0.416141  1
  O  O69  1  0.847563  0.497362  0.912481  1
  O  O70  1  0.912481  0.847563  0.497362  1
  O  O71  1  0.916141  0.682003  0.761920  1
  O  O72  1  0.953861  0.800467  0.026324  1
  O  O73  1  0.973676  0.453861  0.699533  1
  O  O74  1  0.983123  0.302053  0.240490  1
  O  O75  1  0.997362  0.587519  0.152437  1
