# generated using pymatgen
data_Tm10Sn3Hg5Pt4
_symmetry_space_group_name_H-M   'P 1'
_cell_length_a   3.57785700
_cell_length_b   8.00832679
_cell_length_c   18.01775069
_cell_angle_alpha   90.22256688
_cell_angle_beta   90.00000000
_cell_angle_gamma   90.00000000
_symmetry_Int_Tables_number   1
_chemical_formula_structural   Tm10Sn3Hg5Pt4
_chemical_formula_sum   'Tm10 Sn3 Hg5 Pt4'
_cell_volume   516.25237472
_cell_formula_units_Z   1
loop_
 _symmetry_equiv_pos_site_id
 _symmetry_equiv_pos_as_xyz
  1  'x, y, z'
loop_
 _atom_site_type_symbol
 _atom_site_label
 _atom_site_symmetry_multiplicity
 _atom_site_fract_x
 _atom_site_fract_y
 _atom_site_fract_z
 _atom_site_occupancy
  Tm  Tm0  1  0.000000  0.110943  0.414646  1
  Tm  Tm1  1  0.000000  0.888839  0.585346  1
  Tm  Tm2  1  0.000000  0.392289  0.915315  1
  Tm  Tm3  1  0.000000  0.613136  0.086682  1
  Tm  Tm4  1  0.000000  0.237083  0.215590  1
  Tm  Tm5  1  0.000000  0.755362  0.783202  1
  Tm  Tm6  1  0.000000  0.254386  0.717079  1
  Tm  Tm7  1  0.000000  0.747621  0.280100  1
  Tm  Tm8  1  0.000000  0.001874  0.002293  1
  Tm  Tm9  1  0.000000  0.499015  0.500050  1
  Sn  Sn10  1  0.500000  0.422666  0.353277  1
  Sn  Sn11  1  0.500000  0.578448  0.647503  1
  Sn  Sn12  1  0.500000  0.079519  0.853185  1
  Hg  Hg13  1  0.500000  0.921746  0.143128  1
  Hg  Hg14  1  0.500000  0.291346  0.062903  1
  Hg  Hg15  1  0.500000  0.710342  0.937827  1
  Hg  Hg16  1  0.500000  0.208329  0.562987  1
  Hg  Hg17  1  0.500000  0.790536  0.437069  1
  Pt  Pt18  1  0.500000  0.029407  0.302710  1
  Pt  Pt19  1  0.500000  0.971235  0.698489  1
  Pt  Pt20  1  0.500000  0.472340  0.801544  1
  Pt  Pt21  1  0.500000  0.523537  0.199075  1
