# generated using pymatgen
data_HfZrP2OsRu
_symmetry_space_group_name_H-M   'P 1'
_cell_length_a   3.89959000
_cell_length_b   6.44354100
_cell_length_c   7.35809000
_cell_angle_alpha   90.00000000
_cell_angle_beta   90.00000000
_cell_angle_gamma   90.00000000
_symmetry_Int_Tables_number   1
_chemical_formula_structural   HfZrP2OsRu
_chemical_formula_sum   'Hf2 Zr2 P4 Os2 Ru2'
_cell_volume   184.88796394
_cell_formula_units_Z   2
loop_
 _symmetry_equiv_pos_site_id
 _symmetry_equiv_pos_as_xyz
  1  'x, y, z'
loop_
 _atom_site_type_symbol
 _atom_site_label
 _atom_site_symmetry_multiplicity
 _atom_site_fract_x
 _atom_site_fract_y
 _atom_site_fract_z
 _atom_site_occupancy
  Hf  Hf0  1  0.750000  0.522520  0.319582  1
  Hf  Hf1  1  0.750000  0.022520  0.180418  1
  Zr  Zr2  1  0.250000  0.978364  0.821793  1
  Zr  Zr3  1  0.250000  0.478364  0.678207  1
  P  P4  1  0.250000  0.723848  0.123900  1
  P  P5  1  0.250000  0.223848  0.376100  1
  P  P6  1  0.750000  0.275087  0.877932  1
  P  P7  1  0.750000  0.775087  0.622068  1
  Os  Os8  1  0.250000  0.346640  0.063062  1
  Os  Os9  1  0.250000  0.846640  0.436938  1
  Ru  Ru10  1  0.750000  0.153540  0.557708  1
  Ru  Ru11  1  0.750000  0.653540  0.942292  1
