# generated using pymatgen
data_Nb6Al8Si8Os7
_symmetry_space_group_name_H-M   'P 1'
_cell_length_a   8.48271143
_cell_length_b   8.48271150
_cell_length_c   8.48271100
_cell_angle_alpha   60.00000584
_cell_angle_beta   60.00000556
_cell_angle_gamma   59.99999724
_symmetry_Int_Tables_number   1
_chemical_formula_structural   Nb6Al8Si8Os7
_chemical_formula_sum   'Nb6 Al8 Si8 Os7'
_cell_volume   431.60760790
_cell_formula_units_Z   1
loop_
 _symmetry_equiv_pos_site_id
 _symmetry_equiv_pos_as_xyz
  1  'x, y, z'
loop_
 _atom_site_type_symbol
 _atom_site_label
 _atom_site_symmetry_multiplicity
 _atom_site_fract_x
 _atom_site_fract_y
 _atom_site_fract_z
 _atom_site_occupancy
  Nb  Nb0  1  0.191651  0.808349  0.808349  1
  Nb  Nb1  1  0.808349  0.191651  0.191651  1
  Nb  Nb2  1  0.808349  0.191651  0.808349  1
  Nb  Nb3  1  0.808349  0.808349  0.191651  1
  Nb  Nb4  1  0.191651  0.808349  0.191651  1
  Nb  Nb5  1  0.191651  0.191651  0.808349  1
  Al  Al6  1  0.621202  0.621202  0.621202  1
  Al  Al7  1  0.621202  0.621202  0.136396  1
  Al  Al8  1  0.136396  0.621202  0.621202  1
  Al  Al9  1  0.621202  0.136396  0.621202  1
  Al  Al10  1  0.378798  0.378798  0.378798  1
  Al  Al11  1  0.378798  0.378798  0.863604  1
  Al  Al12  1  0.378798  0.863604  0.378798  1
  Al  Al13  1  0.863604  0.378798  0.378798  1
  Si  Si14  1  0.845345  0.845345  0.845345  1
  Si  Si15  1  0.845345  0.845345  0.463964  1
  Si  Si16  1  0.463964  0.845345  0.845345  1
  Si  Si17  1  0.845345  0.463964  0.845345  1
  Si  Si18  1  0.154655  0.154655  0.154655  1
  Si  Si19  1  0.154655  0.154655  0.536036  1
  Si  Si20  1  0.154655  0.536036  0.154655  1
  Si  Si21  1  0.536036  0.154655  0.154655  1
  Os  Os22  1  0.500000  0.500000  0.500000  1
  Os  Os23  1  0.000000  0.500000  0.500000  1
  Os  Os24  1  0.500000  0.000000  0.000000  1
  Os  Os25  1  0.500000  0.000000  0.500000  1
  Os  Os26  1  0.500000  0.500000  0.000000  1
  Os  Os27  1  0.000000  0.500000  0.000000  1
  Os  Os28  1  0.000000  0.000000  0.500000  1
