# generated using pymatgen
data_Sc8Ti8Cr3Si16Mo
_symmetry_space_group_name_H-M   'P 1'
_cell_length_a   6.54879609
_cell_length_b   6.73305025
_cell_length_c   12.91033300
_cell_angle_alpha   90.00000000
_cell_angle_beta   90.00000000
_cell_angle_gamma   90.06875791
_symmetry_Int_Tables_number   1
_chemical_formula_structural   Sc8Ti8Cr3Si16Mo
_chemical_formula_sum   'Sc8 Ti8 Cr3 Si16 Mo1'
_cell_volume   569.25972051
_cell_formula_units_Z   1
loop_
 _symmetry_equiv_pos_site_id
 _symmetry_equiv_pos_as_xyz
  1  'x, y, z'
loop_
 _atom_site_type_symbol
 _atom_site_label
 _atom_site_symmetry_multiplicity
 _atom_site_fract_x
 _atom_site_fract_y
 _atom_site_fract_z
 _atom_site_occupancy
  Sc  Sc0  1  0.501738  0.326131  0.094767  1
  Sc  Sc1  1  0.000358  0.174825  0.405107  1
  Sc  Sc2  1  0.499511  0.674762  0.595302  1
  Sc  Sc3  1  0.999474  0.826103  0.904838  1
  Sc  Sc4  1  0.499511  0.674762  0.904698  1
  Sc  Sc5  1  0.999474  0.826103  0.595162  1
  Sc  Sc6  1  0.501738  0.326131  0.405233  1
  Sc  Sc7  1  0.000358  0.174825  0.094893  1
  Ti  Ti8  1  0.832443  0.329191  0.628588  1
  Ti  Ti9  1  0.332583  0.170963  0.871946  1
  Ti  Ti10  1  0.167676  0.671268  0.126735  1
  Ti  Ti11  1  0.667559  0.828809  0.373286  1
  Ti  Ti12  1  0.167676  0.671268  0.373265  1
  Ti  Ti13  1  0.667559  0.828809  0.126714  1
  Ti  Ti14  1  0.832443  0.329191  0.871412  1
  Ti  Ti15  1  0.332583  0.170963  0.628054  1
  Cr  Cr16  1  0.658084  0.012980  0.750000  1
  Cr  Cr17  1  0.157900  0.487247  0.750000  1
  Cr  Cr18  1  0.341431  0.986874  0.250000  1
  Si  Si19  1  0.665080  0.036980  0.542744  1
  Si  Si20  1  0.165392  0.463687  0.956794  1
  Si  Si21  1  0.335074  0.964222  0.041963  1
  Si  Si22  1  0.834732  0.536789  0.460084  1
  Si  Si23  1  0.335074  0.964222  0.458037  1
  Si  Si24  1  0.834732  0.536789  0.039916  1
  Si  Si25  1  0.665080  0.036980  0.957256  1
  Si  Si26  1  0.165392  0.463687  0.543206  1
  Si  Si27  1  0.528829  0.387156  0.750000  1
  Si  Si28  1  0.029317  0.113177  0.750000  1
  Si  Si29  1  0.465155  0.617248  0.250000  1
  Si  Si30  1  0.971992  0.888522  0.250000  1
  Si  Si31  1  0.797786  0.642396  0.750000  1
  Si  Si32  1  0.297294  0.858019  0.750000  1
  Si  Si33  1  0.208587  0.354435  0.250000  1
  Si  Si34  1  0.699670  0.136391  0.250000  1
  Mo  Mo35  1  0.840715  0.508101  0.250000  1
