# generated using pymatgen
data_Co2Ni2Mo7WC2
_symmetry_space_group_name_H-M   'P 1'
_cell_length_a   7.99574140
_cell_length_b   8.00303036
_cell_length_c   8.00474705
_cell_angle_alpha   60.05269816
_cell_angle_beta   60.03720487
_cell_angle_gamma   60.03011183
_symmetry_Int_Tables_number   1
_chemical_formula_structural   Co2Ni2Mo7WC2
_chemical_formula_sum   'Co4 Ni4 Mo14 W2 C4'
_cell_volume   362.52621464
_cell_formula_units_Z   2
loop_
 _symmetry_equiv_pos_site_id
 _symmetry_equiv_pos_as_xyz
  1  'x, y, z'
loop_
 _atom_site_type_symbol
 _atom_site_label
 _atom_site_symmetry_multiplicity
 _atom_site_fract_x
 _atom_site_fract_y
 _atom_site_fract_z
 _atom_site_occupancy
  Co  Co0  1  0.240311  0.919921  0.920416  1
  Co  Co1  1  0.919351  0.919921  0.920416  1
  Co  Co2  1  0.919873  0.920378  0.239874  1
  Co  Co3  1  0.331095  0.007925  0.329887  1
  Ni  Ni4  1  0.916618  0.250213  0.916551  1
  Ni  Ni5  1  0.332616  0.333313  0.001457  1
  Ni  Ni6  1  0.001416  0.333267  0.332689  1
  Ni  Ni7  1  0.332629  0.333267  0.332689  1
  Mo  Mo8  1  0.625940  0.119206  0.127393  1
  Mo  Mo9  1  0.127460  0.119206  0.127393  1
  Mo  Mo10  1  0.935138  0.935532  0.564668  1
  Mo  Mo11  1  0.689697  0.310314  0.310293  1
  Mo  Mo12  1  0.313450  0.688966  0.684133  1
  Mo  Mo13  1  0.683723  0.688580  0.313878  1
  Mo  Mo14  1  0.689352  0.310594  0.689595  1
  Mo  Mo15  1  0.313817  0.688580  0.313878  1
  Mo  Mo16  1  0.564662  0.935532  0.564668  1
  Mo  Mo17  1  0.565195  0.935015  0.934594  1
  Mo  Mo18  1  0.938349  0.564803  0.558498  1
  Mo  Mo19  1  0.938391  0.564777  0.938363  1
  Mo  Mo20  1  0.310460  0.310594  0.689595  1
  Mo  Mo21  1  0.558468  0.564777  0.938363  1
  W  W22  1  0.124198  0.627463  0.124143  1
  W  W23  1  0.127082  0.119961  0.625876  1
  C  C24  1  0.624100  0.127942  0.623858  1
  C  C25  1  0.625622  0.623142  0.125614  1
  C  C26  1  0.125526  0.623406  0.625608  1
  C  C27  1  0.625461  0.623406  0.625608  1
