# generated using pymatgen
data_Ho3Er7Ir4
_symmetry_space_group_name_H-M   'P 1'
_cell_length_a   6.46299926
_cell_length_b   7.17755071
_cell_length_c   8.42670101
_cell_angle_alpha   96.51045755
_cell_angle_beta   112.53094209
_cell_angle_gamma   89.98345469
_symmetry_Int_Tables_number   1
_chemical_formula_structural   Ho3Er7Ir4
_chemical_formula_sum   'Ho3 Er7 Ir4'
_cell_volume   358.34021393
_cell_formula_units_Z   1
loop_
 _symmetry_equiv_pos_site_id
 _symmetry_equiv_pos_as_xyz
  1  'x, y, z'
loop_
 _atom_site_type_symbol
 _atom_site_label
 _atom_site_symmetry_multiplicity
 _atom_site_fract_x
 _atom_site_fract_y
 _atom_site_fract_z
 _atom_site_occupancy
  Ho  Ho0  1  0.970454  0.918597  0.182131  1
  Ho  Ho1  1  0.788512  0.581466  0.818066  1
  Ho  Ho2  1  0.029751  0.081481  0.818068  1
  Er  Er3  1  0.211619  0.418502  0.181974  1
  Er  Er4  1  0.653797  0.818008  0.442014  1
  Er  Er5  1  0.211815  0.681757  0.557647  1
  Er  Er6  1  0.346015  0.182024  0.557761  1
  Er  Er7  1  0.787897  0.318129  0.442046  1
  Er  Er8  1  0.427262  0.749948  0.000094  1
  Er  Er9  1  0.572554  0.249988  0.000112  1
  Ir  Ir10  1  0.826579  0.572769  0.219175  1
  Ir  Ir11  1  0.606698  0.926945  0.780891  1
  Ir  Ir12  1  0.173985  0.426934  0.780964  1
  Ir  Ir13  1  0.393061  0.073452  0.219059  1
