# generated using pymatgen
data_Cd3P7PbN12
_symmetry_space_group_name_H-M   'P 1'
_cell_length_a   7.46896619
_cell_length_b   7.47388449
_cell_length_c   7.47388520
_cell_angle_alpha   109.48454057
_cell_angle_beta   109.45789366
_cell_angle_gamma   109.45789481
_symmetry_Int_Tables_number   1
_chemical_formula_structural   Cd3P7PbN12
_chemical_formula_sum   'Cd3 P7 Pb1 N12'
_cell_volume   321.22018233
_cell_formula_units_Z   1
loop_
 _symmetry_equiv_pos_site_id
 _symmetry_equiv_pos_as_xyz
  1  'x, y, z'
loop_
 _atom_site_type_symbol
 _atom_site_label
 _atom_site_symmetry_multiplicity
 _atom_site_fract_x
 _atom_site_fract_y
 _atom_site_fract_z
 _atom_site_occupancy
  Cd  Cd0  1  0.994021  0.000000  0.657749  1
  Cd  Cd1  1  0.994021  0.657749  0.000000  1
  Cd  Cd2  1  0.336271  0.342251  0.342251  1
  P  P3  1  0.245444  0.749148  0.497820  1
  P  P4  1  0.747624  0.251328  0.502180  1
  P  P5  1  0.747624  0.502180  0.251328  1
  P  P6  1  0.245444  0.497820  0.749148  1
  P  P7  1  0.496296  0.748672  0.250852  1
  P  P8  1  0.496296  0.250852  0.748672  1
  P  P9  1  0.045344  0.000000  0.000000  1
  Pb  Pb10  1  0.677028  0.000000  0.000000  1
  N  N11  1  0.709178  0.292613  0.292613  1
  N  N12  1  0.284723  0.706240  0.287515  1
  N  N13  1  0.293695  0.584817  0.584817  1
  N  N14  1  0.578483  0.581275  0.293760  1
  N  N15  1  0.416565  0.707387  0.000000  1
  N  N16  1  0.997208  0.712485  0.418725  1
  N  N17  1  0.578483  0.293760  0.581275  1
  N  N18  1  0.708878  0.000000  0.415183  1
  N  N19  1  0.416565  0.000000  0.707387  1
  N  N20  1  0.708878  0.415183  0.000000  1
  N  N21  1  0.284723  0.287515  0.706240  1
  N  N22  1  0.997208  0.418725  0.712485  1
