# generated using pymatgen
data_RbSm9Y(C2Br9)2
_symmetry_space_group_name_H-M   'P 1'
_cell_length_a   10.88881858
_cell_length_b   10.96026323
_cell_length_c   11.11726217
_cell_angle_alpha   113.31322295
_cell_angle_beta   87.74653390
_cell_angle_gamma   118.75585918
_symmetry_Int_Tables_number   1
_chemical_formula_structural   RbSm9Y(C2Br9)2
_chemical_formula_sum   'Rb1 Sm9 Y1 C4 Br18'
_cell_volume   1049.22032300
_cell_formula_units_Z   1
loop_
 _symmetry_equiv_pos_site_id
 _symmetry_equiv_pos_as_xyz
  1  'x, y, z'
loop_
 _atom_site_type_symbol
 _atom_site_label
 _atom_site_symmetry_multiplicity
 _atom_site_fract_x
 _atom_site_fract_y
 _atom_site_fract_z
 _atom_site_occupancy
  Rb  Rb0  1  0.500016  0.000515  0.498976  1
  Sm  Sm1  1  0.657945  0.715608  0.700117  1
  Sm  Sm2  1  0.281671  0.366976  0.013660  1
  Sm  Sm3  1  0.092670  0.410395  0.303549  1
  Sm  Sm4  1  0.960721  0.037369  0.333343  1
  Sm  Sm5  1  0.906315  0.589800  0.696291  1
  Sm  Sm6  1  0.114712  0.941149  0.000910  1
  Sm  Sm7  1  0.038152  0.963063  0.666533  1
  Sm  Sm8  1  0.341317  0.284963  0.300315  1
  Sm  Sm9  1  0.717482  0.633663  0.986524  1
  Y  Y10  1  0.889468  0.057233  0.998877  1
  C  C11  1  0.155339  0.228137  0.125071  1
  C  C12  1  0.843486  0.772736  0.875099  1
  C  C13  1  0.919761  0.850390  0.796986  1
  C  C14  1  0.078913  0.150390  0.203072  1
  Br  Br15  1  0.450118  0.529621  0.830980  1
  Br  Br16  1  0.385115  0.038138  0.161606  1
  Br  Br17  1  0.773177  0.857944  0.502169  1
  Br  Br18  1  0.837075  0.305806  0.149943  1
  Br  Br19  1  0.548883  0.469875  0.168525  1
  Br  Br20  1  0.225428  0.142172  0.497626  1
  Br  Br21  1  0.313926  0.099278  0.831010  1
  Br  Br22  1  0.686614  0.902158  0.167287  1
  Br  Br23  1  0.977427  0.762005  0.171596  1
  Br  Br24  1  0.931070  0.301652  0.500801  1
  Br  Br25  1  0.020218  0.236754  0.830240  1
  Br  Br26  1  0.067841  0.698540  0.498965  1
  Br  Br27  1  0.264532  0.629422  0.193638  1
  Br  Br28  1  0.735285  0.371533  0.807137  1
  Br  Br29  1  0.636821  0.429789  0.497275  1
  Br  Br30  1  0.162921  0.685912  0.844170  1
  Br  Br31  1  0.622544  0.966120  0.844746  1
  Br  Br32  1  0.363035  0.570893  0.502961  1
