# generated using pymatgen
data_Sc4ReTc3Os4
_symmetry_space_group_name_H-M   'P 1'
_cell_length_a   5.27717272
_cell_length_b   5.16638231
_cell_length_c   8.70836200
_cell_angle_alpha   90.00000000
_cell_angle_beta   90.00000000
_cell_angle_gamma   120.77180041
_symmetry_Int_Tables_number   1
_chemical_formula_structural   Sc4ReTc3Os4
_chemical_formula_sum   'Sc4 Re1 Tc3 Os4'
_cell_volume   203.99736603
_cell_formula_units_Z   1
loop_
 _symmetry_equiv_pos_site_id
 _symmetry_equiv_pos_as_xyz
  1  'x, y, z'
loop_
 _atom_site_type_symbol
 _atom_site_label
 _atom_site_symmetry_multiplicity
 _atom_site_fract_x
 _atom_site_fract_y
 _atom_site_fract_z
 _atom_site_occupancy
  Sc  Sc0  1  0.332458  0.664070  0.434908  1
  Sc  Sc1  1  0.669765  0.338942  0.565351  1
  Sc  Sc2  1  0.669765  0.338942  0.934649  1
  Sc  Sc3  1  0.332458  0.664070  0.065092  1
  Re  Re4  1  0.167331  0.338530  0.750000  1
  Tc  Tc5  1  0.171096  0.825886  0.750000  1
  Tc  Tc6  1  0.344059  0.171277  0.250000  1
  Tc  Tc7  1  0.823317  0.651929  0.250000  1
  Os  Os8  1  0.651034  0.824803  0.750000  1
  Os  Os9  1  0.006817  0.006212  0.000882  1
  Os  Os10  1  0.825083  0.169129  0.250000  1
  Os  Os11  1  0.006817  0.006212  0.499118  1
