# generated using pymatgen
data_LiTh2GeP
_symmetry_space_group_name_H-M   'P 1'
_cell_length_a   4.18450100
_cell_length_b   4.18450024
_cell_length_c   14.65467000
_cell_angle_alpha   90.00000000
_cell_angle_beta   90.00000000
_cell_angle_gamma   120.00001393
_symmetry_Int_Tables_number   1
_chemical_formula_structural   LiTh2GeP
_chemical_formula_sum   'Li2 Th4 Ge2 P2'
_cell_volume   222.22549739
_cell_formula_units_Z   2
loop_
 _symmetry_equiv_pos_site_id
 _symmetry_equiv_pos_as_xyz
  1  'x, y, z'
loop_
 _atom_site_type_symbol
 _atom_site_label
 _atom_site_symmetry_multiplicity
 _atom_site_fract_x
 _atom_site_fract_y
 _atom_site_fract_z
 _atom_site_occupancy
  Li  Li0  1  0.000000  0.000000  0.250000  1
  Li  Li1  1  0.000000  0.000000  0.750000  1
  Th  Th2  1  0.333333  0.666667  0.391756  1
  Th  Th3  1  0.666667  0.333333  0.608244  1
  Th  Th4  1  0.666667  0.333333  0.891756  1
  Th  Th5  1  0.333333  0.666667  0.108244  1
  Ge  Ge6  1  0.333333  0.666667  0.750000  1
  Ge  Ge7  1  0.666667  0.333333  0.250000  1
  P  P8  1  0.000000  0.000000  0.500000  1
  P  P9  1  0.000000  0.000000  0.000000  1
