# generated using pymatgen
data_SmSn6(RuRh)2
_symmetry_space_group_name_H-M   'P 1'
_cell_length_a   6.92756358
_cell_length_b   6.92756366
_cell_length_c   6.99388821
_cell_angle_alpha   119.94078215
_cell_angle_beta   119.94078167
_cell_angle_gamma   89.55503541
_symmetry_Int_Tables_number   1
_chemical_formula_structural   SmSn6(RuRh)2
_chemical_formula_sum   'Sm1 Sn6 Ru2 Rh2'
_cell_volume   238.66149770
_cell_formula_units_Z   1
loop_
 _symmetry_equiv_pos_site_id
 _symmetry_equiv_pos_as_xyz
  1  'x, y, z'
loop_
 _atom_site_type_symbol
 _atom_site_label
 _atom_site_symmetry_multiplicity
 _atom_site_fract_x
 _atom_site_fract_y
 _atom_site_fract_z
 _atom_site_occupancy
  Sm  Sm0  1  0.000392  0.000392  0.000000  1
  Sn  Sn1  1  0.994854  0.494854  0.500000  1
  Sn  Sn2  1  0.467710  0.467710  0.342901  1
  Sn  Sn3  1  0.530876  0.877629  0.000000  1
  Sn  Sn4  1  0.877629  0.530876  0.000000  1
  Sn  Sn5  1  0.124809  0.124809  0.657099  1
  Sn  Sn6  1  0.494854  0.994854  0.500000  1
  Ru  Ru7  1  0.251642  0.597577  0.000000  1
  Ru  Ru8  1  0.597577  0.251642  0.000000  1
  Rh  Rh9  1  0.397858  0.397858  0.636058  1
  Rh  Rh10  1  0.761800  0.761800  0.363942  1
