# generated using pymatgen
data_Y5Er5(Bi3C)2
_symmetry_space_group_name_H-M   'P 1'
_cell_length_a   9.13467301
_cell_length_b   9.13447601
_cell_length_c   6.47976800
_cell_angle_alpha   89.99955201
_cell_angle_beta   90.00029426
_cell_angle_gamma   119.99053145
_symmetry_Int_Tables_number   1
_chemical_formula_structural   Y5Er5(Bi3C)2
_chemical_formula_sum   'Y5 Er5 Bi6 C2'
_cell_volume   468.28275256
_cell_formula_units_Z   1
loop_
 _symmetry_equiv_pos_site_id
 _symmetry_equiv_pos_as_xyz
  1  'x, y, z'
loop_
 _atom_site_type_symbol
 _atom_site_label
 _atom_site_symmetry_multiplicity
 _atom_site_fract_x
 _atom_site_fract_y
 _atom_site_fract_z
 _atom_site_occupancy
  Y  Y0  1  0.666521  0.333330  0.500131  1
  Y  Y1  1  0.333474  0.666711  0.500113  1
  Y  Y2  1  0.333477  0.666720  0.999892  1
  Y  Y3  1  0.666520  0.333339  0.999900  1
  Y  Y4  1  0.000072  0.789644  0.749992  1
  Er  Er5  1  0.794377  0.795106  0.250001  1
  Er  Er6  1  0.205547  0.000656  0.249998  1
  Er  Er7  1  0.999932  0.205751  0.249995  1
  Er  Er8  1  0.205294  0.205117  0.749993  1
  Er  Er9  1  0.794775  0.999901  0.749984  1
  Bi  Bi10  1  0.400789  0.400725  0.249996  1
  Bi  Bi11  1  0.599067  0.999928  0.250005  1
  Bi  Bi12  1  0.000001  0.599756  0.249996  1
  Bi  Bi13  1  0.598609  0.599431  0.749997  1
  Bi  Bi14  1  0.401535  0.000809  0.750003  1
  Bi  Bi15  1  0.000004  0.399956  0.750006  1
  C  C16  1  0.000003  0.001558  0.498898  1
  C  C17  1  0.000003  0.001561  0.001099  1
