# generated using pymatgen
data_Nd3PaZn2Rh3
_symmetry_space_group_name_H-M   'P 1'
_cell_length_a   7.51085900
_cell_length_b   7.59256521
_cell_length_c   4.05540000
_cell_angle_alpha   90.00000000
_cell_angle_beta   90.00000000
_cell_angle_gamma   119.64465587
_symmetry_Int_Tables_number   1
_chemical_formula_structural   Nd3PaZn2Rh3
_chemical_formula_sum   'Nd3 Pa1 Zn2 Rh3'
_cell_volume   200.99554377
_cell_formula_units_Z   1
loop_
 _symmetry_equiv_pos_site_id
 _symmetry_equiv_pos_as_xyz
  1  'x, y, z'
loop_
 _atom_site_type_symbol
 _atom_site_label
 _atom_site_symmetry_multiplicity
 _atom_site_fract_x
 _atom_site_fract_y
 _atom_site_fract_z
 _atom_site_occupancy
  Nd  Nd0  1  0.632540  0.000000  0.500000  1
  Nd  Nd1  1  0.416271  0.452566  0.500000  1
  Nd  Nd2  1  0.963707  0.547434  0.500000  1
  Pa  Pa3  1  0.255207  0.000000  0.000000  1
  Zn  Zn4  1  0.761581  0.750412  0.000000  1
  Zn  Zn5  1  0.011169  0.249588  0.000000  1
  Rh  Rh6  1  0.018841  0.000000  0.500000  1
  Rh  Rh7  1  0.317122  0.693559  0.000000  1
  Rh  Rh8  1  0.623563  0.306441  0.000000  1
