# generated using pymatgen
data_Pa3Ga4Se
_symmetry_space_group_name_H-M   'P 1'
_cell_length_a   7.86233882
_cell_length_b   7.86233861
_cell_length_c   7.86233900
_cell_angle_alpha   120.28177881
_cell_angle_beta   120.28178635
_cell_angle_gamma   89.51263171
_symmetry_Int_Tables_number   1
_chemical_formula_structural   Pa3Ga4Se
_chemical_formula_sum   'Pa6 Ga8 Se2'
_cell_volume   342.19176095
_cell_formula_units_Z   2
loop_
 _symmetry_equiv_pos_site_id
 _symmetry_equiv_pos_as_xyz
  1  'x, y, z'
loop_
 _atom_site_type_symbol
 _atom_site_label
 _atom_site_symmetry_multiplicity
 _atom_site_fract_x
 _atom_site_fract_y
 _atom_site_fract_z
 _atom_site_occupancy
  Pa  Pa0  1  0.657078  0.157078  0.814157  1
  Pa  Pa1  1  0.342922  0.842922  0.185843  1
  Pa  Pa2  1  0.157078  0.342922  0.500000  1
  Pa  Pa3  1  0.842922  0.657078  0.500000  1
  Pa  Pa4  1  0.750000  0.750000  0.000000  1
  Pa  Pa5  1  0.250000  0.250000  0.000000  1
  Ga  Ga6  1  0.332073  0.832073  0.786439  1
  Ga  Ga7  1  0.667927  0.167927  0.213561  1
  Ga  Ga8  1  0.045634  0.545634  0.213561  1
  Ga  Ga9  1  0.832073  0.045634  0.500000  1
  Ga  Ga10  1  0.454366  0.667927  0.500000  1
  Ga  Ga11  1  0.954366  0.454366  0.786439  1
  Ga  Ga12  1  0.167927  0.954366  0.500000  1
  Ga  Ga13  1  0.545634  0.332073  0.500000  1
  Se  Se14  1  0.500000  0.500000  0.000000  1
  Se  Se15  1  0.000000  0.000000  0.000000  1
