# generated using pymatgen
data_Li8TeWO10
_symmetry_space_group_name_H-M   'P 1'
_cell_length_a   5.15419469
_cell_length_b   5.22833147
_cell_length_c   7.82139024
_cell_angle_alpha   107.54822617
_cell_angle_beta   102.00812625
_cell_angle_gamma   101.94009996
_symmetry_Int_Tables_number   1
_chemical_formula_structural   Li8TeWO10
_chemical_formula_sum   'Li8 Te1 W1 O10'
_cell_volume   188.16997958
_cell_formula_units_Z   1
loop_
 _symmetry_equiv_pos_site_id
 _symmetry_equiv_pos_as_xyz
  1  'x, y, z'
loop_
 _atom_site_type_symbol
 _atom_site_label
 _atom_site_symmetry_multiplicity
 _atom_site_fract_x
 _atom_site_fract_y
 _atom_site_fract_z
 _atom_site_occupancy
  Li  Li0  1  0.416928  0.803954  0.312294  1
  Li  Li1  1  0.564167  0.197530  0.687369  1
  Li  Li2  1  0.004101  0.001385  0.499353  1
  Li  Li3  1  0.500837  0.000195  0.000698  1
  Li  Li4  1  0.233631  0.392666  0.894558  1
  Li  Li5  1  0.779955  0.606917  0.113037  1
  Li  Li6  1  0.295235  0.612987  0.602062  1
  Li  Li7  1  0.698608  0.373894  0.385315  1
  Te  Te8  1  0.107617  0.209087  0.209686  1
  W  W9  1  0.887498  0.781678  0.780712  1
  O  O10  1  0.572291  0.608172  0.845095  1
  O  O11  1  0.427691  0.394194  0.154135  1
  O  O12  1  0.052138  0.560872  0.334412  1
  O  O13  1  0.949736  0.438942  0.671494  1
  O  O14  1  0.134232  0.837054  0.047376  1
  O  O15  1  0.869844  0.173051  0.959204  1
  O  O16  1  0.221309  0.989570  0.748995  1
  O  O17  1  0.780284  0.007741  0.250735  1
  O  O18  1  0.338655  0.187573  0.429456  1
  O  O19  1  0.665240  0.822538  0.574014  1
