# generated using pymatgen
data_SrY2(GaPt2)3
_symmetry_space_group_name_H-M   'P 1'
_cell_length_a   5.74665800
_cell_length_b   5.74665816
_cell_length_c   16.06089800
_cell_angle_alpha   90.00000000
_cell_angle_beta   90.00000000
_cell_angle_gamma   119.99999908
_symmetry_Int_Tables_number   1
_chemical_formula_structural   SrY2(GaPt2)3
_chemical_formula_sum   'Sr2 Y4 Ga6 Pt12'
_cell_volume   459.33673114
_cell_formula_units_Z   2
loop_
 _symmetry_equiv_pos_site_id
 _symmetry_equiv_pos_as_xyz
  1  'x, y, z'
loop_
 _atom_site_type_symbol
 _atom_site_label
 _atom_site_symmetry_multiplicity
 _atom_site_fract_x
 _atom_site_fract_y
 _atom_site_fract_z
 _atom_site_occupancy
  Sr  Sr0  1  0.333333  0.666667  0.750000  1
  Sr  Sr1  1  0.666667  0.333333  0.250000  1
  Y  Y2  1  0.333333  0.666667  0.538074  1
  Y  Y3  1  0.666667  0.333333  0.461926  1
  Y  Y4  1  0.666667  0.333333  0.038074  1
  Y  Y5  1  0.333333  0.666667  0.961926  1
  Ga  Ga6  1  0.000000  0.000000  0.250000  1
  Ga  Ga7  1  0.000000  0.000000  0.750000  1
  Ga  Ga8  1  0.333333  0.666667  0.250000  1
  Ga  Ga9  1  0.666667  0.333333  0.750000  1
  Ga  Ga10  1  0.000000  0.000000  0.000000  1
  Ga  Ga11  1  0.000000  0.000000  0.500000  1
  Pt  Pt12  1  0.168940  0.337880  0.123218  1
  Pt  Pt13  1  0.831060  0.662120  0.876782  1
  Pt  Pt14  1  0.662120  0.831060  0.123218  1
  Pt  Pt15  1  0.831060  0.662120  0.623218  1
  Pt  Pt16  1  0.337880  0.168940  0.876782  1
  Pt  Pt17  1  0.168940  0.337880  0.376782  1
  Pt  Pt18  1  0.168940  0.831060  0.123218  1
  Pt  Pt19  1  0.337880  0.168940  0.623218  1
  Pt  Pt20  1  0.831060  0.168940  0.876782  1
  Pt  Pt21  1  0.662120  0.831060  0.376782  1
  Pt  Pt22  1  0.831060  0.168940  0.623218  1
  Pt  Pt23  1  0.168940  0.831060  0.376782  1
