# generated using pymatgen
data_Hf8Fe5Co2Si14Os
_symmetry_space_group_name_H-M   'P 1'
_cell_length_a   9.49021276
_cell_length_b   9.48447718
_cell_length_c   9.49885255
_cell_angle_alpha   94.13755633
_cell_angle_beta   94.14803707
_cell_angle_gamma   148.80216679
_symmetry_Int_Tables_number   1
_chemical_formula_structural   Hf8Fe5Co2Si14Os
_chemical_formula_sum   'Hf8 Fe5 Co2 Si14 Os1'
_cell_volume   426.59755704
_cell_formula_units_Z   1
loop_
 _symmetry_equiv_pos_site_id
 _symmetry_equiv_pos_as_xyz
  1  'x, y, z'
loop_
 _atom_site_type_symbol
 _atom_site_label
 _atom_site_symmetry_multiplicity
 _atom_site_fract_x
 _atom_site_fract_y
 _atom_site_fract_z
 _atom_site_occupancy
  Hf  Hf0  1  0.137363  0.137364  0.274689  1
  Hf  Hf1  1  0.861868  0.861872  0.723782  1
  Hf  Hf2  1  0.136569  0.860563  0.998753  1
  Hf  Hf3  1  0.862183  0.138212  0.998747  1
  Hf  Hf4  1  0.304296  0.499463  0.801984  1
  Hf  Hf5  1  0.697098  0.502107  0.196154  1
  Hf  Hf6  1  0.499031  0.694018  0.196111  1
  Hf  Hf7  1  0.497686  0.302524  0.801944  1
  Fe  Fe8  1  0.395645  0.895617  0.791254  1
  Fe  Fe9  1  0.900077  0.100336  0.502174  1
  Fe  Fe10  1  0.602086  0.401851  0.502175  1
  Fe  Fe11  1  0.600712  0.100726  0.201375  1
  Fe  Fe12  1  0.899267  0.399289  0.798578  1
  Co  Co13  1  0.103955  0.898967  0.501183  1
  Co  Co14  1  0.397224  0.602156  0.501169  1
  Si  Si15  1  0.289448  0.289453  0.579040  1
  Si  Si16  1  0.710395  0.710391  0.420658  1
  Si  Si17  1  0.296855  0.713919  0.992398  1
  Si  Si18  1  0.695512  0.278497  0.992407  1
  Si  Si19  1  0.084760  0.492159  0.592290  1
  Si  Si20  1  0.894817  0.490486  0.415791  1
  Si  Si21  1  0.520987  0.925290  0.415722  1
  Si  Si22  1  0.507443  0.100008  0.592241  1
  Si  Si23  1  0.249126  0.249520  0.999271  1
  Si  Si24  1  0.750141  0.749763  0.999265  1
  Si  Si25  1  0.307311  0.014999  0.303119  1
  Si  Si26  1  0.702655  0.003153  0.699467  1
  Si  Si27  1  0.996886  0.696382  0.699502  1
  Si  Si28  1  0.995788  0.288110  0.303133  1
  Os  Os29  1  0.102811  0.602807  0.205621  1
