# generated using pymatgen
data_Ta8Cu3NiCN
_symmetry_space_group_name_H-M   'P 1'
_cell_length_a   8.26367582
_cell_length_b   8.26363900
_cell_length_c   8.28055600
_cell_angle_alpha   59.93398352
_cell_angle_beta   59.93412009
_cell_angle_gamma   59.90680771
_symmetry_Int_Tables_number   1
_chemical_formula_structural   Ta8Cu3NiCN
_chemical_formula_sum   'Ta16 Cu6 Ni2 C2 N2'
_cell_volume   399.16208647
_cell_formula_units_Z   2
loop_
 _symmetry_equiv_pos_site_id
 _symmetry_equiv_pos_as_xyz
  1  'x, y, z'
loop_
 _atom_site_type_symbol
 _atom_site_label
 _atom_site_symmetry_multiplicity
 _atom_site_fract_x
 _atom_site_fract_y
 _atom_site_fract_z
 _atom_site_occupancy
  Ta  Ta0  1  0.120524  0.630763  0.624355  1
  Ta  Ta1  1  0.630763  0.120524  0.624355  1
  Ta  Ta2  1  0.628357  0.628357  0.122728  1
  Ta  Ta3  1  0.628335  0.628335  0.620541  1
  Ta  Ta4  1  0.817466  0.817467  0.182541  1
  Ta  Ta5  1  0.185692  0.185693  0.814308  1
  Ta  Ta6  1  0.815710  0.182895  0.815587  1
  Ta  Ta7  1  0.182887  0.815715  0.185807  1
  Ta  Ta8  1  0.182894  0.815711  0.815587  1
  Ta  Ta9  1  0.815716  0.182887  0.185807  1
  Ta  Ta10  1  0.435719  0.435719  0.064285  1
  Ta  Ta11  1  0.066377  0.066375  0.433621  1
  Ta  Ta12  1  0.434374  0.065486  0.434642  1
  Ta  Ta13  1  0.065477  0.434378  0.065501  1
  Ta  Ta14  1  0.065486  0.434375  0.434642  1
  Ta  Ta15  1  0.434377  0.065477  0.065501  1
  Cu  Cu16  1  0.749471  0.417448  0.416542  1
  Cu  Cu17  1  0.417450  0.749468  0.416541  1
  Cu  Cu18  1  0.416960  0.416961  0.750351  1
  Cu  Cu19  1  0.416969  0.416970  0.415725  1
  Cu  Cu20  1  0.499659  0.832158  0.834021  1
  Cu  Cu21  1  0.832157  0.499659  0.834022  1
  Ni  Ni22  1  0.828415  0.828414  0.512359  1
  Ni  Ni23  1  0.828485  0.828483  0.830910  1
  C  C24  1  0.125305  0.125305  0.624643  1
  C  C25  1  0.125306  0.125306  0.124748  1
  N  N26  1  0.623867  0.125804  0.125164  1
  N  N27  1  0.125804  0.623867  0.125164  1
