# generated using pymatgen
data_Er15Lu5Sn16
_symmetry_space_group_name_H-M   'P 1'
_cell_length_a   7.98691710
_cell_length_b   8.07082210
_cell_length_c   15.31757816
_cell_angle_alpha   90.01163711
_cell_angle_beta   90.01171042
_cell_angle_gamma   90.01341549
_symmetry_Int_Tables_number   1
_chemical_formula_structural   Er15Lu5Sn16
_chemical_formula_sum   'Er15 Lu5 Sn16'
_cell_volume   987.38613834
_cell_formula_units_Z   1
loop_
 _symmetry_equiv_pos_site_id
 _symmetry_equiv_pos_as_xyz
  1  'x, y, z'
loop_
 _atom_site_type_symbol
 _atom_site_label
 _atom_site_symmetry_multiplicity
 _atom_site_fract_x
 _atom_site_fract_y
 _atom_site_fract_z
 _atom_site_occupancy
  Er  Er0  1  0.877902  0.660580  0.620950  1
  Er  Er1  1  0.622046  0.160528  0.379077  1
  Er  Er2  1  0.122048  0.339483  0.120878  1
  Er  Er3  1  0.622080  0.160634  0.120995  1
  Er  Er4  1  0.122026  0.339426  0.379064  1
  Er  Er5  1  0.377943  0.839413  0.620946  1
  Er  Er6  1  0.878001  0.660509  0.879103  1
  Er  Er7  1  0.533664  0.322721  0.900218  1
  Er  Er8  1  0.033692  0.177162  0.599835  1
  Er  Er9  1  0.466346  0.677190  0.400178  1
  Er  Er10  1  0.966263  0.822729  0.099861  1
  Er  Er11  1  0.466266  0.677245  0.099676  1
  Er  Er12  1  0.966319  0.822809  0.400180  1
  Er  Er13  1  0.533651  0.322811  0.599830  1
  Er  Er14  1  0.033788  0.177111  0.900171  1
  Lu  Lu15  1  0.377844  0.839567  0.879011  1
  Lu  Lu16  1  0.209397  0.504592  0.750120  1
  Lu  Lu17  1  0.709080  0.995524  0.750085  1
  Lu  Lu18  1  0.790759  0.495645  0.249999  1
  Lu  Lu19  1  0.290763  0.004349  0.249984  1
  Sn  Sn20  1  0.282930  0.032701  0.042333  1
  Sn  Sn21  1  0.782795  0.466961  0.457338  1
  Sn  Sn22  1  0.717257  0.966916  0.542659  1
  Sn  Sn23  1  0.217536  0.533659  0.957230  1
  Sn  Sn24  1  0.716635  0.966769  0.957248  1
  Sn  Sn25  1  0.217209  0.533074  0.542677  1
  Sn  Sn26  1  0.282793  0.033055  0.457325  1
  Sn  Sn27  1  0.782817  0.466973  0.042669  1
  Sn  Sn28  1  0.574660  0.622979  0.750137  1
  Sn  Sn29  1  0.075218  0.877229  0.750118  1
  Sn  Sn30  1  0.425113  0.377257  0.249992  1
  Sn  Sn31  1  0.925133  0.122757  0.249987  1
  Sn  Sn32  1  0.342733  0.148691  0.750116  1
  Sn  Sn33  1  0.842740  0.351028  0.749989  1
  Sn  Sn34  1  0.657309  0.851014  0.250005  1
  Sn  Sn35  1  0.157247  0.648909  0.250016  1
