# generated using pymatgen
data_HfZr2Sn(SeO3)8
_symmetry_space_group_name_H-M   'P 1'
_cell_length_a   8.64424282
_cell_length_b   8.64069040
_cell_length_c   8.64171463
_cell_angle_alpha   89.75349572
_cell_angle_beta   90.16506269
_cell_angle_gamma   89.74833718
_symmetry_Int_Tables_number   1
_chemical_formula_structural   HfZr2Sn(SeO3)8
_chemical_formula_sum   'Hf1 Zr2 Sn1 Se8 O24'
_cell_volume   645.45398789
_cell_formula_units_Z   1
loop_
 _symmetry_equiv_pos_site_id
 _symmetry_equiv_pos_as_xyz
  1  'x, y, z'
loop_
 _atom_site_type_symbol
 _atom_site_label
 _atom_site_symmetry_multiplicity
 _atom_site_fract_x
 _atom_site_fract_y
 _atom_site_fract_z
 _atom_site_occupancy
  Hf  Hf0  1  0.000000  0.000000  0.000000  1
  Zr  Zr1  1  0.500000  0.500000  0.000000  1
  Zr  Zr2  1  0.500000  0.000000  0.500000  1
  Sn  Sn3  1  0.000000  0.500000  0.500000  1
  Se  Se4  1  0.823895  0.195732  0.678117  1
  Se  Se5  1  0.176105  0.804268  0.321883  1
  Se  Se6  1  0.696669  0.676641  0.676670  1
  Se  Se7  1  0.175829  0.678244  0.804124  1
  Se  Se8  1  0.314406  0.183646  0.816540  1
  Se  Se9  1  0.824171  0.321756  0.195876  1
  Se  Se10  1  0.685594  0.816354  0.183460  1
  Se  Se11  1  0.303331  0.323359  0.323330  1
  O  O12  1  0.233726  0.453040  0.461053  1
  O  O13  1  0.946299  0.221993  0.075130  1
  O  O14  1  0.038845  0.734375  0.452158  1
  O  O15  1  0.452794  0.272057  0.929071  1
  O  O16  1  0.274548  0.924658  0.445020  1
  O  O17  1  0.575767  0.553958  0.775035  1
  O  O18  1  0.935709  0.061880  0.775975  1
  O  O19  1  0.547206  0.727943  0.070929  1
  O  O20  1  0.572080  0.954045  0.272109  1
  O  O21  1  0.427920  0.045955  0.727891  1
  O  O22  1  0.775640  0.929133  0.045997  1
  O  O23  1  0.272451  0.565400  0.937856  1
  O  O24  1  0.046757  0.540026  0.734365  1
  O  O25  1  0.064291  0.938120  0.224025  1
  O  O26  1  0.224360  0.070867  0.954003  1
  O  O27  1  0.424233  0.446042  0.224965  1
  O  O28  1  0.766274  0.546960  0.538947  1
  O  O29  1  0.953243  0.459974  0.265635  1
  O  O30  1  0.053701  0.778007  0.924870  1
  O  O31  1  0.437661  0.227082  0.435435  1
  O  O32  1  0.562339  0.772918  0.564565  1
  O  O33  1  0.961155  0.265625  0.547842  1
  O  O34  1  0.725452  0.075342  0.554980  1
  O  O35  1  0.727549  0.434600  0.062144  1
