# generated using pymatgen
data_Tb2Nd18Si15Pd
_symmetry_space_group_name_H-M   'P 1'
_cell_length_a   7.83187110
_cell_length_b   7.84643179
_cell_length_c   14.92076700
_cell_angle_alpha   90.30810817
_cell_angle_beta   89.38641148
_cell_angle_gamma   89.98637409
_symmetry_Int_Tables_number   1
_chemical_formula_structural   Tb2Nd18Si15Pd
_chemical_formula_sum   'Tb2 Nd18 Si15 Pd1'
_cell_volume   916.84871535
_cell_formula_units_Z   1
loop_
 _symmetry_equiv_pos_site_id
 _symmetry_equiv_pos_as_xyz
  1  'x, y, z'
loop_
 _atom_site_type_symbol
 _atom_site_label
 _atom_site_symmetry_multiplicity
 _atom_site_fract_x
 _atom_site_fract_y
 _atom_site_fract_z
 _atom_site_occupancy
  Tb  Tb0  1  0.375115  0.482402  0.375145  1
  Tb  Tb1  1  0.859528  0.020605  0.370211  1
  Nd  Nd2  1  0.979946  0.130968  0.127956  1
  Nd  Nd3  1  0.027227  0.871120  0.620822  1
  Nd  Nd4  1  0.629218  0.519072  0.874677  1
  Nd  Nd5  1  0.487395  0.375326  0.624270  1
  Nd  Nd6  1  0.511327  0.627329  0.128386  1
  Nd  Nd7  1  0.127385  0.981048  0.876773  1
  Nd  Nd8  1  0.988169  0.622642  0.054097  1
  Nd  Nd9  1  0.019361  0.362648  0.541796  1
  Nd  Nd10  1  0.624734  0.986093  0.951102  1
  Nd  Nd11  1  0.126541  0.509263  0.800645  1
  Nd  Nd12  1  0.862477  0.479704  0.295212  1
  Nd  Nd13  1  0.505886  0.125235  0.202206  1
  Nd  Nd14  1  0.495423  0.876400  0.696818  1
  Nd  Nd15  1  0.381290  0.023083  0.453207  1
  Nd  Nd16  1  0.703335  0.693405  0.495673  1
  Nd  Nd17  1  0.813083  0.190282  0.747954  1
  Nd  Nd18  1  0.181029  0.804965  0.260081  1
  Nd  Nd19  1  0.304969  0.306111  0.001840  1
  Si  Si20  1  0.921002  0.287263  0.940424  1
  Si  Si21  1  0.717362  0.079180  0.557036  1
  Si  Si22  1  0.212720  0.421768  0.195016  1
  Si  Si23  1  0.794218  0.576005  0.687809  1
  Si  Si24  1  0.425934  0.211449  0.809783  1
  Si  Si25  1  0.570099  0.789696  0.311460  1
  Si  Si26  1  0.284593  0.923528  0.063309  1
  Si  Si27  1  0.834506  0.804282  0.798701  1
  Si  Si28  1  0.160730  0.201846  0.310104  1
  Si  Si29  1  0.796655  0.835108  0.198752  1
  Si  Si30  1  0.314957  0.669063  0.545084  1
  Si  Si31  1  0.692644  0.332348  0.051167  1
  Si  Si32  1  0.667676  0.305542  0.446251  1
  Si  Si33  1  0.328913  0.693364  0.952806  1
  Si  Si34  1  0.201281  0.167230  0.697324  1
  Pd  Pd35  1  0.073272  0.714628  0.436103  1
