# generated using pymatgen
data_Hf5Zr5Sn6Se
_symmetry_space_group_name_H-M   'P 1'
_cell_length_a   5.85333595
_cell_length_b   8.58264677
_cell_length_c   8.58230273
_cell_angle_alpha   120.00013756
_cell_angle_beta   89.95294567
_cell_angle_gamma   90.09345106
_symmetry_Int_Tables_number   1
_chemical_formula_structural   Hf5Zr5Sn6Se
_chemical_formula_sum   'Hf5 Zr5 Sn6 Se1'
_cell_volume   373.38594978
_cell_formula_units_Z   1
loop_
 _symmetry_equiv_pos_site_id
 _symmetry_equiv_pos_as_xyz
  1  'x, y, z'
loop_
 _atom_site_type_symbol
 _atom_site_label
 _atom_site_symmetry_multiplicity
 _atom_site_fract_x
 _atom_site_fract_y
 _atom_site_fract_z
 _atom_site_occupancy
  Hf  Hf0  1  0.500054  0.333257  0.666835  1
  Hf  Hf1  1  0.500062  0.666427  0.333168  1
  Hf  Hf2  1  0.999868  0.666449  0.333248  1
  Hf  Hf3  1  0.999857  0.333215  0.666754  1
  Hf  Hf4  1  0.763626  0.257651  0.000002  1
  Zr  Zr5  1  0.763728  0.742574  0.742663  1
  Zr  Zr6  1  0.763734  0.999921  0.257316  1
  Zr  Zr7  1  0.236626  0.742701  0.999998  1
  Zr  Zr8  1  0.235845  0.257313  0.256905  1
  Zr  Zr9  1  0.235832  0.000401  0.743118  1
  Sn  Sn10  1  0.748317  0.606301  0.999991  1
  Sn  Sn11  1  0.748217  0.392417  0.392019  1
  Sn  Sn12  1  0.748219  0.000401  0.607959  1
  Sn  Sn13  1  0.251498  0.392773  0.000010  1
  Sn  Sn14  1  0.251733  0.607190  0.607220  1
  Sn  Sn15  1  0.251732  0.999971  0.392797  1
  Se  Se16  1  0.501050  0.001043  0.999998  1
