# generated using pymatgen
data_Pr8Ho8LuSc3Si16
_symmetry_space_group_name_H-M   'P 1'
_cell_length_a   7.39939111
_cell_length_b   7.75624611
_cell_length_c   14.72221800
_cell_angle_alpha   90.00000000
_cell_angle_beta   90.00000000
_cell_angle_gamma   89.98039507
_symmetry_Int_Tables_number   1
_chemical_formula_structural   Pr8Ho8LuSc3Si16
_chemical_formula_sum   'Pr8 Ho8 Lu1 Sc3 Si16'
_cell_volume   844.93010318
_cell_formula_units_Z   1
loop_
 _symmetry_equiv_pos_site_id
 _symmetry_equiv_pos_as_xyz
  1  'x, y, z'
loop_
 _atom_site_type_symbol
 _atom_site_label
 _atom_site_symmetry_multiplicity
 _atom_site_fract_x
 _atom_site_fract_y
 _atom_site_fract_z
 _atom_site_occupancy
  Pr  Pr0  1  0.017698  0.178731  0.401029  1
  Pr  Pr1  1  0.517795  0.321223  0.400989  1
  Pr  Pr2  1  0.481279  0.677398  0.901718  1
  Pr  Pr3  1  0.481279  0.677398  0.598282  1
  Pr  Pr4  1  0.983387  0.820481  0.598140  1
  Pr  Pr5  1  0.983387  0.820481  0.901860  1
  Pr  Pr6  1  0.517795  0.321223  0.099011  1
  Pr  Pr7  1  0.017698  0.178731  0.098971  1
  Ho  Ho8  1  0.322509  0.178837  0.624189  1
  Ho  Ho9  1  0.676359  0.822380  0.374998  1
  Ho  Ho10  1  0.176315  0.677645  0.375092  1
  Ho  Ho11  1  0.824283  0.323577  0.875704  1
  Ho  Ho12  1  0.824283  0.323577  0.624296  1
  Ho  Ho13  1  0.322509  0.178837  0.875811  1
  Ho  Ho14  1  0.176315  0.677645  0.124908  1
  Ho  Ho15  1  0.676359  0.822380  0.125002  1
  Lu  Lu16  1  0.655991  0.990228  0.750000  1
  Sc  Sc17  1  0.843973  0.489987  0.250000  1
  Sc  Sc18  1  0.343754  0.010031  0.250000  1
  Sc  Sc19  1  0.156324  0.509711  0.750000  1
  Si  Si20  1  0.277676  0.873974  0.750000  1
  Si  Si21  1  0.475301  0.608236  0.250000  1
  Si  Si22  1  0.027646  0.110817  0.750000  1
  Si  Si23  1  0.524528  0.391254  0.750000  1
  Si  Si24  1  0.147871  0.467651  0.539254  1
  Si  Si25  1  0.975584  0.892114  0.250000  1
  Si  Si26  1  0.719311  0.125214  0.250000  1
  Si  Si27  1  0.851868  0.532411  0.039848  1
  Si  Si28  1  0.351959  0.967613  0.039593  1
  Si  Si29  1  0.147871  0.467651  0.960746  1
  Si  Si30  1  0.648119  0.032420  0.538724  1
  Si  Si31  1  0.351959  0.967613  0.460407  1
  Si  Si32  1  0.851868  0.532411  0.460152  1
  Si  Si33  1  0.781886  0.622847  0.750000  1
  Si  Si34  1  0.219143  0.374854  0.250000  1
  Si  Si35  1  0.648119  0.032420  0.961276  1
