# generated using pymatgen
data_Dy3Ho5(HfIr3)2
_symmetry_space_group_name_H-M   'P 1'
_cell_length_a   10.82152800
_cell_length_b   10.81811800
_cell_length_c   6.24467000
_cell_angle_alpha   90.00000000
_cell_angle_beta   90.00026082
_cell_angle_gamma   90.00000000
_symmetry_Int_Tables_number   1
_chemical_formula_structural   Dy3Ho5(HfIr3)2
_chemical_formula_sum   'Dy6 Ho10 Hf4 Ir12'
_cell_volume   731.05456731
_cell_formula_units_Z   2
loop_
 _symmetry_equiv_pos_site_id
 _symmetry_equiv_pos_as_xyz
  1  'x, y, z'
loop_
 _atom_site_type_symbol
 _atom_site_label
 _atom_site_symmetry_multiplicity
 _atom_site_fract_x
 _atom_site_fract_y
 _atom_site_fract_z
 _atom_site_occupancy
  Dy  Dy0  1  0.289219  0.086158  0.374739  1
  Dy  Dy1  1  0.289219  0.913842  0.874739  1
  Dy  Dy2  1  0.710768  0.086237  0.874723  1
  Dy  Dy3  1  0.710768  0.913763  0.374723  1
  Dy  Dy4  1  0.586105  0.789130  0.874769  1
  Dy  Dy5  1  0.586105  0.210870  0.374769  1
  Ho  Ho6  1  0.413958  0.789264  0.374907  1
  Ho  Ho7  1  0.413958  0.210736  0.874907  1
  Ho  Ho8  1  0.210559  0.414079  0.625095  1
  Ho  Ho9  1  0.210559  0.585921  0.125095  1
  Ho  Ho10  1  0.789500  0.414151  0.124972  1
  Ho  Ho11  1  0.789500  0.585849  0.624972  1
  Ho  Ho12  1  0.914139  0.710478  0.125003  1
  Ho  Ho13  1  0.914139  0.289522  0.625003  1
  Ho  Ho14  1  0.085872  0.710492  0.624959  1
  Ho  Ho15  1  0.085872  0.289508  0.124959  1
  Hf  Hf16  1  0.000023  0.000017  0.500231  1
  Hf  Hf17  1  0.000023  0.999983  0.000231  1
  Hf  Hf18  1  0.499904  0.499872  0.000175  1
  Hf  Hf19  1  0.499904  0.500128  0.500175  1
  Ir  Ir20  1  0.857001  0.143612  0.250115  1
  Ir  Ir21  1  0.857001  0.856388  0.750115  1
  Ir  Ir22  1  0.143199  0.143652  0.750202  1
  Ir  Ir23  1  0.143199  0.856348  0.250202  1
  Ir  Ir24  1  0.643444  0.356893  0.750233  1
  Ir  Ir25  1  0.643444  0.643107  0.250233  1
  Ir  Ir26  1  0.356457  0.356840  0.249812  1
  Ir  Ir27  1  0.356457  0.643160  0.749812  1
  Ir  Ir28  1  0.499839  0.000010  0.122412  1
  Ir  Ir29  1  0.499839  0.999990  0.622412  1
  Ir  Ir30  1  0.000013  0.499994  0.877653  1
  Ir  Ir31  1  0.000013  0.500006  0.377653  1
