# generated using pymatgen
data_Sc8Si16Tc11W
_symmetry_space_group_name_H-M   'P 1'
_cell_length_a   6.67634935
_cell_length_b   6.65934990
_cell_length_c   12.32109797
_cell_angle_alpha   89.69496710
_cell_angle_beta   89.93797649
_cell_angle_gamma   89.96514782
_symmetry_Int_Tables_number   1
_chemical_formula_structural   Sc8Si16Tc11W
_chemical_formula_sum   'Sc8 Si16 Tc11 W1'
_cell_volume   547.78963547
_cell_formula_units_Z   1
loop_
 _symmetry_equiv_pos_site_id
 _symmetry_equiv_pos_as_xyz
  1  'x, y, z'
loop_
 _atom_site_type_symbol
 _atom_site_label
 _atom_site_symmetry_multiplicity
 _atom_site_fract_x
 _atom_site_fract_y
 _atom_site_fract_z
 _atom_site_occupancy
  Sc  Sc0  1  0.000341  0.659650  0.028910  1
  Sc  Sc1  1  0.840746  0.499916  0.280470  1
  Sc  Sc2  1  0.155923  0.497370  0.780959  1
  Sc  Sc3  1  0.498201  0.840943  0.720686  1
  Sc  Sc4  1  0.497568  0.157336  0.218922  1
  Sc  Sc5  1  0.995160  0.338646  0.530396  1
  Sc  Sc6  1  0.656842  0.002907  0.968640  1
  Sc  Sc7  1  0.342072  0.997692  0.469966  1
  Si  Si8  1  0.278512  0.970657  0.064994  1
  Si  Si9  1  0.532356  0.785625  0.315111  1
  Si  Si10  1  0.472113  0.223912  0.814403  1
  Si  Si11  1  0.777693  0.530090  0.685361  1
  Si  Si12  1  0.214361  0.471507  0.183064  1
  Si  Si13  1  0.712139  0.032789  0.569370  1
  Si  Si14  1  0.971928  0.278866  0.936177  1
  Si  Si15  1  0.036976  0.706965  0.434409  1
  Si  Si16  1  0.692604  0.375692  0.065831  1
  Si  Si17  1  0.131263  0.197637  0.316353  1
  Si  Si18  1  0.877571  0.809390  0.814180  1
  Si  Si19  1  0.191669  0.124046  0.684212  1
  Si  Si20  1  0.804220  0.874864  0.182435  1
  Si  Si21  1  0.307630  0.623618  0.565899  1
  Si  Si22  1  0.378012  0.691857  0.933942  1
  Si  Si23  1  0.624667  0.305373  0.434131  1
  Tc  Tc24  1  0.329204  0.328754  0.999276  1
  Tc  Tc25  1  0.169367  0.833350  0.248883  1
  Tc  Tc26  1  0.828873  0.172754  0.750942  1
  Tc  Tc27  1  0.669291  0.669597  0.501191  1
  Tc  Tc28  1  0.974740  0.179878  0.131898  1
  Tc  Tc29  1  0.329335  0.485724  0.375684  1
  Tc  Tc30  1  0.683569  0.526593  0.881557  1
  Tc  Tc31  1  0.472899  0.318878  0.619736  1
  Tc  Tc32  1  0.518849  0.672245  0.123016  1
  Tc  Tc33  1  0.019887  0.828127  0.624336  1
  Tc  Tc34  1  0.180353  0.976039  0.869711  1
  W  W35  1  0.833066  0.010711  0.374949  1
