# generated using pymatgen
data_TmPa3(Ir2Pb)2
_symmetry_space_group_name_H-M   'P 1'
_cell_length_a   7.86065673
_cell_length_b   7.86065667
_cell_length_c   3.56613900
_cell_angle_alpha   90.00000000
_cell_angle_beta   90.00000000
_cell_angle_gamma   91.45691438
_symmetry_Int_Tables_number   1
_chemical_formula_structural   TmPa3(Ir2Pb)2
_chemical_formula_sum   'Tm1 Pa3 Ir4 Pb2'
_cell_volume   220.28022306
_cell_formula_units_Z   1
loop_
 _symmetry_equiv_pos_site_id
 _symmetry_equiv_pos_as_xyz
  1  'x, y, z'
loop_
 _atom_site_type_symbol
 _atom_site_label
 _atom_site_symmetry_multiplicity
 _atom_site_fract_x
 _atom_site_fract_y
 _atom_site_fract_z
 _atom_site_occupancy
  Tm  Tm0  1  0.831698  0.668302  0.500000  1
  Pa  Pa1  1  0.332391  0.829867  0.500000  1
  Pa  Pa2  1  0.670133  0.167609  0.500000  1
  Pa  Pa3  1  0.164791  0.335209  0.500000  1
  Ir  Ir4  1  0.875055  0.357107  0.000000  1
  Ir  Ir5  1  0.615686  0.884314  0.000000  1
  Ir  Ir6  1  0.361563  0.138437  0.000000  1
  Ir  Ir7  1  0.142893  0.624945  0.000000  1
  Pb  Pb8  1  0.510533  0.504744  0.000000  1
  Pb  Pb9  1  0.995256  0.989467  0.000000  1
