# generated using pymatgen
data_Y5In4AgRu
_symmetry_space_group_name_H-M   'P 1'
_cell_length_a   3.59781100
_cell_length_b   8.26877450
_cell_length_c   18.53548302
_cell_angle_alpha   89.88773883
_cell_angle_beta   90.00000000
_cell_angle_gamma   90.00000000
_symmetry_Int_Tables_number   1
_chemical_formula_structural   Y5In4AgRu
_chemical_formula_sum   'Y10 In8 Ag2 Ru2'
_cell_volume   551.42006823
_cell_formula_units_Z   2
loop_
 _symmetry_equiv_pos_site_id
 _symmetry_equiv_pos_as_xyz
  1  'x, y, z'
loop_
 _atom_site_type_symbol
 _atom_site_label
 _atom_site_symmetry_multiplicity
 _atom_site_fract_x
 _atom_site_fract_y
 _atom_site_fract_z
 _atom_site_occupancy
  Y  Y0  1  0.500000  0.216923  0.777390  1
  Y  Y1  1  0.500000  0.783077  0.222610  1
  Y  Y2  1  0.500000  0.237824  0.282450  1
  Y  Y3  1  0.500000  0.762176  0.717550  1
  Y  Y4  1  0.500000  0.118219  0.584930  1
  Y  Y5  1  0.500000  0.881781  0.415070  1
  Y  Y6  1  0.500000  0.374635  0.078525  1
  Y  Y7  1  0.500000  0.625365  0.921475  1
  Y  Y8  1  0.500000  0.000000  0.000000  1
  Y  Y9  1  0.500000  0.500000  0.500000  1
  In  In10  1  0.000000  0.075949  0.149670  1
  In  In11  1  0.000000  0.924051  0.850330  1
  In  In12  1  0.000000  0.421471  0.648989  1
  In  In13  1  0.000000  0.578529  0.351011  1
  In  In14  1  0.000000  0.205678  0.431006  1
  In  In15  1  0.000000  0.794322  0.568994  1
  In  In16  1  0.000000  0.292455  0.931304  1
  In  In17  1  0.000000  0.707545  0.068696  1
  Ag  Ag18  1  0.000000  0.481220  0.199085  1
  Ag  Ag19  1  0.000000  0.518780  0.800915  1
  Ru  Ru20  1  0.000000  0.019730  0.694548  1
  Ru  Ru21  1  0.000000  0.980270  0.305452  1
