# generated using pymatgen
data_Cs2Tb2GaAgTe6
_symmetry_space_group_name_H-M   'P 1'
_cell_length_a   9.00324663
_cell_length_b   9.00324717
_cell_length_c   11.76730100
_cell_angle_alpha   90.00000000
_cell_angle_beta   90.00000000
_cell_angle_gamma   151.03393687
_symmetry_Int_Tables_number   1
_chemical_formula_structural   Cs2Tb2GaAgTe6
_chemical_formula_sum   'Cs2 Tb2 Ga1 Ag1 Te6'
_cell_volume   461.93622354
_cell_formula_units_Z   1
loop_
 _symmetry_equiv_pos_site_id
 _symmetry_equiv_pos_as_xyz
  1  'x, y, z'
loop_
 _atom_site_type_symbol
 _atom_site_label
 _atom_site_symmetry_multiplicity
 _atom_site_fract_x
 _atom_site_fract_y
 _atom_site_fract_z
 _atom_site_occupancy
  Cs  Cs0  1  0.255176  0.744822  0.250000  1
  Cs  Cs1  1  0.752775  0.247223  0.750000  1
  Tb  Tb2  1  0.494828  0.505170  0.021000  1
  Tb  Tb3  1  0.494828  0.505170  0.479000  1
  Ga  Ga4  1  0.035001  0.964997  0.750000  1
  Ag  Ag5  1  0.969029  0.030969  0.250000  1
  Te  Te6  1  0.878706  0.121292  0.048675  1
  Te  Te7  1  0.572713  0.427285  0.250000  1
  Te  Te8  1  0.878706  0.121292  0.451326  1
  Te  Te9  1  0.113047  0.886951  0.561100  1
  Te  Te10  1  0.442132  0.557866  0.750000  1
  Te  Te11  1  0.113047  0.886951  0.938900  1
