# generated using pymatgen
data_Ti6Co16Si6P
_symmetry_space_group_name_H-M   'P 1'
_cell_length_a   7.84522735
_cell_length_b   7.82782234
_cell_length_c   7.82782251
_cell_angle_alpha   60.22939192
_cell_angle_beta   59.92642192
_cell_angle_gamma   59.92642426
_symmetry_Int_Tables_number   1
_chemical_formula_structural   Ti6Co16Si6P
_chemical_formula_sum   'Ti6 Co16 Si6 P1'
_cell_volume   340.12155070
_cell_formula_units_Z   1
loop_
 _symmetry_equiv_pos_site_id
 _symmetry_equiv_pos_as_xyz
  1  'x, y, z'
loop_
 _atom_site_type_symbol
 _atom_site_label
 _atom_site_symmetry_multiplicity
 _atom_site_fract_x
 _atom_site_fract_y
 _atom_site_fract_z
 _atom_site_occupancy
  Ti  Ti0  1  0.200942  0.799058  0.799058  1
  Ti  Ti1  1  0.800734  0.798850  0.201150  1
  Ti  Ti2  1  0.799058  0.200942  0.200942  1
  Ti  Ti3  1  0.199266  0.201150  0.798850  1
  Ti  Ti4  1  0.800734  0.201150  0.798850  1
  Ti  Ti5  1  0.199266  0.798850  0.201150  1
  Co  Co6  1  0.618815  0.618890  0.143480  1
  Co  Co7  1  0.166383  0.500222  0.167010  1
  Co  Co8  1  0.858308  0.379808  0.379808  1
  Co  Co9  1  0.498841  0.836733  0.836733  1
  Co  Co10  1  0.501159  0.163267  0.163267  1
  Co  Co11  1  0.833617  0.832990  0.499778  1
  Co  Co12  1  0.166383  0.167010  0.500222  1
  Co  Co13  1  0.141692  0.620192  0.620192  1
  Co  Co14  1  0.172307  0.163267  0.163267  1
  Co  Co15  1  0.381185  0.381110  0.856520  1
  Co  Co16  1  0.617924  0.620192  0.620192  1
  Co  Co17  1  0.381185  0.856520  0.381110  1
  Co  Co18  1  0.382076  0.379808  0.379808  1
  Co  Co19  1  0.827693  0.836733  0.836733  1
  Co  Co20  1  0.618815  0.143480  0.618890  1
  Co  Co21  1  0.833617  0.499778  0.832990  1
  Si  Si22  1  0.500000  0.000000  0.500000  1
  Si  Si23  1  0.500000  0.500000  0.000000  1
  Si  Si24  1  0.500000  0.500000  0.500000  1
  Si  Si25  1  0.000000  0.000000  0.500000  1
  Si  Si26  1  0.000000  0.500000  0.000000  1
  Si  Si27  1  0.000000  0.500000  0.500000  1
  P  P28  1  0.500000  0.000000  0.000000  1
