# generated using pymatgen
data_CaEr3(B6Os)2
_symmetry_space_group_name_H-M   'P 1'
_cell_length_a   3.63200400
_cell_length_b   9.13404576
_cell_length_c   11.53012063
_cell_angle_alpha   89.81636368
_cell_angle_beta   90.00000000
_cell_angle_gamma   90.00000000
_symmetry_Int_Tables_number   1
_chemical_formula_structural   CaEr3(B6Os)2
_chemical_formula_sum   'Ca2 Er6 B24 Os4'
_cell_volume   382.50852731
_cell_formula_units_Z   2
loop_
 _symmetry_equiv_pos_site_id
 _symmetry_equiv_pos_as_xyz
  1  'x, y, z'
loop_
 _atom_site_type_symbol
 _atom_site_label
 _atom_site_symmetry_multiplicity
 _atom_site_fract_x
 _atom_site_fract_y
 _atom_site_fract_z
 _atom_site_occupancy
  Ca  Ca0  1  0.000000  0.323610  0.414666  1
  Ca  Ca1  1  0.000000  0.676390  0.585334  1
  Er  Er2  1  0.000000  0.821973  0.086210  1
  Er  Er3  1  0.000000  0.178027  0.913790  1
  Er  Er4  1  0.000000  0.942416  0.369907  1
  Er  Er5  1  0.000000  0.057584  0.630093  1
  Er  Er6  1  0.000000  0.442952  0.129719  1
  Er  Er7  1  0.000000  0.557048  0.870281  1
  B  B8  1  0.500000  0.554261  0.431911  1
  B  B9  1  0.500000  0.445739  0.568089  1
  B  B10  1  0.500000  0.053479  0.066169  1
  B  B11  1  0.500000  0.946521  0.933831  1
  B  B12  1  0.500000  0.748769  0.417021  1
  B  B13  1  0.500000  0.251231  0.582979  1
  B  B14  1  0.500000  0.248389  0.080577  1
  B  B15  1  0.500000  0.751611  0.919423  1
  B  B16  1  0.500000  0.791824  0.263849  1
  B  B17  1  0.500000  0.208176  0.736150  1
  B  B18  1  0.500000  0.290192  0.233281  1
  B  B19  1  0.500000  0.709808  0.766720  1
  B  B20  1  0.500000  0.631660  0.184449  1
  B  B21  1  0.500000  0.368340  0.815551  1
  B  B22  1  0.500000  0.130218  0.313207  1
  B  B23  1  0.500000  0.869782  0.686793  1
  B  B24  1  0.500000  0.982606  0.211101  1
  B  B25  1  0.500000  0.017394  0.788899  1
  B  B26  1  0.500000  0.484143  0.287102  1
  B  B27  1  0.500000  0.515857  0.712898  1
  B  B28  1  0.500000  0.603718  0.028494  1
  B  B29  1  0.500000  0.396282  0.971506  1
  B  B30  1  0.500000  0.098482  0.472763  1
  B  B31  1  0.500000  0.901518  0.527237  1
  Os  Os32  1  0.000000  0.640611  0.317789  1
  Os  Os33  1  0.000000  0.359389  0.682211  1
  Os  Os34  1  0.000000  0.136400  0.177041  1
  Os  Os35  1  0.000000  0.863600  0.822959  1
