# generated using pymatgen
data_ErTm9(CoSb2)2
_symmetry_space_group_name_H-M   'P 1'
_cell_length_a   7.76443000
_cell_length_b   8.70308600
_cell_length_c   12.03826900
_cell_angle_alpha   90.00000000
_cell_angle_beta   90.00000000
_cell_angle_gamma   90.00000000
_symmetry_Int_Tables_number   1
_chemical_formula_structural   ErTm9(CoSb2)2
_chemical_formula_sum   'Er2 Tm18 Co4 Sb8'
_cell_volume   813.48003299
_cell_formula_units_Z   2
loop_
 _symmetry_equiv_pos_site_id
 _symmetry_equiv_pos_as_xyz
  1  'x, y, z'
loop_
 _atom_site_type_symbol
 _atom_site_label
 _atom_site_symmetry_multiplicity
 _atom_site_fract_x
 _atom_site_fract_y
 _atom_site_fract_z
 _atom_site_occupancy
  Er  Er0  1  0.377623  0.250000  0.692125  1
  Er  Er1  1  0.877623  0.750000  0.807875  1
  Tm  Tm2  1  0.156830  0.750000  0.203715  1
  Tm  Tm3  1  0.656830  0.250000  0.296285  1
  Tm  Tm4  1  0.843312  0.250000  0.796342  1
  Tm  Tm5  1  0.343312  0.750000  0.703658  1
  Tm  Tm6  1  0.450386  0.750000  0.998098  1
  Tm  Tm7  1  0.950386  0.250000  0.501902  1
  Tm  Tm8  1  0.549194  0.250000  0.002047  1
  Tm  Tm9  1  0.049194  0.750000  0.497953  1
  Tm  Tm10  1  0.621875  0.750000  0.308427  1
  Tm  Tm11  1  0.121875  0.250000  0.191573  1
  Tm  Tm12  1  0.823788  0.963266  0.065624  1
  Tm  Tm13  1  0.323788  0.036734  0.434376  1
  Tm  Tm14  1  0.176491  0.462403  0.934784  1
  Tm  Tm15  1  0.676491  0.537597  0.565216  1
  Tm  Tm16  1  0.176491  0.037597  0.934784  1
  Tm  Tm17  1  0.676491  0.962403  0.565216  1
  Tm  Tm18  1  0.823788  0.536734  0.065624  1
  Tm  Tm19  1  0.323788  0.463266  0.434376  1
  Co  Co20  1  0.431853  0.750000  0.490538  1
  Co  Co21  1  0.931853  0.250000  0.009462  1
  Co  Co22  1  0.568284  0.250000  0.509140  1
  Co  Co23  1  0.068284  0.750000  0.990860  1
  Sb  Sb24  1  0.930941  0.991643  0.327427  1
  Sb  Sb25  1  0.430941  0.008357  0.172573  1
  Sb  Sb26  1  0.069101  0.491558  0.672394  1
  Sb  Sb27  1  0.569101  0.508442  0.827606  1
  Sb  Sb28  1  0.069101  0.008442  0.672394  1
  Sb  Sb29  1  0.569101  0.991558  0.827606  1
  Sb  Sb30  1  0.930941  0.508357  0.327427  1
  Sb  Sb31  1  0.430941  0.491643  0.172573  1
