# generated using pymatgen
data_ErSi2Ni9
_symmetry_space_group_name_H-M   'P 1'
_cell_length_a   7.54005433
_cell_length_b   7.54005413
_cell_length_c   7.54005418
_cell_angle_alpha   99.60444375
_cell_angle_beta   99.60445030
_cell_angle_gamma   131.78286546
_symmetry_Int_Tables_number   1
_chemical_formula_structural   ErSi2Ni9
_chemical_formula_sum   'Er2 Si4 Ni18'
_cell_volume   291.76687521
_cell_formula_units_Z   2
loop_
 _symmetry_equiv_pos_site_id
 _symmetry_equiv_pos_as_xyz
  1  'x, y, z'
loop_
 _atom_site_type_symbol
 _atom_site_label
 _atom_site_symmetry_multiplicity
 _atom_site_fract_x
 _atom_site_fract_y
 _atom_site_fract_z
 _atom_site_occupancy
  Er  Er0  1  0.500000  0.500000  0.000000  1
  Er  Er1  1  0.750000  0.250000  0.500000  1
  Si  Si2  1  0.625000  0.875000  0.750000  1
  Si  Si3  1  0.125000  0.375000  0.250000  1
  Si  Si4  1  0.125000  0.875000  0.750000  1
  Si  Si5  1  0.125000  0.875000  0.250000  1
  Ni  Ni6  1  0.250000  0.750000  0.500000  1
  Ni  Ni7  1  0.000000  0.000000  0.000000  1
  Ni  Ni8  1  0.686385  0.012617  0.079338  1
  Ni  Ni9  1  0.686385  0.607048  0.673768  1
  Ni  Ni10  1  0.262617  0.436385  0.579338  1
  Ni  Ni11  1  0.262617  0.683279  0.826232  1
  Ni  Ni12  1  0.933279  0.012617  0.326232  1
  Ni  Ni13  1  0.933279  0.607048  0.920662  1
  Ni  Ni14  1  0.857048  0.436385  0.173768  1
  Ni  Ni15  1  0.857048  0.683279  0.420662  1
  Ni  Ni16  1  0.563615  0.737383  0.420662  1
  Ni  Ni17  1  0.563615  0.142952  0.826232  1
  Ni  Ni18  1  0.987383  0.313615  0.920662  1
  Ni  Ni19  1  0.987383  0.066721  0.673768  1
  Ni  Ni20  1  0.316721  0.737383  0.173768  1
  Ni  Ni21  1  0.316721  0.142952  0.579338  1
  Ni  Ni22  1  0.392952  0.313615  0.326232  1
  Ni  Ni23  1  0.392952  0.066721  0.079338  1
