# generated using pymatgen
data_Ba2ThAg2S5
_symmetry_space_group_name_H-M   'P 1'
_cell_length_a   4.25825595
_cell_length_b   7.36863526
_cell_length_c   9.41272088
_cell_angle_alpha   99.55422322
_cell_angle_beta   103.07327571
_cell_angle_gamma   106.79478187
_symmetry_Int_Tables_number   1
_chemical_formula_structural   Ba2ThAg2S5
_chemical_formula_sum   'Ba2 Th1 Ag2 S5'
_cell_volume   266.81216701
_cell_formula_units_Z   1
loop_
 _symmetry_equiv_pos_site_id
 _symmetry_equiv_pos_as_xyz
  1  'x, y, z'
loop_
 _atom_site_type_symbol
 _atom_site_label
 _atom_site_symmetry_multiplicity
 _atom_site_fract_x
 _atom_site_fract_y
 _atom_site_fract_z
 _atom_site_occupancy
  Ba  Ba0  1  0.454620  0.623394  0.285846  1
  Ba  Ba1  1  0.545380  0.376606  0.714154  1
  Th  Th2  1  0.000000  0.000000  0.000000  1
  Ag  Ag3  1  0.740916  0.165039  0.316793  1
  Ag  Ag4  1  0.259084  0.834961  0.683207  1
  S  S5  1  0.667432  0.277766  0.057099  1
  S  S6  1  0.126723  0.960088  0.293357  1
  S  S7  1  0.000001  0.500001  0.500000  1
  S  S8  1  0.873277  0.039912  0.706644  1
  S  S9  1  0.332569  0.722236  0.942901  1
