# generated using pymatgen
data_La4MgAu12
_symmetry_space_group_name_H-M   'P 1'
_cell_length_a   8.81036400
_cell_length_b   8.81036440
_cell_length_c   10.52946500
_cell_angle_alpha   90.00000000
_cell_angle_beta   90.00000000
_cell_angle_gamma   108.08741461
_symmetry_Int_Tables_number   1
_chemical_formula_structural   La4MgAu12
_chemical_formula_sum   'La8 Mg2 Au24'
_cell_volume   776.93467735
_cell_formula_units_Z   2
loop_
 _symmetry_equiv_pos_site_id
 _symmetry_equiv_pos_as_xyz
  1  'x, y, z'
loop_
 _atom_site_type_symbol
 _atom_site_label
 _atom_site_symmetry_multiplicity
 _atom_site_fract_x
 _atom_site_fract_y
 _atom_site_fract_z
 _atom_site_occupancy
  La  La0  1  0.703236  0.296764  0.000000  1
  La  La1  1  0.296764  0.703236  0.000000  1
  La  La2  1  0.796764  0.203236  0.500000  1
  La  La3  1  0.203236  0.796764  0.500000  1
  La  La4  1  0.296200  0.296200  0.203022  1
  La  La5  1  0.703800  0.703800  0.796978  1
  La  La6  1  0.203800  0.203800  0.703022  1
  La  La7  1  0.796200  0.796200  0.296978  1
  Mg  Mg8  1  0.000000  0.000000  0.000000  1
  Mg  Mg9  1  0.500000  0.500000  0.500000  1
  Au  Au10  1  0.027552  0.527552  0.250000  1
  Au  Au11  1  0.972448  0.472448  0.750000  1
  Au  Au12  1  0.472448  0.972448  0.750000  1
  Au  Au13  1  0.527552  0.027552  0.250000  1
  Au  Au14  1  0.095455  0.095455  0.406792  1
  Au  Au15  1  0.904545  0.904545  0.593208  1
  Au  Au16  1  0.404545  0.404545  0.906792  1
  Au  Au17  1  0.595455  0.595455  0.093208  1
  Au  Au18  1  0.896154  0.167454  0.205467  1
  Au  Au19  1  0.103846  0.832546  0.794533  1
  Au  Au20  1  0.603846  0.332546  0.705467  1
  Au  Au21  1  0.667454  0.396154  0.294533  1
  Au  Au22  1  0.396154  0.667454  0.294533  1
  Au  Au23  1  0.332546  0.603846  0.705467  1
  Au  Au24  1  0.832546  0.103846  0.794533  1
  Au  Au25  1  0.167454  0.896154  0.205467  1
  Au  Au26  1  0.931044  0.661417  0.024080  1
  Au  Au27  1  0.068956  0.338583  0.975920  1
  Au  Au28  1  0.568956  0.838583  0.524080  1
  Au  Au29  1  0.161417  0.431044  0.475920  1
  Au  Au30  1  0.431044  0.161417  0.475920  1
  Au  Au31  1  0.838583  0.568956  0.524080  1
  Au  Au32  1  0.338583  0.068956  0.975920  1
  Au  Au33  1  0.661417  0.931044  0.024080  1
