# generated using pymatgen
data_Ce4Hg2Ru3Au
_symmetry_space_group_name_H-M   'P 1'
_cell_length_a   7.73519309
_cell_length_b   7.73519271
_cell_length_c   3.71207800
_cell_angle_alpha   90.00000000
_cell_angle_beta   90.00000000
_cell_angle_gamma   89.41863832
_symmetry_Int_Tables_number   1
_chemical_formula_structural   Ce4Hg2Ru3Au
_chemical_formula_sum   'Ce4 Hg2 Ru3 Au1'
_cell_volume   222.09410625
_cell_formula_units_Z   1
loop_
 _symmetry_equiv_pos_site_id
 _symmetry_equiv_pos_as_xyz
  1  'x, y, z'
loop_
 _atom_site_type_symbol
 _atom_site_label
 _atom_site_symmetry_multiplicity
 _atom_site_fract_x
 _atom_site_fract_y
 _atom_site_fract_z
 _atom_site_occupancy
  Ce  Ce0  1  0.328994  0.192889  0.500000  1
  Ce  Ce1  1  0.817516  0.317516  0.500000  1
  Ce  Ce2  1  0.146727  0.646727  0.500000  1
  Ce  Ce3  1  0.692889  0.828994  0.500000  1
  Hg  Hg4  1  0.002610  0.001061  0.000000  1
  Hg  Hg5  1  0.501061  0.502610  0.000000  1
  Ru  Ru6  1  0.638383  0.138383  0.000000  1
  Ru  Ru7  1  0.139538  0.360776  0.000000  1
  Ru  Ru8  1  0.860776  0.639538  0.000000  1
  Au  Au9  1  0.371506  0.871506  0.000000  1
