# generated using pymatgen
data_La5Yb3(ErRu2)2
_symmetry_space_group_name_H-M   'P 1'
_cell_length_a   6.58648380
_cell_length_b   7.29597398
_cell_length_c   8.90308692
_cell_angle_alpha   95.68579314
_cell_angle_beta   111.91540430
_cell_angle_gamma   90.47458963
_symmetry_Int_Tables_number   1
_chemical_formula_structural   La5Yb3(ErRu2)2
_chemical_formula_sum   'La5 Yb3 Er2 Ru4'
_cell_volume   394.49125888
_cell_formula_units_Z   1
loop_
 _symmetry_equiv_pos_site_id
 _symmetry_equiv_pos_as_xyz
  1  'x, y, z'
loop_
 _atom_site_type_symbol
 _atom_site_label
 _atom_site_symmetry_multiplicity
 _atom_site_fract_x
 _atom_site_fract_y
 _atom_site_fract_z
 _atom_site_occupancy
  La  La0  1  0.796196  0.591056  0.815432  1
  La  La1  1  0.979274  0.907479  0.190016  1
  La  La2  1  0.211893  0.405225  0.186967  1
  La  La3  1  0.018599  0.090563  0.816631  1
  La  La4  1  0.209802  0.681616  0.580914  1
  Yb  Yb5  1  0.627564  0.814936  0.424703  1
  Yb  Yb6  1  0.791624  0.313662  0.422439  1
  Yb  Yb7  1  0.371955  0.183275  0.575428  1
  Er  Er8  1  0.432715  0.750795  0.004752  1
  Er  Er9  1  0.570244  0.250964  0.998432  1
  Ru  Ru10  1  0.609577  0.909153  0.787846  1
  Ru  Ru11  1  0.830306  0.587890  0.208394  1
  Ru  Ru12  1  0.373639  0.087430  0.199403  1
  Ru  Ru13  1  0.176613  0.425956  0.788643  1
