# generated using pymatgen
data_Y8Er8InAg3Rh4
_symmetry_space_group_name_H-M   'P 1'
_cell_length_a   9.55950719
_cell_length_b   9.52265109
_cell_length_c   9.54132031
_cell_angle_alpha   60.24828883
_cell_angle_beta   60.07138147
_cell_angle_gamma   60.18508701
_symmetry_Int_Tables_number   1
_chemical_formula_structural   Y8Er8InAg3Rh4
_chemical_formula_sum   'Y8 Er8 In1 Ag3 Rh4'
_cell_volume   616.50490049
_cell_formula_units_Z   1
loop_
 _symmetry_equiv_pos_site_id
 _symmetry_equiv_pos_as_xyz
  1  'x, y, z'
loop_
 _atom_site_type_symbol
 _atom_site_label
 _atom_site_symmetry_multiplicity
 _atom_site_fract_x
 _atom_site_fract_y
 _atom_site_fract_z
 _atom_site_occupancy
  Y  Y0  1  0.189362  0.190457  0.809662  1
  Y  Y1  1  0.437294  0.062470  0.062995  1
  Y  Y2  1  0.435129  0.061549  0.434044  1
  Y  Y3  1  0.062797  0.437317  0.063439  1
  Y  Y4  1  0.648187  0.054144  0.647674  1
  Y  Y5  1  0.189524  0.811271  0.812704  1
  Y  Y6  1  0.063112  0.063162  0.436278  1
  Y  Y7  1  0.809681  0.190043  0.189027  1
  Er  Er8  1  0.812393  0.811499  0.189472  1
  Er  Er9  1  0.648317  0.648483  0.052776  1
  Er  Er10  1  0.649114  0.648703  0.648467  1
  Er  Er11  1  0.059454  0.437451  0.435275  1
  Er  Er12  1  0.051905  0.648899  0.648279  1
  Er  Er13  1  0.811698  0.189708  0.812303  1
  Er  Er14  1  0.435683  0.436773  0.059741  1
  Er  Er15  1  0.190298  0.808817  0.190368  1
  In  In16  1  0.420749  0.421902  0.420840  1
  Ag  Ag17  1  0.418245  0.746484  0.418063  1
  Ag  Ag18  1  0.418135  0.418937  0.747736  1
  Ag  Ag19  1  0.747918  0.419031  0.418028  1
  Rh  Rh20  1  0.854372  0.432518  0.853959  1
  Rh  Rh21  1  0.859952  0.851357  0.428773  1
  Rh  Rh22  1  0.430659  0.852366  0.860302  1
  Rh  Rh23  1  0.856024  0.856658  0.859795  1
