# generated using pymatgen
data_ErTm2Sn3GeRh2
_symmetry_space_group_name_H-M   'P 1'
_cell_length_a   7.36740244
_cell_length_b   7.36569150
_cell_length_c   4.12995300
_cell_angle_alpha   90.00000000
_cell_angle_beta   90.00000000
_cell_angle_gamma   119.96820217
_symmetry_Int_Tables_number   1
_chemical_formula_structural   ErTm2Sn3GeRh2
_chemical_formula_sum   'Er1 Tm2 Sn3 Ge1 Rh2'
_cell_volume   194.15238289
_cell_formula_units_Z   1
loop_
 _symmetry_equiv_pos_site_id
 _symmetry_equiv_pos_as_xyz
  1  'x, y, z'
loop_
 _atom_site_type_symbol
 _atom_site_label
 _atom_site_symmetry_multiplicity
 _atom_site_fract_x
 _atom_site_fract_y
 _atom_site_fract_z
 _atom_site_occupancy
  Er  Er0  1  0.012738  0.412696  0.000000  1
  Tm  Tm1  1  0.587306  0.600344  0.000000  1
  Tm  Tm2  1  0.399721  0.987034  0.000000  1
  Sn  Sn3  1  0.247148  0.259435  0.500000  1
  Sn  Sn4  1  0.012546  0.753194  0.500000  1
  Sn  Sn5  1  0.740404  0.987394  0.500000  1
  Ge  Ge6  1  0.666386  0.333246  0.500000  1
  Rh  Rh7  1  0.333739  0.666974  0.500000  1
  Rh  Rh8  1  0.000011  0.999684  0.000000  1
