# generated using pymatgen
data_SmGd7(OsBr4)2
_symmetry_space_group_name_H-M   'P 1'
_cell_length_a   9.12138588
_cell_length_b   9.13028309
_cell_length_c   6.51997300
_cell_angle_alpha   89.87839605
_cell_angle_beta   89.74564330
_cell_angle_gamma   89.44047314
_symmetry_Int_Tables_number   1
_chemical_formula_structural   SmGd7(OsBr4)2
_chemical_formula_sum   'Sm1 Gd7 Os2 Br8'
_cell_volume   542.95638234
_cell_formula_units_Z   1
loop_
 _symmetry_equiv_pos_site_id
 _symmetry_equiv_pos_as_xyz
  1  'x, y, z'
loop_
 _atom_site_type_symbol
 _atom_site_label
 _atom_site_symmetry_multiplicity
 _atom_site_fract_x
 _atom_site_fract_y
 _atom_site_fract_z
 _atom_site_occupancy
  Sm  Sm0  1  0.749206  0.902587  0.504345  1
  Gd  Gd1  1  0.750964  0.098386  0.991739  1
  Gd  Gd2  1  0.098964  0.750274  0.490530  1
  Gd  Gd3  1  0.097072  0.248612  0.994993  1
  Gd  Gd4  1  0.248803  0.096855  0.494783  1
  Gd  Gd5  1  0.903986  0.751584  0.005432  1
  Gd  Gd6  1  0.902267  0.250679  0.509882  1
  Gd  Gd7  1  0.250133  0.902311  0.008329  1
  Os  Os8  1  0.997475  0.003023  0.250173  1
  Os  Os9  1  0.003255  0.996953  0.749864  1
  Br  Br10  1  0.584446  0.186496  0.571674  1
  Br  Br11  1  0.813722  0.587080  0.424678  1
  Br  Br12  1  0.411251  0.186778  0.075078  1
  Br  Br13  1  0.186828  0.411286  0.574850  1
  Br  Br14  1  0.588436  0.812621  0.925770  1
  Br  Br15  1  0.413914  0.814934  0.427473  1
  Br  Br16  1  0.184636  0.585265  0.071440  1
  Br  Br17  1  0.814641  0.414276  0.928970  1
