# generated using pymatgen
data_Ho12Fe4BiRh
_symmetry_space_group_name_H-M   'P 1'
_cell_length_a   8.30119958
_cell_length_b   8.30147185
_cell_length_c   8.30119900
_cell_angle_alpha   111.26828377
_cell_angle_beta   111.21406121
_cell_angle_gamma   105.98526690
_symmetry_Int_Tables_number   1
_chemical_formula_structural   Ho12Fe4BiRh
_chemical_formula_sum   'Ho12 Fe4 Bi1 Rh1'
_cell_volume   439.16125382
_cell_formula_units_Z   1
loop_
 _symmetry_equiv_pos_site_id
 _symmetry_equiv_pos_as_xyz
  1  'x, y, z'
loop_
 _atom_site_type_symbol
 _atom_site_label
 _atom_site_symmetry_multiplicity
 _atom_site_fract_x
 _atom_site_fract_y
 _atom_site_fract_z
 _atom_site_occupancy
  Ho  Ho0  1  0.814228  0.712963  0.526795  1
  Ho  Ho1  1  0.186165  0.287392  0.473174  1
  Ho  Ho2  1  0.186169  0.712963  0.898735  1
  Ho  Ho3  1  0.814217  0.287392  0.101227  1
  Ho  Ho4  1  0.691532  0.386243  0.694712  1
  Ho  Ho5  1  0.308221  0.614152  0.305929  1
  Ho  Ho6  1  0.691502  0.996795  0.305294  1
  Ho  Ho7  1  0.308176  0.002243  0.694067  1
  Ho  Ho8  1  0.591832  0.790033  0.801778  1
  Ho  Ho9  1  0.408664  0.210481  0.198167  1
  Ho  Ho10  1  0.988256  0.790033  0.198201  1
  Ho  Ho11  1  0.012312  0.210481  0.801817  1
  Fe  Fe12  1  0.614844  0.000151  0.614803  1
  Fe  Fe13  1  0.385348  0.000151  0.385306  1
  Fe  Fe14  1  0.105298  0.605282  0.499984  1
  Fe  Fe15  1  0.892768  0.392789  0.500019  1
  Bi  Bi16  1  0.500235  0.500228  0.999993  1
  Rh  Rh17  1  0.000231  0.000231  0.000000  1
