# generated using pymatgen
data_Nd8Ho2(IrPt)3
_symmetry_space_group_name_H-M   'P 1'
_cell_length_a   11.35548218
_cell_length_b   11.32445200
_cell_length_c   6.47290939
_cell_angle_alpha   90.00000000
_cell_angle_beta   90.13535231
_cell_angle_gamma   90.00000000
_symmetry_Int_Tables_number   1
_chemical_formula_structural   Nd8Ho2(IrPt)3
_chemical_formula_sum   'Nd16 Ho4 Ir6 Pt6'
_cell_volume   832.37895452
_cell_formula_units_Z   2
loop_
 _symmetry_equiv_pos_site_id
 _symmetry_equiv_pos_as_xyz
  1  'x, y, z'
loop_
 _atom_site_type_symbol
 _atom_site_label
 _atom_site_symmetry_multiplicity
 _atom_site_fract_x
 _atom_site_fract_y
 _atom_site_fract_z
 _atom_site_occupancy
  Nd  Nd0  1  0.293339  0.090509  0.374843  1
  Nd  Nd1  1  0.293339  0.909491  0.874843  1
  Nd  Nd2  1  0.706494  0.087191  0.873953  1
  Nd  Nd3  1  0.706494  0.912809  0.373953  1
  Nd  Nd4  1  0.584251  0.789718  0.873952  1
  Nd  Nd5  1  0.584251  0.210282  0.373952  1
  Nd  Nd6  1  0.410414  0.790833  0.379310  1
  Nd  Nd7  1  0.410414  0.209167  0.879310  1
  Nd  Nd8  1  0.211912  0.413877  0.621431  1
  Nd  Nd9  1  0.211912  0.586123  0.121431  1
  Nd  Nd10  1  0.792644  0.412037  0.124389  1
  Nd  Nd11  1  0.792644  0.587963  0.624389  1
  Nd  Nd12  1  0.913603  0.706948  0.125914  1
  Nd  Nd13  1  0.913603  0.293052  0.625914  1
  Nd  Nd14  1  0.091489  0.706117  0.625745  1
  Nd  Nd15  1  0.091489  0.293883  0.125745  1
  Ho  Ho16  1  0.999904  0.999417  0.499753  1
  Ho  Ho17  1  0.999904  0.000583  0.999753  1
  Ho  Ho18  1  0.497199  0.499095  0.000330  1
  Ho  Ho19  1  0.497199  0.500905  0.500330  1
  Ir  Ir20  1  0.352111  0.351007  0.250121  1
  Ir  Ir21  1  0.352111  0.648993  0.750121  1
  Ir  Ir22  1  0.500196  0.999308  0.116338  1
  Ir  Ir23  1  0.500196  0.000692  0.616338  1
  Ir  Ir24  1  0.999191  0.500136  0.883832  1
  Ir  Ir25  1  0.999191  0.499864  0.383832  1
  Pt  Pt26  1  0.851965  0.147545  0.249933  1
  Pt  Pt27  1  0.851965  0.852455  0.749933  1
  Pt  Pt28  1  0.146719  0.147519  0.749561  1
  Pt  Pt29  1  0.146719  0.852481  0.249561  1
  Pt  Pt30  1  0.648567  0.351853  0.750594  1
  Pt  Pt31  1  0.648567  0.648147  0.250594  1
