# generated using pymatgen
data_Yb2HoEr(MnB4)4
_symmetry_space_group_name_H-M   'P 1'
_cell_length_a   3.37477700
_cell_length_b   5.89405822
_cell_length_c   11.39962803
_cell_angle_alpha   89.98834505
_cell_angle_beta   90.00000000
_cell_angle_gamma   90.00000000
_symmetry_Int_Tables_number   1
_chemical_formula_structural   Yb2HoEr(MnB4)4
_chemical_formula_sum   'Yb2 Ho1 Er1 Mn4 B16'
_cell_volume   226.75150249
_cell_formula_units_Z   1
loop_
 _symmetry_equiv_pos_site_id
 _symmetry_equiv_pos_as_xyz
  1  'x, y, z'
loop_
 _atom_site_type_symbol
 _atom_site_label
 _atom_site_symmetry_multiplicity
 _atom_site_fract_x
 _atom_site_fract_y
 _atom_site_fract_z
 _atom_site_occupancy
  Yb  Yb0  1  0.500000  0.374636  0.849172  1
  Yb  Yb1  1  0.500000  0.125467  0.349074  1
  Ho  Ho2  1  0.500000  0.874301  0.650997  1
  Er  Er3  1  0.500000  0.625793  0.150990  1
  Mn  Mn4  1  0.500000  0.624369  0.419018  1
  Mn  Mn5  1  0.500000  0.375869  0.581198  1
  Mn  Mn6  1  0.500000  0.124317  0.081403  1
  Mn  Mn7  1  0.500000  0.875524  0.919063  1
  B  B8  1  0.000000  0.974894  0.191155  1
  B  B9  1  0.000000  0.024578  0.809138  1
  B  B10  1  0.000000  0.475777  0.309007  1
  B  B11  1  0.000000  0.524626  0.691274  1
  B  B12  1  0.000000  0.780156  0.316548  1
  B  B13  1  0.000000  0.220167  0.683190  1
  B  B14  1  0.000000  0.280295  0.183170  1
  B  B15  1  0.000000  0.719688  0.816708  1
  B  B16  1  0.000000  0.862104  0.467406  1
  B  B17  1  0.000000  0.137907  0.532226  1
  B  B18  1  0.000000  0.362310  0.032337  1
  B  B19  1  0.000000  0.637771  0.967579  1
  B  B20  1  0.000000  0.887284  0.046510  1
  B  B21  1  0.000000  0.113364  0.953104  1
  B  B22  1  0.000000  0.386658  0.453143  1
  B  B23  1  0.000000  0.612144  0.546587  1
