# generated using pymatgen
data_Sb12Ir3Rh
_symmetry_space_group_name_H-M   'P 1'
_cell_length_a   8.13110874
_cell_length_b   8.13110870
_cell_length_c   8.13110816
_cell_angle_alpha   109.48245429
_cell_angle_beta   109.48245081
_cell_angle_gamma   109.48245347
_symmetry_Int_Tables_number   1
_chemical_formula_structural   Sb12Ir3Rh
_chemical_formula_sum   'Sb12 Ir3 Rh1'
_cell_volume   413.66296915
_cell_formula_units_Z   1
loop_
 _symmetry_equiv_pos_site_id
 _symmetry_equiv_pos_as_xyz
  1  'x, y, z'
loop_
 _atom_site_type_symbol
 _atom_site_label
 _atom_site_symmetry_multiplicity
 _atom_site_fract_x
 _atom_site_fract_y
 _atom_site_fract_z
 _atom_site_occupancy
  Sb  Sb0  1  0.154216  0.814051  0.659778  1
  Sb  Sb1  1  0.845784  0.185949  0.340222  1
  Sb  Sb2  1  0.844978  0.505346  0.659410  1
  Sb  Sb3  1  0.155022  0.494654  0.340590  1
  Sb  Sb4  1  0.814051  0.659778  0.154216  1
  Sb  Sb5  1  0.185949  0.340222  0.845784  1
  Sb  Sb6  1  0.505346  0.659410  0.844978  1
  Sb  Sb7  1  0.494654  0.340590  0.155022  1
  Sb  Sb8  1  0.659778  0.154216  0.814051  1
  Sb  Sb9  1  0.340222  0.845784  0.185949  1
  Sb  Sb10  1  0.659410  0.844978  0.505346  1
  Sb  Sb11  1  0.340590  0.155022  0.494654  1
  Ir  Ir12  1  0.000000  0.000000  0.500000  1
  Ir  Ir13  1  0.500000  0.000000  0.000000  1
  Ir  Ir14  1  0.000000  0.500000  0.000000  1
  Rh  Rh15  1  0.500000  0.500000  0.500000  1
