# generated using pymatgen
data_Ca2Pr2Cu2Sn5
_symmetry_space_group_name_H-M   'P 1'
_cell_length_a   4.52147400
_cell_length_b   8.74659100
_cell_length_c   14.49678300
_cell_angle_alpha   90.00000000
_cell_angle_beta   90.00000000
_cell_angle_gamma   90.00000000
_symmetry_Int_Tables_number   1
_chemical_formula_structural   Ca2Pr2Cu2Sn5
_chemical_formula_sum   'Ca4 Pr4 Cu4 Sn10'
_cell_volume   573.31129077
_cell_formula_units_Z   2
loop_
 _symmetry_equiv_pos_site_id
 _symmetry_equiv_pos_as_xyz
  1  'x, y, z'
loop_
 _atom_site_type_symbol
 _atom_site_label
 _atom_site_symmetry_multiplicity
 _atom_site_fract_x
 _atom_site_fract_y
 _atom_site_fract_z
 _atom_site_occupancy
  Ca  Ca0  1  0.500000  0.796032  0.744608  1
  Ca  Ca1  1  0.000000  0.203968  0.755392  1
  Ca  Ca2  1  0.000000  0.203968  0.244608  1
  Ca  Ca3  1  0.500000  0.796032  0.255392  1
  Pr  Pr4  1  0.500000  0.694353  0.000000  1
  Pr  Pr5  1  0.000000  0.305647  0.500000  1
  Pr  Pr6  1  0.500000  0.146066  0.000000  1
  Pr  Pr7  1  0.000000  0.853934  0.500000  1
  Cu  Cu8  1  0.500000  0.380621  0.647882  1
  Cu  Cu9  1  0.000000  0.619379  0.852118  1
  Cu  Cu10  1  0.000000  0.619379  0.147882  1
  Cu  Cu11  1  0.500000  0.380621  0.352118  1
  Sn  Sn12  1  0.500000  0.081867  0.397798  1
  Sn  Sn13  1  0.000000  0.557374  0.666128  1
  Sn  Sn14  1  0.000000  0.415632  0.000000  1
  Sn  Sn15  1  0.500000  0.442626  0.166128  1
  Sn  Sn16  1  0.500000  0.584368  0.500000  1
  Sn  Sn17  1  0.500000  0.442626  0.833872  1
  Sn  Sn18  1  0.000000  0.918133  0.897798  1
  Sn  Sn19  1  0.000000  0.557374  0.333872  1
  Sn  Sn20  1  0.500000  0.081867  0.602202  1
  Sn  Sn21  1  0.000000  0.918133  0.102202  1
