# generated using pymatgen
data_Yb3CeOsRu7
_symmetry_space_group_name_H-M   'P 1'
_cell_length_a   5.20677081
_cell_length_b   5.29697496
_cell_length_c   8.96753694
_cell_angle_alpha   89.99999912
_cell_angle_beta   90.65700137
_cell_angle_gamma   120.57475687
_symmetry_Int_Tables_number   1
_chemical_formula_structural   Yb3CeOsRu7
_chemical_formula_sum   'Yb3 Ce1 Os1 Ru7'
_cell_volume   212.92033692
_cell_formula_units_Z   1
loop_
 _symmetry_equiv_pos_site_id
 _symmetry_equiv_pos_as_xyz
  1  'x, y, z'
loop_
 _atom_site_type_symbol
 _atom_site_label
 _atom_site_symmetry_multiplicity
 _atom_site_fract_x
 _atom_site_fract_y
 _atom_site_fract_z
 _atom_site_occupancy
  Yb  Yb0  1  0.656618  0.328309  0.569684  1
  Yb  Yb1  1  0.657617  0.328809  0.935437  1
  Yb  Yb2  1  0.330147  0.665074  0.062131  1
  Ce  Ce3  1  0.327332  0.663666  0.429386  1
  Os  Os4  1  0.686125  0.843063  0.754471  1
  Ru  Ru5  1  0.969304  0.984652  0.501412  1
  Ru  Ru6  1  0.980521  0.990261  0.001073  1
  Ru  Ru7  1  0.839538  0.172042  0.247886  1
  Ru  Ru8  1  0.839538  0.667496  0.247886  1
  Ru  Ru9  1  0.356641  0.178320  0.252016  1
  Ru  Ru10  1  0.178309  0.824001  0.749309  1
  Ru  Ru11  1  0.178309  0.354309  0.749309  1
