# generated using pymatgen
data_Tb2ErCo(P3Rh4)2
_symmetry_space_group_name_H-M   'P 1'
_cell_length_a   3.86498400
_cell_length_b   11.13573000
_cell_length_c   12.78804900
_cell_angle_alpha   90.00000000
_cell_angle_beta   90.00000000
_cell_angle_gamma   90.00000000
_symmetry_Int_Tables_number   1
_chemical_formula_structural   Tb2ErCo(P3Rh4)2
_chemical_formula_sum   'Tb4 Er2 Co2 P12 Rh16'
_cell_volume   550.39018987
_cell_formula_units_Z   2
loop_
 _symmetry_equiv_pos_site_id
 _symmetry_equiv_pos_as_xyz
  1  'x, y, z'
loop_
 _atom_site_type_symbol
 _atom_site_label
 _atom_site_symmetry_multiplicity
 _atom_site_fract_x
 _atom_site_fract_y
 _atom_site_fract_z
 _atom_site_occupancy
  Tb  Tb0  1  0.000000  0.500000  0.521522  1
  Tb  Tb1  1  0.500000  0.000000  0.478287  1
  Tb  Tb2  1  0.000000  0.684608  0.798085  1
  Tb  Tb3  1  0.000000  0.315392  0.798085  1
  Er  Er4  1  0.500000  0.815270  0.202104  1
  Er  Er5  1  0.500000  0.184730  0.202104  1
  Co  Co6  1  0.000000  0.500000  0.980470  1
  Co  Co7  1  0.500000  0.000000  0.020451  1
  P  P8  1  0.500000  0.500000  0.882207  1
  P  P9  1  0.000000  0.000000  0.118552  1
  P  P10  1  0.500000  0.500000  0.350719  1
  P  P11  1  0.000000  0.000000  0.649079  1
  P  P12  1  0.500000  0.315584  0.619122  1
  P  P13  1  0.500000  0.684416  0.619122  1
  P  P14  1  0.000000  0.184158  0.379797  1
  P  P15  1  0.000000  0.815842  0.379797  1
  P  P16  1  0.500000  0.853378  0.896053  1
  P  P17  1  0.500000  0.146622  0.896053  1
  P  P18  1  0.000000  0.647636  0.104473  1
  P  P19  1  0.000000  0.352364  0.104473  1
  Rh  Rh20  1  0.500000  0.500000  0.167814  1
  Rh  Rh21  1  0.000000  0.000000  0.832135  1
  Rh  Rh22  1  0.500000  0.500000  0.703387  1
  Rh  Rh23  1  0.000000  0.000000  0.295636  1
  Rh  Rh24  1  0.500000  0.336357  0.994437  1
  Rh  Rh25  1  0.500000  0.663643  0.994437  1
  Rh  Rh26  1  0.000000  0.163146  0.006871  1
  Rh  Rh27  1  0.000000  0.836854  0.006871  1
  Rh  Rh28  1  0.500000  0.293689  0.429913  1
  Rh  Rh29  1  0.500000  0.706311  0.429913  1
  Rh  Rh30  1  0.000000  0.206102  0.569671  1
  Rh  Rh31  1  0.000000  0.793898  0.569671  1
  Rh  Rh32  1  0.500000  0.873755  0.712134  1
  Rh  Rh33  1  0.500000  0.126245  0.712134  1
  Rh  Rh34  1  0.000000  0.627370  0.287211  1
  Rh  Rh35  1  0.000000  0.372630  0.287211  1
