# generated using pymatgen
data_Sm8Hf12Si15As
_symmetry_space_group_name_H-M   'P 1'
_cell_length_a   7.34337317
_cell_length_b   7.35553768
_cell_length_c   13.51104818
_cell_angle_alpha   89.72769482
_cell_angle_beta   89.97091065
_cell_angle_gamma   89.92427118
_symmetry_Int_Tables_number   1
_chemical_formula_structural   Sm8Hf12Si15As
_chemical_formula_sum   'Sm8 Hf12 Si15 As1'
_cell_volume   729.78297466
_cell_formula_units_Z   1
loop_
 _symmetry_equiv_pos_site_id
 _symmetry_equiv_pos_as_xyz
  1  'x, y, z'
loop_
 _atom_site_type_symbol
 _atom_site_label
 _atom_site_symmetry_multiplicity
 _atom_site_fract_x
 _atom_site_fract_y
 _atom_site_fract_z
 _atom_site_occupancy
  Sm  Sm0  1  0.995410  0.344422  0.215529  1
  Sm  Sm1  1  0.005827  0.656848  0.715378  1
  Sm  Sm2  1  0.153503  0.498237  0.466572  1
  Sm  Sm3  1  0.507837  0.841718  0.033814  1
  Sm  Sm4  1  0.843627  0.504198  0.964902  1
  Sm  Sm5  1  0.495231  0.155651  0.535278  1
  Sm  Sm6  1  0.344335  0.995225  0.785120  1
  Sm  Sm7  1  0.654989  0.005183  0.284184  1
  Hf  Hf8  1  0.174657  0.175393  0.000115  1
  Hf  Hf9  1  0.825919  0.826271  0.500000  1
  Hf  Hf10  1  0.324546  0.678013  0.249777  1
  Hf  Hf11  1  0.674574  0.325266  0.750053  1
  Hf  Hf12  1  0.150452  0.994589  0.372734  1
  Hf  Hf13  1  0.850143  0.005222  0.874464  1
  Hf  Hf14  1  0.504411  0.651013  0.624530  1
  Hf  Hf15  1  0.350173  0.495064  0.875638  1
  Hf  Hf16  1  0.493565  0.346966  0.124986  1
  Hf  Hf17  1  0.654083  0.507899  0.377138  1
  Hf  Hf18  1  0.995360  0.150950  0.625782  1
  Hf  Hf19  1  0.002033  0.846865  0.124461  1
  Si  Si20  1  0.635795  0.704564  0.815400  1
  Si  Si21  1  0.203550  0.865392  0.565132  1
  Si  Si22  1  0.135689  0.795147  0.933613  1
  Si  Si23  1  0.795406  0.136591  0.066189  1
  Si  Si24  1  0.864521  0.203917  0.433821  1
  Si  Si25  1  0.296193  0.363864  0.684069  1
  Si  Si26  1  0.702488  0.634203  0.185076  1
  Si  Si27  1  0.290859  0.038932  0.179765  1
  Si  Si28  1  0.707672  0.950554  0.685668  1
  Si  Si29  1  0.451032  0.793581  0.435873  1
  Si  Si30  1  0.207038  0.548301  0.064475  1
  Si  Si31  1  0.549622  0.206851  0.935860  1
  Si  Si32  1  0.792215  0.450892  0.565258  1
  Si  Si33  1  0.049879  0.292909  0.814096  1
  Si  Si34  1  0.951127  0.707561  0.314510  1
  As  As35  1  0.366239  0.301748  0.320737  1
