# generated using pymatgen
data_Tb7Lu(Si4Mo3)4
_symmetry_space_group_name_H-M   'P 1'
_cell_length_a   6.78026766
_cell_length_b   6.96414516
_cell_length_c   12.95298292
_cell_angle_alpha   89.95708500
_cell_angle_beta   89.99455684
_cell_angle_gamma   89.94964972
_symmetry_Int_Tables_number   1
_chemical_formula_structural   Tb7Lu(Si4Mo3)4
_chemical_formula_sum   'Tb7 Lu1 Si16 Mo12'
_cell_volume   611.62348803
_cell_formula_units_Z   1
loop_
 _symmetry_equiv_pos_site_id
 _symmetry_equiv_pos_as_xyz
  1  'x, y, z'
loop_
 _atom_site_type_symbol
 _atom_site_label
 _atom_site_symmetry_multiplicity
 _atom_site_fract_x
 _atom_site_fract_y
 _atom_site_fract_z
 _atom_site_occupancy
  Tb  Tb0  1  0.497471  0.333176  0.094078  1
  Tb  Tb1  1  0.997340  0.166630  0.406027  1
  Tb  Tb2  1  0.502657  0.666564  0.593991  1
  Tb  Tb3  1  0.002281  0.833283  0.906587  1
  Tb  Tb4  1  0.502401  0.667018  0.906436  1
  Tb  Tb5  1  0.002615  0.833464  0.594026  1
  Tb  Tb6  1  0.497266  0.333230  0.405337  1
  Lu  Lu7  1  0.996320  0.167358  0.094899  1
  Si  Si8  1  0.658068  0.042701  0.547692  1
  Si  Si9  1  0.157930  0.456367  0.952997  1
  Si  Si10  1  0.339288  0.959004  0.048095  1
  Si  Si11  1  0.841704  0.542729  0.452144  1
  Si  Si12  1  0.342025  0.957297  0.451914  1
  Si  Si13  1  0.842752  0.540196  0.048054  1
  Si  Si14  1  0.658886  0.042724  0.953024  1
  Si  Si15  1  0.158227  0.457471  0.547635  1
  Si  Si16  1  0.535200  0.364931  0.750318  1
  Si  Si17  1  0.035290  0.134838  0.750084  1
  Si  Si18  1  0.465150  0.635402  0.249666  1
  Si  Si19  1  0.965334  0.866623  0.249220  1
  Si  Si20  1  0.803071  0.627390  0.750314  1
  Si  Si21  1  0.302747  0.872171  0.750143  1
  Si  Si22  1  0.195796  0.370737  0.248961  1
  Si  Si23  1  0.698807  0.128139  0.249129  1
  Mo  Mo24  1  0.830958  0.334532  0.625571  1
  Mo  Mo25  1  0.330379  0.164833  0.875116  1
  Mo  Mo26  1  0.168901  0.665595  0.125323  1
  Mo  Mo27  1  0.669529  0.835260  0.373927  1
  Mo  Mo28  1  0.168821  0.665262  0.373907  1
  Mo  Mo29  1  0.670277  0.835747  0.124851  1
  Mo  Mo30  1  0.831681  0.333728  0.875448  1
  Mo  Mo31  1  0.330967  0.165127  0.625453  1
  Mo  Mo32  1  0.665649  0.000386  0.750383  1
  Mo  Mo33  1  0.165640  0.499538  0.750290  1
  Mo  Mo34  1  0.333824  0.000696  0.249371  1
  Mo  Mo35  1  0.834750  0.499852  0.249588  1
