# generated using pymatgen
data_TbThPRh6
_symmetry_space_group_name_H-M   'P 1'
_cell_length_a   6.01640735
_cell_length_b   6.01640693
_cell_length_c   6.01640700
_cell_angle_alpha   60.00000511
_cell_angle_beta   60.00000745
_cell_angle_gamma   60.00000580
_symmetry_Int_Tables_number   1
_chemical_formula_structural   TbThPRh6
_chemical_formula_sum   'Tb1 Th1 P1 Rh6'
_cell_volume   153.99148483
_cell_formula_units_Z   1
loop_
 _symmetry_equiv_pos_site_id
 _symmetry_equiv_pos_as_xyz
  1  'x, y, z'
loop_
 _atom_site_type_symbol
 _atom_site_label
 _atom_site_symmetry_multiplicity
 _atom_site_fract_x
 _atom_site_fract_y
 _atom_site_fract_z
 _atom_site_occupancy
  Tb  Tb0  1  0.750000  0.750000  0.750000  1
  Th  Th1  1  0.250000  0.250000  0.250000  1
  P  P2  1  0.000000  0.000000  0.000000  1
  Rh  Rh3  1  0.734710  0.265291  0.265291  1
  Rh  Rh4  1  0.265291  0.734710  0.265291  1
  Rh  Rh5  1  0.734709  0.734709  0.265292  1
  Rh  Rh6  1  0.265291  0.265291  0.734710  1
  Rh  Rh7  1  0.734709  0.265292  0.734709  1
  Rh  Rh8  1  0.265292  0.734709  0.734709  1
