# generated using pymatgen
data_Y4Tm4B24RuW3
_symmetry_space_group_name_H-M   'P 1'
_cell_length_a   3.59732700
_cell_length_b   9.24216283
_cell_length_c   11.64147110
_cell_angle_alpha   89.88278741
_cell_angle_beta   90.00000000
_cell_angle_gamma   90.00000000
_symmetry_Int_Tables_number   1
_chemical_formula_structural   Y4Tm4B24RuW3
_chemical_formula_sum   'Y4 Tm4 B24 Ru1 W3'
_cell_volume   387.04413291
_cell_formula_units_Z   1
loop_
 _symmetry_equiv_pos_site_id
 _symmetry_equiv_pos_as_xyz
  1  'x, y, z'
loop_
 _atom_site_type_symbol
 _atom_site_label
 _atom_site_symmetry_multiplicity
 _atom_site_fract_x
 _atom_site_fract_y
 _atom_site_fract_z
 _atom_site_occupancy
  Y  Y0  1  0.000000  0.320428  0.414323  1
  Y  Y1  1  0.000000  0.678864  0.586254  1
  Y  Y2  1  0.000000  0.820747  0.085302  1
  Y  Y3  1  0.000000  0.178549  0.913329  1
  Tm  Tm4  1  0.000000  0.944285  0.373208  1
  Tm  Tm5  1  0.000000  0.054569  0.630191  1
  Tm  Tm6  1  0.000000  0.444649  0.126846  1
  Tm  Tm7  1  0.000000  0.559206  0.871057  1
  B  B8  1  0.500000  0.551317  0.434958  1
  B  B9  1  0.500000  0.448304  0.565750  1
  B  B10  1  0.500000  0.050220  0.063681  1
  B  B11  1  0.500000  0.944715  0.931230  1
  B  B12  1  0.500000  0.752481  0.421697  1
  B  B13  1  0.500000  0.246764  0.579754  1
  B  B14  1  0.500000  0.253458  0.078203  1
  B  B15  1  0.500000  0.751198  0.917442  1
  B  B16  1  0.500000  0.795562  0.264846  1
  B  B17  1  0.500000  0.203910  0.736916  1
  B  B18  1  0.500000  0.294862  0.234889  1
  B  B19  1  0.500000  0.709559  0.765870  1
  B  B20  1  0.500000  0.631448  0.182229  1
  B  B21  1  0.500000  0.369247  0.818210  1
  B  B22  1  0.500000  0.130045  0.316831  1
  B  B23  1  0.500000  0.869085  0.686086  1
  B  B24  1  0.500000  0.978382  0.213047  1
  B  B25  1  0.500000  0.015308  0.787555  1
  B  B26  1  0.500000  0.478841  0.286080  1
  B  B27  1  0.500000  0.522336  0.713432  1
  B  B28  1  0.500000  0.602549  0.026728  1
  B  B29  1  0.500000  0.401154  0.971574  1
  B  B30  1  0.500000  0.100102  0.473128  1
  B  B31  1  0.500000  0.898754  0.529826  1
  Ru  Ru32  1  0.000000  0.860562  0.820059  1
  W  W33  1  0.000000  0.639461  0.319752  1
  W  W34  1  0.000000  0.360400  0.680931  1
  W  W35  1  0.000000  0.138677  0.178787  1
