# generated using pymatgen
data_ZrSiGeRh4
_symmetry_space_group_name_H-M   'P 1'
_cell_length_a   4.08905100
_cell_length_b   8.99265000
_cell_length_c   11.44839000
_cell_angle_alpha   90.00000000
_cell_angle_beta   90.00000000
_cell_angle_gamma   90.00000000
_symmetry_Int_Tables_number   1
_chemical_formula_structural   ZrSiGeRh4
_chemical_formula_sum   'Zr4 Si4 Ge4 Rh16'
_cell_volume   420.97337928
_cell_formula_units_Z   4
loop_
 _symmetry_equiv_pos_site_id
 _symmetry_equiv_pos_as_xyz
  1  'x, y, z'
loop_
 _atom_site_type_symbol
 _atom_site_label
 _atom_site_symmetry_multiplicity
 _atom_site_fract_x
 _atom_site_fract_y
 _atom_site_fract_z
 _atom_site_occupancy
  Zr  Zr0  1  0.250000  0.142948  0.823968  1
  Zr  Zr1  1  0.250000  0.357052  0.323968  1
  Zr  Zr2  1  0.750000  0.857052  0.176032  1
  Zr  Zr3  1  0.750000  0.642948  0.676032  1
  Si  Si4  1  0.250000  0.414855  0.637523  1
  Si  Si5  1  0.250000  0.085145  0.137523  1
  Si  Si6  1  0.750000  0.585145  0.362477  1
  Si  Si7  1  0.750000  0.914855  0.862477  1
  Ge  Ge8  1  0.250000  0.621653  0.060025  1
  Ge  Ge9  1  0.250000  0.878347  0.560025  1
  Ge  Ge10  1  0.750000  0.378347  0.939975  1
  Ge  Ge11  1  0.750000  0.121653  0.439975  1
  Rh  Rh12  1  0.250000  0.608639  0.497605  1
  Rh  Rh13  1  0.250000  0.891361  0.997605  1
  Rh  Rh14  1  0.750000  0.391361  0.502395  1
  Rh  Rh15  1  0.750000  0.108639  0.002395  1
  Rh  Rh16  1  0.250000  0.697141  0.270388  1
  Rh  Rh17  1  0.250000  0.802859  0.770388  1
  Rh  Rh18  1  0.750000  0.302859  0.729612  1
  Rh  Rh19  1  0.750000  0.197141  0.229612  1
  Rh  Rh20  1  0.250000  0.173611  0.563337  1
  Rh  Rh21  1  0.250000  0.326389  0.063337  1
  Rh  Rh22  1  0.750000  0.826389  0.436663  1
  Rh  Rh23  1  0.750000  0.673611  0.936663  1
  Rh  Rh24  1  0.250000  0.007207  0.334867  1
  Rh  Rh25  1  0.250000  0.492793  0.834867  1
  Rh  Rh26  1  0.750000  0.992793  0.665133  1
  Rh  Rh27  1  0.750000  0.507207  0.165133  1
