# generated using pymatgen
data_Tb3Dy(ScPd)4
_symmetry_space_group_name_H-M   'P 1'
_cell_length_a   4.62528200
_cell_length_b   7.01124010
_cell_length_c   8.44206300
_cell_angle_alpha   90.43070876
_cell_angle_beta   90.00000000
_cell_angle_gamma   90.00000000
_symmetry_Int_Tables_number   1
_chemical_formula_structural   Tb3Dy(ScPd)4
_chemical_formula_sum   'Tb3 Dy1 Sc4 Pd4'
_cell_volume   273.75961037
_cell_formula_units_Z   1
loop_
 _symmetry_equiv_pos_site_id
 _symmetry_equiv_pos_as_xyz
  1  'x, y, z'
loop_
 _atom_site_type_symbol
 _atom_site_label
 _atom_site_symmetry_multiplicity
 _atom_site_fract_x
 _atom_site_fract_y
 _atom_site_fract_z
 _atom_site_occupancy
  Tb  Tb0  1  0.250000  0.983645  0.321781  1
  Tb  Tb1  1  0.750000  0.017923  0.677989  1
  Tb  Tb2  1  0.250000  0.482731  0.177372  1
  Dy  Dy3  1  0.750000  0.516740  0.823162  1
  Sc  Sc4  1  0.750000  0.640575  0.427361  1
  Sc  Sc5  1  0.250000  0.360567  0.574942  1
  Sc  Sc6  1  0.750000  0.140418  0.072835  1
  Sc  Sc7  1  0.250000  0.857348  0.925559  1
  Pd  Pd8  1  0.250000  0.243835  0.903058  1
  Pd  Pd9  1  0.750000  0.755281  0.096112  1
  Pd  Pd10  1  0.250000  0.744883  0.595410  1
  Pd  Pd11  1  0.750000  0.256054  0.404419  1
