# generated using pymatgen
data_Ta2VF12
_symmetry_space_group_name_H-M   'P 1'
_cell_length_a   5.34039902
_cell_length_b   5.71048367
_cell_length_c   9.36153499
_cell_angle_alpha   104.83095250
_cell_angle_beta   90.76625325
_cell_angle_gamma   119.06287275
_symmetry_Int_Tables_number   1
_chemical_formula_structural   Ta2VF12
_chemical_formula_sum   'Ta2 V1 F12'
_cell_volume   238.00571847
_cell_formula_units_Z   1
loop_
 _symmetry_equiv_pos_site_id
 _symmetry_equiv_pos_as_xyz
  1  'x, y, z'
loop_
 _atom_site_type_symbol
 _atom_site_label
 _atom_site_symmetry_multiplicity
 _atom_site_fract_x
 _atom_site_fract_y
 _atom_site_fract_z
 _atom_site_occupancy
  Ta  Ta0  1  0.777489  0.506526  0.261904  1
  Ta  Ta1  1  0.222511  0.493474  0.738096  1
  V  V2  1  0.000000  0.000000  0.000000  1
  F  F3  1  0.817937  0.261574  0.704871  1
  F  F4  1  0.182063  0.738426  0.295129  1
  F  F5  1  0.181890  0.744616  0.919428  1
  F  F6  1  0.704073  0.720014  0.424408  1
  F  F7  1  0.295927  0.279986  0.575592  1
  F  F8  1  0.780645  0.266634  0.365040  1
  F  F9  1  0.219355  0.733366  0.634960  1
  F  F10  1  0.356843  0.262263  0.178681  1
  F  F11  1  0.643157  0.737737  0.821319  1
  F  F12  1  0.772450  0.728037  0.128557  1
  F  F13  1  0.227550  0.271963  0.871443  1
  F  F14  1  0.818110  0.255384  0.080572  1
