# generated using pymatgen
data_HfZr(AlNi)2
_symmetry_space_group_name_H-M   'P 1'
_cell_length_a   6.76399300
_cell_length_b   6.76399482
_cell_length_c   7.20449100
_cell_angle_alpha   90.00000000
_cell_angle_beta   90.00000000
_cell_angle_gamma   120.00000579
_symmetry_Int_Tables_number   1
_chemical_formula_structural   HfZr(AlNi)2
_chemical_formula_sum   'Hf3 Zr3 Al6 Ni6'
_cell_volume   285.45675536
_cell_formula_units_Z   3
loop_
 _symmetry_equiv_pos_site_id
 _symmetry_equiv_pos_as_xyz
  1  'x, y, z'
loop_
 _atom_site_type_symbol
 _atom_site_label
 _atom_site_symmetry_multiplicity
 _atom_site_fract_x
 _atom_site_fract_y
 _atom_site_fract_z
 _atom_site_occupancy
  Hf  Hf0  1  0.586867  0.995385  0.750000  1
  Hf  Hf1  1  0.004615  0.591481  0.750000  1
  Hf  Hf2  1  0.408519  0.413133  0.750000  1
  Zr  Zr3  1  0.996256  0.584193  0.250000  1
  Zr  Zr4  1  0.587938  0.003744  0.250000  1
  Zr  Zr5  1  0.415807  0.412062  0.250000  1
  Al  Al6  1  0.752910  0.752292  0.998313  1
  Al  Al7  1  0.247708  0.000617  0.998313  1
  Al  Al8  1  0.999383  0.247090  0.998313  1
  Al  Al9  1  0.752910  0.752292  0.501687  1
  Al  Al10  1  0.247708  0.000617  0.501687  1
  Al  Al11  1  0.999383  0.247090  0.501687  1
  Ni  Ni12  1  0.000000  0.000000  0.750000  1
  Ni  Ni13  1  0.000000  0.000000  0.250000  1
  Ni  Ni14  1  0.666667  0.333333  0.982425  1
  Ni  Ni15  1  0.666667  0.333333  0.517575  1
  Ni  Ni16  1  0.333333  0.666667  0.502410  1
  Ni  Ni17  1  0.333333  0.666667  0.997591  1
