# generated using pymatgen
data_Hf4GeSbRh10
_symmetry_space_group_name_H-M   'P 1'
_cell_length_a   4.10633700
_cell_length_b   5.62696288
_cell_length_c   11.01072237
_cell_angle_alpha   89.79642393
_cell_angle_beta   90.00000000
_cell_angle_gamma   90.00000000
_symmetry_Int_Tables_number   1
_chemical_formula_structural   Hf4GeSbRh10
_chemical_formula_sum   'Hf4 Ge1 Sb1 Rh10'
_cell_volume   254.41441207
_cell_formula_units_Z   1
loop_
 _symmetry_equiv_pos_site_id
 _symmetry_equiv_pos_as_xyz
  1  'x, y, z'
loop_
 _atom_site_type_symbol
 _atom_site_label
 _atom_site_symmetry_multiplicity
 _atom_site_fract_x
 _atom_site_fract_y
 _atom_site_fract_z
 _atom_site_occupancy
  Hf  Hf0  1  0.500000  0.172879  0.646495  1
  Hf  Hf1  1  0.500000  0.827121  0.353505  1
  Hf  Hf2  1  0.500000  0.676895  0.861396  1
  Hf  Hf3  1  0.500000  0.323105  0.138604  1
  Ge  Ge4  1  0.000000  0.000000  0.000000  1
  Sb  Sb5  1  0.000000  0.500000  0.500000  1
  Rh  Rh6  1  0.500000  0.187426  0.894277  1
  Rh  Rh7  1  0.500000  0.812574  0.105723  1
  Rh  Rh8  1  0.500000  0.696823  0.612363  1
  Rh  Rh9  1  0.500000  0.303177  0.387637  1
  Rh  Rh10  1  0.000000  0.429582  0.747256  1
  Rh  Rh11  1  0.000000  0.570418  0.252744  1
  Rh  Rh12  1  0.000000  0.000000  0.500000  1
  Rh  Rh13  1  0.000000  0.500000  0.000000  1
  Rh  Rh14  1  0.000000  0.068509  0.241236  1
  Rh  Rh15  1  0.000000  0.931491  0.758764  1
