# generated using pymatgen
data_Na6VRhS4(O4F)4
_symmetry_space_group_name_H-M   'P 1'
_cell_length_a   6.75612100
_cell_length_b   9.01049200
_cell_length_c   14.19045000
_cell_angle_alpha   90.00000000
_cell_angle_beta   90.00000000
_cell_angle_gamma   90.00000000
_symmetry_Int_Tables_number   1
_chemical_formula_structural   Na6VRhS4(O4F)4
_chemical_formula_sum   'Na12 V2 Rh2 S8 O32 F8'
_cell_volume   863.85746839
_cell_formula_units_Z   2
loop_
 _symmetry_equiv_pos_site_id
 _symmetry_equiv_pos_as_xyz
  1  'x, y, z'
loop_
 _atom_site_type_symbol
 _atom_site_label
 _atom_site_symmetry_multiplicity
 _atom_site_fract_x
 _atom_site_fract_y
 _atom_site_fract_z
 _atom_site_occupancy
  Na  Na0  1  0.518233  0.669245  0.903285  1
  Na  Na1  1  0.018233  0.830755  0.596715  1
  Na  Na2  1  0.481767  0.169245  0.596715  1
  Na  Na3  1  0.981767  0.330755  0.903285  1
  Na  Na4  1  0.481123  0.332438  0.096801  1
  Na  Na5  1  0.981123  0.167562  0.403199  1
  Na  Na6  1  0.518877  0.832438  0.403199  1
  Na  Na7  1  0.018877  0.667562  0.096801  1
  Na  Na8  1  0.750000  0.000000  0.047551  1
  Na  Na9  1  0.250000  0.500000  0.452449  1
  Na  Na10  1  0.250000  0.000000  0.951185  1
  Na  Na11  1  0.750000  0.500000  0.548815  1
  V  V12  1  0.250000  0.000000  0.197496  1
  V  V13  1  0.750000  0.500000  0.302504  1
  Rh  Rh14  1  0.750000  0.000000  0.801433  1
  Rh  Rh15  1  0.250000  0.500000  0.698567  1
  S  S16  1  0.001254  0.695038  0.857158  1
  S  S17  1  0.501254  0.804962  0.642842  1
  S  S18  1  0.998746  0.195038  0.642842  1
  S  S19  1  0.498746  0.304962  0.857158  1
  S  S20  1  0.997748  0.306958  0.142449  1
  S  S21  1  0.497748  0.193042  0.357551  1
  S  S22  1  0.002252  0.806958  0.357551  1
  S  S23  1  0.502252  0.693042  0.142449  1
  O  O24  1  0.453312  0.447438  0.802621  1
  O  O25  1  0.953312  0.052562  0.697379  1
  O  O26  1  0.546688  0.947438  0.697379  1
  O  O27  1  0.046688  0.552562  0.802621  1
  O  O28  1  0.553154  0.554465  0.199300  1
  O  O29  1  0.053154  0.945535  0.300700  1
  O  O30  1  0.446846  0.054465  0.300700  1
  O  O31  1  0.946846  0.445535  0.199300  1
  O  O32  1  0.183064  0.767909  0.888325  1
  O  O33  1  0.683064  0.732091  0.611675  1
  O  O34  1  0.816936  0.267909  0.611675  1
  O  O35  1  0.316936  0.232091  0.888325  1
  O  O36  1  0.815662  0.234417  0.110329  1
  O  O37  1  0.315662  0.265583  0.389671  1
  O  O38  1  0.184338  0.734417  0.389671  1
  O  O39  1  0.684338  0.765583  0.110329  1
  O  O40  1  0.875100  0.647487  0.936324  1
  O  O41  1  0.375100  0.852513  0.563676  1
  O  O42  1  0.124900  0.147487  0.563676  1
  O  O43  1  0.624900  0.352513  0.936324  1
  O  O44  1  0.122422  0.357092  0.063106  1
  O  O45  1  0.622422  0.142908  0.436894  1
  O  O46  1  0.877578  0.857092  0.436894  1
  O  O47  1  0.377578  0.642908  0.063106  1
  O  O48  1  0.383833  0.709070  0.711259  1
  O  O49  1  0.883833  0.790930  0.788741  1
  O  O50  1  0.616167  0.209070  0.788741  1
  O  O51  1  0.116167  0.290930  0.711259  1
  O  O52  1  0.614639  0.291322  0.292726  1
  O  O53  1  0.114639  0.208678  0.207274  1
  O  O54  1  0.385361  0.791322  0.207274  1
  O  O55  1  0.885361  0.708678  0.292726  1
  F  F56  1  0.571485  0.928161  0.906606  1
  F  F57  1  0.071485  0.571839  0.593394  1
  F  F58  1  0.428515  0.428161  0.593394  1
  F  F59  1  0.928515  0.071839  0.906606  1
  F  F60  1  0.423752  0.071298  0.097567  1
  F  F61  1  0.923752  0.428702  0.402433  1
  F  F62  1  0.576248  0.571298  0.402433  1
  F  F63  1  0.076248  0.928702  0.097567  1
