# generated using pymatgen
data_Er12TcIrOs2
_symmetry_space_group_name_H-M   'P 1'
_cell_length_a   6.25165202
_cell_length_b   7.34647616
_cell_length_c   8.98186300
_cell_angle_alpha   90.00000000
_cell_angle_beta   90.00000000
_cell_angle_gamma   90.08419918
_symmetry_Int_Tables_number   1
_chemical_formula_structural   Er12TcIrOs2
_chemical_formula_sum   'Er12 Tc1 Ir1 Os2'
_cell_volume   412.51507815
_cell_formula_units_Z   1
loop_
 _symmetry_equiv_pos_site_id
 _symmetry_equiv_pos_as_xyz
  1  'x, y, z'
loop_
 _atom_site_type_symbol
 _atom_site_label
 _atom_site_symmetry_multiplicity
 _atom_site_fract_x
 _atom_site_fract_y
 _atom_site_fract_z
 _atom_site_occupancy
  Er  Er0  1  0.334402  0.674925  0.062683  1
  Er  Er1  1  0.167800  0.175775  0.435586  1
  Er  Er2  1  0.665994  0.325329  0.561649  1
  Er  Er3  1  0.833700  0.823491  0.938042  1
  Er  Er4  1  0.665994  0.325329  0.938351  1
  Er  Er5  1  0.833700  0.823491  0.561958  1
  Er  Er6  1  0.334402  0.674925  0.437317  1
  Er  Er7  1  0.167800  0.175775  0.064414  1
  Er  Er8  1  0.870448  0.538610  0.250000  1
  Er  Er9  1  0.627575  0.039466  0.250000  1
  Er  Er10  1  0.130650  0.461801  0.750000  1
  Er  Er11  1  0.369399  0.960429  0.750000  1
  Tc  Tc12  1  0.038280  0.883808  0.250000  1
  Ir  Ir13  1  0.959036  0.117981  0.750000  1
  Os  Os14  1  0.460460  0.382017  0.250000  1
  Os  Os15  1  0.540359  0.616847  0.750000  1
