# generated using pymatgen
data_Tb2Pr4Al24Os7Au
_symmetry_space_group_name_H-M   'P 1'
_cell_length_a   8.95379751
_cell_length_b   8.95379784
_cell_length_c   9.64389040
_cell_angle_alpha   89.92835344
_cell_angle_beta   90.07164865
_cell_angle_gamma   120.26640756
_symmetry_Int_Tables_number   1
_chemical_formula_structural   Tb2Pr4Al24Os7Au
_chemical_formula_sum   'Tb2 Pr4 Al24 Os7 Au1'
_cell_volume   667.76686522
_cell_formula_units_Z   1
loop_
 _symmetry_equiv_pos_site_id
 _symmetry_equiv_pos_as_xyz
  1  'x, y, z'
loop_
 _atom_site_type_symbol
 _atom_site_label
 _atom_site_symmetry_multiplicity
 _atom_site_fract_x
 _atom_site_fract_y
 _atom_site_fract_z
 _atom_site_occupancy
  Tb  Tb0  1  0.194380  0.805620  0.254117  1
  Tb  Tb1  1  0.805620  0.194380  0.745883  1
  Pr  Pr2  1  0.190086  0.382201  0.250014  1
  Pr  Pr3  1  0.809914  0.617799  0.749986  1
  Pr  Pr4  1  0.617799  0.809914  0.250014  1
  Pr  Pr5  1  0.382201  0.190086  0.749986  1
  Al  Al6  1  0.328050  0.671950  0.016218  1
  Al  Al7  1  0.671950  0.328050  0.983782  1
  Al  Al8  1  0.666536  0.333464  0.512958  1
  Al  Al9  1  0.333464  0.666536  0.487042  1
  Al  Al10  1  0.160955  0.326015  0.574974  1
  Al  Al11  1  0.839045  0.673985  0.425026  1
  Al  Al12  1  0.673985  0.839045  0.574974  1
  Al  Al13  1  0.850713  0.677691  0.079290  1
  Al  Al14  1  0.326015  0.160955  0.425026  1
  Al  Al15  1  0.149287  0.322309  0.920710  1
  Al  Al16  1  0.163244  0.836756  0.572847  1
  Al  Al17  1  0.322309  0.149287  0.079290  1
  Al  Al18  1  0.836756  0.163244  0.427153  1
  Al  Al19  1  0.677691  0.850713  0.920710  1
  Al  Al20  1  0.836591  0.163409  0.072198  1
  Al  Al21  1  0.163409  0.836591  0.927802  1
  Al  Al22  1  0.560273  0.121493  0.249131  1
  Al  Al23  1  0.439727  0.878507  0.750869  1
  Al  Al24  1  0.878507  0.439727  0.249131  1
  Al  Al25  1  0.121493  0.560273  0.750869  1
  Al  Al26  1  0.565357  0.434643  0.256242  1
  Al  Al27  1  0.434643  0.565357  0.743758  1
  Al  Al28  1  0.002103  0.997897  0.250429  1
  Al  Al29  1  0.997897  0.002103  0.749571  1
  Os  Os30  1  0.500000  0.000000  0.000000  1
  Os  Os31  1  0.000000  0.500000  0.000000  1
  Os  Os32  1  0.500000  0.000000  0.500000  1
  Os  Os33  1  0.000000  0.500000  0.500000  1
  Os  Os34  1  0.500000  0.500000  0.500000  1
  Os  Os35  1  0.000000  0.000000  0.000000  1
  Os  Os36  1  0.000000  0.000000  0.500000  1
  Au  Au37  1  0.500000  0.500000  0.000000  1
