# generated using pymatgen
data_LaY7Cd2NiOs
_symmetry_space_group_name_H-M   'P 1'
_cell_length_a   9.66446046
_cell_length_b   9.66446060
_cell_length_c   9.76978900
_cell_angle_alpha   59.63881649
_cell_angle_beta   59.63881600
_cell_angle_gamma   59.54117790
_symmetry_Int_Tables_number   1
_chemical_formula_structural   LaY7Cd2NiOs
_chemical_formula_sum   'La2 Y14 Cd4 Ni2 Os2'
_cell_volume   639.47079409
_cell_formula_units_Z   2
loop_
 _symmetry_equiv_pos_site_id
 _symmetry_equiv_pos_as_xyz
  1  'x, y, z'
loop_
 _atom_site_type_symbol
 _atom_site_label
 _atom_site_symmetry_multiplicity
 _atom_site_fract_x
 _atom_site_fract_y
 _atom_site_fract_z
 _atom_site_occupancy
  La  La0  1  0.598258  0.598258  0.596424  1
  La  La1  1  0.598258  0.598258  0.207059  1
  Y  Y2  1  0.603481  0.199975  0.598271  1
  Y  Y3  1  0.199975  0.603481  0.598271  1
  Y  Y4  1  0.063770  0.435034  0.440254  1
  Y  Y5  1  0.435034  0.063770  0.060943  1
  Y  Y6  1  0.435034  0.063770  0.440254  1
  Y  Y7  1  0.063770  0.435034  0.060943  1
  Y  Y8  1  0.436483  0.436483  0.063517  1
  Y  Y9  1  0.060421  0.060421  0.439579  1
  Y  Y10  1  0.187219  0.807972  0.817979  1
  Y  Y11  1  0.807972  0.187219  0.186830  1
  Y  Y12  1  0.807972  0.187219  0.817979  1
  Y  Y13  1  0.187219  0.807972  0.186830  1
  Y  Y14  1  0.816242  0.816242  0.183758  1
  Y  Y15  1  0.192309  0.192309  0.807691  1
  Cd  Cd16  1  0.831960  0.831960  0.828447  1
  Cd  Cd17  1  0.831960  0.831960  0.507632  1
  Cd  Cd18  1  0.832287  0.505811  0.830950  1
  Cd  Cd19  1  0.505811  0.832287  0.830950  1
  Ni  Ni20  1  0.388570  0.829653  0.390889  1
  Ni  Ni21  1  0.829653  0.388570  0.390889  1
  Os  Os22  1  0.393171  0.393171  0.391125  1
  Os  Os23  1  0.393171  0.393171  0.822535  1
