# generated using pymatgen
data_Ca20In2BiPd9
_symmetry_space_group_name_H-M   'P 1'
_cell_length_a   7.91022000
_cell_length_b   7.91022000
_cell_length_c   14.37409500
_cell_angle_alpha   90.00000000
_cell_angle_beta   90.00000000
_cell_angle_gamma   90.00000000
_symmetry_Int_Tables_number   1
_chemical_formula_structural   Ca20In2BiPd9
_chemical_formula_sum   'Ca20 In2 Bi1 Pd9'
_cell_volume   899.40984167
_cell_formula_units_Z   1
loop_
 _symmetry_equiv_pos_site_id
 _symmetry_equiv_pos_as_xyz
  1  'x, y, z'
loop_
 _atom_site_type_symbol
 _atom_site_label
 _atom_site_symmetry_multiplicity
 _atom_site_fract_x
 _atom_site_fract_y
 _atom_site_fract_z
 _atom_site_occupancy
  Ca  Ca0  1  0.674816  0.159027  0.109659  1
  Ca  Ca1  1  0.165264  0.665237  0.615973  1
  Ca  Ca2  1  0.325184  0.840973  0.109659  1
  Ca  Ca3  1  0.834736  0.334763  0.615973  1
  Ca  Ca4  1  0.840973  0.674816  0.109659  1
  Ca  Ca5  1  0.334763  0.165264  0.615973  1
  Ca  Ca6  1  0.159027  0.325184  0.109659  1
  Ca  Ca7  1  0.665237  0.834736  0.615973  1
  Ca  Ca8  1  0.840973  0.325184  0.890341  1
  Ca  Ca9  1  0.334763  0.834736  0.384027  1
  Ca  Ca10  1  0.159027  0.674816  0.890341  1
  Ca  Ca11  1  0.665237  0.165264  0.384027  1
  Ca  Ca12  1  0.674816  0.840973  0.890341  1
  Ca  Ca13  1  0.165264  0.334763  0.384027  1
  Ca  Ca14  1  0.325184  0.159027  0.890341  1
  Ca  Ca15  1  0.834736  0.665237  0.384027  1
  Ca  Ca16  1  0.500000  0.500000  0.756830  1
  Ca  Ca17  1  0.000000  0.000000  0.249693  1
  Ca  Ca18  1  0.000000  0.000000  0.750307  1
  Ca  Ca19  1  0.500000  0.500000  0.243170  1
  In  In20  1  0.500000  0.500000  0.000000  1
  In  In21  1  0.000000  0.000000  0.500000  1
  Bi  Bi22  1  0.500000  0.500000  0.500000  1
  Pd  Pd23  1  0.626950  0.127138  0.753157  1
  Pd  Pd24  1  0.127138  0.626950  0.246843  1
  Pd  Pd25  1  0.872862  0.373050  0.246843  1
  Pd  Pd26  1  0.373050  0.872862  0.753157  1
  Pd  Pd27  1  0.872862  0.626950  0.753157  1
  Pd  Pd28  1  0.373050  0.127138  0.246843  1
  Pd  Pd29  1  0.127138  0.373050  0.753157  1
  Pd  Pd30  1  0.626950  0.872862  0.246843  1
  Pd  Pd31  1  0.000000  0.000000  0.000000  1
