# generated using pymatgen
data_Er6CdHg7
_symmetry_space_group_name_H-M   'P 1'
_cell_length_a   8.24747902
_cell_length_b   8.24747869
_cell_length_c   8.24747910
_cell_angle_alpha   113.69833212
_cell_angle_beta   113.69832238
_cell_angle_gamma   113.69832427
_symmetry_Int_Tables_number   1
_chemical_formula_structural   Er6CdHg7
_chemical_formula_sum   'Er6 Cd1 Hg7'
_cell_volume   348.32941119
_cell_formula_units_Z   1
loop_
 _symmetry_equiv_pos_site_id
 _symmetry_equiv_pos_as_xyz
  1  'x, y, z'
loop_
 _atom_site_type_symbol
 _atom_site_label
 _atom_site_symmetry_multiplicity
 _atom_site_fract_x
 _atom_site_fract_y
 _atom_site_fract_z
 _atom_site_occupancy
  Er  Er0  1  0.978662  0.247641  0.384437  1
  Er  Er1  1  0.247641  0.384437  0.978662  1
  Er  Er2  1  0.384437  0.978662  0.247641  1
  Er  Er3  1  0.021338  0.752359  0.615563  1
  Er  Er4  1  0.752359  0.615563  0.021338  1
  Er  Er5  1  0.615563  0.021338  0.752359  1
  Cd  Cd6  1  0.500000  0.500000  0.500000  1
  Hg  Hg7  1  0.000000  0.000000  0.000000  1
  Hg  Hg8  1  0.107204  0.561203  0.258579  1
  Hg  Hg9  1  0.561203  0.258579  0.107204  1
  Hg  Hg10  1  0.258579  0.107204  0.561203  1
  Hg  Hg11  1  0.892796  0.438797  0.741421  1
  Hg  Hg12  1  0.438797  0.741421  0.892796  1
  Hg  Hg13  1  0.741421  0.892796  0.438797  1
