# generated using pymatgen
data_Sr4FeCo3(IrN3)2
_symmetry_space_group_name_H-M   'P 1'
_cell_length_a   6.54157896
_cell_length_b   6.50972245
_cell_length_c   6.47180640
_cell_angle_alpha   88.78149713
_cell_angle_beta   89.12682452
_cell_angle_gamma   116.45273882
_symmetry_Int_Tables_number   1
_chemical_formula_structural   Sr4FeCo3(IrN3)2
_chemical_formula_sum   'Sr4 Fe1 Co3 Ir2 N6'
_cell_volume   246.59052862
_cell_formula_units_Z   1
loop_
 _symmetry_equiv_pos_site_id
 _symmetry_equiv_pos_as_xyz
  1  'x, y, z'
loop_
 _atom_site_type_symbol
 _atom_site_label
 _atom_site_symmetry_multiplicity
 _atom_site_fract_x
 _atom_site_fract_y
 _atom_site_fract_z
 _atom_site_occupancy
  Sr  Sr0  1  0.833789  0.673029  0.895016  1
  Sr  Sr1  1  0.330569  0.165591  0.606031  1
  Sr  Sr2  1  0.168439  0.330378  0.107095  1
  Sr  Sr3  1  0.675361  0.835090  0.393211  1
  Fe  Fe4  1  0.158125  0.551935  0.604115  1
  Co  Co5  1  0.554047  0.160379  0.106408  1
  Co  Co6  1  0.442963  0.840232  0.896028  1
  Co  Co7  1  0.836630  0.442330  0.389822  1
  Ir  Ir8  1  0.813534  0.189858  0.750848  1
  Ir  Ir9  1  0.186861  0.810993  0.252379  1
  N  N10  1  0.401469  0.597473  0.743791  1
  N  N11  1  0.593489  0.406103  0.247859  1
  N  N12  1  0.012941  0.726635  0.517663  1
  N  N13  1  0.729326  0.011718  0.011686  1
  N  N14  1  0.993506  0.271103  0.488846  1
  N  N15  1  0.268952  0.987152  0.989203  1
