# generated using pymatgen
data_Zr10In6P
_symmetry_space_group_name_H-M   'P 1'
_cell_length_a   5.87445000
_cell_length_b   8.67153044
_cell_length_c   8.67153200
_cell_angle_alpha   120.00000856
_cell_angle_beta   89.99989806
_cell_angle_gamma   90.00021033
_symmetry_Int_Tables_number   1
_chemical_formula_structural   Zr10In6P
_chemical_formula_sum   'Zr10 In6 P1'
_cell_volume   382.55104248
_cell_formula_units_Z   1
loop_
 _symmetry_equiv_pos_site_id
 _symmetry_equiv_pos_as_xyz
  1  'x, y, z'
loop_
 _atom_site_type_symbol
 _atom_site_label
 _atom_site_symmetry_multiplicity
 _atom_site_fract_x
 _atom_site_fract_y
 _atom_site_fract_z
 _atom_site_occupancy
  Zr  Zr0  1  0.500000  0.333333  0.666667  1
  Zr  Zr1  1  0.500000  0.666666  0.333333  1
  Zr  Zr2  1  0.000000  0.666666  0.333332  1
  Zr  Zr3  1  0.000000  0.333335  0.666668  1
  Zr  Zr4  1  0.756028  0.244074  0.000000  1
  Zr  Zr5  1  0.756023  0.755926  0.755925  1
  Zr  Zr6  1  0.756023  0.000001  0.244075  1
  Zr  Zr7  1  0.243972  0.755926  0.000000  1
  Zr  Zr8  1  0.243977  0.244076  0.244075  1
  Zr  Zr9  1  0.243977  0.000000  0.755925  1
  In  In10  1  0.750281  0.607266  0.000000  1
  In  In11  1  0.750284  0.392734  0.392735  1
  In  In12  1  0.750284  0.000000  0.607265  1
  In  In13  1  0.249719  0.392734  0.000000  1
  In  In14  1  0.249716  0.607266  0.607265  1
  In  In15  1  0.249716  0.000000  0.392735  1
  P  P16  1  0.499999  0.000001  0.000000  1
