# generated using pymatgen
data_Sm3YMnCo7O20
_symmetry_space_group_name_H-M   'P 1'
_cell_length_a   5.70726147
_cell_length_b   7.37200685
_cell_length_c   8.49570943
_cell_angle_alpha   89.88511948
_cell_angle_beta   89.97670685
_cell_angle_gamma   89.79334854
_symmetry_Int_Tables_number   1
_chemical_formula_structural   Sm3YMnCo7O20
_chemical_formula_sum   'Sm3 Y1 Mn1 Co7 O20'
_cell_volume   357.44515661
_cell_formula_units_Z   1
loop_
 _symmetry_equiv_pos_site_id
 _symmetry_equiv_pos_as_xyz
  1  'x, y, z'
loop_
 _atom_site_type_symbol
 _atom_site_label
 _atom_site_symmetry_multiplicity
 _atom_site_fract_x
 _atom_site_fract_y
 _atom_site_fract_z
 _atom_site_occupancy
  Sm  Sm0  1  0.997620  0.639213  0.326463  1
  Sm  Sm1  1  0.999141  0.360942  0.673756  1
  Sm  Sm2  1  0.996429  0.139481  0.170818  1
  Y  Y3  1  0.000602  0.858154  0.827743  1
  Mn  Mn4  1  0.258939  0.999080  0.500498  1
  Co  Co5  1  0.499292  0.907895  0.148733  1
  Co  Co6  1  0.499662  0.090164  0.850496  1
  Co  Co7  1  0.500322  0.411205  0.348648  1
  Co  Co8  1  0.500058  0.589768  0.652225  1
  Co  Co9  1  0.257449  0.499854  0.000459  1
  Co  Co10  1  0.743111  0.999546  0.500987  1
  Co  Co11  1  0.742941  0.503707  0.998413  1
  O  O12  1  0.279859  0.500284  0.500189  1
  O  O13  1  0.723849  0.995811  0.997405  1
  O  O14  1  0.721229  0.498979  0.501357  1
  O  O15  1  0.277304  0.997821  0.998693  1
  O  O16  1  0.004620  0.661912  0.049687  1
  O  O17  1  0.994853  0.343656  0.948892  1
  O  O18  1  0.998121  0.160157  0.447252  1
  O  O19  1  0.000034  0.838080  0.555977  1
  O  O20  1  0.505150  0.651966  0.063328  1
  O  O21  1  0.496408  0.348609  0.934872  1
  O  O22  1  0.501669  0.155441  0.433505  1
  O  O23  1  0.504375  0.844236  0.566646  1
  O  O24  1  0.247778  0.896570  0.290418  1
  O  O25  1  0.245204  0.099109  0.711074  1
  O  O26  1  0.752375  0.401470  0.207068  1
  O  O27  1  0.752825  0.603669  0.794134  1
  O  O28  1  0.753850  0.097414  0.707727  1
  O  O29  1  0.751277  0.900692  0.293578  1
  O  O30  1  0.245969  0.604233  0.793168  1
  O  O31  1  0.247686  0.400882  0.205789  1
