# generated using pymatgen
data_Sc3Al12RuRh3
_symmetry_space_group_name_H-M   'P 1'
_cell_length_a   8.68494800
_cell_length_b   8.68494748
_cell_length_c   9.38510400
_cell_angle_alpha   90.00000000
_cell_angle_beta   90.00000000
_cell_angle_gamma   120.00000197
_symmetry_Int_Tables_number   1
_chemical_formula_structural   Sc3Al12RuRh3
_chemical_formula_sum   'Sc6 Al24 Ru2 Rh6'
_cell_volume   613.06162457
_cell_formula_units_Z   2
loop_
 _symmetry_equiv_pos_site_id
 _symmetry_equiv_pos_as_xyz
  1  'x, y, z'
loop_
 _atom_site_type_symbol
 _atom_site_label
 _atom_site_symmetry_multiplicity
 _atom_site_fract_x
 _atom_site_fract_y
 _atom_site_fract_z
 _atom_site_occupancy
  Sc  Sc0  1  0.191941  0.383882  0.250000  1
  Sc  Sc1  1  0.808059  0.616118  0.750000  1
  Sc  Sc2  1  0.616118  0.808059  0.250000  1
  Sc  Sc3  1  0.383882  0.191941  0.750000  1
  Sc  Sc4  1  0.191941  0.808059  0.250000  1
  Sc  Sc5  1  0.808059  0.191941  0.750000  1
  Al  Al6  1  0.333333  0.666667  0.041493  1
  Al  Al7  1  0.666667  0.333333  0.958507  1
  Al  Al8  1  0.666667  0.333333  0.541493  1
  Al  Al9  1  0.333333  0.666667  0.458507  1
  Al  Al10  1  0.163333  0.326668  0.579142  1
  Al  Al11  1  0.836667  0.673332  0.420858  1
  Al  Al12  1  0.673332  0.836667  0.579142  1
  Al  Al13  1  0.836667  0.673332  0.079142  1
  Al  Al14  1  0.326668  0.163333  0.420858  1
  Al  Al15  1  0.163333  0.326668  0.920858  1
  Al  Al16  1  0.163333  0.836667  0.579142  1
  Al  Al17  1  0.326668  0.163333  0.079142  1
  Al  Al18  1  0.836667  0.163333  0.420858  1
  Al  Al19  1  0.673332  0.836667  0.920858  1
  Al  Al20  1  0.836667  0.163333  0.079142  1
  Al  Al21  1  0.163333  0.836667  0.920858  1
  Al  Al22  1  0.559393  0.118785  0.250000  1
  Al  Al23  1  0.440607  0.881215  0.750000  1
  Al  Al24  1  0.881215  0.440607  0.250000  1
  Al  Al25  1  0.118785  0.559393  0.750000  1
  Al  Al26  1  0.559393  0.440607  0.250000  1
  Al  Al27  1  0.440607  0.559393  0.750000  1
  Al  Al28  1  0.000000  0.000000  0.250000  1
  Al  Al29  1  0.000000  0.000000  0.750000  1
  Ru  Ru30  1  0.000000  0.000000  0.000000  1
  Ru  Ru31  1  0.000000  0.000000  0.500000  1
  Rh  Rh32  1  0.500000  0.000000  0.000000  1
  Rh  Rh33  1  0.000000  0.500000  0.000000  1
  Rh  Rh34  1  0.500000  0.000000  0.500000  1
  Rh  Rh35  1  0.500000  0.500000  0.000000  1
  Rh  Rh36  1  0.000000  0.500000  0.500000  1
  Rh  Rh37  1  0.500000  0.500000  0.500000  1
