# generated using pymatgen
data_YCdGa3Pt2
_symmetry_space_group_name_H-M   'P 1'
_cell_length_a   4.29427100
_cell_length_b   6.77344900
_cell_length_c   17.60233100
_cell_angle_alpha   90.00000000
_cell_angle_beta   90.00000000
_cell_angle_gamma   90.00000000
_symmetry_Int_Tables_number   1
_chemical_formula_structural   YCdGa3Pt2
_chemical_formula_sum   'Y4 Cd4 Ga12 Pt8'
_cell_volume   511.99945260
_cell_formula_units_Z   4
loop_
 _symmetry_equiv_pos_site_id
 _symmetry_equiv_pos_as_xyz
  1  'x, y, z'
loop_
 _atom_site_type_symbol
 _atom_site_label
 _atom_site_symmetry_multiplicity
 _atom_site_fract_x
 _atom_site_fract_y
 _atom_site_fract_z
 _atom_site_occupancy
  Y  Y0  1  0.750000  0.993133  0.641894  1
  Y  Y1  1  0.250000  0.006867  0.358106  1
  Y  Y2  1  0.250000  0.493133  0.858106  1
  Y  Y3  1  0.750000  0.506867  0.141894  1
  Cd  Cd4  1  0.250000  0.499664  0.431693  1
  Cd  Cd5  1  0.750000  0.500336  0.568307  1
  Cd  Cd6  1  0.750000  0.999664  0.068307  1
  Cd  Cd7  1  0.250000  0.000336  0.931693  1
  Ga  Ga8  1  0.250000  0.283441  0.689926  1
  Ga  Ga9  1  0.750000  0.716559  0.310074  1
  Ga  Ga10  1  0.750000  0.783441  0.810074  1
  Ga  Ga11  1  0.250000  0.216559  0.189926  1
  Ga  Ga12  1  0.250000  0.684024  0.684742  1
  Ga  Ga13  1  0.750000  0.315976  0.315258  1
  Ga  Ga14  1  0.750000  0.184024  0.815258  1
  Ga  Ga15  1  0.250000  0.815976  0.184742  1
  Ga  Ga16  1  0.250000  0.170599  0.538032  1
  Ga  Ga17  1  0.750000  0.829401  0.461968  1
  Ga  Ga18  1  0.750000  0.670599  0.961968  1
  Ga  Ga19  1  0.250000  0.329401  0.038032  1
  Pt  Pt20  1  0.250000  0.789950  0.543132  1
  Pt  Pt21  1  0.750000  0.210050  0.456868  1
  Pt  Pt22  1  0.750000  0.289950  0.956868  1
  Pt  Pt23  1  0.250000  0.710050  0.043132  1
  Pt  Pt24  1  0.250000  0.980564  0.777412  1
  Pt  Pt25  1  0.750000  0.019436  0.222588  1
  Pt  Pt26  1  0.750000  0.480564  0.722588  1
  Pt  Pt27  1  0.250000  0.519436  0.277412  1
