# generated using pymatgen
data_LaYbCuPd3
_symmetry_space_group_name_H-M   'P 1'
_cell_length_a   5.55868968
_cell_length_b   5.55869015
_cell_length_c   5.30262127
_cell_angle_alpha   58.38928039
_cell_angle_beta   58.38928747
_cell_angle_gamma   60.00001091
_symmetry_Int_Tables_number   1
_chemical_formula_structural   LaYbCuPd3
_chemical_formula_sum   'La1 Yb1 Cu1 Pd3'
_cell_volume   112.95528851
_cell_formula_units_Z   1
loop_
 _symmetry_equiv_pos_site_id
 _symmetry_equiv_pos_as_xyz
  1  'x, y, z'
loop_
 _atom_site_type_symbol
 _atom_site_label
 _atom_site_symmetry_multiplicity
 _atom_site_fract_x
 _atom_site_fract_y
 _atom_site_fract_z
 _atom_site_occupancy
  La  La0  1  0.001800  0.001800  0.994602  1
  Yb  Yb1  1  0.746965  0.746965  0.759107  1
  Cu  Cu2  1  0.375714  0.375714  0.872860  1
  Pd  Pd3  1  0.375977  0.873569  0.374477  1
  Pd  Pd4  1  0.375977  0.375977  0.374477  1
  Pd  Pd5  1  0.873569  0.375977  0.374477  1
