# generated using pymatgen
data_PrYI18
_symmetry_space_group_name_H-M   'P 1'
_cell_length_a   10.56861888
_cell_length_b   10.56861950
_cell_length_c   10.56861989
_cell_angle_alpha   89.05370529
_cell_angle_beta   89.05369493
_cell_angle_gamma   89.05371230
_symmetry_Int_Tables_number   1
_chemical_formula_structural   PrYI18
_chemical_formula_sum   'Pr1 Y1 I18'
_cell_volume   1179.99177414
_cell_formula_units_Z   1
loop_
 _symmetry_equiv_pos_site_id
 _symmetry_equiv_pos_as_xyz
  1  'x, y, z'
loop_
 _atom_site_type_symbol
 _atom_site_label
 _atom_site_symmetry_multiplicity
 _atom_site_fract_x
 _atom_site_fract_y
 _atom_site_fract_z
 _atom_site_occupancy
  Pr  Pr0  1  0.500000  0.500000  0.500000  1
  Y  Y1  1  0.000000  0.000000  0.000000  1
  I  I2  1  0.713889  0.984933  0.039175  1
  I  I3  1  0.741268  0.124808  0.607676  1
  I  I4  1  0.039175  0.713889  0.984933  1
  I  I5  1  0.258732  0.875192  0.392324  1
  I  I6  1  0.124808  0.607676  0.741268  1
  I  I7  1  0.015067  0.960825  0.286111  1
  I  I8  1  0.607676  0.741268  0.124808  1
  I  I9  1  0.960825  0.286111  0.015067  1
  I  I10  1  0.875192  0.392324  0.258732  1
  I  I11  1  0.392324  0.258732  0.875192  1
  I  I12  1  0.984933  0.039175  0.713889  1
  I  I13  1  0.286111  0.015067  0.960825  1
  I  I14  1  0.798937  0.526216  0.490457  1
  I  I15  1  0.509543  0.201063  0.473784  1
  I  I16  1  0.473784  0.509543  0.201063  1
  I  I17  1  0.490457  0.798937  0.526216  1
  I  I18  1  0.526216  0.490457  0.798937  1
  I  I19  1  0.201063  0.473784  0.509543  1
