# generated using pymatgen
data_Y8Si11GePt4
_symmetry_space_group_name_H-M   'P 1'
_cell_length_a   8.16525900
_cell_length_b   8.16966093
_cell_length_c   8.20202700
_cell_angle_alpha   90.00044481
_cell_angle_beta   90.00001400
_cell_angle_gamma   119.98226441
_symmetry_Int_Tables_number   1
_chemical_formula_structural   Y8Si11GePt4
_chemical_formula_sum   'Y8 Si11 Ge1 Pt4'
_cell_volume   473.91822546
_cell_formula_units_Z   1
loop_
 _symmetry_equiv_pos_site_id
 _symmetry_equiv_pos_as_xyz
  1  'x, y, z'
loop_
 _atom_site_type_symbol
 _atom_site_label
 _atom_site_symmetry_multiplicity
 _atom_site_fract_x
 _atom_site_fract_y
 _atom_site_fract_z
 _atom_site_occupancy
  Y  Y0  1  0.999209  0.998418  0.251351  1
  Y  Y1  1  0.999190  0.998380  0.748613  1
  Y  Y2  1  0.001052  0.501211  0.250466  1
  Y  Y3  1  0.500160  0.501211  0.250466  1
  Y  Y4  1  0.500567  0.001135  0.748981  1
  Y  Y5  1  0.499197  0.998392  0.251041  1
  Y  Y6  1  0.501519  0.499840  0.749523  1
  Y  Y7  1  0.998320  0.499840  0.749523  1
  Si  Si8  1  0.669818  0.833951  0.999181  1
  Si  Si9  1  0.165551  0.331102  0.500763  1
  Si  Si10  1  0.334522  0.162624  0.000870  1
  Si  Si11  1  0.164133  0.833952  0.999181  1
  Si  Si12  1  0.668753  0.834303  0.500782  1
  Si  Si13  1  0.834518  0.669036  0.000805  1
  Si  Si14  1  0.331089  0.165767  0.499217  1
  Si  Si15  1  0.165549  0.834303  0.500782  1
  Si  Si16  1  0.834370  0.668740  0.499216  1
  Si  Si17  1  0.828103  0.162624  0.000870  1
  Si  Si18  1  0.834679  0.165768  0.499217  1
  Ge  Ge19  1  0.164467  0.328934  0.999118  1
  Pt  Pt20  1  0.337744  0.675489  0.998888  1
  Pt  Pt21  1  0.333156  0.666313  0.501144  1
  Pt  Pt22  1  0.667526  0.335051  0.001113  1
  Pt  Pt23  1  0.666809  0.333619  0.498888  1
