# generated using pymatgen
data_Ca2Pr8Si4SnGe
_symmetry_space_group_name_H-M   'P 1'
_cell_length_a   7.86322000
_cell_length_b   9.14218951
_cell_length_c   7.86322000
_cell_angle_alpha   115.47081940
_cell_angle_beta   90.00000000
_cell_angle_gamma   115.47081940
_symmetry_Int_Tables_number   1
_chemical_formula_structural   Ca2Pr8Si4SnGe
_chemical_formula_sum   'Ca2 Pr8 Si4 Sn1 Ge1'
_cell_volume   448.70388691
_cell_formula_units_Z   1
loop_
 _symmetry_equiv_pos_site_id
 _symmetry_equiv_pos_as_xyz
  1  'x, y, z'
loop_
 _atom_site_type_symbol
 _atom_site_label
 _atom_site_symmetry_multiplicity
 _atom_site_fract_x
 _atom_site_fract_y
 _atom_site_fract_z
 _atom_site_occupancy
  Ca  Ca0  1  0.994564  0.989127  0.994564  1
  Ca  Ca1  1  0.505436  0.010873  0.505436  1
  Pr  Pr2  1  0.529352  0.716190  0.675889  1
  Pr  Pr3  1  0.186838  0.716190  0.040302  1
  Pr  Pr4  1  0.675889  0.716190  0.186838  1
  Pr  Pr5  1  0.040302  0.716190  0.529352  1
  Pr  Pr6  1  0.459698  0.283810  0.313162  1
  Pr  Pr7  1  0.824111  0.283810  0.970648  1
  Pr  Pr8  1  0.313162  0.283810  0.824111  1
  Pr  Pr9  1  0.970648  0.283810  0.459698  1
  Si  Si10  1  0.885936  0.000000  0.614064  1
  Si  Si11  1  0.114064  0.000000  0.385936  1
  Si  Si12  1  0.614064  0.000000  0.114064  1
  Si  Si13  1  0.385936  0.000000  0.885936  1
  Sn  Sn14  1  0.750000  0.500000  0.750000  1
  Ge  Ge15  1  0.250000  0.500000  0.250000  1
