# generated using pymatgen
data_Sm3Y(Lu3Pt4)2
_symmetry_space_group_name_H-M   'P 1'
_cell_length_a   7.47266900
_cell_length_b   7.52071328
_cell_length_c   14.58244555
_cell_angle_alpha   90.03137908
_cell_angle_beta   90.00000000
_cell_angle_gamma   90.00000000
_symmetry_Int_Tables_number   1
_chemical_formula_structural   Sm3Y(Lu3Pt4)2
_chemical_formula_sum   'Sm6 Y2 Lu12 Pt16'
_cell_volume   819.53041492
_cell_formula_units_Z   2
loop_
 _symmetry_equiv_pos_site_id
 _symmetry_equiv_pos_as_xyz
  1  'x, y, z'
loop_
 _atom_site_type_symbol
 _atom_site_label
 _atom_site_symmetry_multiplicity
 _atom_site_fract_x
 _atom_site_fract_y
 _atom_site_fract_z
 _atom_site_occupancy
  Sm  Sm0  1  0.999422  0.821376  0.406766  1
  Sm  Sm1  1  0.499422  0.678624  0.093234  1
  Sm  Sm2  1  0.500684  0.322498  0.592914  1
  Sm  Sm3  1  0.000684  0.177502  0.907086  1
  Sm  Sm4  1  0.000691  0.178351  0.593260  1
  Sm  Sm5  1  0.500691  0.321649  0.906740  1
  Y  Y6  1  0.498679  0.678993  0.406353  1
  Y  Y7  1  0.998679  0.821007  0.093647  1
  Lu  Lu8  1  0.680766  0.991481  0.249929  1
  Lu  Lu9  1  0.180766  0.508519  0.250071  1
  Lu  Lu10  1  0.819525  0.491971  0.749933  1
  Lu  Lu11  1  0.319525  0.008029  0.750067  1
  Lu  Lu12  1  0.655636  0.832558  0.622785  1
  Lu  Lu13  1  0.155636  0.667442  0.877215  1
  Lu  Lu14  1  0.843206  0.333320  0.376856  1
  Lu  Lu15  1  0.343206  0.166680  0.123144  1
  Lu  Lu16  1  0.343944  0.166806  0.376724  1
  Lu  Lu17  1  0.843944  0.333194  0.123276  1
  Lu  Lu18  1  0.156490  0.666925  0.623074  1
  Lu  Lu19  1  0.656490  0.833075  0.876926  1
  Pt  Pt20  1  0.815920  0.640215  0.249610  1
  Pt  Pt21  1  0.315920  0.859785  0.250390  1
  Pt  Pt22  1  0.684278  0.139245  0.749972  1
  Pt  Pt23  1  0.184278  0.360755  0.750028  1
  Pt  Pt24  1  0.545345  0.380153  0.250424  1
  Pt  Pt25  1  0.045345  0.119847  0.249576  1
  Pt  Pt26  1  0.954589  0.878970  0.749978  1
  Pt  Pt27  1  0.454589  0.621030  0.750022  1
  Pt  Pt28  1  0.819307  0.537474  0.541840  1
  Pt  Pt29  1  0.319307  0.962526  0.958160  1
  Pt  Pt30  1  0.679426  0.035254  0.457197  1
  Pt  Pt31  1  0.179426  0.464746  0.042803  1
  Pt  Pt32  1  0.181892  0.464459  0.457313  1
  Pt  Pt33  1  0.681892  0.035541  0.042687  1
  Pt  Pt34  1  0.320200  0.962284  0.542075  1
  Pt  Pt35  1  0.820200  0.537716  0.957925  1
