# generated using pymatgen
data_Dy3YCo11(Si4Ni3)3
_symmetry_space_group_name_H-M   'P 1'
_cell_length_a   3.71706700
_cell_length_b   6.76738048
_cell_length_c   18.48712409
_cell_angle_alpha   89.81855233
_cell_angle_beta   90.00000000
_cell_angle_gamma   90.00000000
_symmetry_Int_Tables_number   1
_chemical_formula_structural   Dy3YCo11(Si4Ni3)3
_chemical_formula_sum   'Dy3 Y1 Co11 Si12 Ni9'
_cell_volume   465.03770022
_cell_formula_units_Z   1
loop_
 _symmetry_equiv_pos_site_id
 _symmetry_equiv_pos_as_xyz
  1  'x, y, z'
loop_
 _atom_site_type_symbol
 _atom_site_label
 _atom_site_symmetry_multiplicity
 _atom_site_fract_x
 _atom_site_fract_y
 _atom_site_fract_z
 _atom_site_occupancy
  Dy  Dy0  1  0.250000  0.623842  0.643233  1
  Dy  Dy1  1  0.750000  0.372181  0.357965  1
  Dy  Dy2  1  0.750000  0.126066  0.859339  1
  Y  Y3  1  0.250000  0.873813  0.140519  1
  Co  Co4  1  0.250000  0.128583  0.994529  1
  Co  Co5  1  0.750000  0.381403  0.987529  1
  Co  Co6  1  0.750000  0.115489  0.488292  1
  Co  Co7  1  0.250000  0.622908  0.011372  1
  Co  Co8  1  0.250000  0.358543  0.113335  1
  Co  Co9  1  0.750000  0.648729  0.888206  1
  Co  Co10  1  0.750000  0.857881  0.383153  1
  Co  Co11  1  0.250000  0.141564  0.613798  1
  Co  Co12  1  0.250000  0.062531  0.293609  1
  Co  Co13  1  0.750000  0.937962  0.706910  1
  Co  Co14  1  0.750000  0.562569  0.204991  1
  Si  Si15  1  0.250000  0.849954  0.926009  1
  Si  Si16  1  0.750000  0.155901  0.073077  1
  Si  Si17  1  0.750000  0.344140  0.574476  1
  Si  Si18  1  0.250000  0.659357  0.423360  1
  Si  Si19  1  0.750000  0.629305  0.764529  1
  Si  Si20  1  0.250000  0.372526  0.236137  1
  Si  Si21  1  0.250000  0.410712  0.918924  1
  Si  Si22  1  0.750000  0.582108  0.082775  1
  Si  Si23  1  0.750000  0.919784  0.586140  1
  Si  Si24  1  0.250000  0.078846  0.415945  1
  Si  Si25  1  0.250000  0.124700  0.736703  1
  Si  Si26  1  0.750000  0.873292  0.261229  1
  Ni  Ni27  1  0.250000  0.433802  0.795217  1
  Ni  Ni28  1  0.750000  0.632311  0.505644  1
  Ni  Ni29  1  0.250000  0.371840  0.493254  1
  Ni  Ni30  1  0.250000  0.817744  0.799593  1
  Ni  Ni31  1  0.750000  0.182204  0.200264  1
  Ni  Ni32  1  0.750000  0.320156  0.701491  1
  Ni  Ni33  1  0.250000  0.680892  0.297283  1
  Ni  Ni34  1  0.250000  0.875993  0.514588  1
  Ni  Ni35  1  0.750000  0.870371  0.006584  1
