# generated using pymatgen
data_ErTm(PdO2)4
_symmetry_space_group_name_H-M   'P 1'
_cell_length_a   6.47022459
_cell_length_b   6.47022511
_cell_length_c   6.47022499
_cell_angle_alpha   126.95276926
_cell_angle_beta   126.95277987
_cell_angle_gamma   78.32774201
_symmetry_Int_Tables_number   1
_chemical_formula_structural   ErTm(PdO2)4
_chemical_formula_sum   'Er1 Tm1 Pd4 O8'
_cell_volume   167.52683606
_cell_formula_units_Z   1
loop_
 _symmetry_equiv_pos_site_id
 _symmetry_equiv_pos_as_xyz
  1  'x, y, z'
loop_
 _atom_site_type_symbol
 _atom_site_label
 _atom_site_symmetry_multiplicity
 _atom_site_fract_x
 _atom_site_fract_y
 _atom_site_fract_z
 _atom_site_occupancy
  Er  Er0  1  0.750000  0.250000  0.500000  1
  Tm  Tm1  1  0.000000  0.000000  0.000000  1
  Pd  Pd2  1  0.374530  0.624712  0.249407  1
  Pd  Pd3  1  0.874877  0.625470  0.250182  1
  Pd  Pd4  1  0.375304  0.125123  0.750593  1
  Pd  Pd5  1  0.375288  0.624696  0.749818  1
  O  O6  1  0.989518  0.961838  0.343483  1
  O  O7  1  0.712177  0.868023  0.474498  1
  O  O8  1  0.393526  0.237680  0.525502  1
  O  O9  1  0.618355  0.646034  0.656517  1
  O  O10  1  0.762320  0.287823  0.155846  1
  O  O11  1  0.038162  0.381645  0.027679  1
  O  O12  1  0.131977  0.606474  0.844154  1
  O  O13  1  0.353966  0.010482  0.972321  1
