# generated using pymatgen
data_Yb2PrB2Pt7
_symmetry_space_group_name_H-M   'P 1'
_cell_length_a   8.26716329
_cell_length_b   8.26716321
_cell_length_c   8.26716262
_cell_angle_alpha   39.13777626
_cell_angle_beta   39.13777484
_cell_angle_gamma   39.13777689
_symmetry_Int_Tables_number   1
_chemical_formula_structural   Yb2PrB2Pt7
_chemical_formula_sum   'Yb2 Pr1 B2 Pt7'
_cell_volume   202.49341609
_cell_formula_units_Z   1
loop_
 _symmetry_equiv_pos_site_id
 _symmetry_equiv_pos_as_xyz
  1  'x, y, z'
loop_
 _atom_site_type_symbol
 _atom_site_label
 _atom_site_symmetry_multiplicity
 _atom_site_fract_x
 _atom_site_fract_y
 _atom_site_fract_z
 _atom_site_occupancy
  Yb  Yb0  1  0.502216  0.502216  0.502216  1
  Yb  Yb1  1  0.641950  0.641950  0.641950  1
  Pr  Pr2  1  0.356532  0.356532  0.356532  1
  B  B3  1  0.168046  0.168046  0.168046  1
  B  B4  1  0.831408  0.831408  0.831408  1
  Pt  Pt5  1  0.999439  0.999439  0.999439  1
  Pt  Pt6  1  0.567130  0.065266  0.065266  1
  Pt  Pt7  1  0.065266  0.567130  0.065266  1
  Pt  Pt8  1  0.934984  0.934984  0.432780  1
  Pt  Pt9  1  0.065266  0.065266  0.567130  1
  Pt  Pt10  1  0.934984  0.432780  0.934984  1
  Pt  Pt11  1  0.432780  0.934984  0.934984  1
