# generated using pymatgen
data_Mg4Zn6CoOs
_symmetry_space_group_name_H-M   'P 1'
_cell_length_a   5.10485103
_cell_length_b   5.17509788
_cell_length_c   8.34398300
_cell_angle_alpha   90.00000000
_cell_angle_beta   90.00000000
_cell_angle_gamma   119.56362209
_symmetry_Int_Tables_number   1
_chemical_formula_structural   Mg4Zn6CoOs
_chemical_formula_sum   'Mg4 Zn6 Co1 Os1'
_cell_volume   191.73377895
_cell_formula_units_Z   1
loop_
 _symmetry_equiv_pos_site_id
 _symmetry_equiv_pos_as_xyz
  1  'x, y, z'
loop_
 _atom_site_type_symbol
 _atom_site_label
 _atom_site_symmetry_multiplicity
 _atom_site_fract_x
 _atom_site_fract_y
 _atom_site_fract_z
 _atom_site_occupancy
  Mg  Mg0  1  0.323000  0.648753  0.066650  1
  Mg  Mg1  1  0.672607  0.331808  0.568416  1
  Mg  Mg2  1  0.672607  0.331808  0.931584  1
  Mg  Mg3  1  0.323000  0.648753  0.433350  1
  Zn  Zn4  1  0.998214  0.032211  0.006049  1
  Zn  Zn5  1  0.998214  0.032211  0.493951  1
  Zn  Zn6  1  0.348891  0.157342  0.250000  1
  Zn  Zn7  1  0.662086  0.827713  0.750000  1
  Zn  Zn8  1  0.168647  0.830312  0.750000  1
  Zn  Zn9  1  0.833958  0.657281  0.250000  1
  Co  Co10  1  0.823097  0.160413  0.250000  1
  Os  Os11  1  0.175678  0.341393  0.750000  1
