# generated using pymatgen
data_Tb3Dy9Y8(CoSb2)4
_symmetry_space_group_name_H-M   'P 1'
_cell_length_a   7.94118305
_cell_length_b   8.74451000
_cell_length_c   12.21335608
_cell_angle_alpha   90.00000000
_cell_angle_beta   90.01286784
_cell_angle_gamma   90.00000000
_symmetry_Int_Tables_number   1
_chemical_formula_structural   Tb3Dy9Y8(CoSb2)4
_chemical_formula_sum   'Tb3 Dy9 Y8 Co4 Sb8'
_cell_volume   848.11685407
_cell_formula_units_Z   1
loop_
 _symmetry_equiv_pos_site_id
 _symmetry_equiv_pos_as_xyz
  1  'x, y, z'
loop_
 _atom_site_type_symbol
 _atom_site_label
 _atom_site_symmetry_multiplicity
 _atom_site_fract_x
 _atom_site_fract_y
 _atom_site_fract_z
 _atom_site_occupancy
  Tb  Tb0  1  0.122832  0.250000  0.194527  1
  Tb  Tb1  1  0.377230  0.250000  0.694409  1
  Tb  Tb2  1  0.877335  0.750000  0.805663  1
  Dy  Dy3  1  0.622447  0.750000  0.305848  1
  Dy  Dy4  1  0.821997  0.965205  0.065014  1
  Dy  Dy5  1  0.322136  0.034436  0.434951  1
  Dy  Dy6  1  0.178018  0.465474  0.935035  1
  Dy  Dy7  1  0.678028  0.534769  0.564829  1
  Dy  Dy8  1  0.178018  0.034526  0.935035  1
  Dy  Dy9  1  0.678028  0.965231  0.564829  1
  Dy  Dy10  1  0.821997  0.534795  0.065014  1
  Dy  Dy11  1  0.322136  0.465564  0.434951  1
  Y  Y12  1  0.155249  0.750000  0.203793  1
  Y  Y13  1  0.655208  0.250000  0.296195  1
  Y  Y14  1  0.844752  0.250000  0.796095  1
  Y  Y15  1  0.344782  0.750000  0.703802  1
  Y  Y16  1  0.456153  0.750000  0.998350  1
  Y  Y17  1  0.956048  0.250000  0.501655  1
  Y  Y18  1  0.543824  0.250000  0.001743  1
  Y  Y19  1  0.043799  0.750000  0.498280  1
  Co  Co20  1  0.436521  0.750000  0.489513  1
  Co  Co21  1  0.936326  0.250000  0.010310  1
  Co  Co22  1  0.563613  0.250000  0.510272  1
  Co  Co23  1  0.063643  0.750000  0.989666  1
  Sb  Sb24  1  0.927733  0.991399  0.327095  1
  Sb  Sb25  1  0.428384  0.008123  0.173017  1
  Sb  Sb26  1  0.071905  0.491629  0.672875  1
  Sb  Sb27  1  0.571918  0.508357  0.827124  1
  Sb  Sb28  1  0.071905  0.008371  0.672875  1
  Sb  Sb29  1  0.571918  0.991643  0.827124  1
  Sb  Sb30  1  0.927733  0.508601  0.327095  1
  Sb  Sb31  1  0.428384  0.491877  0.173017  1
