# generated using pymatgen
data_Ho4Er8TcOs3
_symmetry_space_group_name_H-M   'P 1'
_cell_length_a   6.27227712
_cell_length_b   7.39173969
_cell_length_c   8.96932500
_cell_angle_alpha   90.00000000
_cell_angle_beta   90.00000000
_cell_angle_gamma   90.05348947
_symmetry_Int_Tables_number   1
_chemical_formula_structural   Ho4Er8TcOs3
_chemical_formula_sum   'Ho4 Er8 Tc1 Os3'
_cell_volume   415.84499010
_cell_formula_units_Z   1
loop_
 _symmetry_equiv_pos_site_id
 _symmetry_equiv_pos_as_xyz
  1  'x, y, z'
loop_
 _atom_site_type_symbol
 _atom_site_label
 _atom_site_symmetry_multiplicity
 _atom_site_fract_x
 _atom_site_fract_y
 _atom_site_fract_z
 _atom_site_occupancy
  Ho  Ho0  1  0.871956  0.539932  0.250000  1
  Ho  Ho1  1  0.626252  0.039656  0.250000  1
  Ho  Ho2  1  0.129575  0.459777  0.750000  1
  Ho  Ho3  1  0.369979  0.960519  0.750000  1
  Er  Er4  1  0.335525  0.674715  0.062645  1
  Er  Er5  1  0.165427  0.175139  0.437128  1
  Er  Er6  1  0.666505  0.324586  0.562419  1
  Er  Er7  1  0.834753  0.825199  0.937017  1
  Er  Er8  1  0.666505  0.324586  0.937581  1
  Er  Er9  1  0.834753  0.825199  0.562983  1
  Er  Er10  1  0.335525  0.674715  0.437355  1
  Er  Er11  1  0.165427  0.175139  0.062872  1
  Tc  Tc12  1  0.039053  0.882675  0.250000  1
  Os  Os13  1  0.459244  0.381909  0.250000  1
  Os  Os14  1  0.959192  0.118618  0.750000  1
  Os  Os15  1  0.540328  0.617637  0.750000  1
