# generated using pymatgen
data_Ba10Al4Si13P
_symmetry_space_group_name_H-M   'P 1'
_cell_length_a   6.71064369
_cell_length_b   6.71064366
_cell_length_c   18.27267067
_cell_angle_alpha   81.64152331
_cell_angle_beta   81.64151323
_cell_angle_gamma   100.72797855
_symmetry_Int_Tables_number   1
_chemical_formula_structural   Ba10Al4Si13P
_chemical_formula_sum   'Ba10 Al4 Si13 P1'
_cell_volume   787.21452719
_cell_formula_units_Z   1
loop_
 _symmetry_equiv_pos_site_id
 _symmetry_equiv_pos_as_xyz
  1  'x, y, z'
loop_
 _atom_site_type_symbol
 _atom_site_label
 _atom_site_symmetry_multiplicity
 _atom_site_fract_x
 _atom_site_fract_y
 _atom_site_fract_z
 _atom_site_occupancy
  Ba  Ba0  1  0.748694  0.252254  0.998832  1
  Ba  Ba1  1  0.120561  0.572124  0.788850  1
  Ba  Ba2  1  0.289789  0.709415  0.500344  1
  Ba  Ba3  1  0.760101  0.760101  0.643539  1
  Ba  Ba4  1  0.241578  0.241578  0.355093  1
  Ba  Ba5  1  0.572124  0.120561  0.788850  1
  Ba  Ba6  1  0.252254  0.748694  0.998832  1
  Ba  Ba7  1  0.709415  0.289789  0.500344  1
  Ba  Ba8  1  0.428485  0.882541  0.210854  1
  Ba  Ba9  1  0.882541  0.428485  0.210854  1
  Al  Al10  1  0.223659  0.223659  0.070411  1
  Al  Al11  1  0.928982  0.928982  0.261818  1
  Al  Al12  1  0.069251  0.069251  0.737007  1
  Al  Al13  1  0.778729  0.778729  0.928681  1
  Si  Si14  1  0.350643  0.350643  0.643401  1
  Si  Si15  1  0.295625  0.295625  0.931059  1
  Si  Si16  1  0.932455  0.932455  0.127001  1
  Si  Si17  1  0.649599  0.649599  0.357453  1
  Si  Si18  1  0.425918  0.425918  0.148271  1
  Si  Si19  1  0.068389  0.068389  0.869974  1
  Si  Si20  1  0.819728  0.819728  0.448943  1
  Si  Si21  1  0.331721  0.974697  0.642360  1
  Si  Si22  1  0.669633  0.024585  0.358388  1
  Si  Si23  1  0.181789  0.181789  0.551446  1
  Si  Si24  1  0.974697  0.331721  0.642360  1
  Si  Si25  1  0.024585  0.669633  0.358388  1
  Si  Si26  1  0.701764  0.701764  0.068085  1
  P  P27  1  0.567291  0.567291  0.858562  1
