# generated using pymatgen
data_HoSc6Sn23Ru6
_symmetry_space_group_name_H-M   'P 1'
_cell_length_a   9.72099700
_cell_length_b   9.72099645
_cell_length_c   9.91581900
_cell_angle_alpha   90.00000000
_cell_angle_beta   90.00000000
_cell_angle_gamma   119.99999849
_symmetry_Int_Tables_number   1
_chemical_formula_structural   HoSc6Sn23Ru6
_chemical_formula_sum   'Ho1 Sc6 Sn23 Ru6'
_cell_volume   811.48560909
_cell_formula_units_Z   1
loop_
 _symmetry_equiv_pos_site_id
 _symmetry_equiv_pos_as_xyz
  1  'x, y, z'
loop_
 _atom_site_type_symbol
 _atom_site_label
 _atom_site_symmetry_multiplicity
 _atom_site_fract_x
 _atom_site_fract_y
 _atom_site_fract_z
 _atom_site_occupancy
  Ho  Ho0  1  0.000000  0.000000  0.000000  1
  Sc  Sc1  1  0.510039  0.489961  0.698187  1
  Sc  Sc2  1  0.510039  0.020076  0.698187  1
  Sc  Sc3  1  0.979924  0.489961  0.698187  1
  Sc  Sc4  1  0.020076  0.510039  0.301813  1
  Sc  Sc5  1  0.489961  0.979924  0.301813  1
  Sc  Sc6  1  0.489961  0.510039  0.301813  1
  Sn  Sn7  1  0.666667  0.333333  0.172729  1
  Sn  Sn8  1  0.666667  0.333333  0.853617  1
  Sn  Sn9  1  0.333333  0.666667  0.146383  1
  Sn  Sn10  1  0.350036  0.350036  0.000000  1
  Sn  Sn11  1  0.000000  0.649964  0.000000  1
  Sn  Sn12  1  0.649964  0.000000  0.000000  1
  Sn  Sn13  1  0.649964  0.649964  0.000000  1
  Sn  Sn14  1  0.333333  0.666667  0.827271  1
  Sn  Sn15  1  0.446277  0.223139  0.466629  1
  Sn  Sn16  1  0.223139  0.776861  0.533371  1
  Sn  Sn17  1  0.223139  0.446277  0.533371  1
  Sn  Sn18  1  0.553723  0.776861  0.533371  1
  Sn  Sn19  1  0.122594  0.877406  0.277256  1
  Sn  Sn20  1  0.776861  0.553723  0.466629  1
  Sn  Sn21  1  0.776861  0.223139  0.466629  1
  Sn  Sn22  1  0.350036  0.000000  0.000000  1
  Sn  Sn23  1  0.122594  0.245186  0.277256  1
  Sn  Sn24  1  0.754814  0.877406  0.277256  1
  Sn  Sn25  1  0.245186  0.122594  0.722744  1
  Sn  Sn26  1  0.877406  0.754814  0.722744  1
  Sn  Sn27  1  0.877406  0.122594  0.722744  1
  Sn  Sn28  1  0.000000  0.000000  0.500000  1
  Sn  Sn29  1  0.000000  0.350036  0.000000  1
  Ru  Ru30  1  0.171627  0.828373  0.794967  1
  Ru  Ru31  1  0.171627  0.343255  0.794967  1
  Ru  Ru32  1  0.656745  0.828373  0.794967  1
  Ru  Ru33  1  0.343255  0.171627  0.205033  1
  Ru  Ru34  1  0.828373  0.656745  0.205033  1
  Ru  Ru35  1  0.828373  0.171627  0.205033  1
