# generated using pymatgen
data_Y9Th3Fe4
_symmetry_space_group_name_H-M   'P 1'
_cell_length_a   6.27132100
_cell_length_b   7.00261304
_cell_length_c   9.47925000
_cell_angle_alpha   90.00000000
_cell_angle_beta   90.00000000
_cell_angle_gamma   90.89642183
_symmetry_Int_Tables_number   1
_chemical_formula_structural   Y9Th3Fe4
_chemical_formula_sum   'Y9 Th3 Fe4'
_cell_volume   416.23632679
_cell_formula_units_Z   1
loop_
 _symmetry_equiv_pos_site_id
 _symmetry_equiv_pos_as_xyz
  1  'x, y, z'
loop_
 _atom_site_type_symbol
 _atom_site_label
 _atom_site_symmetry_multiplicity
 _atom_site_fract_x
 _atom_site_fract_y
 _atom_site_fract_z
 _atom_site_occupancy
  Y  Y0  1  0.326336  0.670057  0.067436  1
  Y  Y1  1  0.172202  0.169622  0.431653  1
  Y  Y2  1  0.676166  0.329715  0.569237  1
  Y  Y3  1  0.825470  0.830891  0.929549  1
  Y  Y4  1  0.676166  0.329715  0.930763  1
  Y  Y5  1  0.825470  0.830891  0.570451  1
  Y  Y6  1  0.326336  0.670057  0.432564  1
  Y  Y7  1  0.172202  0.169622  0.068347  1
  Y  Y8  1  0.357225  0.951569  0.750000  1
  Th  Th9  1  0.843353  0.562037  0.250000  1
  Th  Th10  1  0.650284  0.059059  0.250000  1
  Th  Th11  1  0.157268  0.443348  0.750000  1
  Fe  Fe12  1  0.011995  0.870705  0.250000  1
  Fe  Fe13  1  0.487360  0.367949  0.250000  1
  Fe  Fe14  1  0.978922  0.136302  0.750000  1
  Fe  Fe15  1  0.513247  0.608464  0.750000  1
