# generated using pymatgen
data_Mg2Fe7Ni5P7
_symmetry_space_group_name_H-M   'P 1'
_cell_length_a   8.95737447
_cell_length_b   9.02428066
_cell_length_c   3.53879500
_cell_angle_alpha   90.00000000
_cell_angle_beta   90.00000000
_cell_angle_gamma   120.10042744
_symmetry_Int_Tables_number   1
_chemical_formula_structural   Mg2Fe7Ni5P7
_chemical_formula_sum   'Mg2 Fe7 Ni5 P7'
_cell_volume   247.47935559
_cell_formula_units_Z   1
loop_
 _symmetry_equiv_pos_site_id
 _symmetry_equiv_pos_as_xyz
  1  'x, y, z'
loop_
 _atom_site_type_symbol
 _atom_site_label
 _atom_site_symmetry_multiplicity
 _atom_site_fract_x
 _atom_site_fract_y
 _atom_site_fract_z
 _atom_site_occupancy
  Mg  Mg0  1  0.000511  0.002134  0.000000  1
  Mg  Mg1  1  0.336517  0.669642  0.500000  1
  Fe  Fe2  1  0.053910  0.769404  0.500000  1
  Fe  Fe3  1  0.719949  0.944964  0.500000  1
  Fe  Fe4  1  0.880777  0.426676  0.500000  1
  Fe  Fe5  1  0.540149  0.111691  0.500000  1
  Fe  Fe6  1  0.572616  0.463661  0.500000  1
  Fe  Fe7  1  0.383938  0.212175  0.000000  1
  Fe  Fe8  1  0.786139  0.178066  0.000000  1
  Ni  Ni9  1  0.821743  0.606669  0.000000  1
  Ni  Ni10  1  0.603423  0.703943  0.000000  1
  Ni  Ni11  1  0.301378  0.897141  0.000000  1
  Ni  Ni12  1  0.106100  0.402231  0.000000  1
  Ni  Ni13  1  0.222781  0.279689  0.500000  1
  P  P14  1  0.257258  0.041808  0.500000  1
  P  P15  1  0.946292  0.211115  0.500000  1
  P  P16  1  0.793554  0.748002  0.500000  1
  P  P17  1  0.375375  0.449438  0.000000  1
  P  P18  1  0.558277  0.925111  0.000000  1
  P  P19  1  0.079449  0.630417  0.000000  1
  P  P20  1  0.659866  0.326021  0.000000  1
