# generated using pymatgen
data_Yb2ZnGa3Ni2
_symmetry_space_group_name_H-M   'P 1'
_cell_length_a   5.17770228
_cell_length_b   5.17770246
_cell_length_c   7.01652342
_cell_angle_alpha   90.33584064
_cell_angle_beta   89.66415871
_cell_angle_gamma   133.39989045
_symmetry_Int_Tables_number   1
_chemical_formula_structural   Yb2ZnGa3Ni2
_chemical_formula_sum   'Yb2 Zn1 Ga3 Ni2'
_cell_volume   136.66847182
_cell_formula_units_Z   1
loop_
 _symmetry_equiv_pos_site_id
 _symmetry_equiv_pos_as_xyz
  1  'x, y, z'
loop_
 _atom_site_type_symbol
 _atom_site_label
 _atom_site_symmetry_multiplicity
 _atom_site_fract_x
 _atom_site_fract_y
 _atom_site_fract_z
 _atom_site_occupancy
  Yb  Yb0  1  0.563633  0.436367  0.254595  1
  Yb  Yb1  1  0.436691  0.563309  0.748762  1
  Zn  Zn2  1  0.850045  0.149955  0.444984  1
  Ga  Ga3  1  0.154259  0.845741  0.552810  1
  Ga  Ga4  1  0.849019  0.150981  0.058570  1
  Ga  Ga5  1  0.149845  0.850155  0.943252  1
  Ni  Ni6  1  0.281856  0.718144  0.243053  1
  Ni  Ni7  1  0.714652  0.285348  0.753974  1
