# generated using pymatgen
data_ErTm15In5Co2Hg
_symmetry_space_group_name_H-M   'P 1'
_cell_length_a   10.19730800
_cell_length_b   10.19135317
_cell_length_c   6.94791220
_cell_angle_alpha   90.05703000
_cell_angle_beta   90.00000000
_cell_angle_gamma   120.01932395
_symmetry_Int_Tables_number   1
_chemical_formula_structural   ErTm15In5Co2Hg
_chemical_formula_sum   'Er1 Tm15 In5 Co2 Hg1'
_cell_volume   625.19782176
_cell_formula_units_Z   1
loop_
 _symmetry_equiv_pos_site_id
 _symmetry_equiv_pos_as_xyz
  1  'x, y, z'
loop_
 _atom_site_type_symbol
 _atom_site_label
 _atom_site_symmetry_multiplicity
 _atom_site_fract_x
 _atom_site_fract_y
 _atom_site_fract_z
 _atom_site_occupancy
  Er  Er0  1  0.002139  0.004277  0.278787  1
  Tm  Tm1  1  0.534064  0.068129  0.792860  1
  Tm  Tm2  1  0.927600  0.468880  0.792967  1
  Tm  Tm3  1  0.541280  0.468880  0.792967  1
  Tm  Tm4  1  0.464380  0.928760  0.289648  1
  Tm  Tm5  1  0.072135  0.533595  0.293613  1
  Tm  Tm6  1  0.461460  0.533595  0.293613  1
  Tm  Tm7  1  0.821426  0.642851  0.481892  1
  Tm  Tm8  1  0.358431  0.178894  0.499229  1
  Tm  Tm9  1  0.820463  0.178894  0.499229  1
  Tm  Tm10  1  0.178743  0.357487  0.994140  1
  Tm  Tm11  1  0.647213  0.819418  0.001464  1
  Tm  Tm12  1  0.172205  0.819418  0.001464  1
  Tm  Tm13  1  0.667969  0.335939  0.180064  1
  Tm  Tm14  1  0.333964  0.667930  0.683470  1
  Tm  Tm15  1  0.998776  0.997551  0.777096  1
  In  In16  1  0.327254  0.163256  0.039520  1
  In  In17  1  0.836000  0.163256  0.039520  1
  In  In18  1  0.162660  0.325319  0.542886  1
  In  In19  1  0.673453  0.836752  0.541475  1
  In  In20  1  0.163301  0.836752  0.541475  1
  Co  Co21  1  0.666968  0.333937  0.566547  1
  Co  Co22  1  0.333391  0.666784  0.066960  1
  Hg  Hg23  1  0.834723  0.669449  0.045023  1
