# generated using pymatgen
data_Tm4Lu4MgInNi2
_symmetry_space_group_name_H-M   'P 1'
_cell_length_a   9.41428680
_cell_length_b   9.41428720
_cell_length_c   9.39767800
_cell_angle_alpha   60.05833691
_cell_angle_beta   60.05833550
_cell_angle_gamma   60.46980661
_symmetry_Int_Tables_number   1
_chemical_formula_structural   Tm4Lu4MgInNi2
_chemical_formula_sum   'Tm8 Lu8 Mg2 In2 Ni4'
_cell_volume   591.53963007
_cell_formula_units_Z   2
loop_
 _symmetry_equiv_pos_site_id
 _symmetry_equiv_pos_as_xyz
  1  'x, y, z'
loop_
 _atom_site_type_symbol
 _atom_site_label
 _atom_site_symmetry_multiplicity
 _atom_site_fract_x
 _atom_site_fract_y
 _atom_site_fract_z
 _atom_site_occupancy
  Tm  Tm0  1  0.432724  0.432724  0.067276  1
  Tm  Tm1  1  0.062356  0.062356  0.437644  1
  Tm  Tm2  1  0.185684  0.815904  0.814507  1
  Tm  Tm3  1  0.815904  0.185684  0.183905  1
  Tm  Tm4  1  0.815904  0.185684  0.814507  1
  Tm  Tm5  1  0.185684  0.815904  0.183905  1
  Tm  Tm6  1  0.812725  0.812725  0.187275  1
  Tm  Tm7  1  0.191762  0.191762  0.808238  1
  Lu  Lu8  1  0.593205  0.593205  0.597668  1
  Lu  Lu9  1  0.593205  0.593205  0.215923  1
  Lu  Lu10  1  0.605804  0.205490  0.594353  1
  Lu  Lu11  1  0.205490  0.605804  0.594353  1
  Lu  Lu12  1  0.060790  0.437471  0.438731  1
  Lu  Lu13  1  0.437471  0.060790  0.063009  1
  Lu  Lu14  1  0.437471  0.060790  0.438731  1
  Lu  Lu15  1  0.060790  0.437471  0.063009  1
  Mg  Mg16  1  0.828266  0.516499  0.827617  1
  Mg  Mg17  1  0.516499  0.828266  0.827617  1
  In  In18  1  0.832084  0.832084  0.834015  1
  In  In19  1  0.832084  0.832084  0.501816  1
  Ni  Ni20  1  0.388613  0.388613  0.401549  1
  Ni  Ni21  1  0.388613  0.388613  0.821226  1
  Ni  Ni22  1  0.391742  0.825132  0.391563  1
  Ni  Ni23  1  0.825132  0.391742  0.391563  1
