# generated using pymatgen
data_Sm(ZnAu)6
_symmetry_space_group_name_H-M   'P 1'
_cell_length_a   7.10083527
_cell_length_b   7.10083534
_cell_length_c   7.10083520
_cell_angle_alpha   100.42393866
_cell_angle_beta   95.49341950
_cell_angle_gamma   136.33079612
_symmetry_Int_Tables_number   1
_chemical_formula_structural   Sm(ZnAu)6
_chemical_formula_sum   'Sm1 Zn6 Au6'
_cell_volume   229.20652249
_cell_formula_units_Z   1
loop_
 _symmetry_equiv_pos_site_id
 _symmetry_equiv_pos_as_xyz
  1  'x, y, z'
loop_
 _atom_site_type_symbol
 _atom_site_label
 _atom_site_symmetry_multiplicity
 _atom_site_fract_x
 _atom_site_fract_y
 _atom_site_fract_z
 _atom_site_occupancy
  Sm  Sm0  1  0.000000  0.000000  0.000000  1
  Zn  Zn1  1  0.000000  0.000000  0.500000  1
  Zn  Zn2  1  0.500000  0.000000  0.000000  1
  Zn  Zn3  1  0.000000  0.500000  0.000000  1
  Zn  Zn4  1  0.500000  0.500000  0.500000  1
  Zn  Zn5  1  0.500000  0.741333  0.241333  1
  Zn  Zn6  1  0.500000  0.258667  0.758667  1
  Au  Au7  1  0.322208  0.500000  0.822208  1
  Au  Au8  1  0.659342  0.000000  0.659342  1
  Au  Au9  1  0.000000  0.663786  0.663786  1
  Au  Au10  1  0.000000  0.336214  0.336214  1
  Au  Au11  1  0.340658  0.000000  0.340658  1
  Au  Au12  1  0.677792  0.500000  0.177792  1
