# generated using pymatgen
data_Tm8In4Ga7Hg
_symmetry_space_group_name_H-M   'P 1'
_cell_length_a   7.16397200
_cell_length_b   7.16397158
_cell_length_c   8.86610805
_cell_angle_alpha   89.99402943
_cell_angle_beta   89.99402514
_cell_angle_gamma   90.05663215
_symmetry_Int_Tables_number   1
_chemical_formula_structural   Tm8In4Ga7Hg
_chemical_formula_sum   'Tm8 In4 Ga7 Hg1'
_cell_volume   455.03053091
_cell_formula_units_Z   1
loop_
 _symmetry_equiv_pos_site_id
 _symmetry_equiv_pos_as_xyz
  1  'x, y, z'
loop_
 _atom_site_type_symbol
 _atom_site_label
 _atom_site_symmetry_multiplicity
 _atom_site_fract_x
 _atom_site_fract_y
 _atom_site_fract_z
 _atom_site_occupancy
  Tm  Tm0  1  0.826864  0.170417  0.501696  1
  Tm  Tm1  1  0.170417  0.826864  0.501696  1
  Tm  Tm2  1  0.331498  0.331498  0.997206  1
  Tm  Tm3  1  0.670990  0.670990  0.999388  1
  Tm  Tm4  1  0.671087  0.671087  0.500629  1
  Tm  Tm5  1  0.331146  0.331146  0.502966  1
  Tm  Tm6  1  0.169903  0.826037  0.998459  1
  Tm  Tm7  1  0.826037  0.169903  0.998459  1
  In  In8  1  0.506677  0.999279  0.250710  1
  In  In9  1  0.998720  0.500186  0.748538  1
  In  In10  1  0.500186  0.998720  0.748538  1
  In  In11  1  0.999279  0.506677  0.250710  1
  Ga  Ga12  1  0.628016  0.374452  0.250285  1
  Ga  Ga13  1  0.374452  0.628016  0.250285  1
  Ga  Ga14  1  0.126924  0.126924  0.750723  1
  Ga  Ga15  1  0.873289  0.873289  0.750036  1
  Ga  Ga16  1  0.372455  0.626360  0.749994  1
  Ga  Ga17  1  0.626360  0.372455  0.749994  1
  Ga  Ga18  1  0.866781  0.866781  0.250100  1
  Hg  Hg19  1  0.128919  0.128919  0.249583  1
