# generated using pymatgen
data_Co9(SeS)4
_symmetry_space_group_name_H-M   'P 1'
_cell_length_a   7.18671099
_cell_length_b   7.07193007
_cell_length_c   7.07192998
_cell_angle_alpha   61.07674605
_cell_angle_beta   59.46162294
_cell_angle_gamma   59.46163511
_symmetry_Int_Tables_number   1
_chemical_formula_structural   Co9(SeS)4
_chemical_formula_sum   'Co9 Se4 S4'
_cell_volume   254.01445897
_cell_formula_units_Z   1
loop_
 _symmetry_equiv_pos_site_id
 _symmetry_equiv_pos_as_xyz
  1  'x, y, z'
loop_
 _atom_site_type_symbol
 _atom_site_label
 _atom_site_symmetry_multiplicity
 _atom_site_fract_x
 _atom_site_fract_y
 _atom_site_fract_z
 _atom_site_occupancy
  Co  Co0  1  0.616697  0.133262  0.133262  1
  Co  Co1  1  0.116781  0.133262  0.133262  1
  Co  Co2  1  0.883219  0.866738  0.866738  1
  Co  Co3  1  0.383303  0.866738  0.866738  1
  Co  Co4  1  0.866738  0.383303  0.883219  1
  Co  Co5  1  0.500000  0.500000  0.500000  1
  Co  Co6  1  0.866738  0.883219  0.383303  1
  Co  Co7  1  0.133262  0.116781  0.616697  1
  Co  Co8  1  0.133262  0.616697  0.116781  1
  Se  Se9  1  0.264429  0.735571  0.264429  1
  Se  Se10  1  0.735571  0.264429  0.735571  1
  Se  Se11  1  0.264429  0.264429  0.735571  1
  Se  Se12  1  0.735571  0.735571  0.264429  1
  S  S13  1  0.737710  0.262290  0.262290  1
  S  S14  1  0.262290  0.737710  0.737710  1
  S  S15  1  0.750000  0.750000  0.750000  1
  S  S16  1  0.250000  0.250000  0.250000  1
