# generated using pymatgen
data_NdSm11(SiI3)4
_symmetry_space_group_name_H-M   'P 1'
_cell_length_a   10.69468736
_cell_length_b   10.69468883
_cell_length_c   10.70696506
_cell_angle_alpha   109.41833661
_cell_angle_beta   109.41833085
_cell_angle_gamma   109.54325656
_symmetry_Int_Tables_number   1
_chemical_formula_structural   NdSm11(SiI3)4
_chemical_formula_sum   'Nd1 Sm11 Si4 I12'
_cell_volume   943.10689568
_cell_formula_units_Z   1
loop_
 _symmetry_equiv_pos_site_id
 _symmetry_equiv_pos_as_xyz
  1  'x, y, z'
loop_
 _atom_site_type_symbol
 _atom_site_label
 _atom_site_symmetry_multiplicity
 _atom_site_fract_x
 _atom_site_fract_y
 _atom_site_fract_z
 _atom_site_occupancy
  Nd  Nd0  1  0.233318  0.266682  0.750000  1
  Sm  Sm1  1  0.463354  0.481929  0.232229  1
  Sm  Sm2  1  0.749551  0.231448  0.268246  1
  Sm  Sm3  1  0.749384  0.018136  0.480956  1
  Sm  Sm4  1  0.231395  0.463072  0.480865  1
  Sm  Sm5  1  0.268552  0.750449  0.231754  1
  Sm  Sm6  1  0.036928  0.268605  0.019135  1
  Sm  Sm7  1  0.018071  0.036646  0.267771  1
  Sm  Sm8  1  0.481864  0.750616  0.019044  1
  Sm  Sm9  1  0.481510  0.232013  0.463340  1
  Sm  Sm10  1  0.018626  0.481374  0.750000  1
  Sm  Sm11  1  0.267987  0.018490  0.036660  1
  Si  Si12  1  0.249977  0.250023  0.250000  1
  Si  Si13  1  0.499636  0.000364  0.250000  1
  Si  Si14  1  0.999404  0.249812  0.499169  1
  Si  Si15  1  0.250188  0.500596  0.000831  1
  I  I16  1  0.250076  0.757312  0.743118  1
  I  I17  1  0.516931  0.510952  0.756495  1
  I  I18  1  0.985571  0.742629  0.992920  1
  I  I19  1  0.742688  0.249924  0.756882  1
  I  I20  1  0.989048  0.983069  0.743505  1
  I  I21  1  0.249405  0.989976  0.504336  1
  I  I22  1  0.757371  0.514429  0.507080  1
  I  I23  1  0.510024  0.250595  0.995664  1
  I  I24  1  0.757139  0.742861  0.250000  1
  I  I25  1  0.742471  0.993027  0.985548  1
  I  I26  1  0.992556  0.507444  0.250000  1
  I  I27  1  0.506973  0.757529  0.514452  1
