# generated using pymatgen
data_Rb7VIn3P5
_symmetry_space_group_name_H-M   'P 1'
_cell_length_a   8.51366815
_cell_length_b   9.34514301
_cell_length_c   14.28021672
_cell_angle_alpha   85.33467422
_cell_angle_beta   82.78769729
_cell_angle_gamma   85.30014594
_symmetry_Int_Tables_number   1
_chemical_formula_structural   Rb7VIn3P5
_chemical_formula_sum   'Rb14 V2 In6 P10'
_cell_volume   1120.47121609
_cell_formula_units_Z   2
loop_
 _symmetry_equiv_pos_site_id
 _symmetry_equiv_pos_as_xyz
  1  'x, y, z'
loop_
 _atom_site_type_symbol
 _atom_site_label
 _atom_site_symmetry_multiplicity
 _atom_site_fract_x
 _atom_site_fract_y
 _atom_site_fract_z
 _atom_site_occupancy
  Rb  Rb0  1  0.862446  0.354278  0.653591  1
  Rb  Rb1  1  0.820798  0.803964  0.132475  1
  Rb  Rb2  1  0.240877  0.016329  0.467556  1
  Rb  Rb3  1  0.274178  0.264440  0.249233  1
  Rb  Rb4  1  0.741686  0.496679  0.976129  1
  Rb  Rb5  1  0.258314  0.503321  0.023871  1
  Rb  Rb6  1  0.671282  0.083663  0.885951  1
  Rb  Rb7  1  0.759123  0.983671  0.532444  1
  Rb  Rb8  1  0.725822  0.735560  0.750767  1
  Rb  Rb9  1  0.360469  0.349006  0.601847  1
  Rb  Rb10  1  0.137554  0.645722  0.346409  1
  Rb  Rb11  1  0.179202  0.196036  0.867525  1
  Rb  Rb12  1  0.328718  0.916337  0.114049  1
  Rb  Rb13  1  0.639531  0.650994  0.398153  1
  V  V14  1  0.354116  0.608849  0.775374  1
  V  V15  1  0.645884  0.391151  0.224626  1
  In  In16  1  0.051133  0.814055  0.870219  1
  In  In17  1  0.948867  0.185945  0.129781  1
  In  In18  1  0.358150  0.952636  0.704456  1
  In  In19  1  0.102822  0.719873  0.625045  1
  In  In20  1  0.897178  0.280127  0.374955  1
  In  In21  1  0.641850  0.047364  0.295544  1
  P  P22  1  0.907708  0.449967  0.209454  1
  P  P23  1  0.630494  0.203050  0.126047  1
  P  P24  1  0.092292  0.550033  0.790546  1
  P  P25  1  0.577831  0.297916  0.380702  1
  P  P26  1  0.422169  0.702084  0.619298  1
  P  P27  1  0.026905  0.992609  0.703268  1
  P  P28  1  0.511641  0.416340  0.809354  1
  P  P29  1  0.488359  0.583660  0.190646  1
  P  P30  1  0.369506  0.796950  0.873953  1
  P  P31  1  0.973095  0.007391  0.296732  1
