# generated using pymatgen
data_Pa3Si3Ir2
_symmetry_space_group_name_H-M   'P 1'
_cell_length_a   5.54129164
_cell_length_b   5.54129003
_cell_length_c   14.29239400
_cell_angle_alpha   90.00000000
_cell_angle_beta   90.00000000
_cell_angle_gamma   135.22955841
_symmetry_Int_Tables_number   1
_chemical_formula_structural   Pa3Si3Ir2
_chemical_formula_sum   'Pa6 Si6 Ir4'
_cell_volume   309.07569847
_cell_formula_units_Z   2
loop_
 _symmetry_equiv_pos_site_id
 _symmetry_equiv_pos_as_xyz
  1  'x, y, z'
loop_
 _atom_site_type_symbol
 _atom_site_label
 _atom_site_symmetry_multiplicity
 _atom_site_fract_x
 _atom_site_fract_y
 _atom_site_fract_z
 _atom_site_occupancy
  Pa  Pa0  1  0.411397  0.588603  0.389623  1
  Pa  Pa1  1  0.411397  0.588603  0.110377  1
  Pa  Pa2  1  0.864861  0.135139  0.750000  1
  Pa  Pa3  1  0.135139  0.864860  0.250000  1
  Pa  Pa4  1  0.588603  0.411397  0.610377  1
  Pa  Pa5  1  0.588603  0.411397  0.889623  1
  Si  Si6  1  0.886430  0.113570  0.537267  1
  Si  Si7  1  0.886430  0.113570  0.962733  1
  Si  Si8  1  0.850228  0.149772  0.250000  1
  Si  Si9  1  0.113570  0.886430  0.037267  1
  Si  Si10  1  0.113570  0.886430  0.462733  1
  Si  Si11  1  0.149772  0.850228  0.750000  1
  Ir  Ir12  1  0.299687  0.700313  0.607701  1
  Ir  Ir13  1  0.700313  0.299687  0.107701  1
  Ir  Ir14  1  0.299687  0.700313  0.892299  1
  Ir  Ir15  1  0.700313  0.299687  0.392299  1
