# generated using pymatgen
data_TbPr4Co(P2Ru3)6
_symmetry_space_group_name_H-M   'P 1'
_cell_length_a   12.60088383
_cell_length_b   12.60088366
_cell_length_c   4.01560600
_cell_angle_alpha   90.00000000
_cell_angle_beta   90.00000000
_cell_angle_gamma   119.80189817
_symmetry_Int_Tables_number   1
_chemical_formula_structural   TbPr4Co(P2Ru3)6
_chemical_formula_sum   'Tb1 Pr4 Co1 P12 Ru18'
_cell_volume   553.28286446
_cell_formula_units_Z   1
loop_
 _symmetry_equiv_pos_site_id
 _symmetry_equiv_pos_as_xyz
  1  'x, y, z'
loop_
 _atom_site_type_symbol
 _atom_site_label
 _atom_site_symmetry_multiplicity
 _atom_site_fract_x
 _atom_site_fract_y
 _atom_site_fract_z
 _atom_site_occupancy
  Tb  Tb0  1  0.814834  0.814834  0.500000  1
  Pr  Pr1  1  0.333601  0.667561  0.000000  1
  Pr  Pr2  1  0.667561  0.333601  0.000000  1
  Pr  Pr3  1  0.183586  0.000014  0.500000  1
  Pr  Pr4  1  0.000014  0.183586  0.500000  1
  Co  Co5  1  0.998803  0.998803  0.000000  1
  P  P6  1  0.375821  0.999585  0.000000  1
  P  P7  1  0.999585  0.375821  0.000000  1
  P  P8  1  0.625224  0.625224  0.000000  1
  P  P9  1  0.305679  0.475267  0.500000  1
  P  P10  1  0.525938  0.831261  0.500000  1
  P  P11  1  0.168222  0.695715  0.500000  1
  P  P12  1  0.831261  0.525938  0.500000  1
  P  P13  1  0.695715  0.168222  0.500000  1
  P  P14  1  0.475267  0.305679  0.500000  1
  P  P15  1  0.819393  0.996650  0.000000  1
  P  P16  1  0.996650  0.819393  0.000000  1
  P  P17  1  0.181546  0.181546  0.000000  1
  Ru  Ru18  1  0.192748  0.377098  0.000000  1
  Ru  Ru19  1  0.625819  0.815103  0.000000  1
  Ru  Ru20  1  0.182178  0.807203  0.000000  1
  Ru  Ru21  1  0.815103  0.625819  0.000000  1
  Ru  Ru22  1  0.807203  0.182178  0.000000  1
  Ru  Ru23  1  0.377098  0.192748  0.000000  1
  Ru  Ru24  1  0.556612  0.998236  0.000000  1
  Ru  Ru25  1  0.998236  0.556612  0.000000  1
  Ru  Ru26  1  0.444117  0.444117  0.000000  1
  Ru  Ru27  1  0.124408  0.492109  0.500000  1
  Ru  Ru28  1  0.509793  0.634183  0.500000  1
  Ru  Ru29  1  0.365961  0.876033  0.500000  1
  Ru  Ru30  1  0.634183  0.509793  0.500000  1
  Ru  Ru31  1  0.876033  0.365961  0.500000  1
  Ru  Ru32  1  0.492109  0.124408  0.500000  1
  Ru  Ru33  1  0.719112  0.997921  0.500000  1
  Ru  Ru34  1  0.997921  0.719112  0.500000  1
  Ru  Ru35  1  0.282667  0.282667  0.500000  1
