# generated using pymatgen
data_Dy6Mn5NbO18
_symmetry_space_group_name_H-M   'P 1'
_cell_length_a   6.25754217
_cell_length_b   6.24831280
_cell_length_c   11.83487878
_cell_angle_alpha   89.69616082
_cell_angle_beta   90.60680891
_cell_angle_gamma   120.04886864
_symmetry_Int_Tables_number   1
_chemical_formula_structural   Dy6Mn5NbO18
_chemical_formula_sum   'Dy6 Mn5 Nb1 O18'
_cell_volume   400.51848597
_cell_formula_units_Z   1
loop_
 _symmetry_equiv_pos_site_id
 _symmetry_equiv_pos_as_xyz
  1  'x, y, z'
loop_
 _atom_site_type_symbol
 _atom_site_label
 _atom_site_symmetry_multiplicity
 _atom_site_fract_x
 _atom_site_fract_y
 _atom_site_fract_z
 _atom_site_occupancy
  Dy  Dy0  1  0.990849  0.000000  0.286243  1
  Dy  Dy1  1  0.995813  0.000000  0.775218  1
  Dy  Dy2  1  0.331017  0.661108  0.248656  1
  Dy  Dy3  1  0.676812  0.341556  0.732304  1
  Dy  Dy4  1  0.335256  0.658444  0.732304  1
  Dy  Dy5  1  0.669910  0.338892  0.248656  1
  Mn  Mn6  1  0.332474  0.329720  0.507949  1
  Mn  Mn7  1  0.002754  0.670280  0.507949  1
  Mn  Mn8  1  0.999735  0.333754  0.006261  1
  Mn  Mn9  1  0.665981  0.666246  0.006261  1
  Mn  Mn10  1  0.665567  0.000000  0.508294  1
  Nb  Nb11  1  0.335125  0.000000  0.007987  1
  O  O12  1  0.300659  0.000000  0.178309  1
  O  O13  1  0.307316  0.301362  0.668508  1
  O  O14  1  0.005954  0.698638  0.668508  1
  O  O15  1  0.997863  0.313688  0.180947  1
  O  O16  1  0.684174  0.686312  0.180947  1
  O  O17  1  0.692368  0.000000  0.668587  1
  O  O18  1  0.636676  0.000000  0.347776  1
  O  O19  1  0.646608  0.644460  0.833175  1
  O  O20  1  0.002147  0.355540  0.833175  1
  O  O21  1  0.000353  0.643116  0.347990  1
  O  O22  1  0.357237  0.356884  0.347990  1
  O  O23  1  0.367127  0.000000  0.840758  1
  O  O24  1  0.997217  0.000000  0.483116  1
  O  O25  1  0.029296  0.000000  0.981567  1
  O  O26  1  0.333700  0.694686  0.029103  1
  O  O27  1  0.668340  0.335679  0.528183  1
  O  O28  1  0.332660  0.664321  0.528183  1
  O  O29  1  0.639015  0.305314  0.029103  1
