# generated using pymatgen
data_CaTa4Hg3O14
_symmetry_space_group_name_H-M   'P 1'
_cell_length_a   7.42691023
_cell_length_b   7.56140442
_cell_length_c   7.42691000
_cell_angle_alpha   60.58666420
_cell_angle_beta   60.00000104
_cell_angle_gamma   60.58666638
_symmetry_Int_Tables_number   1
_chemical_formula_structural   CaTa4Hg3O14
_chemical_formula_sum   'Ca1 Ta4 Hg3 O14'
_cell_volume   297.50790157
_cell_formula_units_Z   1
loop_
 _symmetry_equiv_pos_site_id
 _symmetry_equiv_pos_as_xyz
  1  'x, y, z'
loop_
 _atom_site_type_symbol
 _atom_site_label
 _atom_site_symmetry_multiplicity
 _atom_site_fract_x
 _atom_site_fract_y
 _atom_site_fract_z
 _atom_site_occupancy
  Ca  Ca0  1  0.125000  0.625000  0.125000  1
  Ta  Ta1  1  0.625000  0.625000  0.125000  1
  Ta  Ta2  1  0.625000  0.125000  0.625000  1
  Ta  Ta3  1  0.125000  0.625000  0.625000  1
  Ta  Ta4  1  0.625000  0.625000  0.625000  1
  Hg  Hg5  1  0.125000  0.125000  0.625000  1
  Hg  Hg6  1  0.625000  0.125000  0.125000  1
  Hg  Hg7  1  0.125000  0.125000  0.125000  1
  O  O8  1  0.308402  0.684034  0.308402  1
  O  O9  1  0.563272  0.934714  0.563272  1
  O  O10  1  0.311259  0.315286  0.686728  1
  O  O11  1  0.686728  0.315286  0.311259  1
  O  O12  1  0.308402  0.684034  0.699162  1
  O  O13  1  0.699162  0.684034  0.308402  1
  O  O14  1  0.938741  0.934714  0.563272  1
  O  O15  1  0.550838  0.565966  0.941598  1
  O  O16  1  0.994511  0.016468  0.994511  1
  O  O17  1  0.255489  0.233532  0.255489  1
  O  O18  1  0.686728  0.315286  0.686728  1
  O  O19  1  0.941598  0.565966  0.550838  1
  O  O20  1  0.563272  0.934714  0.938741  1
  O  O21  1  0.941598  0.565966  0.941598  1
