# generated using pymatgen
data_CaErNiRh3
_symmetry_space_group_name_H-M   'P 1'
_cell_length_a   5.36914548
_cell_length_b   5.36914551
_cell_length_c   5.16345558
_cell_angle_alpha   58.67325341
_cell_angle_beta   58.67325213
_cell_angle_gamma   60.00000639
_symmetry_Int_Tables_number   1
_chemical_formula_structural   CaErNiRh3
_chemical_formula_sum   'Ca1 Er1 Ni1 Rh3'
_cell_volume   103.09296539
_cell_formula_units_Z   1
loop_
 _symmetry_equiv_pos_site_id
 _symmetry_equiv_pos_as_xyz
  1  'x, y, z'
loop_
 _atom_site_type_symbol
 _atom_site_label
 _atom_site_symmetry_multiplicity
 _atom_site_fract_x
 _atom_site_fract_y
 _atom_site_fract_z
 _atom_site_occupancy
  Ca  Ca0  1  0.751596  0.751596  0.745212  1
  Er  Er1  1  0.498077  0.498077  0.505769  1
  Ni  Ni2  1  0.125290  0.125290  0.624131  1
  Rh  Rh3  1  0.125145  0.624748  0.124963  1
  Rh  Rh4  1  0.125145  0.125145  0.124963  1
  Rh  Rh5  1  0.624748  0.125145  0.124963  1
