# generated using pymatgen
data_TbFe2P3Rh2W
_symmetry_space_group_name_H-M   'P 1'
_cell_length_a   3.81612600
_cell_length_b   10.62231500
_cell_length_c   12.31852800
_cell_angle_alpha   90.00000000
_cell_angle_beta   90.00000000
_cell_angle_gamma   90.00000000
_symmetry_Int_Tables_number   1
_chemical_formula_structural   TbFe2P3Rh2W
_chemical_formula_sum   'Tb4 Fe8 P12 Rh8 W4'
_cell_volume   499.34498988
_cell_formula_units_Z   4
loop_
 _symmetry_equiv_pos_site_id
 _symmetry_equiv_pos_as_xyz
  1  'x, y, z'
loop_
 _atom_site_type_symbol
 _atom_site_label
 _atom_site_symmetry_multiplicity
 _atom_site_fract_x
 _atom_site_fract_y
 _atom_site_fract_z
 _atom_site_occupancy
  Tb  Tb0  1  0.250000  0.578631  0.709249  1
  Tb  Tb1  1  0.250000  0.921369  0.209249  1
  Tb  Tb2  1  0.750000  0.421369  0.290751  1
  Tb  Tb3  1  0.750000  0.078631  0.790751  1
  Fe  Fe4  1  0.250000  0.881542  0.695233  1
  Fe  Fe5  1  0.250000  0.618458  0.195233  1
  Fe  Fe6  1  0.750000  0.118458  0.304767  1
  Fe  Fe7  1  0.750000  0.381542  0.804767  1
  Fe  Fe8  1  0.250000  0.462153  0.937425  1
  Fe  Fe9  1  0.250000  0.037847  0.437425  1
  Fe  Fe10  1  0.750000  0.537847  0.062575  1
  Fe  Fe11  1  0.750000  0.962153  0.562575  1
  P  P12  1  0.250000  0.433338  0.112888  1
  P  P13  1  0.250000  0.066662  0.612888  1
  P  P14  1  0.750000  0.566662  0.887112  1
  P  P15  1  0.750000  0.933338  0.387112  1
  P  P16  1  0.250000  0.273382  0.866797  1
  P  P17  1  0.250000  0.226618  0.366797  1
  P  P18  1  0.750000  0.726618  0.133203  1
  P  P19  1  0.750000  0.773382  0.633203  1
  P  P20  1  0.250000  0.601004  0.383116  1
  P  P21  1  0.250000  0.898996  0.883116  1
  P  P22  1  0.750000  0.398996  0.616884  1
  P  P23  1  0.750000  0.101004  0.116884  1
  Rh  Rh24  1  0.250000  0.404664  0.482677  1
  Rh  Rh25  1  0.250000  0.095336  0.982677  1
  Rh  Rh26  1  0.750000  0.595336  0.517323  1
  Rh  Rh27  1  0.750000  0.904664  0.017323  1
  Rh  Rh28  1  0.250000  0.227524  0.178722  1
  Rh  Rh29  1  0.250000  0.272476  0.678722  1
  Rh  Rh30  1  0.750000  0.772476  0.821278  1
  Rh  Rh31  1  0.750000  0.727524  0.321278  1
  W  W32  1  0.250000  0.698848  0.990593  1
  W  W33  1  0.250000  0.801152  0.490593  1
  W  W34  1  0.750000  0.301152  0.009407  1
  W  W35  1  0.750000  0.198848  0.509407  1
