# generated using pymatgen
data_LiHo(TaSe2)8
_symmetry_space_group_name_H-M   'P 1'
_cell_length_a   7.00366700
_cell_length_b   7.00366728
_cell_length_c   13.71369500
_cell_angle_alpha   90.00000000
_cell_angle_beta   90.00000000
_cell_angle_gamma   120.00001284
_symmetry_Int_Tables_number   1
_chemical_formula_structural   LiHo(TaSe2)8
_chemical_formula_sum   'Li1 Ho1 Ta8 Se16'
_cell_volume   582.55382296
_cell_formula_units_Z   1
loop_
 _symmetry_equiv_pos_site_id
 _symmetry_equiv_pos_as_xyz
  1  'x, y, z'
loop_
 _atom_site_type_symbol
 _atom_site_label
 _atom_site_symmetry_multiplicity
 _atom_site_fract_x
 _atom_site_fract_y
 _atom_site_fract_z
 _atom_site_occupancy
  Li  Li0  1  0.000000  0.000000  0.500000  1
  Ho  Ho1  1  0.000000  0.000000  0.000000  1
  Ta  Ta2  1  0.509252  0.490748  0.740627  1
  Ta  Ta3  1  0.018502  0.509252  0.259373  1
  Ta  Ta4  1  0.490748  0.981498  0.259373  1
  Ta  Ta5  1  0.509252  0.018502  0.740627  1
  Ta  Ta6  1  0.981498  0.490748  0.740627  1
  Ta  Ta7  1  0.490748  0.509252  0.259373  1
  Ta  Ta8  1  0.000000  0.000000  0.741973  1
  Ta  Ta9  1  0.000000  0.000000  0.258027  1
  Se  Se10  1  0.831667  0.168333  0.377736  1
  Se  Se11  1  0.831667  0.663333  0.377736  1
  Se  Se12  1  0.336667  0.168333  0.377736  1
  Se  Se13  1  0.658890  0.829445  0.861444  1
  Se  Se14  1  0.168333  0.336667  0.622264  1
  Se  Se15  1  0.170555  0.829445  0.861444  1
  Se  Se16  1  0.170555  0.341110  0.861444  1
  Se  Se17  1  0.829445  0.170555  0.138556  1
  Se  Se18  1  0.341110  0.170555  0.138556  1
  Se  Se19  1  0.663333  0.831667  0.622264  1
  Se  Se20  1  0.333333  0.666667  0.131296  1
  Se  Se21  1  0.666667  0.333333  0.614570  1
  Se  Se22  1  0.666667  0.333333  0.868704  1
  Se  Se23  1  0.333333  0.666667  0.385430  1
  Se  Se24  1  0.829445  0.658890  0.138556  1
  Se  Se25  1  0.168333  0.831667  0.622264  1
