# generated using pymatgen
data_Tm5Lu(Sc2Si3)2
_symmetry_space_group_name_H-M   'P 1'
_cell_length_a   8.18967200
_cell_length_b   8.18457784
_cell_length_c   5.98029500
_cell_angle_alpha   90.00000000
_cell_angle_beta   90.00000000
_cell_angle_gamma   120.02060747
_symmetry_Int_Tables_number   1
_chemical_formula_structural   Tm5Lu(Sc2Si3)2
_chemical_formula_sum   'Tm5 Lu1 Sc4 Si6'
_cell_volume   347.07698034
_cell_formula_units_Z   1
loop_
 _symmetry_equiv_pos_site_id
 _symmetry_equiv_pos_as_xyz
  1  'x, y, z'
loop_
 _atom_site_type_symbol
 _atom_site_label
 _atom_site_symmetry_multiplicity
 _atom_site_fract_x
 _atom_site_fract_y
 _atom_site_fract_z
 _atom_site_occupancy
  Tm  Tm0  1  0.755541  0.000000  0.750000  1
  Tm  Tm1  1  0.755992  0.755924  0.250000  1
  Tm  Tm2  1  0.000067  0.244076  0.250000  1
  Tm  Tm3  1  0.000288  0.756128  0.750000  1
  Tm  Tm4  1  0.244160  0.243872  0.750000  1
  Lu  Lu5  1  0.244358  0.000000  0.250000  1
  Sc  Sc6  1  0.666513  0.333203  0.000082  1
  Sc  Sc7  1  0.333309  0.666797  0.499918  1
  Sc  Sc8  1  0.333309  0.666797  0.000082  1
  Sc  Sc9  1  0.666513  0.333203  0.499918  1
  Si  Si10  1  0.398391  0.000000  0.750000  1
  Si  Si11  1  0.398176  0.397760  0.250000  1
  Si  Si12  1  0.000415  0.602240  0.250000  1
  Si  Si13  1  0.000064  0.398381  0.750000  1
  Si  Si14  1  0.601683  0.601619  0.750000  1
  Si  Si15  1  0.601220  0.000000  0.250000  1
