# generated using pymatgen
data_CsTmBi2Se5
_symmetry_space_group_name_H-M   'P 1'
_cell_length_a   4.16207700
_cell_length_b   12.40278600
_cell_length_c   22.94528300
_cell_angle_alpha   90.00000000
_cell_angle_beta   90.00000000
_cell_angle_gamma   90.00000000
_symmetry_Int_Tables_number   1
_chemical_formula_structural   CsTmBi2Se5
_chemical_formula_sum   'Cs4 Tm4 Bi8 Se20'
_cell_volume   1184.46649254
_cell_formula_units_Z   4
loop_
 _symmetry_equiv_pos_site_id
 _symmetry_equiv_pos_as_xyz
  1  'x, y, z'
loop_
 _atom_site_type_symbol
 _atom_site_label
 _atom_site_symmetry_multiplicity
 _atom_site_fract_x
 _atom_site_fract_y
 _atom_site_fract_z
 _atom_site_occupancy
  Cs  Cs0  1  0.250000  0.488432  0.209768  1
  Cs  Cs1  1  0.750000  0.511568  0.790232  1
  Cs  Cs2  1  0.750000  0.988432  0.290232  1
  Cs  Cs3  1  0.250000  0.011568  0.709768  1
  Tm  Tm4  1  0.250000  0.364933  0.022954  1
  Tm  Tm5  1  0.750000  0.635067  0.977046  1
  Tm  Tm6  1  0.750000  0.864933  0.477046  1
  Tm  Tm7  1  0.250000  0.135067  0.522954  1
  Bi  Bi8  1  0.250000  0.801970  0.122739  1
  Bi  Bi9  1  0.750000  0.198030  0.877261  1
  Bi  Bi10  1  0.750000  0.301970  0.377261  1
  Bi  Bi11  1  0.250000  0.698030  0.622739  1
  Bi  Bi12  1  0.250000  0.595627  0.426237  1
  Bi  Bi13  1  0.750000  0.404373  0.573763  1
  Bi  Bi14  1  0.750000  0.095627  0.073763  1
  Bi  Bi15  1  0.250000  0.904373  0.926237  1
  Se  Se16  1  0.250000  0.812678  0.395196  1
  Se  Se17  1  0.750000  0.187322  0.604804  1
  Se  Se18  1  0.750000  0.312678  0.104804  1
  Se  Se19  1  0.250000  0.687322  0.895196  1
  Se  Se20  1  0.250000  0.246956  0.300680  1
  Se  Se21  1  0.750000  0.753044  0.699320  1
  Se  Se22  1  0.750000  0.746956  0.199320  1
  Se  Se23  1  0.250000  0.253044  0.800680  1
  Se  Se24  1  0.250000  0.352855  0.481001  1
  Se  Se25  1  0.750000  0.647145  0.518999  1
  Se  Se26  1  0.750000  0.852855  0.018999  1
  Se  Se27  1  0.250000  0.147145  0.981001  1
  Se  Se28  1  0.250000  0.027220  0.154601  1
  Se  Se29  1  0.750000  0.972780  0.845399  1
  Se  Se30  1  0.750000  0.527220  0.345399  1
  Se  Se31  1  0.250000  0.472780  0.654601  1
  Se  Se32  1  0.250000  0.582792  0.057151  1
  Se  Se33  1  0.750000  0.417208  0.942849  1
  Se  Se34  1  0.750000  0.082792  0.442849  1
  Se  Se35  1  0.250000  0.917208  0.557151  1
