# generated using pymatgen
data_YTm3B12RuW
_symmetry_space_group_name_H-M   'P 1'
_cell_length_a   3.60413400
_cell_length_b   9.17639211
_cell_length_c   11.57369425
_cell_angle_alpha   89.77541620
_cell_angle_beta   90.00000000
_cell_angle_gamma   90.00000000
_symmetry_Int_Tables_number   1
_chemical_formula_structural   YTm3B12RuW
_chemical_formula_sum   'Y2 Tm6 B24 Ru2 W2'
_cell_volume   382.77323375
_cell_formula_units_Z   2
loop_
 _symmetry_equiv_pos_site_id
 _symmetry_equiv_pos_as_xyz
  1  'x, y, z'
loop_
 _atom_site_type_symbol
 _atom_site_label
 _atom_site_symmetry_multiplicity
 _atom_site_fract_x
 _atom_site_fract_y
 _atom_site_fract_z
 _atom_site_occupancy
  Y  Y0  1  0.000000  0.320993  0.413775  1
  Y  Y1  1  0.000000  0.679007  0.586225  1
  Tm  Tm2  1  0.000000  0.821621  0.086138  1
  Tm  Tm3  1  0.000000  0.178379  0.913862  1
  Tm  Tm4  1  0.000000  0.945470  0.370809  1
  Tm  Tm5  1  0.000000  0.054530  0.629191  1
  Tm  Tm6  1  0.000000  0.441604  0.127254  1
  Tm  Tm7  1  0.000000  0.558396  0.872746  1
  B  B8  1  0.500000  0.551426  0.434158  1
  B  B9  1  0.500000  0.448574  0.565842  1
  B  B10  1  0.500000  0.053491  0.066149  1
  B  B11  1  0.500000  0.946509  0.933851  1
  B  B12  1  0.500000  0.752871  0.420727  1
  B  B13  1  0.500000  0.247129  0.579273  1
  B  B14  1  0.500000  0.248442  0.080562  1
  B  B15  1  0.500000  0.751558  0.919438  1
  B  B16  1  0.500000  0.796812  0.262076  1
  B  B17  1  0.500000  0.203188  0.737924  1
  B  B18  1  0.500000  0.289880  0.232759  1
  B  B19  1  0.500000  0.710120  0.767241  1
  B  B20  1  0.500000  0.632199  0.180340  1
  B  B21  1  0.500000  0.367801  0.819660  1
  B  B22  1  0.500000  0.129951  0.312885  1
  B  B23  1  0.500000  0.870049  0.687115  1
  B  B24  1  0.500000  0.983359  0.210900  1
  B  B25  1  0.500000  0.016641  0.789100  1
  B  B26  1  0.500000  0.477556  0.285187  1
  B  B27  1  0.500000  0.522444  0.714813  1
  B  B28  1  0.500000  0.603535  0.027663  1
  B  B29  1  0.500000  0.396465  0.972337  1
  B  B30  1  0.500000  0.101497  0.470962  1
  B  B31  1  0.500000  0.898503  0.529038  1
  Ru  Ru32  1  0.000000  0.137701  0.177263  1
  Ru  Ru33  1  0.000000  0.862299  0.822737  1
  W  W34  1  0.000000  0.639563  0.318451  1
  W  W35  1  0.000000  0.360437  0.681549  1
