# generated using pymatgen
data_Tm4CdRu
_symmetry_space_group_name_H-M   'P 1'
_cell_length_a   9.50452739
_cell_length_b   9.50452805
_cell_length_c   9.50452700
_cell_angle_alpha   60.00000019
_cell_angle_beta   59.99999789
_cell_angle_gamma   60.00000491
_symmetry_Int_Tables_number   1
_chemical_formula_structural   Tm4CdRu
_chemical_formula_sum   'Tm16 Cd4 Ru4'
_cell_volume   607.12288623
_cell_formula_units_Z   4
loop_
 _symmetry_equiv_pos_site_id
 _symmetry_equiv_pos_as_xyz
  1  'x, y, z'
loop_
 _atom_site_type_symbol
 _atom_site_label
 _atom_site_symmetry_multiplicity
 _atom_site_fract_x
 _atom_site_fract_y
 _atom_site_fract_z
 _atom_site_occupancy
  Tm  Tm0  1  0.347220  0.347220  0.347220  1
  Tm  Tm1  1  0.347220  0.347220  0.958341  1
  Tm  Tm2  1  0.347220  0.958341  0.347220  1
  Tm  Tm3  1  0.958341  0.347220  0.347220  1
  Tm  Tm4  1  0.811623  0.188377  0.188377  1
  Tm  Tm5  1  0.188377  0.811623  0.811623  1
  Tm  Tm6  1  0.188377  0.811623  0.188377  1
  Tm  Tm7  1  0.811623  0.188377  0.811623  1
  Tm  Tm8  1  0.188377  0.188377  0.811623  1
  Tm  Tm9  1  0.811623  0.811623  0.188377  1
  Tm  Tm10  1  0.938908  0.561092  0.561092  1
  Tm  Tm11  1  0.561092  0.938908  0.938908  1
  Tm  Tm12  1  0.561092  0.938908  0.561092  1
  Tm  Tm13  1  0.938908  0.561092  0.938908  1
  Tm  Tm14  1  0.561092  0.561092  0.938908  1
  Tm  Tm15  1  0.938908  0.938908  0.561092  1
  Cd  Cd16  1  0.580855  0.580855  0.580855  1
  Cd  Cd17  1  0.580855  0.580855  0.257436  1
  Cd  Cd18  1  0.580855  0.257436  0.580855  1
  Cd  Cd19  1  0.257436  0.580855  0.580855  1
  Ru  Ru20  1  0.140145  0.140145  0.140145  1
  Ru  Ru21  1  0.140145  0.140145  0.579566  1
  Ru  Ru22  1  0.140145  0.579566  0.140145  1
  Ru  Ru23  1  0.579566  0.140145  0.140145  1
