# generated using pymatgen
data_TbCd3P7N12
_symmetry_space_group_name_H-M   'P 1'
_cell_length_a   7.43993396
_cell_length_b   7.46529702
_cell_length_c   7.46529738
_cell_angle_alpha   109.53993326
_cell_angle_beta   109.40241481
_cell_angle_gamma   109.40242116
_symmetry_Int_Tables_number   1
_chemical_formula_structural   TbCd3P7N12
_chemical_formula_sum   'Tb1 Cd3 P7 N12'
_cell_volume   319.45483733
_cell_formula_units_Z   1
loop_
 _symmetry_equiv_pos_site_id
 _symmetry_equiv_pos_as_xyz
  1  'x, y, z'
loop_
 _atom_site_type_symbol
 _atom_site_label
 _atom_site_symmetry_multiplicity
 _atom_site_fract_x
 _atom_site_fract_y
 _atom_site_fract_z
 _atom_site_occupancy
  Tb  Tb0  1  0.643353  0.000000  0.000000  1
  Cd  Cd1  1  0.998785  0.000000  0.669704  1
  Cd  Cd2  1  0.998785  0.669704  0.000000  1
  Cd  Cd3  1  0.329081  0.330296  0.330296  1
  P  P4  1  0.248488  0.749048  0.496687  1
  P  P5  1  0.751801  0.252361  0.503313  1
  P  P6  1  0.751801  0.503313  0.252361  1
  P  P7  1  0.248488  0.496687  0.749048  1
  P  P8  1  0.499440  0.747639  0.250952  1
  P  P9  1  0.499440  0.250952  0.747639  1
  P  P10  1  0.004500  0.000000  0.000000  1
  N  N11  1  0.715068  0.295171  0.295171  1
  N  N12  1  0.287766  0.707322  0.287152  1
  N  N13  1  0.307528  0.594527  0.594527  1
  N  N14  1  0.580444  0.579830  0.292678  1
  N  N15  1  0.419897  0.704829  0.000000  1
  N  N16  1  0.000614  0.712848  0.420170  1
  N  N17  1  0.580444  0.292678  0.579830  1
  N  N18  1  0.713001  0.000000  0.405473  1
  N  N19  1  0.419897  0.000000  0.704829  1
  N  N20  1  0.713001  0.405473  0.000000  1
  N  N21  1  0.287766  0.287152  0.707322  1
  N  N22  1  0.000614  0.420170  0.712848  1
