# generated using pymatgen
data_Y4Tm8Os3Ru
_symmetry_space_group_name_H-M   'P 1'
_cell_length_a   7.37671641
_cell_length_b   8.93799600
_cell_length_c   6.29469503
_cell_angle_alpha   90.00000000
_cell_angle_beta   89.92474501
_cell_angle_gamma   90.00000000
_symmetry_Int_Tables_number   1
_chemical_formula_structural   Y4Tm8Os3Ru
_chemical_formula_sum   'Y4 Tm8 Os3 Ru1'
_cell_volume   415.02815825
_cell_formula_units_Z   1
loop_
 _symmetry_equiv_pos_site_id
 _symmetry_equiv_pos_as_xyz
  1  'x, y, z'
loop_
 _atom_site_type_symbol
 _atom_site_label
 _atom_site_symmetry_multiplicity
 _atom_site_fract_x
 _atom_site_fract_y
 _atom_site_fract_z
 _atom_site_occupancy
  Y  Y0  1  0.040407  0.250000  0.628507  1
  Y  Y1  1  0.960907  0.750000  0.371239  1
  Y  Y2  1  0.461088  0.750000  0.129049  1
  Y  Y3  1  0.539508  0.250000  0.869850  1
  Tm  Tm4  1  0.173869  0.062680  0.165427  1
  Tm  Tm5  1  0.825441  0.936892  0.833202  1
  Tm  Tm6  1  0.325022  0.935510  0.667971  1
  Tm  Tm7  1  0.825441  0.563108  0.833202  1
  Tm  Tm8  1  0.675044  0.063275  0.333641  1
  Tm  Tm9  1  0.173869  0.437320  0.165427  1
  Tm  Tm10  1  0.675044  0.436725  0.333641  1
  Tm  Tm11  1  0.325022  0.564490  0.667971  1
  Os  Os12  1  0.615729  0.750000  0.543369  1
  Os  Os13  1  0.116063  0.750000  0.956412  1
  Os  Os14  1  0.883579  0.250000  0.043363  1
  Ru  Ru15  1  0.383967  0.250000  0.457731  1
