# generated using pymatgen
data_NdSmCo8(P3Ru)2
_symmetry_space_group_name_H-M   'P 1'
_cell_length_a   3.72410700
_cell_length_b   10.50130000
_cell_length_c   11.87122300
_cell_angle_alpha   90.00000000
_cell_angle_beta   90.00000000
_cell_angle_gamma   90.00000000
_symmetry_Int_Tables_number   1
_chemical_formula_structural   NdSmCo8(P3Ru)2
_chemical_formula_sum   'Nd2 Sm2 Co16 P12 Ru4'
_cell_volume   464.25937168
_cell_formula_units_Z   2
loop_
 _symmetry_equiv_pos_site_id
 _symmetry_equiv_pos_as_xyz
  1  'x, y, z'
loop_
 _atom_site_type_symbol
 _atom_site_label
 _atom_site_symmetry_multiplicity
 _atom_site_fract_x
 _atom_site_fract_y
 _atom_site_fract_z
 _atom_site_occupancy
  Nd  Nd0  1  0.750000  0.413615  0.296585  1
  Nd  Nd1  1  0.750000  0.086385  0.796585  1
  Sm  Sm2  1  0.250000  0.586470  0.703199  1
  Sm  Sm3  1  0.250000  0.913530  0.203199  1
  Co  Co4  1  0.250000  0.408322  0.492136  1
  Co  Co5  1  0.250000  0.091678  0.992136  1
  Co  Co6  1  0.750000  0.592459  0.509567  1
  Co  Co7  1  0.750000  0.907541  0.009567  1
  Co  Co8  1  0.250000  0.220108  0.175781  1
  Co  Co9  1  0.250000  0.279892  0.675781  1
  Co  Co10  1  0.750000  0.778693  0.824078  1
  Co  Co11  1  0.750000  0.721307  0.324078  1
  Co  Co12  1  0.250000  0.886001  0.701782  1
  Co  Co13  1  0.250000  0.613999  0.201782  1
  Co  Co14  1  0.750000  0.112232  0.297807  1
  Co  Co15  1  0.750000  0.387768  0.797807  1
  Co  Co16  1  0.250000  0.466592  0.930809  1
  Co  Co17  1  0.250000  0.033408  0.430809  1
  Co  Co18  1  0.750000  0.534852  0.068140  1
  Co  Co19  1  0.750000  0.965148  0.568140  1
  P  P20  1  0.250000  0.419586  0.109398  1
  P  P21  1  0.250000  0.080414  0.609398  1
  P  P22  1  0.750000  0.580538  0.889034  1
  P  P23  1  0.750000  0.919462  0.389034  1
  P  P24  1  0.250000  0.276424  0.866975  1
  P  P25  1  0.250000  0.223576  0.366975  1
  P  P26  1  0.750000  0.725178  0.133397  1
  P  P27  1  0.750000  0.774822  0.633397  1
  P  P28  1  0.250000  0.598935  0.391854  1
  P  P29  1  0.250000  0.901065  0.891854  1
  P  P30  1  0.750000  0.402321  0.608687  1
  P  P31  1  0.750000  0.097679  0.108687  1
  Ru  Ru32  1  0.250000  0.715416  0.992417  1
  Ru  Ru33  1  0.250000  0.784584  0.492417  1
  Ru  Ru34  1  0.750000  0.284614  0.008354  1
  Ru  Ru35  1  0.750000  0.215386  0.508354  1
