# generated using pymatgen
data_Ac8Yb9Sm3Sn16
_symmetry_space_group_name_H-M   'P 1'
_cell_length_a   8.19241070
_cell_length_b   8.72136828
_cell_length_c   16.46157500
_cell_angle_alpha   90.04199937
_cell_angle_beta   89.97636108
_cell_angle_gamma   90.02655845
_symmetry_Int_Tables_number   1
_chemical_formula_structural   Ac8Yb9Sm3Sn16
_chemical_formula_sum   'Ac8 Yb9 Sm3 Sn16'
_cell_volume   1176.16303661
_cell_formula_units_Z   1
loop_
 _symmetry_equiv_pos_site_id
 _symmetry_equiv_pos_as_xyz
  1  'x, y, z'
loop_
 _atom_site_type_symbol
 _atom_site_label
 _atom_site_symmetry_multiplicity
 _atom_site_fract_x
 _atom_site_fract_y
 _atom_site_fract_z
 _atom_site_occupancy
  Ac  Ac0  1  0.495204  0.318118  0.904300  1
  Ac  Ac1  1  0.995787  0.182060  0.595418  1
  Ac  Ac2  1  0.503752  0.681951  0.404454  1
  Ac  Ac3  1  0.005135  0.816337  0.095298  1
  Ac  Ac4  1  0.505970  0.682275  0.096052  1
  Ac  Ac5  1  0.007062  0.817269  0.404786  1
  Ac  Ac6  1  0.493701  0.317437  0.595819  1
  Ac  Ac7  1  0.994508  0.183803  0.905413  1
  Yb  Yb8  1  0.168339  0.330145  0.123818  1
  Yb  Yb9  1  0.669573  0.170869  0.124024  1
  Yb  Yb10  1  0.169217  0.328674  0.376566  1
  Yb  Yb11  1  0.330220  0.829728  0.623597  1
  Yb  Yb12  1  0.830925  0.670383  0.876664  1
  Yb  Yb13  1  0.163372  0.503009  0.750186  1
  Yb  Yb14  1  0.663558  0.997214  0.750276  1
  Yb  Yb15  1  0.838524  0.495913  0.249101  1
  Yb  Yb16  1  0.335939  0.004534  0.248714  1
  Sm  Sm17  1  0.330916  0.828884  0.874891  1
  Sm  Sm18  1  0.831486  0.672443  0.624812  1
  Sm  Sm19  1  0.666857  0.173282  0.374583  1
  Sn  Sn20  1  0.333327  0.036878  0.038248  1
  Sn  Sn21  1  0.829601  0.460346  0.461505  1
  Sn  Sn22  1  0.670126  0.960376  0.538005  1
  Sn  Sn23  1  0.168214  0.539830  0.960523  1
  Sn  Sn24  1  0.664374  0.961102  0.959994  1
  Sn  Sn25  1  0.165422  0.538853  0.540163  1
  Sn  Sn26  1  0.335023  0.039005  0.460211  1
  Sn  Sn27  1  0.833256  0.461511  0.039535  1
  Sn  Sn28  1  0.533686  0.613338  0.749327  1
  Sn  Sn29  1  0.033406  0.884941  0.750920  1
  Sn  Sn30  1  0.466724  0.386633  0.250592  1
  Sn  Sn31  1  0.965066  0.110953  0.251366  1
  Sn  Sn32  1  0.288496  0.132156  0.750424  1
  Sn  Sn33  1  0.789424  0.368307  0.749206  1
  Sn  Sn34  1  0.711224  0.868299  0.251024  1
  Sn  Sn35  1  0.212590  0.633143  0.250184  1
