# generated using pymatgen
data_DyTm5Bi2Ru
_symmetry_space_group_name_H-M   'P 1'
_cell_length_a   8.26104900
_cell_length_b   8.24316561
_cell_length_c   4.18720000
_cell_angle_alpha   90.00000000
_cell_angle_beta   90.00000000
_cell_angle_gamma   120.07180387
_symmetry_Int_Tables_number   1
_chemical_formula_structural   DyTm5Bi2Ru
_chemical_formula_sum   'Dy1 Tm5 Bi2 Ru1'
_cell_volume   246.75665518
_cell_formula_units_Z   1
loop_
 _symmetry_equiv_pos_site_id
 _symmetry_equiv_pos_as_xyz
  1  'x, y, z'
loop_
 _atom_site_type_symbol
 _atom_site_label
 _atom_site_symmetry_multiplicity
 _atom_site_fract_x
 _atom_site_fract_y
 _atom_site_fract_z
 _atom_site_occupancy
  Dy  Dy0  1  0.611434  0.000000  0.000000  1
  Tm  Tm1  1  0.233824  0.000000  0.500000  1
  Tm  Tm2  1  0.000520  0.233457  0.500000  1
  Tm  Tm3  1  0.767062  0.766543  0.500000  1
  Tm  Tm4  1  0.999817  0.613211  0.000000  1
  Tm  Tm5  1  0.386605  0.386789  0.000000  1
  Bi  Bi6  1  0.331982  0.665492  0.500000  1
  Bi  Bi7  1  0.666491  0.334508  0.500000  1
  Ru  Ru8  1  0.002265  0.000000  0.000000  1
