# generated using pymatgen
data_Ho3Lu7Ru4
_symmetry_space_group_name_H-M   'P 1'
_cell_length_a   6.21716109
_cell_length_b   7.22208838
_cell_length_c   8.31678955
_cell_angle_alpha   97.11614631
_cell_angle_beta   111.91836342
_cell_angle_gamma   89.91977722
_symmetry_Int_Tables_number   1
_chemical_formula_structural   Ho3Lu7Ru4
_chemical_formula_sum   'Ho3 Lu7 Ru4'
_cell_volume   343.36167901
_cell_formula_units_Z   1
loop_
 _symmetry_equiv_pos_site_id
 _symmetry_equiv_pos_as_xyz
  1  'x, y, z'
loop_
 _atom_site_type_symbol
 _atom_site_label
 _atom_site_symmetry_multiplicity
 _atom_site_fract_x
 _atom_site_fract_y
 _atom_site_fract_z
 _atom_site_occupancy
  Ho  Ho0  1  0.521237  0.083355  0.810832  1
  Ho  Ho1  1  0.477322  0.916592  0.188209  1
  Ho  Ho2  1  0.710480  0.417079  0.187869  1
  Lu  Lu3  1  0.290962  0.583736  0.812165  1
  Lu  Lu4  1  0.299333  0.314901  0.434103  1
  Lu  Lu5  1  0.701826  0.685894  0.567007  1
  Lu  Lu6  1  0.865794  0.185754  0.566295  1
  Lu  Lu7  1  0.134889  0.813612  0.434149  1
  Lu  Lu8  1  0.080392  0.250683  0.999658  1
  Lu  Lu9  1  0.919833  0.749322  0.999273  1
  Ru  Ru10  1  0.319274  0.576726  0.221139  1
  Ru  Ru11  1  0.677212  0.423553  0.778566  1
  Ru  Ru12  1  0.098671  0.921682  0.778047  1
  Ru  Ru13  1  0.902776  0.077111  0.222688  1
