# generated using pymatgen
data_TmLu3Mg2(B2Rh5)2
_symmetry_space_group_name_H-M   'P 1'
_cell_length_a   9.56125026
_cell_length_b   9.56125026
_cell_length_c   3.16059800
_cell_angle_alpha   90.00000000
_cell_angle_beta   90.00000000
_cell_angle_gamma   90.02684639
_symmetry_Int_Tables_number   1
_chemical_formula_structural   TmLu3Mg2(B2Rh5)2
_chemical_formula_sum   'Tm1 Lu3 Mg2 B4 Rh10'
_cell_volume   288.93395674
_cell_formula_units_Z   1
loop_
 _symmetry_equiv_pos_site_id
 _symmetry_equiv_pos_as_xyz
  1  'x, y, z'
loop_
 _atom_site_type_symbol
 _atom_site_label
 _atom_site_symmetry_multiplicity
 _atom_site_fract_x
 _atom_site_fract_y
 _atom_site_fract_z
 _atom_site_occupancy
  Tm  Tm0  1  0.824391  0.675609  0.000000  1
  Lu  Lu1  1  0.675664  0.175682  0.000000  1
  Lu  Lu2  1  0.324318  0.824336  0.000000  1
  Lu  Lu3  1  0.175662  0.324338  0.000000  1
  Mg  Mg4  1  0.000021  0.000042  0.000000  1
  Mg  Mg5  1  0.499958  0.499979  0.000000  1
  B  B6  1  0.123150  0.623016  0.000000  1
  B  B7  1  0.876984  0.376850  0.000000  1
  B  B8  1  0.622949  0.877051  0.000000  1
  B  B9  1  0.376879  0.123121  0.000000  1
  Rh  Rh10  1  0.500008  0.999992  0.500000  1
  Rh  Rh11  1  0.000321  0.499679  0.500000  1
  Rh  Rh12  1  0.223138  0.070576  0.500000  1
  Rh  Rh13  1  0.776741  0.929829  0.500000  1
  Rh  Rh14  1  0.070913  0.777022  0.500000  1
  Rh  Rh15  1  0.722978  0.429087  0.500000  1
  Rh  Rh16  1  0.929413  0.223083  0.500000  1
  Rh  Rh17  1  0.276917  0.570587  0.500000  1
  Rh  Rh18  1  0.570171  0.723259  0.500000  1
  Rh  Rh19  1  0.429424  0.276862  0.500000  1
