# generated using pymatgen
data_Sm2Lu3Zr3(Co4As3)4
_symmetry_space_group_name_H-M   'P 1'
_cell_length_a   12.73702400
_cell_length_b   12.73702333
_cell_length_c   3.82961400
_cell_angle_alpha   90.00000000
_cell_angle_beta   90.00000000
_cell_angle_gamma   120.00000694
_symmetry_Int_Tables_number   1
_chemical_formula_structural   Sm2Lu3Zr3(Co4As3)4
_chemical_formula_sum   'Sm2 Lu3 Zr3 Co16 As12'
_cell_volume   538.04861134
_cell_formula_units_Z   1
loop_
 _symmetry_equiv_pos_site_id
 _symmetry_equiv_pos_as_xyz
  1  'x, y, z'
loop_
 _atom_site_type_symbol
 _atom_site_label
 _atom_site_symmetry_multiplicity
 _atom_site_fract_x
 _atom_site_fract_y
 _atom_site_fract_z
 _atom_site_occupancy
  Sm  Sm0  1  0.333333  0.666667  0.000000  1
  Sm  Sm1  1  0.666667  0.333333  0.000000  1
  Lu  Lu2  1  0.182447  0.182447  0.500000  1
  Lu  Lu3  1  0.817553  0.000000  0.500000  1
  Lu  Lu4  1  0.000000  0.817553  0.500000  1
  Zr  Zr5  1  0.560295  0.560295  0.000000  1
  Zr  Zr6  1  0.439705  0.000000  0.000000  1
  Zr  Zr7  1  0.000000  0.439705  0.000000  1
  Co  Co8  1  0.722216  0.722216  0.500000  1
  Co  Co9  1  0.277784  0.000000  0.500000  1
  Co  Co10  1  0.000000  0.277784  0.500000  1
  Co  Co11  1  0.176658  0.370826  0.000000  1
  Co  Co12  1  0.629174  0.805832  0.000000  1
  Co  Co13  1  0.194168  0.823342  0.000000  1
  Co  Co14  1  0.805832  0.629174  0.000000  1
  Co  Co15  1  0.823342  0.194168  0.000000  1
  Co  Co16  1  0.370826  0.176658  0.000000  1
  Co  Co17  1  0.356810  0.478112  0.500000  1
  Co  Co18  1  0.521888  0.878699  0.500000  1
  Co  Co19  1  0.121301  0.643190  0.500000  1
  Co  Co20  1  0.878699  0.521888  0.500000  1
  Co  Co21  1  0.643190  0.121301  0.500000  1
  Co  Co22  1  0.478112  0.356810  0.500000  1
  Co  Co23  1  0.000000  0.000000  0.000000  1
  As  As24  1  0.824669  0.824669  0.000000  1
  As  As25  1  0.175331  0.000000  0.000000  1
  As  As26  1  0.000000  0.175331  0.000000  1
  As  As27  1  0.171748  0.478863  0.500000  1
  As  As28  1  0.521137  0.692885  0.500000  1
  As  As29  1  0.307115  0.828252  0.500000  1
  As  As30  1  0.692885  0.521137  0.500000  1
  As  As31  1  0.828252  0.307115  0.500000  1
  As  As32  1  0.478863  0.171748  0.500000  1
  As  As33  1  0.350190  0.350190  0.000000  1
  As  As34  1  0.649810  0.000000  0.000000  1
  As  As35  1  0.000000  0.649810  0.000000  1
