# generated using pymatgen
data_TbMn4TcP3
_symmetry_space_group_name_H-M   'P 1'
_cell_length_a   3.72163200
_cell_length_b   10.64044300
_cell_length_c   12.11338600
_cell_angle_alpha   90.00000000
_cell_angle_beta   90.00000000
_cell_angle_gamma   90.00000000
_symmetry_Int_Tables_number   1
_chemical_formula_structural   TbMn4TcP3
_chemical_formula_sum   'Tb4 Mn16 Tc4 P12'
_cell_volume   479.68782237
_cell_formula_units_Z   4
loop_
 _symmetry_equiv_pos_site_id
 _symmetry_equiv_pos_as_xyz
  1  'x, y, z'
loop_
 _atom_site_type_symbol
 _atom_site_label
 _atom_site_symmetry_multiplicity
 _atom_site_fract_x
 _atom_site_fract_y
 _atom_site_fract_z
 _atom_site_occupancy
  Tb  Tb0  1  0.250000  0.587774  0.705918  1
  Tb  Tb1  1  0.250000  0.912226  0.205918  1
  Tb  Tb2  1  0.750000  0.412226  0.294082  1
  Tb  Tb3  1  0.750000  0.087774  0.794082  1
  Mn  Mn4  1  0.250000  0.411922  0.495522  1
  Mn  Mn5  1  0.250000  0.088078  0.995522  1
  Mn  Mn6  1  0.750000  0.588078  0.504478  1
  Mn  Mn7  1  0.750000  0.911922  0.004478  1
  Mn  Mn8  1  0.250000  0.209355  0.183761  1
  Mn  Mn9  1  0.250000  0.290645  0.683761  1
  Mn  Mn10  1  0.750000  0.790645  0.816239  1
  Mn  Mn11  1  0.750000  0.709355  0.316239  1
  Mn  Mn12  1  0.250000  0.884757  0.691957  1
  Mn  Mn13  1  0.250000  0.615243  0.191957  1
  Mn  Mn14  1  0.750000  0.115243  0.308043  1
  Mn  Mn15  1  0.750000  0.384757  0.808043  1
  Mn  Mn16  1  0.250000  0.466161  0.935031  1
  Mn  Mn17  1  0.250000  0.033839  0.435031  1
  Mn  Mn18  1  0.750000  0.533839  0.064969  1
  Mn  Mn19  1  0.750000  0.966161  0.564969  1
  Tc  Tc20  1  0.250000  0.710898  0.983088  1
  Tc  Tc21  1  0.250000  0.789102  0.483088  1
  Tc  Tc22  1  0.750000  0.289102  0.016912  1
  Tc  Tc23  1  0.750000  0.210898  0.516912  1
  P  P24  1  0.250000  0.410894  0.115673  1
  P  P25  1  0.250000  0.089106  0.615673  1
  P  P26  1  0.750000  0.589106  0.884327  1
  P  P27  1  0.750000  0.910894  0.384327  1
  P  P28  1  0.250000  0.264159  0.876280  1
  P  P29  1  0.250000  0.235841  0.376280  1
  P  P30  1  0.750000  0.735841  0.123720  1
  P  P31  1  0.750000  0.764159  0.623720  1
  P  P32  1  0.250000  0.592935  0.384477  1
  P  P33  1  0.250000  0.907065  0.884477  1
  P  P34  1  0.750000  0.407065  0.615523  1
  P  P35  1  0.750000  0.092935  0.115523  1
