# generated using pymatgen
data_Zn2B(PdPt2)2
_symmetry_space_group_name_H-M   'P 1'
_cell_length_a   5.68655148
_cell_length_b   5.68655209
_cell_length_c   5.66717800
_cell_angle_alpha   60.11263886
_cell_angle_beta   60.11263533
_cell_angle_gamma   62.22539343
_symmetry_Int_Tables_number   1
_chemical_formula_structural   Zn2B(PdPt2)2
_chemical_formula_sum   'Zn2 B1 Pd2 Pt4'
_cell_volume   131.85246067
_cell_formula_units_Z   1
loop_
 _symmetry_equiv_pos_site_id
 _symmetry_equiv_pos_as_xyz
  1  'x, y, z'
loop_
 _atom_site_type_symbol
 _atom_site_label
 _atom_site_symmetry_multiplicity
 _atom_site_fract_x
 _atom_site_fract_y
 _atom_site_fract_z
 _atom_site_occupancy
  Zn  Zn0  1  0.251882  0.251882  0.250652  1
  Zn  Zn1  1  0.748118  0.748118  0.754418  1
  B  B2  1  0.499999  0.499999  0.495532  1
  Pd  Pd3  1  0.754851  0.245148  0.754486  1
  Pd  Pd4  1  0.245148  0.754851  0.754486  1
  Pt  Pt5  1  0.759608  0.240391  0.244882  1
  Pt  Pt6  1  0.240391  0.759608  0.244882  1
  Pt  Pt7  1  0.759723  0.759723  0.240604  1
  Pt  Pt8  1  0.240276  0.240276  0.760053  1
