# generated using pymatgen
data_Ho16In6OsPd
_symmetry_space_group_name_H-M   'P 1'
_cell_length_a   10.41905500
_cell_length_b   10.41905498
_cell_length_c   7.01581700
_cell_angle_alpha   90.00000000
_cell_angle_beta   90.00000000
_cell_angle_gamma   120.00000324
_symmetry_Int_Tables_number   1
_chemical_formula_structural   Ho16In6OsPd
_chemical_formula_sum   'Ho16 In6 Os1 Pd1'
_cell_volume   659.57704125
_cell_formula_units_Z   1
loop_
 _symmetry_equiv_pos_site_id
 _symmetry_equiv_pos_as_xyz
  1  'x, y, z'
loop_
 _atom_site_type_symbol
 _atom_site_label
 _atom_site_symmetry_multiplicity
 _atom_site_fract_x
 _atom_site_fract_y
 _atom_site_fract_z
 _atom_site_occupancy
  Ho  Ho0  1  0.529755  0.059509  0.509832  1
  Ho  Ho1  1  0.940491  0.470245  0.509832  1
  Ho  Ho2  1  0.529755  0.470245  0.509832  1
  Ho  Ho3  1  0.466066  0.932133  0.007147  1
  Ho  Ho4  1  0.067867  0.533934  0.007147  1
  Ho  Ho5  1  0.466066  0.533934  0.007147  1
  Ho  Ho6  1  0.176493  0.352984  0.714885  1
  Ho  Ho7  1  0.647016  0.823507  0.714885  1
  Ho  Ho8  1  0.176493  0.823507  0.714885  1
  Ho  Ho9  1  0.824951  0.649903  0.213156  1
  Ho  Ho10  1  0.350097  0.175049  0.213156  1
  Ho  Ho11  1  0.824951  0.175049  0.213156  1
  Ho  Ho12  1  0.666667  0.333333  0.882420  1
  Ho  Ho13  1  0.333333  0.666667  0.384035  1
  Ho  Ho14  1  0.000000  0.000000  0.491155  1
  Ho  Ho15  1  0.000000  0.000000  0.993767  1
  In  In16  1  0.837024  0.674048  0.751038  1
  In  In17  1  0.325952  0.162976  0.751038  1
  In  In18  1  0.837024  0.162976  0.751038  1
  In  In19  1  0.162717  0.325433  0.252143  1
  In  In20  1  0.674567  0.837283  0.252143  1
  In  In21  1  0.162717  0.837283  0.252143  1
  Os  Os22  1  0.333333  0.666667  0.781467  1
  Pd  Pd23  1  0.666667  0.333333  0.280602  1
