# generated using pymatgen
data_Hf3TiSn3MoN
_symmetry_space_group_name_H-M   'P 1'
_cell_length_a   8.23916800
_cell_length_b   8.23916781
_cell_length_c   5.51460900
_cell_angle_alpha   90.00000000
_cell_angle_beta   90.00000000
_cell_angle_gamma   120.00000878
_symmetry_Int_Tables_number   1
_chemical_formula_structural   Hf3TiSn3MoN
_chemical_formula_sum   'Hf6 Ti2 Sn6 Mo2 N2'
_cell_volume   324.19926463
_cell_formula_units_Z   2
loop_
 _symmetry_equiv_pos_site_id
 _symmetry_equiv_pos_as_xyz
  1  'x, y, z'
loop_
 _atom_site_type_symbol
 _atom_site_label
 _atom_site_symmetry_multiplicity
 _atom_site_fract_x
 _atom_site_fract_y
 _atom_site_fract_z
 _atom_site_occupancy
  Hf  Hf0  1  0.221955  0.000000  0.252168  1
  Hf  Hf1  1  0.778045  0.000000  0.747832  1
  Hf  Hf2  1  0.000000  0.221955  0.252168  1
  Hf  Hf3  1  0.000000  0.778045  0.747832  1
  Hf  Hf4  1  0.778045  0.778045  0.252168  1
  Hf  Hf5  1  0.221955  0.221955  0.747832  1
  Ti  Ti6  1  0.333333  0.666667  0.000000  1
  Ti  Ti7  1  0.666667  0.333333  0.000000  1
  Sn  Sn8  1  0.590308  0.000000  0.251636  1
  Sn  Sn9  1  0.409692  0.000000  0.748364  1
  Sn  Sn10  1  0.000000  0.590308  0.251636  1
  Sn  Sn11  1  0.000000  0.409692  0.748364  1
  Sn  Sn12  1  0.409692  0.409692  0.251636  1
  Sn  Sn13  1  0.590308  0.590308  0.748364  1
  Mo  Mo14  1  0.666667  0.333333  0.500000  1
  Mo  Mo15  1  0.333333  0.666667  0.500000  1
  N  N16  1  0.000000  0.000000  0.000000  1
  N  N17  1  0.000000  0.000000  0.500000  1
