# generated using pymatgen
data_Tb2Sm4IrBr10
_symmetry_space_group_name_H-M   'P 1'
_cell_length_a   7.47557391
_cell_length_b   9.30916902
_cell_length_c   9.33849900
_cell_angle_alpha   108.05180277
_cell_angle_beta   96.23601870
_cell_angle_gamma   105.38392723
_symmetry_Int_Tables_number   1
_chemical_formula_structural   Tb2Sm4IrBr10
_chemical_formula_sum   'Tb2 Sm4 Ir1 Br10'
_cell_volume   582.69967576
_cell_formula_units_Z   1
loop_
 _symmetry_equiv_pos_site_id
 _symmetry_equiv_pos_as_xyz
  1  'x, y, z'
loop_
 _atom_site_type_symbol
 _atom_site_label
 _atom_site_symmetry_multiplicity
 _atom_site_fract_x
 _atom_site_fract_y
 _atom_site_fract_z
 _atom_site_occupancy
  Tb  Tb0  1  0.361857  0.135202  0.678434  1
  Tb  Tb1  1  0.638143  0.864798  0.321566  1
  Sm  Sm2  1  0.030316  0.699844  0.404754  1
  Sm  Sm3  1  0.969684  0.300156  0.595246  1
  Sm  Sm4  1  0.870671  0.952174  0.748533  1
  Sm  Sm5  1  0.129329  0.047826  0.251467  1
  Ir  Ir6  1  0.000000  0.000000  0.500000  1
  Br  Br7  1  0.452165  0.823166  0.583717  1
  Br  Br8  1  0.547835  0.176834  0.416283  1
  Br  Br9  1  0.912058  0.629631  0.675245  1
  Br  Br10  1  0.087942  0.370369  0.324755  1
  Br  Br11  1  0.251417  0.084425  0.952538  1
  Br  Br12  1  0.748583  0.915575  0.047462  1
  Br  Br13  1  0.353813  0.450298  0.771798  1
  Br  Br14  1  0.646187  0.549702  0.228202  1
  Br  Br15  1  0.777930  0.255330  0.848617  1
  Br  Br16  1  0.222070  0.744670  0.151383  1
