# generated using pymatgen
data_DyEr(ReN3)2
_symmetry_space_group_name_H-M   'P 1'
_cell_length_a   7.37684685
_cell_length_b   7.37684710
_cell_length_c   6.29283812
_cell_angle_alpha   72.60017206
_cell_angle_beta   72.60017051
_cell_angle_gamma   81.73438161
_symmetry_Int_Tables_number   1
_chemical_formula_structural   DyEr(ReN3)2
_chemical_formula_sum   'Dy2 Er2 Re4 N12'
_cell_volume   311.26464238
_cell_formula_units_Z   2
loop_
 _symmetry_equiv_pos_site_id
 _symmetry_equiv_pos_as_xyz
  1  'x, y, z'
loop_
 _atom_site_type_symbol
 _atom_site_label
 _atom_site_symmetry_multiplicity
 _atom_site_fract_x
 _atom_site_fract_y
 _atom_site_fract_z
 _atom_site_occupancy
  Dy  Dy0  1  0.712128  0.287872  0.250000  1
  Dy  Dy1  1  0.287872  0.712128  0.750000  1
  Er  Er2  1  0.906824  0.093176  0.750000  1
  Er  Er3  1  0.093176  0.906824  0.250000  1
  Re  Re4  1  0.623384  0.795235  0.282406  1
  Re  Re5  1  0.204765  0.376616  0.217594  1
  Re  Re6  1  0.376616  0.204765  0.717594  1
  Re  Re7  1  0.795235  0.623384  0.782406  1
  N  N8  1  0.667854  0.634800  0.086447  1
  N  N9  1  0.372620  0.871272  0.338420  1
  N  N10  1  0.365200  0.332146  0.413553  1
  N  N11  1  0.128728  0.627380  0.161580  1
  N  N12  1  0.006577  0.216551  0.339857  1
  N  N13  1  0.783449  0.993423  0.160143  1
  N  N14  1  0.216551  0.006577  0.839857  1
  N  N15  1  0.627380  0.128728  0.661580  1
  N  N16  1  0.332146  0.365200  0.913553  1
  N  N17  1  0.871272  0.372620  0.838420  1
  N  N18  1  0.634800  0.667854  0.586447  1
  N  N19  1  0.993423  0.783449  0.660143  1
