# generated using pymatgen
data_Nd2Gd2TmSi4
_symmetry_space_group_name_H-M   'P 1'
_cell_length_a   7.78417600
_cell_length_b   7.78417600
_cell_length_c   14.36667600
_cell_angle_alpha   90.00000000
_cell_angle_beta   90.00000000
_cell_angle_gamma   90.00000000
_symmetry_Int_Tables_number   1
_chemical_formula_structural   Nd2Gd2TmSi4
_chemical_formula_sum   'Nd8 Gd8 Tm4 Si16'
_cell_volume   870.52568806
_cell_formula_units_Z   4
loop_
 _symmetry_equiv_pos_site_id
 _symmetry_equiv_pos_as_xyz
  1  'x, y, z'
loop_
 _atom_site_type_symbol
 _atom_site_label
 _atom_site_symmetry_multiplicity
 _atom_site_fract_x
 _atom_site_fract_y
 _atom_site_fract_z
 _atom_site_occupancy
  Nd  Nd0  1  0.638108  0.991280  0.457796  1
  Nd  Nd1  1  0.361892  0.008720  0.957796  1
  Nd  Nd2  1  0.991280  0.638108  0.542204  1
  Nd  Nd3  1  0.491280  0.861892  0.207796  1
  Nd  Nd4  1  0.508720  0.138108  0.707796  1
  Nd  Nd5  1  0.861892  0.491280  0.792204  1
  Nd  Nd6  1  0.138108  0.508720  0.292204  1
  Nd  Nd7  1  0.008720  0.361892  0.042204  1
  Gd  Gd8  1  0.488961  0.362480  0.124573  1
  Gd  Gd9  1  0.988961  0.137520  0.625427  1
  Gd  Gd10  1  0.862480  0.011039  0.874573  1
  Gd  Gd11  1  0.137520  0.988961  0.374573  1
  Gd  Gd12  1  0.511039  0.637520  0.624573  1
  Gd  Gd13  1  0.362480  0.488961  0.875427  1
  Gd  Gd14  1  0.637520  0.511039  0.375427  1
  Gd  Gd15  1  0.011039  0.862480  0.125427  1
  Tm  Tm16  1  0.316405  0.316405  0.500000  1
  Tm  Tm17  1  0.183595  0.816405  0.750000  1
  Tm  Tm18  1  0.816405  0.183595  0.250000  1
  Tm  Tm19  1  0.683595  0.683595  0.000000  1
  Si  Si20  1  0.289631  0.934199  0.562092  1
  Si  Si21  1  0.710369  0.065801  0.062092  1
  Si  Si22  1  0.934199  0.289631  0.437908  1
  Si  Si23  1  0.434199  0.210369  0.312092  1
  Si  Si24  1  0.565801  0.789631  0.812092  1
  Si  Si25  1  0.210369  0.434199  0.687908  1
  Si  Si26  1  0.789631  0.565801  0.187908  1
  Si  Si27  1  0.065801  0.710369  0.937908  1
  Si  Si28  1  0.797736  0.843571  0.692240  1
  Si  Si29  1  0.202264  0.156429  0.192240  1
  Si  Si30  1  0.843571  0.797736  0.307760  1
  Si  Si31  1  0.343571  0.702264  0.442240  1
  Si  Si32  1  0.656429  0.297736  0.942240  1
  Si  Si33  1  0.702264  0.343571  0.557760  1
  Si  Si34  1  0.297736  0.656429  0.057760  1
  Si  Si35  1  0.156429  0.202264  0.807760  1
