# generated using pymatgen
data_Pr2Al3SiPt4
_symmetry_space_group_name_H-M   'P 1'
_cell_length_a   4.28075100
_cell_length_b   4.28075100
_cell_length_c   10.38335300
_cell_angle_alpha   90.00000000
_cell_angle_beta   90.00000000
_cell_angle_gamma   90.00000000
_symmetry_Int_Tables_number   1
_chemical_formula_structural   Pr2Al3SiPt4
_chemical_formula_sum   'Pr2 Al3 Si1 Pt4'
_cell_volume   190.27316946
_cell_formula_units_Z   1
loop_
 _symmetry_equiv_pos_site_id
 _symmetry_equiv_pos_as_xyz
  1  'x, y, z'
loop_
 _atom_site_type_symbol
 _atom_site_label
 _atom_site_symmetry_multiplicity
 _atom_site_fract_x
 _atom_site_fract_y
 _atom_site_fract_z
 _atom_site_occupancy
  Pr  Pr0  1  0.000000  0.500000  0.253507  1
  Pr  Pr1  1  0.500000  0.000000  0.750600  1
  Al  Al2  1  0.000000  0.000000  0.502801  1
  Al  Al3  1  0.500000  0.500000  0.502801  1
  Al  Al4  1  0.500000  0.000000  0.125351  1
  Si  Si5  1  0.000000  0.500000  0.872019  1
  Pt  Pt6  1  0.000000  0.000000  0.993501  1
  Pt  Pt7  1  0.500000  0.500000  0.993501  1
  Pt  Pt8  1  0.000000  0.500000  0.639533  1
  Pt  Pt9  1  0.500000  0.000000  0.366386  1
