# generated using pymatgen
data_CaEu3Ti3WO14
_symmetry_space_group_name_H-M   'P 1'
_cell_length_a   7.29057634
_cell_length_b   7.37619322
_cell_length_c   7.29057546
_cell_angle_alpha   60.66832210
_cell_angle_beta   60.24225166
_cell_angle_gamma   60.66831614
_symmetry_Int_Tables_number   1
_chemical_formula_structural   CaEu3Ti3WO14
_chemical_formula_sum   'Ca1 Eu3 Ti3 W1 O14'
_cell_volume   280.51719779
_cell_formula_units_Z   1
loop_
 _symmetry_equiv_pos_site_id
 _symmetry_equiv_pos_as_xyz
  1  'x, y, z'
loop_
 _atom_site_type_symbol
 _atom_site_label
 _atom_site_symmetry_multiplicity
 _atom_site_fract_x
 _atom_site_fract_y
 _atom_site_fract_z
 _atom_site_occupancy
  Ca  Ca0  1  0.125000  0.125000  0.125000  1
  Eu  Eu1  1  0.125000  0.625000  0.125000  1
  Eu  Eu2  1  0.125000  0.125000  0.625000  1
  Eu  Eu3  1  0.625000  0.125000  0.125000  1
  Ti  Ti4  1  0.625000  0.625000  0.125000  1
  Ti  Ti5  1  0.125000  0.625000  0.625000  1
  Ti  Ti6  1  0.625000  0.625000  0.625000  1
  W  W7  1  0.625000  0.125000  0.625000  1
  O  O8  1  0.694970  0.697559  0.304459  1
  O  O9  1  0.945541  0.552441  0.555030  1
  O  O10  1  0.556785  0.948251  0.939891  1
  O  O11  1  0.939891  0.948251  0.556785  1
  O  O12  1  0.943926  0.557184  0.943926  1
  O  O13  1  0.554407  0.948557  0.554407  1
  O  O14  1  0.306074  0.692816  0.306074  1
  O  O15  1  0.304459  0.697559  0.694970  1
  O  O16  1  0.693215  0.301749  0.310109  1
  O  O17  1  0.695593  0.301443  0.695593  1
  O  O18  1  0.555030  0.552441  0.945541  1
  O  O19  1  0.310109  0.301749  0.693215  1
  O  O20  1  0.250137  0.249979  0.250137  1
  O  O21  1  0.999863  0.000021  0.999863  1
