# generated using pymatgen
data_BeNb10ZnSn6
_symmetry_space_group_name_H-M   'P 1'
_cell_length_a   8.30576900
_cell_length_b   8.30576879
_cell_length_c   5.60339200
_cell_angle_alpha   90.00000000
_cell_angle_beta   90.00000000
_cell_angle_gamma   119.99999685
_symmetry_Int_Tables_number   1
_chemical_formula_structural   BeNb10ZnSn6
_chemical_formula_sum   'Be1 Nb10 Zn1 Sn6'
_cell_volume   334.76599532
_cell_formula_units_Z   1
loop_
 _symmetry_equiv_pos_site_id
 _symmetry_equiv_pos_as_xyz
  1  'x, y, z'
loop_
 _atom_site_type_symbol
 _atom_site_label
 _atom_site_symmetry_multiplicity
 _atom_site_fract_x
 _atom_site_fract_y
 _atom_site_fract_z
 _atom_site_occupancy
  Be  Be0  1  0.000000  0.000000  0.000000  1
  Nb  Nb1  1  0.666667  0.333333  0.000000  1
  Nb  Nb2  1  0.333333  0.666667  0.000000  1
  Nb  Nb3  1  0.333333  0.666667  0.500000  1
  Nb  Nb4  1  0.666667  0.333333  0.500000  1
  Nb  Nb5  1  0.739021  0.739021  0.762915  1
  Nb  Nb6  1  0.260979  0.000000  0.762915  1
  Nb  Nb7  1  0.000000  0.260979  0.762915  1
  Nb  Nb8  1  0.260979  0.260979  0.237085  1
  Nb  Nb9  1  0.739021  0.000000  0.237085  1
  Nb  Nb10  1  0.000000  0.739021  0.237085  1
  Zn  Zn11  1  0.000000  0.000000  0.500000  1
  Sn  Sn12  1  0.389946  0.389946  0.746150  1
  Sn  Sn13  1  0.610054  0.000000  0.746150  1
  Sn  Sn14  1  0.000000  0.610054  0.746150  1
  Sn  Sn15  1  0.610054  0.610054  0.253850  1
  Sn  Sn16  1  0.389946  0.000000  0.253850  1
  Sn  Sn17  1  0.000000  0.389946  0.253850  1
