# generated using pymatgen
data_Li8PrNd7SnBi7
_symmetry_space_group_name_H-M   'P 1'
_cell_length_a   9.86294300
_cell_length_b   9.86344144
_cell_length_c   7.43888602
_cell_angle_alpha   89.99228825
_cell_angle_beta   90.00000000
_cell_angle_gamma   119.99832501
_symmetry_Int_Tables_number   1
_chemical_formula_structural   Li8PrNd7SnBi7
_chemical_formula_sum   'Li8 Pr1 Nd7 Sn1 Bi7'
_cell_volume   626.73053515
_cell_formula_units_Z   1
loop_
 _symmetry_equiv_pos_site_id
 _symmetry_equiv_pos_as_xyz
  1  'x, y, z'
loop_
 _atom_site_type_symbol
 _atom_site_label
 _atom_site_symmetry_multiplicity
 _atom_site_fract_x
 _atom_site_fract_y
 _atom_site_fract_z
 _atom_site_occupancy
  Li  Li0  1  0.167738  0.335475  0.277344  1
  Li  Li1  1  0.167504  0.832171  0.277247  1
  Li  Li2  1  0.664667  0.832171  0.277247  1
  Li  Li3  1  0.831134  0.662269  0.776206  1
  Li  Li4  1  0.831287  0.168975  0.776351  1
  Li  Li5  1  0.337688  0.168975  0.776351  1
  Li  Li6  1  0.333207  0.666416  0.682304  1
  Li  Li7  1  0.666745  0.333489  0.182875  1
  Pr  Pr8  1  0.511990  0.023983  0.496472  1
  Nd  Nd9  1  0.512242  0.487804  0.496585  1
  Nd  Nd10  1  0.975560  0.487804  0.496585  1
  Nd  Nd11  1  0.493762  0.987524  0.992314  1
  Nd  Nd12  1  0.493754  0.506225  0.992242  1
  Nd  Nd13  1  0.012472  0.506225  0.992242  1
  Nd  Nd14  1  0.000013  0.000026  0.502758  1
  Nd  Nd15  1  0.999990  0.999980  0.001611  1
  Sn  Sn16  1  0.667120  0.334239  0.762699  1
  Bi  Bi17  1  0.166750  0.333502  0.737166  1
  Bi  Bi18  1  0.166036  0.832917  0.737778  1
  Bi  Bi19  1  0.666879  0.832917  0.737778  1
  Bi  Bi20  1  0.833593  0.667186  0.237434  1
  Bi  Bi21  1  0.834477  0.166853  0.236582  1
  Bi  Bi22  1  0.332376  0.166853  0.236582  1
  Bi  Bi23  1  0.333011  0.666023  0.259223  1
