# generated using pymatgen
data_Nd2Bi2Pt3PbO14
_symmetry_space_group_name_H-M   'P 1'
_cell_length_a   7.54505050
_cell_length_b   7.52605656
_cell_length_c   7.51723381
_cell_angle_alpha   59.96118044
_cell_angle_beta   59.91524595
_cell_angle_gamma   60.08324070
_symmetry_Int_Tables_number   1
_chemical_formula_structural   Nd2Bi2Pt3PbO14
_chemical_formula_sum   'Nd2 Bi2 Pt3 Pb1 O14'
_cell_volume   301.74374869
_cell_formula_units_Z   1
loop_
 _symmetry_equiv_pos_site_id
 _symmetry_equiv_pos_as_xyz
  1  'x, y, z'
loop_
 _atom_site_type_symbol
 _atom_site_label
 _atom_site_symmetry_multiplicity
 _atom_site_fract_x
 _atom_site_fract_y
 _atom_site_fract_z
 _atom_site_occupancy
  Nd  Nd0  1  0.125000  0.625000  0.125000  1
  Nd  Nd1  1  0.125000  0.125000  0.125000  1
  Bi  Bi2  1  0.125000  0.125000  0.625000  1
  Bi  Bi3  1  0.625000  0.125000  0.125000  1
  Pt  Pt4  1  0.625000  0.625000  0.125000  1
  Pt  Pt5  1  0.625000  0.125000  0.625000  1
  Pt  Pt6  1  0.625000  0.625000  0.625000  1
  Pb  Pb7  1  0.125000  0.625000  0.625000  1
  O  O8  1  0.252184  0.249733  0.248350  1
  O  O9  1  0.997816  0.000267  0.001650  1
  O  O10  1  0.553312  0.954613  0.537463  1
  O  O11  1  0.295002  0.717470  0.270057  1
  O  O12  1  0.547014  0.539146  0.957205  1
  O  O13  1  0.953049  0.534106  0.533039  1
  O  O14  1  0.547014  0.956636  0.957205  1
  O  O15  1  0.953049  0.979807  0.533039  1
  O  O16  1  0.954998  0.532530  0.979943  1
  O  O17  1  0.702986  0.293364  0.292795  1
  O  O18  1  0.296951  0.715894  0.716961  1
  O  O19  1  0.696688  0.295387  0.712537  1
  O  O20  1  0.296951  0.270193  0.716961  1
  O  O21  1  0.702986  0.710854  0.292795  1
