# generated using pymatgen
data_Ti8Cu3IrO2
_symmetry_space_group_name_H-M   'P 1'
_cell_length_a   8.18919173
_cell_length_b   8.13815913
_cell_length_c   8.13815923
_cell_angle_alpha   59.68555982
_cell_angle_beta   59.79234389
_cell_angle_gamma   59.79234292
_symmetry_Int_Tables_number   1
_chemical_formula_structural   Ti8Cu3IrO2
_chemical_formula_sum   'Ti16 Cu6 Ir2 O4'
_cell_volume   381.39229923
_cell_formula_units_Z   2
loop_
 _symmetry_equiv_pos_site_id
 _symmetry_equiv_pos_as_xyz
  1  'x, y, z'
loop_
 _atom_site_type_symbol
 _atom_site_label
 _atom_site_symmetry_multiplicity
 _atom_site_fract_x
 _atom_site_fract_y
 _atom_site_fract_z
 _atom_site_occupancy
  Ti  Ti0  1  0.821078  0.177477  0.821482  1
  Ti  Ti1  1  0.186168  0.816809  0.180262  1
  Ti  Ti2  1  0.433239  0.069738  0.433191  1
  Ti  Ti3  1  0.430707  0.073063  0.065522  1
  Ti  Ti4  1  0.071104  0.426251  0.431540  1
  Ti  Ti5  1  0.070038  0.428518  0.072523  1
  Ti  Ti6  1  0.179962  0.177477  0.821482  1
  Ti  Ti7  1  0.428922  0.428518  0.072523  1
  Ti  Ti8  1  0.125000  0.621065  0.628935  1
  Ti  Ti9  1  0.626481  0.622290  0.124748  1
  Ti  Ti10  1  0.625000  0.621065  0.628935  1
  Ti  Ti11  1  0.623519  0.125252  0.627710  1
  Ti  Ti12  1  0.178896  0.818460  0.823749  1
  Ti  Ti13  1  0.819293  0.184478  0.176937  1
  Ti  Ti14  1  0.063832  0.069738  0.433191  1
  Ti  Ti15  1  0.816761  0.816809  0.180262  1
  Cu  Cu16  1  0.833479  0.833588  0.834353  1
  Cu  Cu17  1  0.498580  0.833588  0.834353  1
  Cu  Cu18  1  0.416521  0.415647  0.416412  1
  Cu  Cu19  1  0.414946  0.416152  0.753957  1
  Cu  Cu20  1  0.835054  0.496043  0.833848  1
  Cu  Cu21  1  0.751420  0.415647  0.416412  1
  Ir  Ir22  1  0.408943  0.773825  0.408289  1
  Ir  Ir23  1  0.841057  0.841711  0.476175  1
  O  O24  1  0.124393  0.123690  0.627523  1
  O  O25  1  0.625000  0.125312  0.124688  1
  O  O26  1  0.125000  0.125312  0.124688  1
  O  O27  1  0.125607  0.622477  0.126310  1
