# generated using pymatgen
data_LuTl2Ag(Pt2O7)2
_symmetry_space_group_name_H-M   'P 1'
_cell_length_a   7.32225715
_cell_length_b   7.22725744
_cell_length_c   7.32225552
_cell_angle_alpha   59.50347734
_cell_angle_beta   59.78844823
_cell_angle_gamma   59.50347940
_symmetry_Int_Tables_number   1
_chemical_formula_structural   LuTl2Ag(Pt2O7)2
_chemical_formula_sum   'Lu1 Tl2 Ag1 Pt4 O14'
_cell_volume   271.49345392
_cell_formula_units_Z   1
loop_
 _symmetry_equiv_pos_site_id
 _symmetry_equiv_pos_as_xyz
  1  'x, y, z'
loop_
 _atom_site_type_symbol
 _atom_site_label
 _atom_site_symmetry_multiplicity
 _atom_site_fract_x
 _atom_site_fract_y
 _atom_site_fract_z
 _atom_site_occupancy
  Lu  Lu0  1  0.625000  0.625000  0.625000  1
  Tl  Tl1  1  0.625000  0.625000  0.125000  1
  Tl  Tl2  1  0.125000  0.625000  0.625000  1
  Ag  Ag3  1  0.625000  0.125000  0.625000  1
  Pt  Pt4  1  0.125000  0.125000  0.125000  1
  Pt  Pt5  1  0.625000  0.125000  0.125000  1
  Pt  Pt6  1  0.125000  0.125000  0.625000  1
  Pt  Pt7  1  0.125000  0.625000  0.125000  1
  O  O8  1  0.027389  0.466539  0.462999  1
  O  O9  1  0.787001  0.783461  0.222611  1
  O  O10  1  0.791258  0.209741  0.205278  1
  O  O11  1  0.457584  0.021633  0.457584  1
  O  O12  1  0.737572  0.770967  0.737572  1
  O  O13  1  0.037918  0.464207  0.037918  1
  O  O14  1  0.044722  0.040259  0.458742  1
  O  O15  1  0.212082  0.785793  0.212082  1
  O  O16  1  0.205278  0.209741  0.791258  1
  O  O17  1  0.792416  0.228367  0.792416  1
  O  O18  1  0.512428  0.479033  0.512428  1
  O  O19  1  0.458742  0.040259  0.044722  1
  O  O20  1  0.462999  0.466539  0.027389  1
  O  O21  1  0.222611  0.783461  0.787001  1
