# generated using pymatgen
data_SrEr3(ZnSn)4
_symmetry_space_group_name_H-M   'P 1'
_cell_length_a   4.52582100
_cell_length_b   4.52582165
_cell_length_c   16.33124200
_cell_angle_alpha   90.00000000
_cell_angle_beta   90.00000000
_cell_angle_gamma   119.99998793
_symmetry_Int_Tables_number   1
_chemical_formula_structural   SrEr3(ZnSn)4
_chemical_formula_sum   'Sr1 Er3 Zn4 Sn4'
_cell_volume   289.69747364
_cell_formula_units_Z   1
loop_
 _symmetry_equiv_pos_site_id
 _symmetry_equiv_pos_as_xyz
  1  'x, y, z'
loop_
 _atom_site_type_symbol
 _atom_site_label
 _atom_site_symmetry_multiplicity
 _atom_site_fract_x
 _atom_site_fract_y
 _atom_site_fract_z
 _atom_site_occupancy
  Sr  Sr0  1  0.000000  0.000000  0.000000  1
  Er  Er1  1  0.000000  0.000000  0.259106  1
  Er  Er2  1  0.000000  0.000000  0.740894  1
  Er  Er3  1  0.000000  0.000000  0.500000  1
  Zn  Zn4  1  0.333333  0.666667  0.174177  1
  Zn  Zn5  1  0.666667  0.333333  0.825823  1
  Zn  Zn6  1  0.666667  0.333333  0.656994  1
  Zn  Zn7  1  0.333333  0.666667  0.343006  1
  Sn  Sn8  1  0.333333  0.666667  0.607725  1
  Sn  Sn9  1  0.666667  0.333333  0.392275  1
  Sn  Sn10  1  0.666667  0.333333  0.130588  1
  Sn  Sn11  1  0.333333  0.666667  0.869412  1
