# generated using pymatgen
data_Ho6Al17Fe8Si7
_symmetry_space_group_name_H-M   'P 1'
_cell_length_a   8.48053859
_cell_length_b   8.47459684
_cell_length_c   9.25093800
_cell_angle_alpha   90.00000000
_cell_angle_beta   90.00000000
_cell_angle_gamma   120.02867236
_symmetry_Int_Tables_number   1
_chemical_formula_structural   Ho6Al17Fe8Si7
_chemical_formula_sum   'Ho6 Al17 Fe8 Si7'
_cell_volume   575.61663165
_cell_formula_units_Z   1
loop_
 _symmetry_equiv_pos_site_id
 _symmetry_equiv_pos_as_xyz
  1  'x, y, z'
loop_
 _atom_site_type_symbol
 _atom_site_label
 _atom_site_symmetry_multiplicity
 _atom_site_fract_x
 _atom_site_fract_y
 _atom_site_fract_z
 _atom_site_occupancy
  Ho  Ho0  1  0.193041  0.389371  0.250000  1
  Ho  Ho1  1  0.805860  0.612612  0.750000  1
  Ho  Ho2  1  0.609365  0.806805  0.250000  1
  Ho  Ho3  1  0.389500  0.191548  0.750000  1
  Ho  Ho4  1  0.196879  0.804251  0.250000  1
  Ho  Ho5  1  0.800586  0.191892  0.750000  1
  Al  Al6  1  0.163116  0.326803  0.574401  1
  Al  Al7  1  0.835508  0.672683  0.424618  1
  Al  Al8  1  0.672947  0.836004  0.574134  1
  Al  Al9  1  0.835508  0.672683  0.075382  1
  Al  Al10  1  0.328435  0.165015  0.425698  1
  Al  Al11  1  0.163116  0.326803  0.925599  1
  Al  Al12  1  0.163080  0.835508  0.573242  1
  Al  Al13  1  0.328435  0.165015  0.074302  1
  Al  Al14  1  0.835496  0.164278  0.424846  1
  Al  Al15  1  0.672947  0.836004  0.925866  1
  Al  Al16  1  0.835496  0.164278  0.075154  1
  Al  Al17  1  0.163080  0.835508  0.926758  1
  Al  Al18  1  0.122104  0.563210  0.750000  1
  Al  Al19  1  0.563162  0.436762  0.250000  1
  Al  Al20  1  0.440195  0.563560  0.750000  1
  Al  Al21  1  0.999884  0.999345  0.250000  1
  Al  Al22  1  0.999804  0.000865  0.750000  1
  Fe  Fe23  1  0.500752  0.001225  0.001480  1
  Fe  Fe24  1  0.997942  0.499345  0.007957  1
  Fe  Fe25  1  0.500752  0.001225  0.498520  1
  Fe  Fe26  1  0.501226  0.500165  0.000725  1
  Fe  Fe27  1  0.997942  0.499345  0.492043  1
  Fe  Fe28  1  0.501226  0.500165  0.499275  1
  Fe  Fe29  1  0.000922  0.000598  0.000055  1
  Fe  Fe30  1  0.000922  0.000598  0.499945  1
  Si  Si31  1  0.333361  0.663624  0.031047  1
  Si  Si32  1  0.666293  0.336411  0.968102  1
  Si  Si33  1  0.666293  0.336411  0.531898  1
  Si  Si34  1  0.333361  0.663624  0.468953  1
  Si  Si35  1  0.561725  0.119500  0.250000  1
  Si  Si36  1  0.438787  0.878228  0.750000  1
  Si  Si37  1  0.880953  0.438728  0.250000  1
