# generated using pymatgen
data_CaHf3(Al3Ir)6
_symmetry_space_group_name_H-M   'P 1'
_cell_length_a   7.48951887
_cell_length_b   7.48606528
_cell_length_c   9.31842300
_cell_angle_alpha   90.00000000
_cell_angle_beta   90.00000000
_cell_angle_gamma   119.70887554
_symmetry_Int_Tables_number   1
_chemical_formula_structural   CaHf3(Al3Ir)6
_chemical_formula_sum   'Ca1 Hf3 Al18 Ir6'
_cell_volume   453.78188223
_cell_formula_units_Z   1
loop_
 _symmetry_equiv_pos_site_id
 _symmetry_equiv_pos_as_xyz
  1  'x, y, z'
loop_
 _atom_site_type_symbol
 _atom_site_label
 _atom_site_symmetry_multiplicity
 _atom_site_fract_x
 _atom_site_fract_y
 _atom_site_fract_z
 _atom_site_occupancy
  Ca  Ca0  1  0.328700  0.005654  0.750000  1
  Hf  Hf1  1  0.995198  0.672538  0.250000  1
  Hf  Hf2  1  0.005622  0.328953  0.750000  1
  Hf  Hf3  1  0.670749  0.993872  0.250000  1
  Al  Al4  1  0.123265  0.124077  0.250000  1
  Al  Al5  1  0.871526  0.875895  0.750000  1
  Al  Al6  1  0.997989  0.334654  0.079176  1
  Al  Al7  1  0.000396  0.663427  0.925462  1
  Al  Al8  1  0.000396  0.663427  0.574538  1
  Al  Al9  1  0.335143  0.998810  0.419942  1
  Al  Al10  1  0.997989  0.334654  0.420824  1
  Al  Al11  1  0.666786  0.001939  0.574770  1
  Al  Al12  1  0.666786  0.001939  0.925230  1
  Al  Al13  1  0.335143  0.998810  0.080058  1
  Al  Al14  1  0.331213  0.332928  0.556939  1
  Al  Al15  1  0.668401  0.668026  0.438900  1
  Al  Al16  1  0.668401  0.668026  0.061100  1
  Al  Al17  1  0.331213  0.332928  0.943061  1
  Al  Al18  1  0.338465  0.552288  0.250000  1
  Al  Al19  1  0.667537  0.452547  0.750000  1
  Al  Al20  1  0.553673  0.339287  0.250000  1
  Al  Al21  1  0.445811  0.654796  0.750000  1
  Ir  Ir22  1  0.674602  0.329185  0.002246  1
  Ir  Ir23  1  0.328060  0.672413  0.002888  1
  Ir  Ir24  1  0.328060  0.672413  0.497112  1
  Ir  Ir25  1  0.674602  0.329185  0.497754  1
  Ir  Ir26  1  0.997137  0.998662  0.002402  1
  Ir  Ir27  1  0.997137  0.998662  0.497598  1
