# generated using pymatgen
data_Ho3Cd3SiGeAu
_symmetry_space_group_name_H-M   'P 1'
_cell_length_a   7.27421700
_cell_length_b   7.27421663
_cell_length_c   4.32747400
_cell_angle_alpha   90.00000000
_cell_angle_beta   90.00000000
_cell_angle_gamma   120.00000623
_symmetry_Int_Tables_number   1
_chemical_formula_structural   Ho3Cd3SiGeAu
_chemical_formula_sum   'Ho3 Cd3 Si1 Ge1 Au1'
_cell_volume   198.30677634
_cell_formula_units_Z   1
loop_
 _symmetry_equiv_pos_site_id
 _symmetry_equiv_pos_as_xyz
  1  'x, y, z'
loop_
 _atom_site_type_symbol
 _atom_site_label
 _atom_site_symmetry_multiplicity
 _atom_site_fract_x
 _atom_site_fract_y
 _atom_site_fract_z
 _atom_site_occupancy
  Ho  Ho0  1  0.584514  0.002180  0.000000  1
  Ho  Ho1  1  0.997820  0.582333  0.000000  1
  Ho  Ho2  1  0.417667  0.415486  0.000000  1
  Cd  Cd3  1  0.255255  0.003330  0.500000  1
  Cd  Cd4  1  0.996670  0.251925  0.500000  1
  Cd  Cd5  1  0.748075  0.744745  0.500000  1
  Si  Si6  1  0.666667  0.333333  0.500000  1
  Ge  Ge7  1  0.333333  0.666667  0.500000  1
  Au  Au8  1  0.000000  0.000000  0.000000  1
