# generated using pymatgen
data_BeNb5Co5B4
_symmetry_space_group_name_H-M   'P 1'
_cell_length_a   3.31580300
_cell_length_b   5.93618200
_cell_length_c   17.12606100
_cell_angle_alpha   90.00000000
_cell_angle_beta   90.00000000
_cell_angle_gamma   90.00000000
_symmetry_Int_Tables_number   1
_chemical_formula_structural   BeNb5Co5B4
_chemical_formula_sum   'Be2 Nb10 Co10 B8'
_cell_volume   337.09585658
_cell_formula_units_Z   2
loop_
 _symmetry_equiv_pos_site_id
 _symmetry_equiv_pos_as_xyz
  1  'x, y, z'
loop_
 _atom_site_type_symbol
 _atom_site_label
 _atom_site_symmetry_multiplicity
 _atom_site_fract_x
 _atom_site_fract_y
 _atom_site_fract_z
 _atom_site_occupancy
  Be  Be0  1  0.000000  0.768588  0.500000  1
  Be  Be1  1  0.500000  0.231412  0.000000  1
  Nb  Nb2  1  0.000000  0.473405  0.320837  1
  Nb  Nb3  1  0.000000  0.473405  0.679163  1
  Nb  Nb4  1  0.500000  0.526595  0.179163  1
  Nb  Nb5  1  0.500000  0.526595  0.820837  1
  Nb  Nb6  1  0.000000  0.979221  0.372988  1
  Nb  Nb7  1  0.000000  0.979221  0.627012  1
  Nb  Nb8  1  0.500000  0.020779  0.127012  1
  Nb  Nb9  1  0.500000  0.020779  0.872988  1
  Nb  Nb10  1  0.000000  0.348364  0.500000  1
  Nb  Nb11  1  0.500000  0.651636  0.000000  1
  Co  Co12  1  0.000000  0.857388  0.226450  1
  Co  Co13  1  0.000000  0.857388  0.773550  1
  Co  Co14  1  0.500000  0.142612  0.273550  1
  Co  Co15  1  0.500000  0.142612  0.726450  1
  Co  Co16  1  0.000000  0.353998  0.073106  1
  Co  Co17  1  0.000000  0.353998  0.926894  1
  Co  Co18  1  0.500000  0.646002  0.426894  1
  Co  Co19  1  0.500000  0.646002  0.573106  1
  Co  Co20  1  0.000000  0.985896  0.000000  1
  Co  Co21  1  0.500000  0.014104  0.500000  1
  B  B22  1  0.000000  0.231309  0.203280  1
  B  B23  1  0.000000  0.231309  0.796720  1
  B  B24  1  0.500000  0.768691  0.296720  1
  B  B25  1  0.500000  0.768691  0.703280  1
  B  B26  1  0.000000  0.729184  0.101884  1
  B  B27  1  0.000000  0.729184  0.898116  1
  B  B28  1  0.500000  0.270816  0.398116  1
  B  B29  1  0.500000  0.270816  0.601884  1
