# generated using pymatgen
data_Nd2Ga9PdRu2
_symmetry_space_group_name_H-M   'P 1'
_cell_length_a   7.63137493
_cell_length_b   7.63137481
_cell_length_c   9.76484200
_cell_angle_alpha   90.00000000
_cell_angle_beta   90.00000000
_cell_angle_gamma   119.35731993
_symmetry_Int_Tables_number   1
_chemical_formula_structural   Nd2Ga9PdRu2
_chemical_formula_sum   'Nd4 Ga18 Pd2 Ru4'
_cell_volume   495.65292878
_cell_formula_units_Z   2
loop_
 _symmetry_equiv_pos_site_id
 _symmetry_equiv_pos_as_xyz
  1  'x, y, z'
loop_
 _atom_site_type_symbol
 _atom_site_label
 _atom_site_symmetry_multiplicity
 _atom_site_fract_x
 _atom_site_fract_y
 _atom_site_fract_z
 _atom_site_occupancy
  Nd  Nd0  1  0.997008  0.671735  0.250000  1
  Nd  Nd1  1  0.002992  0.328265  0.750000  1
  Nd  Nd2  1  0.671735  0.997008  0.250000  1
  Nd  Nd3  1  0.328265  0.002992  0.750000  1
  Ga  Ga4  1  0.135603  0.135603  0.250000  1
  Ga  Ga5  1  0.864397  0.864397  0.750000  1
  Ga  Ga6  1  0.005132  0.340834  0.074713  1
  Ga  Ga7  1  0.994868  0.659166  0.925287  1
  Ga  Ga8  1  0.994868  0.659166  0.574713  1
  Ga  Ga9  1  0.340834  0.005132  0.425287  1
  Ga  Ga10  1  0.005132  0.340834  0.425287  1
  Ga  Ga11  1  0.659166  0.994868  0.574713  1
  Ga  Ga12  1  0.659166  0.994868  0.925287  1
  Ga  Ga13  1  0.340834  0.005132  0.074713  1
  Ga  Ga14  1  0.342919  0.342919  0.560172  1
  Ga  Ga15  1  0.657081  0.657081  0.439828  1
  Ga  Ga16  1  0.657081  0.657081  0.060172  1
  Ga  Ga17  1  0.342919  0.342919  0.939828  1
  Ga  Ga18  1  0.334875  0.547417  0.250000  1
  Ga  Ga19  1  0.665125  0.452583  0.750000  1
  Ga  Ga20  1  0.547417  0.334875  0.250000  1
  Ga  Ga21  1  0.452583  0.665125  0.750000  1
  Pd  Pd22  1  0.000000  0.000000  0.000000  1
  Pd  Pd23  1  0.000000  0.000000  0.500000  1
  Ru  Ru24  1  0.672808  0.327192  0.000000  1
  Ru  Ru25  1  0.327192  0.672808  0.000000  1
  Ru  Ru26  1  0.327192  0.672808  0.500000  1
  Ru  Ru27  1  0.672808  0.327192  0.500000  1
