# generated using pymatgen
data_Sm3BeZnSiIr6
_symmetry_space_group_name_H-M   'P 1'
_cell_length_a   5.57055000
_cell_length_b   5.57054930
_cell_length_c   15.38699200
_cell_angle_alpha   90.00000000
_cell_angle_beta   90.00000000
_cell_angle_gamma   120.00000418
_symmetry_Int_Tables_number   1
_chemical_formula_structural   Sm3BeZnSiIr6
_chemical_formula_sum   'Sm6 Be2 Zn2 Si2 Ir12'
_cell_volume   413.50469019
_cell_formula_units_Z   2
loop_
 _symmetry_equiv_pos_site_id
 _symmetry_equiv_pos_as_xyz
  1  'x, y, z'
loop_
 _atom_site_type_symbol
 _atom_site_label
 _atom_site_symmetry_multiplicity
 _atom_site_fract_x
 _atom_site_fract_y
 _atom_site_fract_z
 _atom_site_occupancy
  Sm  Sm0  1  0.333333  0.666667  0.537048  1
  Sm  Sm1  1  0.666667  0.333333  0.462952  1
  Sm  Sm2  1  0.666667  0.333333  0.037048  1
  Sm  Sm3  1  0.333333  0.666667  0.962952  1
  Sm  Sm4  1  0.333333  0.666667  0.750000  1
  Sm  Sm5  1  0.666667  0.333333  0.250000  1
  Be  Be6  1  0.000000  0.000000  0.250000  1
  Be  Be7  1  0.000000  0.000000  0.750000  1
  Zn  Zn8  1  0.000000  0.000000  0.000000  1
  Zn  Zn9  1  0.000000  0.000000  0.500000  1
  Si  Si10  1  0.333333  0.666667  0.250000  1
  Si  Si11  1  0.666667  0.333333  0.750000  1
  Ir  Ir12  1  0.164031  0.328064  0.135813  1
  Ir  Ir13  1  0.835969  0.671936  0.864187  1
  Ir  Ir14  1  0.671936  0.835969  0.135813  1
  Ir  Ir15  1  0.835969  0.671936  0.635813  1
  Ir  Ir16  1  0.328064  0.164031  0.864187  1
  Ir  Ir17  1  0.164031  0.328064  0.364187  1
  Ir  Ir18  1  0.164031  0.835969  0.135813  1
  Ir  Ir19  1  0.328064  0.164031  0.635813  1
  Ir  Ir20  1  0.835969  0.164031  0.864187  1
  Ir  Ir21  1  0.671936  0.835969  0.364187  1
  Ir  Ir22  1  0.835969  0.164031  0.635813  1
  Ir  Ir23  1  0.164031  0.835969  0.364187  1
