# generated using pymatgen
data_Sm3Sc3ReTe2
_symmetry_space_group_name_H-M   'P 1'
_cell_length_a   8.01495500
_cell_length_b   8.01495506
_cell_length_c   4.20561000
_cell_angle_alpha   90.00000000
_cell_angle_beta   90.00000000
_cell_angle_gamma   119.99999562
_symmetry_Int_Tables_number   1
_chemical_formula_structural   Sm3Sc3ReTe2
_chemical_formula_sum   'Sm3 Sc3 Re1 Te2'
_cell_volume   233.97089027
_cell_formula_units_Z   1
loop_
 _symmetry_equiv_pos_site_id
 _symmetry_equiv_pos_as_xyz
  1  'x, y, z'
loop_
 _atom_site_type_symbol
 _atom_site_label
 _atom_site_symmetry_multiplicity
 _atom_site_fract_x
 _atom_site_fract_y
 _atom_site_fract_z
 _atom_site_occupancy
  Sm  Sm0  1  0.391749  0.000000  0.500000  1
  Sm  Sm1  1  0.000000  0.391748  0.500000  1
  Sm  Sm2  1  0.608252  0.608252  0.500000  1
  Sc  Sc3  1  0.777074  0.000000  0.000000  1
  Sc  Sc4  1  0.222926  0.222926  0.000000  1
  Sc  Sc5  1  0.000000  0.777074  0.000000  1
  Re  Re6  1  0.000000  0.000000  0.500000  1
  Te  Te7  1  0.666667  0.333333  0.000000  1
  Te  Te8  1  0.333334  0.666667  0.000000  1
