# generated using pymatgen
data_SrErIn2Pt3
_symmetry_space_group_name_H-M   'P 1'
_cell_length_a   4.41783900
_cell_length_b   7.95966400
_cell_length_c   9.13970500
_cell_angle_alpha   90.00000000
_cell_angle_beta   90.00000000
_cell_angle_gamma   90.00000000
_symmetry_Int_Tables_number   1
_chemical_formula_structural   SrErIn2Pt3
_chemical_formula_sum   'Sr2 Er2 In4 Pt6'
_cell_volume   321.39328485
_cell_formula_units_Z   2
loop_
 _symmetry_equiv_pos_site_id
 _symmetry_equiv_pos_as_xyz
  1  'x, y, z'
loop_
 _atom_site_type_symbol
 _atom_site_label
 _atom_site_symmetry_multiplicity
 _atom_site_fract_x
 _atom_site_fract_y
 _atom_site_fract_z
 _atom_site_occupancy
  Sr  Sr0  1  0.000000  0.000000  0.279017  1
  Sr  Sr1  1  0.500001  0.500000  0.720984  1
  Er  Er2  1  0.000000  0.500000  0.355210  1
  Er  Er3  1  0.500001  0.000000  0.644791  1
  In  In4  1  0.500001  0.304839  0.114713  1
  In  In5  1  0.500001  0.695162  0.114713  1
  In  In6  1  0.000000  0.195161  0.885287  1
  In  In7  1  0.000000  0.804838  0.885287  1
  Pt  Pt8  1  0.000000  0.500000  0.030024  1
  Pt  Pt9  1  0.500001  0.267703  0.411123  1
  Pt  Pt10  1  0.500001  0.732297  0.411123  1
  Pt  Pt11  1  0.000000  0.232297  0.588878  1
  Pt  Pt12  1  0.000000  0.767703  0.588878  1
  Pt  Pt13  1  0.500001  0.000000  0.969977  1
