# generated using pymatgen
data_Eu(WF6)2
_symmetry_space_group_name_H-M   'P 1'
_cell_length_a   5.52947000
_cell_length_b   6.05627504
_cell_length_c   9.52851200
_cell_angle_alpha   104.69200044
_cell_angle_beta   90.57763354
_cell_angle_gamma   118.11349778
_symmetry_Int_Tables_number   1
_chemical_formula_structural   Eu(WF6)2
_chemical_formula_sum   'Eu1 W2 F12'
_cell_volume   269.08186989
_cell_formula_units_Z   1
loop_
 _symmetry_equiv_pos_site_id
 _symmetry_equiv_pos_as_xyz
  1  'x, y, z'
loop_
 _atom_site_type_symbol
 _atom_site_label
 _atom_site_symmetry_multiplicity
 _atom_site_fract_x
 _atom_site_fract_y
 _atom_site_fract_z
 _atom_site_occupancy
  Eu  Eu0  1  0.000000  0.000000  0.000000  1
  W  W1  1  0.775848  0.512970  0.271433  1
  W  W2  1  0.224152  0.487030  0.728567  1
  F  F3  1  0.833710  0.286417  0.718043  1
  F  F4  1  0.166290  0.713583  0.281957  1
  F  F5  1  0.203166  0.722397  0.914805  1
  F  F6  1  0.699206  0.707686  0.434415  1
  F  F7  1  0.300794  0.292314  0.565585  1
  F  F8  1  0.809456  0.292661  0.374818  1
  F  F9  1  0.190544  0.707339  0.625182  1
  F  F10  1  0.368528  0.278615  0.206013  1
  F  F11  1  0.631472  0.721385  0.793987  1
  F  F12  1  0.745375  0.721972  0.143733  1
  F  F13  1  0.254625  0.278028  0.856267  1
  F  F14  1  0.796834  0.277603  0.085195  1
