# generated using pymatgen
data_NdDyCo3P7Ru9
_symmetry_space_group_name_H-M   'P 1'
_cell_length_a   9.37104200
_cell_length_b   9.37104126
_cell_length_c   3.84833500
_cell_angle_alpha   90.00000000
_cell_angle_beta   90.00000000
_cell_angle_gamma   120.00000967
_symmetry_Int_Tables_number   1
_chemical_formula_structural   NdDyCo3P7Ru9
_chemical_formula_sum   'Nd1 Dy1 Co3 P7 Ru9'
_cell_volume   292.67066501
_cell_formula_units_Z   1
loop_
 _symmetry_equiv_pos_site_id
 _symmetry_equiv_pos_as_xyz
  1  'x, y, z'
loop_
 _atom_site_type_symbol
 _atom_site_label
 _atom_site_symmetry_multiplicity
 _atom_site_fract_x
 _atom_site_fract_y
 _atom_site_fract_z
 _atom_site_occupancy
  Nd  Nd0  1  0.333333  0.666667  0.000000  1
  Dy  Dy1  1  0.666667  0.333333  0.500000  1
  Co  Co2  1  0.157753  0.889560  0.000000  1
  Co  Co3  1  0.110440  0.268193  0.000000  1
  Co  Co4  1  0.731807  0.842247  0.000000  1
  P  P5  1  0.412066  0.109263  0.000000  1
  P  P6  1  0.890737  0.302802  0.000000  1
  P  P7  1  0.697198  0.587934  0.000000  1
  P  P8  1  0.112761  0.715496  0.500000  1
  P  P9  1  0.284504  0.397265  0.500000  1
  P  P10  1  0.602735  0.887239  0.500000  1
  P  P11  1  0.000000  0.000000  0.000000  1
  Ru  Ru12  1  0.424300  0.361834  0.000000  1
  Ru  Ru13  1  0.638166  0.062466  0.000000  1
  Ru  Ru14  1  0.937534  0.575700  0.000000  1
  Ru  Ru15  1  0.383525  0.950866  0.500000  1
  Ru  Ru16  1  0.049134  0.432659  0.500000  1
  Ru  Ru17  1  0.567341  0.616475  0.500000  1
  Ru  Ru18  1  0.204800  0.119580  0.500000  1
  Ru  Ru19  1  0.880420  0.085219  0.500000  1
  Ru  Ru20  1  0.914781  0.795200  0.500000  1
