# generated using pymatgen
data_Ta2VSn(PO4)6
_symmetry_space_group_name_H-M   'P 1'
_cell_length_a   8.68254638
_cell_length_b   8.67512704
_cell_length_c   8.99368229
_cell_angle_alpha   89.88515876
_cell_angle_beta   118.79596303
_cell_angle_gamma   119.92754644
_symmetry_Int_Tables_number   1
_chemical_formula_structural   Ta2VSn(PO4)6
_chemical_formula_sum   'Ta2 V1 Sn1 P6 O24'
_cell_volume   488.50978075
_cell_formula_units_Z   1
loop_
 _symmetry_equiv_pos_site_id
 _symmetry_equiv_pos_as_xyz
  1  'x, y, z'
loop_
 _atom_site_type_symbol
 _atom_site_label
 _atom_site_symmetry_multiplicity
 _atom_site_fract_x
 _atom_site_fract_y
 _atom_site_fract_z
 _atom_site_occupancy
  Ta  Ta0  1  0.217645  0.860584  0.076629  1
  Ta  Ta1  1  0.214223  0.358724  0.573548  1
  V  V2  1  0.790829  0.144662  0.934417  1
  Sn  Sn3  1  0.792361  0.644241  0.435537  1
  P  P4  1  0.992435  0.965338  0.246318  1
  P  P5  1  0.992292  0.033163  0.752841  1
  P  P6  1  0.718722  0.252163  0.249280  1
  P  P7  1  0.292950  0.761406  0.749061  1
  P  P8  1  0.279820  0.526245  0.246528  1
  P  P9  1  0.721687  0.461844  0.752433  1
  O  O10  1  0.137608  0.008091  0.924108  1
  O  O11  1  0.264159  0.504185  0.411297  1
  O  O12  1  0.867218  0.999006  0.074931  1
  O  O13  1  0.511489  0.082880  0.226651  1
  O  O14  1  0.857730  0.080634  0.776826  1
  O  O15  1  0.725117  0.430476  0.266805  1
  O  O16  1  0.141904  0.142421  0.410706  1
  O  O17  1  0.739104  0.475023  0.590649  1
  O  O18  1  0.715312  0.208690  0.083871  1
  O  O19  1  0.275268  0.573729  0.720871  1
  O  O20  1  0.112170  0.751907  0.580130  1
  O  O21  1  0.292690  0.708873  0.218517  1
  O  O22  1  0.476405  0.541623  0.278506  1
  O  O23  1  0.146308  0.199549  0.717798  1
  O  O24  1  0.139031  0.925202  0.226862  1
  O  O25  1  0.707673  0.286203  0.793723  1
  O  O26  1  0.503964  0.919900  0.781528  1
  O  O27  1  0.083361  0.363319  0.077834  1
  O  O28  1  0.908732  0.269781  0.420392  1
  O  O29  1  0.277820  0.785524  0.911706  1
  O  O30  1  0.841570  0.854809  0.593619  1
  O  O31  1  0.832715  0.798053  0.268459  1
  O  O32  1  0.913877  0.638506  0.916420  1
  O  O33  1  0.515810  0.443245  0.711199  1
