# generated using pymatgen
data_Dy2Lu(Ga2Ni3)3
_symmetry_space_group_name_H-M   'P 1'
_cell_length_a   4.08666700
_cell_length_b   8.74749794
_cell_length_c   8.74749808
_cell_angle_alpha   59.73669880
_cell_angle_beta   90.00000000
_cell_angle_gamma   90.00000000
_symmetry_Int_Tables_number   1
_chemical_formula_structural   Dy2Lu(Ga2Ni3)3
_chemical_formula_sum   'Dy2 Lu1 Ga6 Ni9'
_cell_volume   270.09042795
_cell_formula_units_Z   1
loop_
 _symmetry_equiv_pos_site_id
 _symmetry_equiv_pos_as_xyz
  1  'x, y, z'
loop_
 _atom_site_type_symbol
 _atom_site_label
 _atom_site_symmetry_multiplicity
 _atom_site_fract_x
 _atom_site_fract_y
 _atom_site_fract_z
 _atom_site_occupancy
  Dy  Dy0  1  0.500000  0.333066  0.333436  1
  Dy  Dy1  1  0.500000  0.666564  0.666934  1
  Lu  Lu2  1  0.000000  0.998475  0.001525  1
  Ga  Ga3  1  0.000000  0.520224  0.479776  1
  Ga  Ga4  1  0.000000  0.480600  0.998937  1
  Ga  Ga5  1  0.000000  0.001063  0.519400  1
  Ga  Ga6  1  0.500000  0.268014  0.731986  1
  Ga  Ga7  1  0.500000  0.731026  0.999906  1
  Ga  Ga8  1  0.500000  0.000094  0.268974  1
  Ni  Ni9  1  0.000000  0.172646  0.197963  1
  Ni  Ni10  1  0.000000  0.198243  0.629729  1
  Ni  Ni11  1  0.000000  0.627611  0.172183  1
  Ni  Ni12  1  0.000000  0.802037  0.827354  1
  Ni  Ni13  1  0.000000  0.370271  0.801757  1
  Ni  Ni14  1  0.000000  0.827817  0.372389  1
  Ni  Ni15  1  0.500000  0.708678  0.291322  1
  Ni  Ni16  1  0.500000  0.292967  0.999497  1
  Ni  Ni17  1  0.500000  0.000503  0.707033  1
