# generated using pymatgen
data_NdPbF7
_symmetry_space_group_name_H-M   'P 1'
_cell_length_a   5.93554500
_cell_length_b   6.32962860
_cell_length_c   8.57958575
_cell_angle_alpha   102.49209847
_cell_angle_beta   90.00000000
_cell_angle_gamma   90.00000000
_symmetry_Int_Tables_number   1
_chemical_formula_structural   NdPbF7
_chemical_formula_sum   'Nd2 Pb2 F14'
_cell_volume   314.70231372
_cell_formula_units_Z   2
loop_
 _symmetry_equiv_pos_site_id
 _symmetry_equiv_pos_as_xyz
  1  'x, y, z'
loop_
 _atom_site_type_symbol
 _atom_site_label
 _atom_site_symmetry_multiplicity
 _atom_site_fract_x
 _atom_site_fract_y
 _atom_site_fract_z
 _atom_site_occupancy
  Nd  Nd0  1  0.698199  0.656124  0.686520  1
  Nd  Nd1  1  0.198199  0.343876  0.313480  1
  Pb  Pb2  1  0.708279  0.810092  0.225655  1
  Pb  Pb3  1  0.208279  0.189908  0.774345  1
  F  F4  1  0.893031  0.457035  0.476612  1
  F  F5  1  0.393031  0.542965  0.523388  1
  F  F6  1  0.426521  0.927811  0.771928  1
  F  F7  1  0.926521  0.072189  0.228072  1
  F  F8  1  0.944709  0.961183  0.760467  1
  F  F9  1  0.444709  0.038817  0.239532  1
  F  F10  1  0.993827  0.458623  0.791680  1
  F  F11  1  0.493827  0.541377  0.208320  1
  F  F12  1  0.699535  0.757394  0.977023  1
  F  F13  1  0.199535  0.242606  0.022977  1
  F  F14  1  0.709983  0.869792  0.476128  1
  F  F15  1  0.209983  0.130208  0.523872  1
  F  F16  1  0.502275  0.382005  0.786781  1
  F  F17  1  0.002275  0.617995  0.213219  1
