# generated using pymatgen
data_ErHf(Co5As3)2
_symmetry_space_group_name_H-M   'P 1'
_cell_length_a   3.75162900
_cell_length_b   10.64644000
_cell_length_c   12.12863400
_cell_angle_alpha   90.00000000
_cell_angle_beta   90.00000000
_cell_angle_gamma   90.00000000
_symmetry_Int_Tables_number   1
_chemical_formula_structural   ErHf(Co5As3)2
_chemical_formula_sum   'Er2 Hf2 Co20 As12'
_cell_volume   484.43575063
_cell_formula_units_Z   2
loop_
 _symmetry_equiv_pos_site_id
 _symmetry_equiv_pos_as_xyz
  1  'x, y, z'
loop_
 _atom_site_type_symbol
 _atom_site_label
 _atom_site_symmetry_multiplicity
 _atom_site_fract_x
 _atom_site_fract_y
 _atom_site_fract_z
 _atom_site_occupancy
  Er  Er0  1  0.750000  0.419153  0.297413  1
  Er  Er1  1  0.750000  0.080847  0.797413  1
  Hf  Hf2  1  0.250000  0.578088  0.699597  1
  Hf  Hf3  1  0.250000  0.921912  0.199597  1
  Co  Co4  1  0.250000  0.716949  0.994489  1
  Co  Co5  1  0.250000  0.783051  0.494489  1
  Co  Co6  1  0.750000  0.284630  0.007677  1
  Co  Co7  1  0.750000  0.215370  0.507677  1
  Co  Co8  1  0.250000  0.410364  0.490292  1
  Co  Co9  1  0.250000  0.089636  0.990292  1
  Co  Co10  1  0.750000  0.592586  0.517413  1
  Co  Co11  1  0.750000  0.907414  0.017413  1
  Co  Co12  1  0.250000  0.217171  0.178853  1
  Co  Co13  1  0.250000  0.282829  0.678853  1
  Co  Co14  1  0.750000  0.781984  0.822107  1
  Co  Co15  1  0.750000  0.718016  0.322107  1
  Co  Co16  1  0.250000  0.881801  0.697422  1
  Co  Co17  1  0.250000  0.618199  0.197422  1
  Co  Co18  1  0.750000  0.112660  0.300657  1
  Co  Co19  1  0.750000  0.387340  0.800657  1
  Co  Co20  1  0.250000  0.471478  0.927699  1
  Co  Co21  1  0.250000  0.028522  0.427699  1
  Co  Co22  1  0.750000  0.533800  0.066755  1
  Co  Co23  1  0.750000  0.966200  0.566755  1
  As  As24  1  0.250000  0.416602  0.112291  1
  As  As25  1  0.250000  0.083398  0.612291  1
  As  As26  1  0.750000  0.585337  0.882520  1
  As  As27  1  0.750000  0.914663  0.382520  1
  As  As28  1  0.250000  0.267633  0.871999  1
  As  As29  1  0.250000  0.232367  0.371999  1
  As  As30  1  0.750000  0.734469  0.131563  1
  As  As31  1  0.750000  0.765531  0.631563  1
  As  As32  1  0.250000  0.600227  0.390210  1
  As  As33  1  0.250000  0.899773  0.890210  1
  As  As34  1  0.750000  0.400533  0.611043  1
  As  As35  1  0.750000  0.099467  0.111043  1
