# generated using pymatgen
data_Zr6Co16Si4Ni4P9
_symmetry_space_group_name_H-M   'P 1'
_cell_length_a   12.42954300
_cell_length_b   12.42954275
_cell_length_c   3.63956300
_cell_angle_alpha   90.00000000
_cell_angle_beta   90.00000000
_cell_angle_gamma   119.99999799
_symmetry_Int_Tables_number   1
_chemical_formula_structural   Zr6Co16Si4Ni4P9
_chemical_formula_sum   'Zr6 Co16 Si4 Ni4 P9'
_cell_volume   486.95653160
_cell_formula_units_Z   1
loop_
 _symmetry_equiv_pos_site_id
 _symmetry_equiv_pos_as_xyz
  1  'x, y, z'
loop_
 _atom_site_type_symbol
 _atom_site_label
 _atom_site_symmetry_multiplicity
 _atom_site_fract_x
 _atom_site_fract_y
 _atom_site_fract_z
 _atom_site_occupancy
  Zr  Zr0  1  0.810264  0.284401  0.500000  1
  Zr  Zr1  1  0.715599  0.525862  0.500000  1
  Zr  Zr2  1  0.474138  0.189736  0.500000  1
  Zr  Zr3  1  0.195233  0.717697  0.000000  1
  Zr  Zr4  1  0.282303  0.477536  0.000000  1
  Zr  Zr5  1  0.522464  0.804767  0.000000  1
  Co  Co6  1  0.419365  0.979756  0.000000  1
  Co  Co7  1  0.020244  0.439609  0.000000  1
  Co  Co8  1  0.581277  0.021468  0.500000  1
  Co  Co9  1  0.560391  0.580635  0.000000  1
  Co  Co10  1  0.978532  0.559810  0.500000  1
  Co  Co11  1  0.930051  0.081824  0.500000  1
  Co  Co12  1  0.151774  0.069949  0.500000  1
  Co  Co13  1  0.918176  0.848226  0.500000  1
  Co  Co14  1  0.099977  0.895375  0.000000  1
  Co  Co15  1  0.795399  0.900023  0.000000  1
  Co  Co16  1  0.104625  0.204601  0.000000  1
  Co  Co17  1  0.333333  0.666667  0.500000  1
  Co  Co18  1  0.675682  0.741906  0.500000  1
  Co  Co19  1  0.258094  0.933776  0.500000  1
  Co  Co20  1  0.440190  0.418723  0.500000  1
  Co  Co21  1  0.066224  0.324318  0.500000  1
  Si  Si22  1  0.000000  0.000000  0.000000  1
  Si  Si23  1  0.229935  0.283705  0.500000  1
  Si  Si24  1  0.716295  0.946227  0.500000  1
  Si  Si25  1  0.053773  0.770065  0.500000  1
  Ni  Ni26  1  0.666667  0.333333  0.000000  1
  Ni  Ni27  1  0.918978  0.674658  0.000000  1
  Ni  Ni28  1  0.325342  0.244319  0.000000  1
  Ni  Ni29  1  0.755681  0.081022  0.000000  1
  P  P30  1  0.764763  0.714045  0.000000  1
  P  P31  1  0.285955  0.050718  0.000000  1
  P  P32  1  0.472973  0.612354  0.500000  1
  P  P33  1  0.387646  0.860619  0.500000  1
  P  P34  1  0.861313  0.474959  0.000000  1
  P  P35  1  0.525041  0.386354  0.000000  1
  P  P36  1  0.613646  0.138687  0.000000  1
  P  P37  1  0.949282  0.235237  0.000000  1
  P  P38  1  0.139381  0.527027  0.500000  1
