# generated using pymatgen
data_Ho2TmGaSn3Ir2
_symmetry_space_group_name_H-M   'P 1'
_cell_length_a   7.42169095
_cell_length_b   7.41824520
_cell_length_c   4.08941500
_cell_angle_alpha   90.00000000
_cell_angle_beta   90.00000000
_cell_angle_gamma   120.09840491
_symmetry_Int_Tables_number   1
_chemical_formula_structural   Ho2TmGaSn3Ir2
_chemical_formula_sum   'Ho2 Tm1 Ga1 Sn3 Ir2'
_cell_volume   194.78897359
_cell_formula_units_Z   1
loop_
 _symmetry_equiv_pos_site_id
 _symmetry_equiv_pos_as_xyz
  1  'x, y, z'
loop_
 _atom_site_type_symbol
 _atom_site_label
 _atom_site_symmetry_multiplicity
 _atom_site_fract_x
 _atom_site_fract_y
 _atom_site_fract_z
 _atom_site_occupancy
  Ho  Ho0  1  0.985710  0.395933  0.500000  1
  Ho  Ho1  1  0.603945  0.589799  0.500000  1
  Tm  Tm2  1  0.410050  0.015422  0.500000  1
  Ga  Ga3  1  0.333531  0.667496  0.000000  1
  Sn  Sn4  1  0.996381  0.743212  0.000000  1
  Sn  Sn5  1  0.257141  0.252702  0.000000  1
  Sn  Sn6  1  0.746620  0.003700  0.000000  1
  Ir  Ir7  1  0.665583  0.331800  0.000000  1
  Ir  Ir8  1  0.001041  0.999936  0.500000  1
