# generated using pymatgen
data_Mo2Os3Ru2Pt
_symmetry_space_group_name_H-M   'P 1'
_cell_length_a   5.55969406
_cell_length_b   5.55969302
_cell_length_c   4.39079100
_cell_angle_alpha   90.00000000
_cell_angle_beta   90.00000000
_cell_angle_gamma   119.92931835
_symmetry_Int_Tables_number   1
_chemical_formula_structural   Mo2Os3Ru2Pt
_chemical_formula_sum   'Mo2 Os3 Ru2 Pt1'
_cell_volume   117.62076023
_cell_formula_units_Z   1
loop_
 _symmetry_equiv_pos_site_id
 _symmetry_equiv_pos_as_xyz
  1  'x, y, z'
loop_
 _atom_site_type_symbol
 _atom_site_label
 _atom_site_symmetry_multiplicity
 _atom_site_fract_x
 _atom_site_fract_y
 _atom_site_fract_z
 _atom_site_occupancy
  Mo  Mo0  1  0.662647  0.337353  0.250000  1
  Mo  Mo1  1  0.336158  0.663842  0.750000  1
  Os  Os2  1  0.334597  0.173018  0.750000  1
  Os  Os3  1  0.826982  0.665403  0.750000  1
  Os  Os4  1  0.167635  0.832365  0.250000  1
  Ru  Ru5  1  0.667177  0.830492  0.250000  1
  Ru  Ru6  1  0.169508  0.332823  0.250000  1
  Pt  Pt7  1  0.835296  0.164704  0.750000  1
