# generated using pymatgen
data_Ac5Er5Tl8
_symmetry_space_group_name_H-M   'P 1'
_cell_length_a   8.39188800
_cell_length_b   8.49492893
_cell_length_c   16.22271700
_cell_angle_alpha   90.15460903
_cell_angle_beta   90.00000000
_cell_angle_gamma   90.00000000
_symmetry_Int_Tables_number   1
_chemical_formula_structural   Ac5Er5Tl8
_chemical_formula_sum   'Ac10 Er10 Tl16'
_cell_volume   1156.48882270
_cell_formula_units_Z   2
loop_
 _symmetry_equiv_pos_site_id
 _symmetry_equiv_pos_as_xyz
  1  'x, y, z'
loop_
 _atom_site_type_symbol
 _atom_site_label
 _atom_site_symmetry_multiplicity
 _atom_site_fract_x
 _atom_site_fract_y
 _atom_site_fract_z
 _atom_site_occupancy
  Ac  Ac0  1  0.355144  0.836693  0.616367  1
  Ac  Ac1  1  0.855144  0.663307  0.883633  1
  Ac  Ac2  1  0.520533  0.317395  0.903034  1
  Ac  Ac3  1  0.020533  0.182605  0.596966  1
  Ac  Ac4  1  0.484951  0.681410  0.400576  1
  Ac  Ac5  1  0.984951  0.818590  0.099424  1
  Ac  Ac6  1  0.491869  0.681397  0.095259  1
  Ac  Ac7  1  0.991869  0.818603  0.404741  1
  Ac  Ac8  1  0.511422  0.319883  0.591753  1
  Ac  Ac9  1  0.011422  0.180117  0.908247  1
  Er  Er10  1  0.352439  0.844159  0.874834  1
  Er  Er11  1  0.852439  0.655841  0.625166  1
  Er  Er12  1  0.648536  0.157839  0.373357  1
  Er  Er13  1  0.148536  0.342161  0.126643  1
  Er  Er14  1  0.639782  0.157425  0.130074  1
  Er  Er15  1  0.139782  0.342575  0.369926  1
  Er  Er16  1  0.193173  0.504364  0.750082  1
  Er  Er17  1  0.693173  0.995636  0.749918  1
  Er  Er18  1  0.804300  0.492188  0.252553  1
  Er  Er19  1  0.304300  0.007812  0.247447  1
  Tl  Tl20  1  0.311671  0.045237  0.042304  1
  Tl  Tl21  1  0.811671  0.454763  0.457696  1
  Tl  Tl22  1  0.701986  0.966262  0.537784  1
  Tl  Tl23  1  0.201986  0.533738  0.962216  1
  Tl  Tl24  1  0.669353  0.965272  0.963545  1
  Tl  Tl25  1  0.169353  0.534728  0.536455  1
  Tl  Tl26  1  0.313552  0.055081  0.445977  1
  Tl  Tl27  1  0.813552  0.444919  0.054023  1
  Tl  Tl28  1  0.553543  0.621968  0.748262  1
  Tl  Tl29  1  0.053543  0.878032  0.751738  1
  Tl  Tl30  1  0.447059  0.370590  0.251818  1
  Tl  Tl31  1  0.947059  0.129410  0.248182  1
  Tl  Tl32  1  0.316319  0.141302  0.753617  1
  Tl  Tl33  1  0.816319  0.358698  0.746383  1
  Tl  Tl34  1  0.684368  0.865498  0.252462  1
  Tl  Tl35  1  0.184368  0.634502  0.247538  1
