# generated using pymatgen
data_Tb2Fe4SiPC2
_symmetry_space_group_name_H-M   'P 1'
_cell_length_a   5.52204537
_cell_length_b   5.52204532
_cell_length_c   6.72280000
_cell_angle_alpha   90.00000000
_cell_angle_beta   90.00000000
_cell_angle_gamma   140.65256724
_symmetry_Int_Tables_number   1
_chemical_formula_structural   Tb2Fe4SiPC2
_chemical_formula_sum   'Tb2 Fe4 Si1 P1 C2'
_cell_volume   129.97324633
_cell_formula_units_Z   1
loop_
 _symmetry_equiv_pos_site_id
 _symmetry_equiv_pos_as_xyz
  1  'x, y, z'
loop_
 _atom_site_type_symbol
 _atom_site_label
 _atom_site_symmetry_multiplicity
 _atom_site_fract_x
 _atom_site_fract_y
 _atom_site_fract_z
 _atom_site_occupancy
  Tb  Tb0  1  0.550276  0.449724  0.250000  1
  Tb  Tb1  1  0.449865  0.550135  0.750000  1
  Fe  Fe2  1  0.834027  0.165973  0.064970  1
  Fe  Fe3  1  0.166811  0.833189  0.945713  1
  Fe  Fe4  1  0.166811  0.833189  0.554287  1
  Fe  Fe5  1  0.834027  0.165973  0.435030  1
  Si  Si6  1  0.729538  0.270462  0.750000  1
  P  P7  1  0.269794  0.730206  0.250000  1
  C  C8  1  0.999426  0.000574  0.998881  1
  C  C9  1  0.999426  0.000574  0.501119  1
