# generated using pymatgen
data_Yb2Y2OsRu7
_symmetry_space_group_name_H-M   'P 1'
_cell_length_a   5.22883481
_cell_length_b   5.28947926
_cell_length_c   8.95584848
_cell_angle_alpha   90.00000074
_cell_angle_beta   90.13834052
_cell_angle_gamma   120.38440233
_symmetry_Int_Tables_number   1
_chemical_formula_structural   Yb2Y2OsRu7
_chemical_formula_sum   'Yb2 Y2 Os1 Ru7'
_cell_volume   213.67721099
_cell_formula_units_Z   1
loop_
 _symmetry_equiv_pos_site_id
 _symmetry_equiv_pos_as_xyz
  1  'x, y, z'
loop_
 _atom_site_type_symbol
 _atom_site_label
 _atom_site_symmetry_multiplicity
 _atom_site_fract_x
 _atom_site_fract_y
 _atom_site_fract_z
 _atom_site_occupancy
  Yb  Yb0  1  0.657597  0.328799  0.940079  1
  Yb  Yb1  1  0.323996  0.661998  0.060089  1
  Y  Y2  1  0.329815  0.664907  0.428061  1
  Y  Y3  1  0.664774  0.332387  0.572942  1
  Os  Os4  1  0.677119  0.838559  0.752290  1
  Ru  Ru5  1  0.986914  0.993457  0.499595  1
  Ru  Ru6  1  0.978371  0.989186  0.999117  1
  Ru  Ru7  1  0.831038  0.164905  0.249005  1
  Ru  Ru8  1  0.831038  0.666133  0.249005  1
  Ru  Ru9  1  0.356813  0.178406  0.251791  1
  Ru  Ru10  1  0.181262  0.829940  0.749014  1
  Ru  Ru11  1  0.181262  0.351323  0.749014  1
