# generated using pymatgen
data_CePaTc4
_symmetry_space_group_name_H-M   'P 1'
_cell_length_a   5.17964500
_cell_length_b   5.17964462
_cell_length_c   9.59081100
_cell_angle_alpha   90.00000000
_cell_angle_beta   90.00000000
_cell_angle_gamma   119.99999605
_symmetry_Int_Tables_number   1
_chemical_formula_structural   CePaTc4
_chemical_formula_sum   'Ce2 Pa2 Tc8'
_cell_volume   222.83630075
_cell_formula_units_Z   2
loop_
 _symmetry_equiv_pos_site_id
 _symmetry_equiv_pos_as_xyz
  1  'x, y, z'
loop_
 _atom_site_type_symbol
 _atom_site_label
 _atom_site_symmetry_multiplicity
 _atom_site_fract_x
 _atom_site_fract_y
 _atom_site_fract_z
 _atom_site_occupancy
  Ce  Ce0  1  0.333333  0.666667  0.440648  1
  Ce  Ce1  1  0.666667  0.333333  0.559352  1
  Pa  Pa2  1  0.666667  0.333333  0.935745  1
  Pa  Pa3  1  0.333333  0.666667  0.064255  1
  Tc  Tc4  1  0.000000  0.000000  0.500000  1
  Tc  Tc5  1  0.000000  0.000000  0.000000  1
  Tc  Tc6  1  0.830585  0.169415  0.247736  1
  Tc  Tc7  1  0.830585  0.661170  0.247736  1
  Tc  Tc8  1  0.338830  0.169415  0.247736  1
  Tc  Tc9  1  0.169415  0.830585  0.752264  1
  Tc  Tc10  1  0.169415  0.338830  0.752264  1
  Tc  Tc11  1  0.661170  0.830585  0.752264  1
