# generated using pymatgen
data_RbAu(S2O7)2
_symmetry_space_group_name_H-M   'P 1'
_cell_length_a   6.20531421
_cell_length_b   7.35230105
_cell_length_c   9.57087455
_cell_angle_alpha   107.19031006
_cell_angle_beta   95.40900408
_cell_angle_gamma   100.47187127
_symmetry_Int_Tables_number   1
_chemical_formula_structural   RbAu(S2O7)2
_chemical_formula_sum   'Rb1 Au1 S4 O14'
_cell_volume   405.07987879
_cell_formula_units_Z   1
loop_
 _symmetry_equiv_pos_site_id
 _symmetry_equiv_pos_as_xyz
  1  'x, y, z'
loop_
 _atom_site_type_symbol
 _atom_site_label
 _atom_site_symmetry_multiplicity
 _atom_site_fract_x
 _atom_site_fract_y
 _atom_site_fract_z
 _atom_site_occupancy
  Rb  Rb0  1  0.500000  0.000000  0.000000  1
  Au  Au1  1  0.500000  0.500000  0.500000  1
  S  S2  1  0.923995  0.707766  0.733079  1
  S  S3  1  0.076005  0.292234  0.266921  1
  S  S4  1  0.669685  0.334563  0.741285  1
  S  S5  1  0.330315  0.665437  0.258715  1
  O  O6  1  0.827774  0.632960  0.566798  1
  O  O7  1  0.172226  0.367040  0.433202  1
  O  O8  1  0.488239  0.430725  0.690825  1
  O  O9  1  0.511761  0.569275  0.309175  1
  O  O10  1  0.158957  0.776674  0.745990  1
  O  O11  1  0.841043  0.223326  0.254010  1
  O  O12  1  0.797604  0.829468  0.821429  1
  O  O13  1  0.202396  0.170532  0.178571  1
  O  O14  1  0.630121  0.315956  0.882278  1
  O  O15  1  0.369879  0.684044  0.117722  1
  O  O16  1  0.903563  0.509661  0.781156  1
  O  O17  1  0.096437  0.490339  0.218844  1
  O  O18  1  0.710107  0.175025  0.626651  1
  O  O19  1  0.289893  0.824975  0.373349  1
