# generated using pymatgen
data_MnZn2Cu(TeO4)4
_symmetry_space_group_name_H-M   'P 1'
_cell_length_a   4.76187432
_cell_length_b   5.63693121
_cell_length_c   10.63091898
_cell_angle_alpha   89.43433463
_cell_angle_beta   88.29950884
_cell_angle_gamma   89.85397543
_symmetry_Int_Tables_number   1
_chemical_formula_structural   MnZn2Cu(TeO4)4
_chemical_formula_sum   'Mn1 Zn2 Cu1 Te4 O16'
_cell_volume   285.21863540
_cell_formula_units_Z   1
loop_
 _symmetry_equiv_pos_site_id
 _symmetry_equiv_pos_as_xyz
  1  'x, y, z'
loop_
 _atom_site_type_symbol
 _atom_site_label
 _atom_site_symmetry_multiplicity
 _atom_site_fract_x
 _atom_site_fract_y
 _atom_site_fract_z
 _atom_site_occupancy
  Mn  Mn0  1  0.500000  0.500000  0.000000  1
  Zn  Zn1  1  0.000000  0.000000  0.500000  1
  Zn  Zn2  1  0.500000  0.500000  0.500000  1
  Cu  Cu3  1  0.000000  0.000000  0.000000  1
  Te  Te4  1  0.482300  0.194805  0.748057  1
  Te  Te5  1  0.018201  0.299455  0.251072  1
  Te  Te6  1  0.981799  0.700545  0.748928  1
  Te  Te7  1  0.517700  0.805195  0.251943  1
  O  O8  1  0.292745  0.217122  0.908661  1
  O  O9  1  0.707255  0.782878  0.091339  1
  O  O10  1  0.674832  0.221990  0.589923  1
  O  O11  1  0.811247  0.720873  0.589962  1
  O  O12  1  0.775949  0.035922  0.326102  1
  O  O13  1  0.751028  0.535913  0.323147  1
  O  O14  1  0.273770  0.545678  0.177620  1
  O  O15  1  0.728069  0.953124  0.821740  1
  O  O16  1  0.726230  0.454322  0.822380  1
  O  O17  1  0.157656  0.724385  0.908380  1
  O  O18  1  0.224051  0.964078  0.673898  1
  O  O19  1  0.325168  0.778010  0.410077  1
  O  O20  1  0.248972  0.464087  0.676853  1
  O  O21  1  0.188753  0.279127  0.410038  1
  O  O22  1  0.842344  0.275615  0.091620  1
  O  O23  1  0.271931  0.046876  0.178260  1
