# generated using pymatgen
data_Lu4Ga18IrPtRh4
_symmetry_space_group_name_H-M   'P 1'
_cell_length_a   7.55336723
_cell_length_b   7.55336749
_cell_length_c   9.45448752
_cell_angle_alpha   89.98317067
_cell_angle_beta   89.98317112
_cell_angle_gamma   119.73457185
_symmetry_Int_Tables_number   1
_chemical_formula_structural   Lu4Ga18IrPtRh4
_chemical_formula_sum   'Lu4 Ga18 Ir1 Pt1 Rh4'
_cell_volume   468.38733071
_cell_formula_units_Z   1
loop_
 _symmetry_equiv_pos_site_id
 _symmetry_equiv_pos_as_xyz
  1  'x, y, z'
loop_
 _atom_site_type_symbol
 _atom_site_label
 _atom_site_symmetry_multiplicity
 _atom_site_fract_x
 _atom_site_fract_y
 _atom_site_fract_z
 _atom_site_occupancy
  Lu  Lu0  1  0.997922  0.670154  0.249454  1
  Lu  Lu1  1  0.002955  0.330401  0.750605  1
  Lu  Lu2  1  0.669599  0.997045  0.249395  1
  Lu  Lu3  1  0.329846  0.002078  0.750546  1
  Ga  Ga4  1  0.339543  0.548843  0.250894  1
  Ga  Ga5  1  0.660568  0.452113  0.747495  1
  Ga  Ga6  1  0.547887  0.339432  0.252505  1
  Ga  Ga7  1  0.451157  0.660457  0.749106  1
  Ga  Ga8  1  0.001647  0.334090  0.082140  1
  Ga  Ga9  1  0.002300  0.667928  0.917965  1
  Ga  Ga10  1  0.000800  0.664975  0.580730  1
  Ga  Ga11  1  0.335025  0.999200  0.419270  1
  Ga  Ga12  1  0.999138  0.334898  0.419110  1
  Ga  Ga13  1  0.665102  0.000862  0.580890  1
  Ga  Ga14  1  0.665910  0.998353  0.917860  1
  Ga  Ga15  1  0.332072  0.997700  0.082035  1
  Ga  Ga16  1  0.331252  0.331184  0.567162  1
  Ga  Ga17  1  0.668816  0.668748  0.432838  1
  Ga  Ga18  1  0.669158  0.671203  0.068033  1
  Ga  Ga19  1  0.328797  0.330842  0.931967  1
  Ga  Ga20  1  0.125778  0.125471  0.250044  1
  Ga  Ga21  1  0.874529  0.874222  0.749956  1
  Ir  Ir22  1  0.327857  0.672143  0.000000  1
  Pt  Pt23  1  0.672255  0.327745  0.000000  1
  Rh  Rh24  1  0.328051  0.671949  0.500000  1
  Rh  Rh25  1  0.672026  0.327974  0.500000  1
  Rh  Rh26  1  0.000064  0.999936  0.000000  1
  Rh  Rh27  1  0.999946  0.000054  0.500000  1
