# generated using pymatgen
data_Hf18Ta3Re2As2W3
_symmetry_space_group_name_H-M   'P 1'
_cell_length_a   8.69213606
_cell_length_b   8.71672912
_cell_length_c   8.76388100
_cell_angle_alpha   90.00000000
_cell_angle_beta   90.00000000
_cell_angle_gamma   119.65486322
_symmetry_Int_Tables_number   1
_chemical_formula_structural   Hf18Ta3Re2As2W3
_chemical_formula_sum   'Hf18 Ta3 Re2 As2 W3'
_cell_volume   577.04155486
_cell_formula_units_Z   1
loop_
 _symmetry_equiv_pos_site_id
 _symmetry_equiv_pos_as_xyz
  1  'x, y, z'
loop_
 _atom_site_type_symbol
 _atom_site_label
 _atom_site_symmetry_multiplicity
 _atom_site_fract_x
 _atom_site_fract_y
 _atom_site_fract_z
 _atom_site_occupancy
  Hf  Hf0  1  0.195157  0.390733  0.047304  1
  Hf  Hf1  1  0.805243  0.610042  0.549092  1
  Hf  Hf2  1  0.610286  0.805466  0.045255  1
  Hf  Hf3  1  0.195125  0.805153  0.043995  1
  Hf  Hf4  1  0.805164  0.194308  0.546053  1
  Hf  Hf5  1  0.390515  0.194856  0.547872  1
  Hf  Hf6  1  0.805243  0.610042  0.950908  1
  Hf  Hf7  1  0.805164  0.194308  0.953947  1
  Hf  Hf8  1  0.390515  0.194856  0.952128  1
  Hf  Hf9  1  0.610286  0.805466  0.454745  1
  Hf  Hf10  1  0.195125  0.805153  0.456005  1
  Hf  Hf11  1  0.195157  0.390733  0.452696  1
  Hf  Hf12  1  0.541497  0.079235  0.250000  1
  Hf  Hf13  1  0.459938  0.919613  0.750000  1
  Hf  Hf14  1  0.920309  0.458422  0.250000  1
  Hf  Hf15  1  0.539907  0.460400  0.250000  1
  Hf  Hf16  1  0.461828  0.541820  0.750000  1
  Hf  Hf17  1  0.079506  0.541422  0.750000  1
  Ta  Ta18  1  0.888708  0.781199  0.250000  1
  Ta  Ta19  1  0.108648  0.217933  0.750000  1
  Ta  Ta20  1  0.218413  0.110746  0.250000  1
  Re  Re21  1  0.999312  0.999569  0.999811  1
  Re  Re22  1  0.999312  0.999569  0.500189  1
  As  As23  1  0.333975  0.667473  0.250000  1
  As  As24  1  0.667277  0.333322  0.750000  1
  W  W25  1  0.889592  0.109458  0.250000  1
  W  W26  1  0.107972  0.889261  0.750000  1
  W  W27  1  0.780826  0.889441  0.750000  1
