# generated using pymatgen
data_Tm3Fe7Co2
_symmetry_space_group_name_H-M   'P 1'
_cell_length_a   5.04690474
_cell_length_b   5.04760469
_cell_length_c   8.58063602
_cell_angle_alpha   72.89476665
_cell_angle_beta   72.98975012
_cell_angle_gamma   59.99542197
_symmetry_Int_Tables_number   1
_chemical_formula_structural   Tm3Fe7Co2
_chemical_formula_sum   'Tm3 Fe7 Co2'
_cell_volume   178.10647748
_cell_formula_units_Z   1
loop_
 _symmetry_equiv_pos_site_id
 _symmetry_equiv_pos_as_xyz
  1  'x, y, z'
loop_
 _atom_site_type_symbol
 _atom_site_label
 _atom_site_symmetry_multiplicity
 _atom_site_fract_x
 _atom_site_fract_y
 _atom_site_fract_z
 _atom_site_occupancy
  Tm  Tm0  1  0.141427  0.141709  0.575155  1
  Tm  Tm1  1  0.858307  0.857673  0.426349  1
  Tm  Tm2  1  0.999948  0.999812  0.000428  1
  Fe  Fe3  1  0.582585  0.582468  0.752803  1
  Fe  Fe4  1  0.582585  0.082143  0.752803  1
  Fe  Fe5  1  0.918649  0.417346  0.246660  1
  Fe  Fe6  1  0.417446  0.417401  0.246587  1
  Fe  Fe7  1  0.417446  0.918568  0.246587  1
  Fe  Fe8  1  0.332719  0.333151  0.000979  1
  Fe  Fe9  1  0.667439  0.666907  0.998747  1
  Co  Co10  1  0.081171  0.582507  0.753814  1
  Co  Co11  1  0.500278  0.500317  0.499089  1
