# generated using pymatgen
data_Sn(Pd3O4)2
_symmetry_space_group_name_H-M   'P 1'
_cell_length_a   6.81429115
_cell_length_b   6.81429090
_cell_length_c   6.81429100
_cell_angle_alpha   59.99999464
_cell_angle_beta   59.99999588
_cell_angle_gamma   59.99999881
_symmetry_Int_Tables_number   1
_chemical_formula_structural   Sn(Pd3O4)2
_chemical_formula_sum   'Sn1 Pd6 O8'
_cell_volume   223.74173309
_cell_formula_units_Z   1
loop_
 _symmetry_equiv_pos_site_id
 _symmetry_equiv_pos_as_xyz
  1  'x, y, z'
loop_
 _atom_site_type_symbol
 _atom_site_label
 _atom_site_symmetry_multiplicity
 _atom_site_fract_x
 _atom_site_fract_y
 _atom_site_fract_z
 _atom_site_occupancy
  Sn  Sn0  1  0.500000  0.500000  0.500000  1
  Pd  Pd1  1  0.500000  0.000000  0.500000  1
  Pd  Pd2  1  0.500000  0.000000  0.000000  1
  Pd  Pd3  1  0.000000  0.000000  0.500000  1
  Pd  Pd4  1  0.000000  0.500000  0.000000  1
  Pd  Pd5  1  0.000000  0.500000  0.500000  1
  Pd  Pd6  1  0.500000  0.500000  0.000000  1
  O  O7  1  0.362898  0.362898  0.362898  1
  O  O8  1  0.911305  0.362898  0.362898  1
  O  O9  1  0.362898  0.362898  0.911305  1
  O  O10  1  0.088695  0.637102  0.637102  1
  O  O11  1  0.362898  0.911305  0.362898  1
  O  O12  1  0.637102  0.088695  0.637102  1
  O  O13  1  0.637102  0.637102  0.637102  1
  O  O14  1  0.637102  0.637102  0.088695  1
