# generated using pymatgen
data_KBe2AsSe
_symmetry_space_group_name_H-M   'P 1'
_cell_length_a   7.50824809
_cell_length_b   7.50824817
_cell_length_c   7.50824972
_cell_angle_alpha   150.77840791
_cell_angle_beta   150.77838861
_cell_angle_gamma   41.79998267
_symmetry_Int_Tables_number   1
_chemical_formula_structural   KBe2AsSe
_chemical_formula_sum   'K1 Be2 As1 Se1'
_cell_volume   100.64364820
_cell_formula_units_Z   1
loop_
 _symmetry_equiv_pos_site_id
 _symmetry_equiv_pos_as_xyz
  1  'x, y, z'
loop_
 _atom_site_type_symbol
 _atom_site_label
 _atom_site_symmetry_multiplicity
 _atom_site_fract_x
 _atom_site_fract_y
 _atom_site_fract_z
 _atom_site_occupancy
  K  K0  1  0.991655  0.991655  0.000000  1
  Be  Be1  1  0.754969  0.254969  0.500000  1
  Be  Be2  1  0.254969  0.754969  0.500000  1
  As  As3  1  0.344368  0.344368  0.000000  1
  Se  Se4  1  0.654039  0.654039  0.000000  1
