# generated using pymatgen
data_Mg5Si16Pd9Ru
_symmetry_space_group_name_H-M   'P 1'
_cell_length_a   8.92900632
_cell_length_b   8.92900604
_cell_length_c   8.95490900
_cell_angle_alpha   59.90399322
_cell_angle_beta   59.90399426
_cell_angle_gamma   60.18129926
_symmetry_Int_Tables_number   1
_chemical_formula_structural   Mg5Si16Pd9Ru
_chemical_formula_sum   'Mg5 Si16 Pd9 Ru1'
_cell_volume   504.78967718
_cell_formula_units_Z   1
loop_
 _symmetry_equiv_pos_site_id
 _symmetry_equiv_pos_as_xyz
  1  'x, y, z'
loop_
 _atom_site_type_symbol
 _atom_site_label
 _atom_site_symmetry_multiplicity
 _atom_site_fract_x
 _atom_site_fract_y
 _atom_site_fract_z
 _atom_site_occupancy
  Mg  Mg0  1  0.197944  0.603029  0.599514  1
  Mg  Mg1  1  0.600148  0.600148  0.200837  1
  Mg  Mg2  1  0.600148  0.600148  0.598866  1
  Mg  Mg3  1  0.603029  0.197944  0.599514  1
  Mg  Mg4  1  0.245627  0.245627  0.254373  1
  Si  Si5  1  0.205436  0.662787  0.204869  1
  Si  Si6  1  0.928157  0.664946  0.203448  1
  Si  Si7  1  0.200648  0.200648  0.666517  1
  Si  Si8  1  0.662787  0.205436  0.204869  1
  Si  Si9  1  0.925555  0.199555  0.659984  1
  Si  Si10  1  0.205436  0.662787  0.926909  1
  Si  Si11  1  0.925555  0.199555  0.214906  1
  Si  Si12  1  0.664946  0.928157  0.203448  1
  Si  Si13  1  0.199555  0.925555  0.214906  1
  Si  Si14  1  0.199555  0.925555  0.659984  1
  Si  Si15  1  0.537417  0.822815  0.819884  1
  Si  Si16  1  0.828990  0.828990  0.813178  1
  Si  Si17  1  0.662787  0.205436  0.926909  1
  Si  Si18  1  0.828990  0.828990  0.528841  1
  Si  Si19  1  0.822815  0.537417  0.819884  1
  Si  Si20  1  0.200648  0.200648  0.932186  1
  Pd  Pd21  1  0.513054  0.986288  0.513735  1
  Pd  Pd22  1  0.986288  0.513054  0.986922  1
  Pd  Pd23  1  0.377417  0.377417  0.864763  1
  Pd  Pd24  1  0.377417  0.377417  0.380403  1
  Pd  Pd25  1  0.860830  0.384734  0.377218  1
  Pd  Pd26  1  0.986288  0.513054  0.513735  1
  Pd  Pd27  1  0.513280  0.513280  0.986720  1
  Pd  Pd28  1  0.384734  0.860830  0.377218  1
  Pd  Pd29  1  0.513054  0.986288  0.986922  1
  Ru  Ru30  1  0.991462  0.991462  0.508538  1
