# generated using pymatgen
data_Dy4Al11Ga6SiIr6
_symmetry_space_group_name_H-M   'P 1'
_cell_length_a   7.52005532
_cell_length_b   7.50954695
_cell_length_c   9.56641672
_cell_angle_alpha   90.08839417
_cell_angle_beta   89.81284138
_cell_angle_gamma   119.75984548
_symmetry_Int_Tables_number   1
_chemical_formula_structural   Dy4Al11Ga6SiIr6
_chemical_formula_sum   'Dy4 Al11 Ga6 Si1 Ir6'
_cell_volume   468.98426887
_cell_formula_units_Z   1
loop_
 _symmetry_equiv_pos_site_id
 _symmetry_equiv_pos_as_xyz
  1  'x, y, z'
loop_
 _atom_site_type_symbol
 _atom_site_label
 _atom_site_symmetry_multiplicity
 _atom_site_fract_x
 _atom_site_fract_y
 _atom_site_fract_z
 _atom_site_occupancy
  Dy  Dy0  1  0.996947  0.663946  0.747236  1
  Dy  Dy1  1  0.002938  0.330489  0.253541  1
  Dy  Dy2  1  0.675306  0.003231  0.747204  1
  Dy  Dy3  1  0.329989  0.003357  0.250257  1
  Al  Al4  1  0.997295  0.670214  0.424634  1
  Al  Al5  1  0.998527  0.666004  0.072911  1
  Al  Al6  1  0.334132  0.999889  0.926746  1
  Al  Al7  1  0.002321  0.334354  0.930171  1
  Al  Al8  1  0.665243  0.998449  0.073073  1
  Al  Al9  1  0.659817  0.993016  0.424389  1
  Al  Al10  1  0.333692  0.000620  0.573985  1
  Al  Al11  1  0.334390  0.333708  0.056908  1
  Al  Al12  1  0.667223  0.667349  0.942980  1
  Al  Al13  1  0.665823  0.666652  0.558453  1
  Al  Al14  1  0.337048  0.334425  0.443251  1
  Ga  Ga15  1  0.130301  0.127008  0.750626  1
  Ga  Ga16  1  0.872408  0.873947  0.250015  1
  Ga  Ga17  1  0.343535  0.549178  0.751220  1
  Ga  Ga18  1  0.661038  0.451764  0.250123  1
  Ga  Ga19  1  0.546497  0.339483  0.749864  1
  Ga  Ga20  1  0.450731  0.658978  0.249967  1
  Si  Si21  1  0.999107  0.334356  0.570989  1
  Ir  Ir22  1  0.678883  0.328568  0.501058  1
  Ir  Ir23  1  0.318218  0.662117  0.501258  1
  Ir  Ir24  1  0.327723  0.670684  0.999841  1
  Ir  Ir25  1  0.672202  0.328528  0.998963  1
  Ir  Ir26  1  0.998856  0.009003  0.500987  1
  Ir  Ir27  1  0.999808  0.000683  0.999350  1
