# generated using pymatgen
data_Sc4Sn2B4Ir9Rh
_symmetry_space_group_name_H-M   'P 1'
_cell_length_a   9.43353835
_cell_length_b   9.45114534
_cell_length_c   3.22446200
_cell_angle_alpha   90.00000000
_cell_angle_beta   90.00000000
_cell_angle_gamma   90.03095879
_symmetry_Int_Tables_number   1
_chemical_formula_structural   Sc4Sn2B4Ir9Rh
_chemical_formula_sum   'Sc4 Sn2 B4 Ir9 Rh1'
_cell_volume   287.48570915
_cell_formula_units_Z   1
loop_
 _symmetry_equiv_pos_site_id
 _symmetry_equiv_pos_as_xyz
  1  'x, y, z'
loop_
 _atom_site_type_symbol
 _atom_site_label
 _atom_site_symmetry_multiplicity
 _atom_site_fract_x
 _atom_site_fract_y
 _atom_site_fract_z
 _atom_site_occupancy
  Sc  Sc0  1  0.824282  0.324873  0.000000  1
  Sc  Sc1  1  0.324199  0.175197  0.000000  1
  Sc  Sc2  1  0.675422  0.824442  0.000000  1
  Sc  Sc3  1  0.174922  0.675782  0.000000  1
  Sn  Sn4  1  0.000248  0.000105  0.000000  1
  Sn  Sn5  1  0.497288  0.499081  0.000000  1
  B  B6  1  0.621621  0.121691  0.000000  1
  B  B7  1  0.119560  0.377746  0.000000  1
  B  B8  1  0.878381  0.621544  0.000000  1
  B  B9  1  0.378790  0.878463  0.000000  1
  Ir  Ir10  1  0.072908  0.223464  0.500000  1
  Ir  Ir11  1  0.222705  0.928270  0.500000  1
  Ir  Ir12  1  0.777807  0.071459  0.500000  1
  Ir  Ir13  1  0.928417  0.777059  0.500000  1
  Ir  Ir14  1  0.428884  0.723067  0.500000  1
  Ir  Ir15  1  0.572897  0.277639  0.500000  1
  Ir  Ir16  1  0.722427  0.571443  0.500000  1
  Ir  Ir17  1  0.499927  0.000668  0.500000  1
  Ir  Ir18  1  0.001013  0.499670  0.500000  1
  Rh  Rh19  1  0.278301  0.428337  0.500000  1
