# generated using pymatgen
data_CeAlAu5
_symmetry_space_group_name_H-M   'P 1'
_cell_length_a   5.72460191
_cell_length_b   5.72363401
_cell_length_c   5.72460253
_cell_angle_alpha   102.65902282
_cell_angle_beta   102.66062747
_cell_angle_gamma   124.18088613
_symmetry_Int_Tables_number   1
_chemical_formula_structural   CeAlAu5
_chemical_formula_sum   'Ce1 Al1 Au5'
_cell_volume   137.11054336
_cell_formula_units_Z   1
loop_
 _symmetry_equiv_pos_site_id
 _symmetry_equiv_pos_as_xyz
  1  'x, y, z'
loop_
 _atom_site_type_symbol
 _atom_site_label
 _atom_site_symmetry_multiplicity
 _atom_site_fract_x
 _atom_site_fract_y
 _atom_site_fract_z
 _atom_site_occupancy
  Ce  Ce0  1  0.999999  0.999992  0.999993  1
  Al  Al1  1  0.249999  0.749989  0.499990  1
  Au  Au2  1  0.696805  0.303234  0.999999  1
  Au  Au3  1  0.303190  0.696765  0.999999  1
  Au  Au4  1  0.303235  0.303234  0.606429  1
  Au  Au5  1  0.696766  0.696765  0.393575  1
  Au  Au6  1  0.750005  0.250020  0.500015  1
