# generated using pymatgen
data_Li2TcH7
_symmetry_space_group_name_H-M   'P 1'
_cell_length_a   5.24542181
_cell_length_b   5.25009440
_cell_length_c   8.17083684
_cell_angle_alpha   39.05060600
_cell_angle_beta   38.81925729
_cell_angle_gamma   36.34860963
_symmetry_Int_Tables_number   1
_chemical_formula_structural   Li2TcH7
_chemical_formula_sum   'Li2 Tc1 H7'
_cell_volume   76.57958826
_cell_formula_units_Z   1
loop_
 _symmetry_equiv_pos_site_id
 _symmetry_equiv_pos_as_xyz
  1  'x, y, z'
loop_
 _atom_site_type_symbol
 _atom_site_label
 _atom_site_symmetry_multiplicity
 _atom_site_fract_x
 _atom_site_fract_y
 _atom_site_fract_z
 _atom_site_occupancy
  Li  Li0  1  0.066159  0.040337  0.529618  1
  Li  Li1  1  0.064805  0.049103  0.057745  1
  Tc  Tc2  1  0.464471  0.453296  0.891403  1
  H  H3  1  0.393590  0.384050  0.755927  1
  H  H4  1  0.213818  0.106533  0.188421  1
  H  H5  1  0.753196  0.653808  0.532091  1
  H  H6  1  0.737900  0.657261  0.774144  1
  H  H7  1  0.384057  0.384165  0.170366  1
  H  H8  1  0.861676  0.732235  0.052079  1
  H  H9  1  0.182018  0.051531  0.728875  1
