# generated using pymatgen
data_NdDy3Y2Ta2O14
_symmetry_space_group_name_H-M   'P 1'
_cell_length_a   6.50604584
_cell_length_b   6.50145312
_cell_length_c   7.56426971
_cell_angle_alpha   90.09590531
_cell_angle_beta   89.91150159
_cell_angle_gamma   109.08746909
_symmetry_Int_Tables_number   1
_chemical_formula_structural   NdDy3Y2Ta2O14
_chemical_formula_sum   'Nd1 Dy3 Y2 Ta2 O14'
_cell_volume   302.36736673
_cell_formula_units_Z   1
loop_
 _symmetry_equiv_pos_site_id
 _symmetry_equiv_pos_as_xyz
  1  'x, y, z'
loop_
 _atom_site_type_symbol
 _atom_site_label
 _atom_site_symmetry_multiplicity
 _atom_site_fract_x
 _atom_site_fract_y
 _atom_site_fract_z
 _atom_site_occupancy
  Nd  Nd0  1  0.495446  0.495306  0.999762  1
  Dy  Dy1  1  0.001969  0.533892  0.249273  1
  Dy  Dy2  1  0.000512  0.465094  0.744746  1
  Dy  Dy3  1  0.534255  0.001706  0.750625  1
  Y  Y4  1  0.531355  0.531595  0.500280  1
  Y  Y5  1  0.466122  0.000900  0.255252  1
  Ta  Ta6  1  0.003161  0.003032  0.500196  1
  Ta  Ta7  1  0.998983  0.998825  0.999644  1
  O  O8  1  0.934440  0.065935  0.750251  1
  O  O9  1  0.064180  0.934308  0.249639  1
  O  O10  1  0.359750  0.640942  0.257665  1
  O  O11  1  0.641215  0.360044  0.742556  1
  O  O12  1  0.367785  0.632869  0.741714  1
  O  O13  1  0.633195  0.367825  0.258171  1
  O  O14  1  0.320734  0.070330  0.968647  1
  O  O15  1  0.674720  0.920179  0.472720  1
  O  O16  1  0.311711  0.055791  0.537743  1
  O  O17  1  0.680576  0.932339  0.033868  1
  O  O18  1  0.054293  0.311928  0.462650  1
  O  O19  1  0.932947  0.680586  0.964832  1
  O  O20  1  0.922089  0.675349  0.528967  1
  O  O21  1  0.070561  0.321225  0.030800  1
