# generated using pymatgen
data_Tb11Yb8DyIr12
_symmetry_space_group_name_H-M   'P 1'
_cell_length_a   10.91874584
_cell_length_b   11.00855706
_cell_length_c   6.27847402
_cell_angle_alpha   90.22327994
_cell_angle_beta   89.73407270
_cell_angle_gamma   90.05896365
_symmetry_Int_Tables_number   1
_chemical_formula_structural   Tb11Yb8DyIr12
_chemical_formula_sum   'Tb11 Yb8 Dy1 Ir12'
_cell_volume   754.65605032
_cell_formula_units_Z   1
loop_
 _symmetry_equiv_pos_site_id
 _symmetry_equiv_pos_as_xyz
  1  'x, y, z'
loop_
 _atom_site_type_symbol
 _atom_site_label
 _atom_site_symmetry_multiplicity
 _atom_site_fract_x
 _atom_site_fract_y
 _atom_site_fract_z
 _atom_site_occupancy
  Tb  Tb0  1  0.590452  0.204116  0.379161  1
  Tb  Tb1  1  0.413309  0.794549  0.380771  1
  Tb  Tb2  1  0.411743  0.206580  0.881589  1
  Tb  Tb3  1  0.210712  0.412847  0.622380  1
  Tb  Tb4  1  0.210745  0.588925  0.124104  1
  Tb  Tb5  1  0.786692  0.412973  0.125902  1
  Tb  Tb6  1  0.787441  0.588323  0.625898  1
  Tb  Tb7  1  0.910789  0.711164  0.127822  1
  Tb  Tb8  1  0.910138  0.289531  0.625878  1
  Tb  Tb9  1  0.087814  0.711434  0.625278  1
  Tb  Tb10  1  0.087238  0.289888  0.125295  1
  Yb  Yb11  1  0.290321  0.910927  0.876920  1
  Yb  Yb12  1  0.711401  0.083962  0.877533  1
  Yb  Yb13  1  0.710161  0.912797  0.377151  1
  Yb  Yb14  1  0.588835  0.792913  0.876067  1
  Yb  Yb15  1  0.998601  0.000080  0.494834  1
  Yb  Yb16  1  0.001853  0.999048  0.995019  1
  Yb  Yb17  1  0.499912  0.503301  0.989522  1
  Yb  Yb18  1  0.500873  0.498820  0.489414  1
  Dy  Dy19  1  0.292455  0.087990  0.381392  1
  Ir  Ir20  1  0.849499  0.165795  0.248109  1
  Ir  Ir21  1  0.855723  0.832781  0.748418  1
  Ir  Ir22  1  0.151211  0.164953  0.744484  1
  Ir  Ir23  1  0.155340  0.838925  0.254480  1
  Ir  Ir24  1  0.657882  0.346518  0.747311  1
  Ir  Ir25  1  0.659920  0.651959  0.250615  1
  Ir  Ir26  1  0.341637  0.343332  0.245776  1
  Ir  Ir27  1  0.336325  0.648278  0.738462  1
  Ir  Ir28  1  0.496357  0.003637  0.122800  1
  Ir  Ir29  1  0.496378  0.003870  0.623608  1
  Ir  Ir30  1  0.999079  0.499806  0.888232  1
  Ir  Ir31  1  0.999167  0.499982  0.385775  1
