# generated using pymatgen
data_Tb7Hg10
_symmetry_space_group_name_H-M   'P 1'
_cell_length_a   9.16472830
_cell_length_b   9.16472856
_cell_length_c   10.78895600
_cell_angle_alpha   90.00000000
_cell_angle_beta   90.00000000
_cell_angle_gamma   108.12668234
_symmetry_Int_Tables_number   1
_chemical_formula_structural   Tb7Hg10
_chemical_formula_sum   'Tb14 Hg20'
_cell_volume   861.21537604
_cell_formula_units_Z   2
loop_
 _symmetry_equiv_pos_site_id
 _symmetry_equiv_pos_as_xyz
  1  'x, y, z'
loop_
 _atom_site_type_symbol
 _atom_site_label
 _atom_site_symmetry_multiplicity
 _atom_site_fract_x
 _atom_site_fract_y
 _atom_site_fract_z
 _atom_site_occupancy
  Tb  Tb0  1  0.692734  0.307266  0.000000  1
  Tb  Tb1  1  0.307266  0.692734  0.000000  1
  Tb  Tb2  1  0.807266  0.192734  0.500000  1
  Tb  Tb3  1  0.192734  0.807266  0.500000  1
  Tb  Tb4  1  0.000000  0.000000  0.000000  1
  Tb  Tb5  1  0.500000  0.500000  0.500000  1
  Tb  Tb6  1  0.008386  0.508386  0.250000  1
  Tb  Tb7  1  0.991614  0.491614  0.750000  1
  Tb  Tb8  1  0.491614  0.991614  0.750000  1
  Tb  Tb9  1  0.508386  0.008386  0.250000  1
  Tb  Tb10  1  0.307449  0.307449  0.194954  1
  Tb  Tb11  1  0.692551  0.692551  0.805046  1
  Tb  Tb12  1  0.192551  0.192551  0.694954  1
  Tb  Tb13  1  0.807449  0.807449  0.305046  1
  Hg  Hg14  1  0.859786  0.149470  0.208776  1
  Hg  Hg15  1  0.140214  0.850530  0.791224  1
  Hg  Hg16  1  0.640214  0.350530  0.708776  1
  Hg  Hg17  1  0.649470  0.359786  0.291224  1
  Hg  Hg18  1  0.359786  0.649470  0.291224  1
  Hg  Hg19  1  0.350530  0.640214  0.708776  1
  Hg  Hg20  1  0.850530  0.140214  0.791224  1
  Hg  Hg21  1  0.149470  0.859786  0.208776  1
  Hg  Hg22  1  0.936215  0.645836  0.998271  1
  Hg  Hg23  1  0.063785  0.354164  0.001729  1
  Hg  Hg24  1  0.563785  0.854164  0.498271  1
  Hg  Hg25  1  0.145836  0.436215  0.501729  1
  Hg  Hg26  1  0.436215  0.145836  0.501729  1
  Hg  Hg27  1  0.854164  0.563785  0.498271  1
  Hg  Hg28  1  0.354164  0.063785  0.001729  1
  Hg  Hg29  1  0.645836  0.936215  0.998271  1
  Hg  Hg30  1  0.101543  0.101543  0.400596  1
  Hg  Hg31  1  0.898457  0.898457  0.599404  1
  Hg  Hg32  1  0.398457  0.398457  0.900596  1
  Hg  Hg33  1  0.601543  0.601543  0.099404  1
