# generated using pymatgen
data_TbDy3Ga4(RuPt)2
_symmetry_space_group_name_H-M   'P 1'
_cell_length_a   4.37258500
_cell_length_b   6.88507260
_cell_length_c   7.77802383
_cell_angle_alpha   90.20924229
_cell_angle_beta   90.00000000
_cell_angle_gamma   90.00000000
_symmetry_Int_Tables_number   1
_chemical_formula_structural   TbDy3Ga4(RuPt)2
_chemical_formula_sum   'Tb1 Dy3 Ga4 Ru2 Pt2'
_cell_volume   234.16024185
_cell_formula_units_Z   1
loop_
 _symmetry_equiv_pos_site_id
 _symmetry_equiv_pos_as_xyz
  1  'x, y, z'
loop_
 _atom_site_type_symbol
 _atom_site_label
 _atom_site_symmetry_multiplicity
 _atom_site_fract_x
 _atom_site_fract_y
 _atom_site_fract_z
 _atom_site_occupancy
  Tb  Tb0  1  0.250000  0.475784  0.187733  1
  Dy  Dy1  1  0.750000  0.517693  0.802019  1
  Dy  Dy2  1  0.250000  0.976371  0.312667  1
  Dy  Dy3  1  0.750000  0.017172  0.697388  1
  Ga  Ga4  1  0.750000  0.668841  0.431864  1
  Ga  Ga5  1  0.250000  0.339531  0.576339  1
  Ga  Ga6  1  0.750000  0.167014  0.068133  1
  Ga  Ga7  1  0.250000  0.839742  0.924187  1
  Ru  Ru8  1  0.250000  0.727215  0.603288  1
  Ru  Ru9  1  0.250000  0.226021  0.895564  1
  Pt  Pt10  1  0.750000  0.772369  0.104222  1
  Pt  Pt11  1  0.750000  0.272248  0.396597  1
