# generated using pymatgen
data_Yb4AlSi2Pd27
_symmetry_space_group_name_H-M   'P 1'
_cell_length_a   8.89847387
_cell_length_b   8.89847387
_cell_length_c   7.05657013
_cell_angle_alpha   90.36879726
_cell_angle_beta   90.36879726
_cell_angle_gamma   89.03322133
_symmetry_Int_Tables_number   1
_chemical_formula_structural   Yb4AlSi2Pd27
_chemical_formula_sum   'Yb4 Al1 Si2 Pd27'
_cell_volume   558.65693926
_cell_formula_units_Z   1
loop_
 _symmetry_equiv_pos_site_id
 _symmetry_equiv_pos_as_xyz
  1  'x, y, z'
loop_
 _atom_site_type_symbol
 _atom_site_label
 _atom_site_symmetry_multiplicity
 _atom_site_fract_x
 _atom_site_fract_y
 _atom_site_fract_z
 _atom_site_occupancy
  Yb  Yb0  1  0.510182  0.010182  0.937349  1
  Yb  Yb1  1  0.989818  0.489818  0.062651  1
  Yb  Yb2  1  0.002182  0.997818  0.500000  1
  Yb  Yb3  1  0.497818  0.502182  0.500000  1
  Al  Al4  1  0.250000  0.750000  0.000000  1
  Si  Si5  1  0.502689  0.002689  0.444004  1
  Si  Si6  1  0.997311  0.497311  0.555996  1
  Pd  Pd7  1  0.336697  0.836697  0.608385  1
  Pd  Pd8  1  0.332818  0.166426  0.620246  1
  Pd  Pd9  1  0.666426  0.832818  0.620246  1
  Pd  Pd10  1  0.666496  0.166496  0.616459  1
  Pd  Pd11  1  0.163303  0.663303  0.391615  1
  Pd  Pd12  1  0.167182  0.333574  0.379754  1
  Pd  Pd13  1  0.833574  0.667182  0.379754  1
  Pd  Pd14  1  0.833504  0.333504  0.383541  1
  Pd  Pd15  1  0.498494  0.770819  0.252105  1
  Pd  Pd16  1  0.496960  0.233465  0.256781  1
  Pd  Pd17  1  0.270819  0.998494  0.252105  1
  Pd  Pd18  1  0.733465  0.996960  0.256781  1
  Pd  Pd19  1  0.001506  0.729181  0.747895  1
  Pd  Pd20  1  0.003040  0.266535  0.743219  1
  Pd  Pd21  1  0.229181  0.501506  0.747895  1
  Pd  Pd22  1  0.766535  0.503040  0.743219  1
  Pd  Pd23  1  0.498144  0.354264  0.852854  1
  Pd  Pd24  1  0.489208  0.663112  0.861878  1
  Pd  Pd25  1  0.854264  0.998144  0.852854  1
  Pd  Pd26  1  0.163112  0.989208  0.861878  1
  Pd  Pd27  1  0.001856  0.145736  0.147146  1
  Pd  Pd28  1  0.010792  0.836888  0.138122  1
  Pd  Pd29  1  0.645736  0.501856  0.147146  1
  Pd  Pd30  1  0.336888  0.510792  0.138122  1
  Pd  Pd31  1  0.250000  0.250000  0.000000  1
  Pd  Pd32  1  0.750000  0.750000  0.000000  1
  Pd  Pd33  1  0.750000  0.250000  0.000000  1
