# generated using pymatgen
data_CaNpZn17
_symmetry_space_group_name_H-M   'P 1'
_cell_length_a   6.86825572
_cell_length_b   6.86825572
_cell_length_c   6.86825500
_cell_angle_alpha   82.62244391
_cell_angle_beta   82.62243550
_cell_angle_gamma   82.62244443
_symmetry_Int_Tables_number   1
_chemical_formula_structural   CaNpZn17
_chemical_formula_sum   'Ca1 Np1 Zn17'
_cell_volume   316.58368956
_cell_formula_units_Z   1
loop_
 _symmetry_equiv_pos_site_id
 _symmetry_equiv_pos_as_xyz
  1  'x, y, z'
loop_
 _atom_site_type_symbol
 _atom_site_label
 _atom_site_symmetry_multiplicity
 _atom_site_fract_x
 _atom_site_fract_y
 _atom_site_fract_z
 _atom_site_occupancy
  Ca  Ca0  1  0.336542  0.336542  0.336542  1
  Np  Np1  1  0.664049  0.664049  0.664049  1
  Zn  Zn2  1  0.997902  0.997902  0.502037  1
  Zn  Zn3  1  0.997902  0.502037  0.997902  1
  Zn  Zn4  1  0.502037  0.997902  0.997902  1
  Zn  Zn5  1  0.702490  0.298540  0.998432  1
  Zn  Zn6  1  0.298540  0.998432  0.702490  1
  Zn  Zn7  1  0.998432  0.702490  0.298540  1
  Zn  Zn8  1  0.298540  0.702490  0.998432  1
  Zn  Zn9  1  0.702490  0.998432  0.298540  1
  Zn  Zn10  1  0.998432  0.298540  0.702490  1
  Zn  Zn11  1  0.158443  0.648665  0.648665  1
  Zn  Zn12  1  0.648665  0.648665  0.158443  1
  Zn  Zn13  1  0.648665  0.158443  0.648665  1
  Zn  Zn14  1  0.356104  0.837932  0.356104  1
  Zn  Zn15  1  0.837932  0.356104  0.356104  1
  Zn  Zn16  1  0.356104  0.356104  0.837932  1
  Zn  Zn17  1  0.099880  0.099880  0.099880  1
  Zn  Zn18  1  0.896849  0.896849  0.896849  1
