# generated using pymatgen
data_Sr2Cd7InPt4
_symmetry_space_group_name_H-M   'P 1'
_cell_length_a   8.48730384
_cell_length_b   8.39726076
_cell_length_c   4.50042500
_cell_angle_alpha   90.00000000
_cell_angle_beta   90.00000000
_cell_angle_gamma   90.41850140
_symmetry_Int_Tables_number   1
_chemical_formula_structural   Sr2Cd7InPt4
_chemical_formula_sum   'Sr2 Cd7 In1 Pt4'
_cell_volume   320.73719936
_cell_formula_units_Z   1
loop_
 _symmetry_equiv_pos_site_id
 _symmetry_equiv_pos_as_xyz
  1  'x, y, z'
loop_
 _atom_site_type_symbol
 _atom_site_label
 _atom_site_symmetry_multiplicity
 _atom_site_fract_x
 _atom_site_fract_y
 _atom_site_fract_z
 _atom_site_occupancy
  Sr  Sr0  1  0.501805  0.501179  0.500000  1
  Sr  Sr1  1  0.997095  0.999347  0.000000  1
  Cd  Cd2  1  0.659215  0.908028  0.500000  1
  Cd  Cd3  1  0.841879  0.410252  0.000000  1
  Cd  Cd4  1  0.158275  0.589830  0.000000  1
  Cd  Cd5  1  0.088655  0.346038  0.500000  1
  Cd  Cd6  1  0.909770  0.658716  0.500000  1
  Cd  Cd7  1  0.411572  0.835267  0.000000  1
  Cd  Cd8  1  0.593499  0.157069  0.000000  1
  In  In9  1  0.338118  0.092952  0.500000  1
  Pt  Pt10  1  0.780914  0.219905  0.500000  1
  Pt  Pt11  1  0.217955  0.787087  0.500000  1
  Pt  Pt12  1  0.282199  0.275627  0.000000  1
  Pt  Pt13  1  0.719051  0.718702  0.000000  1
