# generated using pymatgen
data_Pm2UTc3
_symmetry_space_group_name_H-M   'P 1'
_cell_length_a   5.34308035
_cell_length_b   5.34307973
_cell_length_c   5.34308052
_cell_angle_alpha   66.48031246
_cell_angle_beta   66.48031819
_cell_angle_gamma   66.48031640
_symmetry_Int_Tables_number   1
_chemical_formula_structural   Pm2UTc3
_chemical_formula_sum   'Pm2 U1 Tc3'
_cell_volume   122.91745244
_cell_formula_units_Z   1
loop_
 _symmetry_equiv_pos_site_id
 _symmetry_equiv_pos_as_xyz
  1  'x, y, z'
loop_
 _atom_site_type_symbol
 _atom_site_label
 _atom_site_symmetry_multiplicity
 _atom_site_fract_x
 _atom_site_fract_y
 _atom_site_fract_z
 _atom_site_occupancy
  Pm  Pm0  1  0.748372  0.748372  0.748372  1
  Pm  Pm1  1  0.501628  0.501628  0.501628  1
  U  U2  1  0.125000  0.125000  0.125000  1
  Tc  Tc3  1  0.625000  0.125000  0.125000  1
  Tc  Tc4  1  0.125000  0.625000  0.125000  1
  Tc  Tc5  1  0.125000  0.125000  0.625000  1
