# generated using pymatgen
data_Y2ErLu7Cd3Ru
_symmetry_space_group_name_H-M   'P 1'
_cell_length_a   9.47753287
_cell_length_b   9.47186598
_cell_length_c   9.69283300
_cell_angle_alpha   90.00000000
_cell_angle_beta   90.00000000
_cell_angle_gamma   119.97065903
_symmetry_Int_Tables_number   1
_chemical_formula_structural   Y2ErLu7Cd3Ru
_chemical_formula_sum   'Y4 Er2 Lu14 Cd6 Ru2'
_cell_volume   753.77292341
_cell_formula_units_Z   2
loop_
 _symmetry_equiv_pos_site_id
 _symmetry_equiv_pos_as_xyz
  1  'x, y, z'
loop_
 _atom_site_type_symbol
 _atom_site_label
 _atom_site_symmetry_multiplicity
 _atom_site_fract_x
 _atom_site_fract_y
 _atom_site_fract_z
 _atom_site_occupancy
  Y  Y0  1  0.918878  0.459433  0.250000  1
  Y  Y1  1  0.460001  0.539841  0.750000  1
  Y  Y2  1  0.459964  0.920118  0.750000  1
  Y  Y3  1  0.079708  0.539883  0.750000  1
  Er  Er4  1  0.539659  0.459926  0.250000  1
  Er  Er5  1  0.539668  0.079740  0.250000  1
  Lu  Lu6  1  0.000089  0.000024  0.500032  1
  Lu  Lu7  1  0.000089  0.000024  0.999968  1
  Lu  Lu8  1  0.210597  0.790491  0.440007  1
  Lu  Lu9  1  0.210612  0.420140  0.440006  1
  Lu  Lu10  1  0.579977  0.789988  0.439849  1
  Lu  Lu11  1  0.789498  0.209773  0.559432  1
  Lu  Lu12  1  0.789500  0.579719  0.559442  1
  Lu  Lu13  1  0.420484  0.210245  0.559055  1
  Lu  Lu14  1  0.789498  0.209773  0.940568  1
  Lu  Lu15  1  0.789500  0.579719  0.940558  1
  Lu  Lu16  1  0.420484  0.210245  0.940945  1
  Lu  Lu17  1  0.210597  0.790491  0.059993  1
  Lu  Lu18  1  0.210612  0.420140  0.059994  1
  Lu  Lu19  1  0.579977  0.789988  0.060151  1
  Cd  Cd20  1  0.885737  0.113349  0.250000  1
  Cd  Cd21  1  0.885745  0.772401  0.250000  1
  Cd  Cd22  1  0.228239  0.114110  0.250000  1
  Cd  Cd23  1  0.113625  0.886523  0.750000  1
  Cd  Cd24  1  0.113623  0.227091  0.750000  1
  Cd  Cd25  1  0.772900  0.886452  0.750000  1
  Ru  Ru26  1  0.333909  0.666954  0.250000  1
  Ru  Ru27  1  0.666830  0.333420  0.750000  1
