# generated using pymatgen
data_Lu16In4CoRu3
_symmetry_space_group_name_H-M   'P 1'
_cell_length_a   9.44217485
_cell_length_b   9.44217493
_cell_length_c   9.44217471
_cell_angle_alpha   59.72857161
_cell_angle_beta   59.72856850
_cell_angle_gamma   59.72857526
_symmetry_Int_Tables_number   1
_chemical_formula_structural   Lu16In4CoRu3
_chemical_formula_sum   'Lu16 In4 Co1 Ru3'
_cell_volume   591.58298450
_cell_formula_units_Z   1
loop_
 _symmetry_equiv_pos_site_id
 _symmetry_equiv_pos_as_xyz
  1  'x, y, z'
loop_
 _atom_site_type_symbol
 _atom_site_label
 _atom_site_symmetry_multiplicity
 _atom_site_fract_x
 _atom_site_fract_y
 _atom_site_fract_z
 _atom_site_occupancy
  Lu  Lu0  1  0.600525  0.600525  0.600525  1
  Lu  Lu1  1  0.594878  0.594878  0.209699  1
  Lu  Lu2  1  0.594878  0.209699  0.594878  1
  Lu  Lu3  1  0.209699  0.594878  0.594878  1
  Lu  Lu4  1  0.062408  0.440719  0.440719  1
  Lu  Lu5  1  0.438608  0.058058  0.058058  1
  Lu  Lu6  1  0.440719  0.062408  0.440719  1
  Lu  Lu7  1  0.058058  0.438608  0.058058  1
  Lu  Lu8  1  0.440719  0.440719  0.062408  1
  Lu  Lu9  1  0.058058  0.058058  0.438608  1
  Lu  Lu10  1  0.191988  0.806492  0.806492  1
  Lu  Lu11  1  0.810276  0.189197  0.189197  1
  Lu  Lu12  1  0.806492  0.191988  0.806492  1
  Lu  Lu13  1  0.189197  0.810276  0.189197  1
  Lu  Lu14  1  0.806492  0.806492  0.191988  1
  Lu  Lu15  1  0.189197  0.189197  0.810276  1
  In  In16  1  0.833323  0.833323  0.833323  1
  In  In17  1  0.834750  0.834750  0.499687  1
  In  In18  1  0.834750  0.499687  0.834750  1
  In  In19  1  0.499687  0.834750  0.834750  1
  Co  Co20  1  0.389355  0.389355  0.389355  1
  Ru  Ru21  1  0.393037  0.393037  0.829869  1
  Ru  Ru22  1  0.393037  0.829869  0.393037  1
  Ru  Ru23  1  0.829869  0.393037  0.393037  1
