# generated using pymatgen
data_Li4Ni9As7Ir
_symmetry_space_group_name_H-M   'P 1'
_cell_length_a   9.40949476
_cell_length_b   9.42962472
_cell_length_c   3.75653600
_cell_angle_alpha   90.00000000
_cell_angle_beta   90.00000000
_cell_angle_gamma   120.45240420
_symmetry_Int_Tables_number   1
_chemical_formula_structural   Li4Ni9As7Ir
_chemical_formula_sum   'Li4 Ni9 As7 Ir1'
_cell_volume   287.32999485
_cell_formula_units_Z   1
loop_
 _symmetry_equiv_pos_site_id
 _symmetry_equiv_pos_as_xyz
  1  'x, y, z'
loop_
 _atom_site_type_symbol
 _atom_site_label
 _atom_site_symmetry_multiplicity
 _atom_site_fract_x
 _atom_site_fract_y
 _atom_site_fract_z
 _atom_site_occupancy
  Li  Li0  1  0.441105  0.214733  0.500000  1
  Li  Li1  1  0.790113  0.232281  0.500000  1
  Li  Li2  1  0.334238  0.673117  0.000000  1
  Li  Li3  1  0.999356  0.004765  0.500000  1
  Ni  Ni4  1  0.278972  0.374873  0.500000  1
  Ni  Ni5  1  0.621621  0.901051  0.500000  1
  Ni  Ni6  1  0.101076  0.718568  0.500000  1
  Ni  Ni7  1  0.497745  0.449726  0.000000  1
  Ni  Ni8  1  0.549460  0.052645  0.000000  1
  Ni  Ni9  1  0.956846  0.500452  0.000000  1
  Ni  Ni10  1  0.721021  0.760778  0.000000  1
  Ni  Ni11  1  0.237843  0.953737  0.000000  1
  Ni  Ni12  1  0.044880  0.284664  0.000000  1
  As  As13  1  0.961300  0.754675  0.000000  1
  As  As14  1  0.239538  0.202721  0.000000  1
  As  As15  1  0.792423  0.035495  0.000000  1
  As  As16  1  0.669196  0.338937  0.000000  1
  As  As17  1  0.538311  0.623827  0.500000  1
  As  As18  1  0.377698  0.917362  0.500000  1
  As  As19  1  0.090405  0.462967  0.500000  1
  Ir  Ir20  1  0.756855  0.542626  0.500000  1
