# generated using pymatgen
data_Tm4Ga18Ir5Rh
_symmetry_space_group_name_H-M   'P 1'
_cell_length_a   7.56085548
_cell_length_b   7.56085584
_cell_length_c   9.47177898
_cell_angle_alpha   89.97396977
_cell_angle_beta   89.97397421
_cell_angle_gamma   119.95948175
_symmetry_Int_Tables_number   1
_chemical_formula_structural   Tm4Ga18Ir5Rh
_chemical_formula_sum   'Tm4 Ga18 Ir5 Rh1'
_cell_volume   469.11689663
_cell_formula_units_Z   1
loop_
 _symmetry_equiv_pos_site_id
 _symmetry_equiv_pos_as_xyz
  1  'x, y, z'
loop_
 _atom_site_type_symbol
 _atom_site_label
 _atom_site_symmetry_multiplicity
 _atom_site_fract_x
 _atom_site_fract_y
 _atom_site_fract_z
 _atom_site_occupancy
  Tm  Tm0  1  0.997286  0.667676  0.248850  1
  Tm  Tm1  1  0.002714  0.332324  0.751150  1
  Tm  Tm2  1  0.667676  0.997286  0.248850  1
  Tm  Tm3  1  0.332324  0.002714  0.751150  1
  Ga  Ga4  1  0.125464  0.125464  0.250749  1
  Ga  Ga5  1  0.874536  0.874536  0.749251  1
  Ga  Ga6  1  0.998904  0.333817  0.081089  1
  Ga  Ga7  1  0.001096  0.666183  0.918911  1
  Ga  Ga8  1  0.001026  0.666876  0.580943  1
  Ga  Ga9  1  0.333124  0.998974  0.419057  1
  Ga  Ga10  1  0.998974  0.333124  0.419057  1
  Ga  Ga11  1  0.666876  0.001026  0.580943  1
  Ga  Ga12  1  0.666183  0.001096  0.918911  1
  Ga  Ga13  1  0.333817  0.998904  0.081089  1
  Ga  Ga14  1  0.331452  0.331452  0.565609  1
  Ga  Ga15  1  0.668548  0.668548  0.434391  1
  Ga  Ga16  1  0.667693  0.667693  0.065628  1
  Ga  Ga17  1  0.332307  0.332307  0.934372  1
  Ga  Ga18  1  0.338721  0.546543  0.249936  1
  Ga  Ga19  1  0.661279  0.453457  0.750064  1
  Ga  Ga20  1  0.546543  0.338721  0.249936  1
  Ga  Ga21  1  0.453457  0.661279  0.750064  1
  Ir  Ir22  1  0.672046  0.327954  0.000000  1
  Ir  Ir23  1  0.327954  0.672046  0.000000  1
  Ir  Ir24  1  0.327876  0.672124  0.500000  1
  Ir  Ir25  1  0.672124  0.327876  0.500000  1
  Ir  Ir26  1  0.000000  0.000000  0.000000  1
  Rh  Rh27  1  0.000000  0.000000  0.500000  1
