# generated using pymatgen
data_Dy6Zn22RhS
_symmetry_space_group_name_H-M   'P 1'
_cell_length_a   8.95593275
_cell_length_b   8.95629388
_cell_length_c   8.95628800
_cell_angle_alpha   59.99660888
_cell_angle_beta   60.00081536
_cell_angle_gamma   59.99964043
_symmetry_Int_Tables_number   1
_chemical_formula_structural   Dy6Zn22RhS
_chemical_formula_sum   'Dy6 Zn22 Rh1 S1'
_cell_volume   507.97527715
_cell_formula_units_Z   1
loop_
 _symmetry_equiv_pos_site_id
 _symmetry_equiv_pos_as_xyz
  1  'x, y, z'
loop_
 _atom_site_type_symbol
 _atom_site_label
 _atom_site_symmetry_multiplicity
 _atom_site_fract_x
 _atom_site_fract_y
 _atom_site_fract_z
 _atom_site_occupancy
  Dy  Dy0  1  0.712365  0.287635  0.287654  1
  Dy  Dy1  1  0.287632  0.712368  0.712344  1
  Dy  Dy2  1  0.287666  0.712332  0.287689  1
  Dy  Dy3  1  0.712332  0.287672  0.712310  1
  Dy  Dy4  1  0.287682  0.287685  0.712315  1
  Dy  Dy5  1  0.712316  0.712318  0.287683  1
  Zn  Zn6  1  0.120191  0.120187  0.120163  1
  Zn  Zn7  1  0.879813  0.879818  0.879832  1
  Zn  Zn8  1  0.120186  0.120188  0.639464  1
  Zn  Zn9  1  0.120182  0.639456  0.120182  1
  Zn  Zn10  1  0.879810  0.879808  0.360549  1
  Zn  Zn11  1  0.879828  0.360524  0.879820  1
  Zn  Zn12  1  0.639471  0.120177  0.120172  1
  Zn  Zn13  1  0.360540  0.879822  0.879819  1
  Zn  Zn14  1  0.500002  0.999999  0.000000  1
  Zn  Zn15  1  0.000001  0.499997  0.500002  1
  Zn  Zn16  1  0.000000  0.499999  0.000000  1
  Zn  Zn17  1  0.500001  0.000000  0.499999  1
  Zn  Zn18  1  0.000001  0.000000  0.500001  1
  Zn  Zn19  1  0.500003  0.499997  0.000000  1
  Zn  Zn20  1  0.329444  0.329421  0.329413  1
  Zn  Zn21  1  0.670553  0.670580  0.670587  1
  Zn  Zn22  1  0.329424  0.329449  0.011712  1
  Zn  Zn23  1  0.329416  0.011726  0.329443  1
  Zn  Zn24  1  0.670577  0.670554  0.988280  1
  Zn  Zn25  1  0.670582  0.988276  0.670557  1
  Zn  Zn26  1  0.011730  0.329416  0.329416  1
  Zn  Zn27  1  0.988276  0.670582  0.670582  1
  Rh  Rh28  1  0.999975  0.000019  0.000012  1
  S  S29  1  0.500003  0.499998  0.500000  1
