# generated using pymatgen
data_Rb8Na4GdDy3Sb8
_symmetry_space_group_name_H-M   'P 1'
_cell_length_a   11.37777612
_cell_length_b   11.37777642
_cell_length_c   7.49368474
_cell_angle_alpha   89.89140445
_cell_angle_beta   90.10859826
_cell_angle_gamma   98.44757059
_symmetry_Int_Tables_number   1
_chemical_formula_structural   Rb8Na4GdDy3Sb8
_chemical_formula_sum   'Rb8 Na4 Gd1 Dy3 Sb8'
_cell_volume   959.55815763
_cell_formula_units_Z   1
loop_
 _symmetry_equiv_pos_site_id
 _symmetry_equiv_pos_as_xyz
  1  'x, y, z'
loop_
 _atom_site_type_symbol
 _atom_site_label
 _atom_site_symmetry_multiplicity
 _atom_site_fract_x
 _atom_site_fract_y
 _atom_site_fract_z
 _atom_site_occupancy
  Rb  Rb0  1  0.070472  0.429939  0.250311  1
  Rb  Rb1  1  0.429939  0.070472  0.749689  1
  Rb  Rb2  1  0.929650  0.570450  0.749669  1
  Rb  Rb3  1  0.570450  0.929650  0.250331  1
  Rb  Rb4  1  0.676675  0.323303  0.215143  1
  Rb  Rb5  1  0.823132  0.176701  0.715362  1
  Rb  Rb6  1  0.323303  0.676675  0.784857  1
  Rb  Rb7  1  0.176701  0.823132  0.284638  1
  Na  Na8  1  0.382279  0.382279  0.000000  1
  Na  Na9  1  0.117848  0.117848  0.500000  1
  Na  Na10  1  0.617827  0.617827  0.000000  1
  Na  Na11  1  0.882078  0.882078  0.500000  1
  Gd  Gd12  1  0.130991  0.130991  0.000000  1
  Dy  Dy13  1  0.369314  0.369314  0.500000  1
  Dy  Dy14  1  0.868662  0.868662  0.000000  1
  Dy  Dy15  1  0.631068  0.631068  0.500000  1
  Sb  Sb16  1  0.846333  0.653325  0.250648  1
  Sb  Sb17  1  0.653325  0.846333  0.749352  1
  Sb  Sb18  1  0.153816  0.348051  0.747539  1
  Sb  Sb19  1  0.348051  0.153816  0.252461  1
  Sb  Sb20  1  0.898444  0.099357  0.212141  1
  Sb  Sb21  1  0.600233  0.400050  0.711939  1
  Sb  Sb22  1  0.099357  0.898444  0.787859  1
  Sb  Sb23  1  0.400050  0.600233  0.288061  1
