# generated using pymatgen
data_Tb4Y7Ho5CdAg3Pt4
_symmetry_space_group_name_H-M   'P 1'
_cell_length_a   9.70792679
_cell_length_b   9.70792651
_cell_length_c   9.70783600
_cell_angle_alpha   60.00031524
_cell_angle_beta   60.00031617
_cell_angle_gamma   60.10042778
_symmetry_Int_Tables_number   1
_chemical_formula_structural   Tb4Y7Ho5CdAg3Pt4
_chemical_formula_sum   'Tb4 Y7 Ho5 Cd1 Ag3 Pt4'
_cell_volume   647.42731656
_cell_formula_units_Z   1
loop_
 _symmetry_equiv_pos_site_id
 _symmetry_equiv_pos_as_xyz
  1  'x, y, z'
loop_
 _atom_site_type_symbol
 _atom_site_label
 _atom_site_symmetry_multiplicity
 _atom_site_fract_x
 _atom_site_fract_y
 _atom_site_fract_z
 _atom_site_occupancy
  Tb  Tb0  1  0.353389  0.353034  0.352148  1
  Tb  Tb1  1  0.353389  0.353034  0.941428  1
  Tb  Tb2  1  0.354728  0.939306  0.352983  1
  Tb  Tb3  1  0.937318  0.354878  0.353901  1
  Y  Y4  1  0.811312  0.811102  0.188793  1
  Y  Y5  1  0.933714  0.564743  0.565412  1
  Y  Y6  1  0.564531  0.935388  0.934603  1
  Y  Y7  1  0.564531  0.935388  0.565478  1
  Y  Y8  1  0.933714  0.564743  0.936131  1
  Y  Y9  1  0.564818  0.565109  0.935036  1
  Y  Y10  1  0.933934  0.936896  0.564585  1
  Ho  Ho11  1  0.811420  0.188689  0.188986  1
  Ho  Ho12  1  0.188604  0.811444  0.811155  1
  Ho  Ho13  1  0.188604  0.811444  0.188797  1
  Ho  Ho14  1  0.811420  0.188689  0.810905  1
  Ho  Ho15  1  0.188358  0.188919  0.811362  1
  Cd  Cd16  1  0.257674  0.580148  0.581089  1
  Ag  Ag17  1  0.582760  0.582651  0.583052  1
  Ag  Ag18  1  0.582760  0.582651  0.251536  1
  Ag  Ag19  1  0.582702  0.251126  0.583086  1
  Pt  Pt20  1  0.142558  0.142989  0.144078  1
  Pt  Pt21  1  0.142558  0.142989  0.570375  1
  Pt  Pt22  1  0.144228  0.570532  0.142620  1
  Pt  Pt23  1  0.570975  0.144109  0.142458  1
