# generated using pymatgen
data_Ti12AlMo6Pt5
_symmetry_space_group_name_H-M   'P 1'
_cell_length_a   4.43563600
_cell_length_b   6.28800100
_cell_length_c   13.42443401
_cell_angle_alpha   89.99932995
_cell_angle_beta   89.99568748
_cell_angle_gamma   89.99980934
_symmetry_Int_Tables_number   1
_chemical_formula_structural   Ti12AlMo6Pt5
_chemical_formula_sum   'Ti12 Al1 Mo6 Pt5'
_cell_volume   374.42469537
_cell_formula_units_Z   1
loop_
 _symmetry_equiv_pos_site_id
 _symmetry_equiv_pos_as_xyz
  1  'x, y, z'
loop_
 _atom_site_type_symbol
 _atom_site_label
 _atom_site_symmetry_multiplicity
 _atom_site_fract_x
 _atom_site_fract_y
 _atom_site_fract_z
 _atom_site_occupancy
  Ti  Ti0  1  0.500000  0.249591  0.999996  1
  Ti  Ti1  1  0.500000  0.750408  0.000004  1
  Ti  Ti2  1  0.000170  0.249402  0.166578  1
  Ti  Ti3  1  0.000171  0.750594  0.166581  1
  Ti  Ti4  1  0.500160  0.249630  0.333676  1
  Ti  Ti5  1  0.500160  0.750369  0.333672  1
  Ti  Ti6  1  0.000000  0.250316  0.500004  1
  Ti  Ti7  1  0.000000  0.749685  0.499996  1
  Ti  Ti8  1  0.499841  0.249631  0.666328  1
  Ti  Ti9  1  0.499841  0.750370  0.666324  1
  Ti  Ti10  1  0.999830  0.249404  0.833419  1
  Ti  Ti11  1  0.999831  0.750596  0.833422  1
  Al  Al12  1  0.000000  0.499999  0.000000  1
  Mo  Mo13  1  0.000000  0.000000  0.000000  1
  Mo  Mo14  1  0.500191  0.500013  0.164739  1
  Mo  Mo15  1  0.000158  0.999984  0.334225  1
  Mo  Mo16  1  0.500000  0.499999  0.500000  1
  Mo  Mo17  1  0.999842  0.000016  0.665775  1
  Mo  Mo18  1  0.499808  0.499985  0.835262  1
  Pt  Pt19  1  0.500161  0.999999  0.167547  1
  Pt  Pt20  1  0.000168  0.500000  0.333380  1
  Pt  Pt21  1  0.500000  0.000000  0.500000  1
  Pt  Pt22  1  0.999832  0.499998  0.666620  1
  Pt  Pt23  1  0.499837  0.000001  0.832452  1
