# generated using pymatgen
data_Gd2Y3ErMn6O18
_symmetry_space_group_name_H-M   'P 1'
_cell_length_a   6.24842000
_cell_length_b   6.24842047
_cell_length_c   11.59125200
_cell_angle_alpha   90.00000000
_cell_angle_beta   90.00000000
_cell_angle_gamma   120.00000666
_symmetry_Int_Tables_number   1
_chemical_formula_structural   Gd2Y3ErMn6O18
_chemical_formula_sum   'Gd2 Y3 Er1 Mn6 O18'
_cell_volume   391.92359560
_cell_formula_units_Z   1
loop_
 _symmetry_equiv_pos_site_id
 _symmetry_equiv_pos_as_xyz
  1  'x, y, z'
loop_
 _atom_site_type_symbol
 _atom_site_label
 _atom_site_symmetry_multiplicity
 _atom_site_fract_x
 _atom_site_fract_y
 _atom_site_fract_z
 _atom_site_occupancy
  Gd  Gd0  1  0.666667  0.333333  0.234100  1
  Gd  Gd1  1  0.333333  0.666667  0.734328  1
  Y  Y2  1  0.333333  0.666667  0.232486  1
  Y  Y3  1  0.000000  0.000000  0.775695  1
  Y  Y4  1  0.000000  0.000000  0.276194  1
  Er  Er5  1  0.666667  0.333333  0.731992  1
  Mn  Mn6  1  0.666948  0.000215  0.501820  1
  Mn  Mn7  1  0.667377  0.666332  0.000960  1
  Mn  Mn8  1  0.998954  0.332623  0.000960  1
  Mn  Mn9  1  0.999785  0.666732  0.501820  1
  Mn  Mn10  1  0.333268  0.333052  0.501820  1
  Mn  Mn11  1  0.333668  0.001046  0.000960  1
  O  O12  1  0.666667  0.333333  0.021803  1
  O  O13  1  0.333333  0.666667  0.522017  1
  O  O14  1  0.666667  0.333333  0.520780  1
  O  O15  1  0.333333  0.666667  0.019193  1
  O  O16  1  0.000000  0.000000  0.976955  1
  O  O17  1  0.000000  0.000000  0.478147  1
  O  O18  1  0.361756  0.007073  0.836989  1
  O  O19  1  0.355039  0.358778  0.337891  1
  O  O20  1  0.003739  0.644961  0.337891  1
  O  O21  1  0.992927  0.354683  0.836989  1
  O  O22  1  0.645317  0.638244  0.836989  1
  O  O23  1  0.641222  0.996261  0.337891  1
  O  O24  1  0.304464  0.996672  0.165198  1
  O  O25  1  0.311202  0.305061  0.665912  1
  O  O26  1  0.993859  0.688798  0.665912  1
  O  O27  1  0.003328  0.307791  0.165198  1
  O  O28  1  0.692209  0.695536  0.165198  1
  O  O29  1  0.694939  0.006141  0.665912  1
