# generated using pymatgen
data_NaTiCu4P3
_symmetry_space_group_name_H-M   'P 1'
_cell_length_a   3.73304700
_cell_length_b   11.02945300
_cell_length_c   12.54563700
_cell_angle_alpha   90.00000000
_cell_angle_beta   90.00000000
_cell_angle_gamma   90.00000000
_symmetry_Int_Tables_number   1
_chemical_formula_structural   NaTiCu4P3
_chemical_formula_sum   'Na4 Ti4 Cu16 P12'
_cell_volume   516.54736390
_cell_formula_units_Z   4
loop_
 _symmetry_equiv_pos_site_id
 _symmetry_equiv_pos_as_xyz
  1  'x, y, z'
loop_
 _atom_site_type_symbol
 _atom_site_label
 _atom_site_symmetry_multiplicity
 _atom_site_fract_x
 _atom_site_fract_y
 _atom_site_fract_z
 _atom_site_occupancy
  Na  Na0  1  0.250000  0.919057  0.204916  1
  Na  Na1  1  0.750000  0.080943  0.795084  1
  Na  Na2  1  0.750000  0.419057  0.295084  1
  Na  Na3  1  0.250000  0.580943  0.704916  1
  Ti  Ti4  1  0.250000  0.793243  0.487857  1
  Ti  Ti5  1  0.750000  0.206757  0.512143  1
  Ti  Ti6  1  0.750000  0.293243  0.012143  1
  Ti  Ti7  1  0.250000  0.706757  0.987857  1
  Cu  Cu8  1  0.250000  0.090560  0.984676  1
  Cu  Cu9  1  0.750000  0.909440  0.015324  1
  Cu  Cu10  1  0.750000  0.590560  0.515324  1
  Cu  Cu11  1  0.250000  0.409440  0.484676  1
  Cu  Cu12  1  0.250000  0.282509  0.679819  1
  Cu  Cu13  1  0.750000  0.717491  0.320181  1
  Cu  Cu14  1  0.750000  0.782509  0.820181  1
  Cu  Cu15  1  0.250000  0.217491  0.179819  1
  Cu  Cu16  1  0.250000  0.614769  0.202097  1
  Cu  Cu17  1  0.750000  0.385231  0.797903  1
  Cu  Cu18  1  0.750000  0.114769  0.297903  1
  Cu  Cu19  1  0.250000  0.885231  0.702097  1
  Cu  Cu20  1  0.250000  0.032935  0.431362  1
  Cu  Cu21  1  0.750000  0.967065  0.568638  1
  Cu  Cu22  1  0.750000  0.532935  0.068638  1
  Cu  Cu23  1  0.250000  0.467065  0.931362  1
  P  P24  1  0.250000  0.086260  0.617342  1
  P  P25  1  0.750000  0.913740  0.382658  1
  P  P26  1  0.750000  0.586260  0.882658  1
  P  P27  1  0.250000  0.413740  0.117342  1
  P  P28  1  0.250000  0.235847  0.370050  1
  P  P29  1  0.750000  0.764153  0.629950  1
  P  P30  1  0.750000  0.735847  0.129950  1
  P  P31  1  0.250000  0.264153  0.870050  1
  P  P32  1  0.250000  0.898087  0.892766  1
  P  P33  1  0.750000  0.101913  0.107234  1
  P  P34  1  0.750000  0.398087  0.607234  1
  P  P35  1  0.250000  0.601913  0.392766  1
