# generated using pymatgen
data_TbEr4Cd3InNi2
_symmetry_space_group_name_H-M   'P 1'
_cell_length_a   3.55425000
_cell_length_b   7.83528285
_cell_length_c   18.10790133
_cell_angle_alpha   89.61325242
_cell_angle_beta   90.00000000
_cell_angle_gamma   90.00000000
_symmetry_Int_Tables_number   1
_chemical_formula_structural   TbEr4Cd3InNi2
_chemical_formula_sum   'Tb2 Er8 Cd6 In2 Ni4'
_cell_volume   504.26738096
_cell_formula_units_Z   2
loop_
 _symmetry_equiv_pos_site_id
 _symmetry_equiv_pos_as_xyz
  1  'x, y, z'
loop_
 _atom_site_type_symbol
 _atom_site_label
 _atom_site_symmetry_multiplicity
 _atom_site_fract_x
 _atom_site_fract_y
 _atom_site_fract_z
 _atom_site_occupancy
  Tb  Tb0  1  0.000000  0.500000  0.500000  1
  Tb  Tb1  1  0.000000  0.000000  0.000000  1
  Er  Er2  1  0.000000  0.749305  0.279049  1
  Er  Er3  1  0.000000  0.250695  0.720951  1
  Er  Er4  1  0.000000  0.746420  0.778012  1
  Er  Er5  1  0.000000  0.253580  0.221988  1
  Er  Er6  1  0.000000  0.615613  0.089290  1
  Er  Er7  1  0.000000  0.384387  0.910710  1
  Er  Er8  1  0.000000  0.886251  0.588720  1
  Er  Er9  1  0.000000  0.113749  0.411280  1
  Cd  Cd10  1  0.500000  0.708260  0.929800  1
  Cd  Cd11  1  0.500000  0.291740  0.070200  1
  Cd  Cd12  1  0.500000  0.789988  0.429313  1
  Cd  Cd13  1  0.500000  0.210012  0.570687  1
  Cd  Cd14  1  0.500000  0.568388  0.650830  1
  Cd  Cd15  1  0.500000  0.431612  0.349170  1
  In  In16  1  0.500000  0.934335  0.151892  1
  In  In17  1  0.500000  0.065665  0.848108  1
  Ni  Ni18  1  0.500000  0.531247  0.196630  1
  Ni  Ni19  1  0.500000  0.468753  0.803370  1
  Ni  Ni20  1  0.500000  0.969602  0.696909  1
  Ni  Ni21  1  0.500000  0.030398  0.303091  1
