# generated using pymatgen
data_Yb10Zn2Cu3Ir
_symmetry_space_group_name_H-M   'P 1'
_cell_length_a   8.89918656
_cell_length_b   8.89918704
_cell_length_c   8.88021404
_cell_angle_alpha   129.14911858
_cell_angle_beta   129.14912471
_cell_angle_gamma   74.93053533
_symmetry_Int_Tables_number   1
_chemical_formula_structural   Yb10Zn2Cu3Ir
_chemical_formula_sum   'Yb10 Zn2 Cu3 Ir1'
_cell_volume   411.56929895
_cell_formula_units_Z   1
loop_
 _symmetry_equiv_pos_site_id
 _symmetry_equiv_pos_as_xyz
  1  'x, y, z'
loop_
 _atom_site_type_symbol
 _atom_site_label
 _atom_site_symmetry_multiplicity
 _atom_site_fract_x
 _atom_site_fract_y
 _atom_site_fract_z
 _atom_site_occupancy
  Yb  Yb0  1  0.494358  0.501829  0.996187  1
  Yb  Yb1  1  0.001829  0.994358  0.996187  1
  Yb  Yb2  1  0.530497  0.030497  0.835633  1
  Yb  Yb3  1  0.188906  0.688906  0.150710  1
  Yb  Yb4  1  0.032134  0.201828  0.507442  1
  Yb  Yb5  1  0.701828  0.532134  0.507442  1
  Yb  Yb6  1  0.461805  0.961805  0.150710  1
  Yb  Yb7  1  0.805135  0.305135  0.835633  1
  Yb  Yb8  1  0.975309  0.805614  0.507442  1
  Yb  Yb9  1  0.305614  0.475309  0.507442  1
  Zn  Zn10  1  0.251239  0.251239  0.002478  1
  Zn  Zn11  1  0.751239  0.751239  0.002478  1
  Cu  Cu12  1  0.878681  0.378681  0.257360  1
  Cu  Cu13  1  0.616755  0.881382  0.498137  1
  Cu  Cu14  1  0.381382  0.116755  0.498137  1
  Ir  Ir15  1  0.123286  0.623286  0.746573  1
