# generated using pymatgen
data_ErTm11(TcIr)2
_symmetry_space_group_name_H-M   'P 1'
_cell_length_a   6.23427200
_cell_length_b   7.33107200
_cell_length_c   9.00281400
_cell_angle_alpha   90.00000000
_cell_angle_beta   90.00000000
_cell_angle_gamma   89.99674767
_symmetry_Int_Tables_number   1
_chemical_formula_structural   ErTm11(TcIr)2
_chemical_formula_sum   'Er1 Tm11 Tc2 Ir2'
_cell_volume   411.46368253
_cell_formula_units_Z   1
loop_
 _symmetry_equiv_pos_site_id
 _symmetry_equiv_pos_as_xyz
  1  'x, y, z'
loop_
 _atom_site_type_symbol
 _atom_site_label
 _atom_site_symmetry_multiplicity
 _atom_site_fract_x
 _atom_site_fract_y
 _atom_site_fract_z
 _atom_site_occupancy
  Er  Er0  1  0.132428  0.459725  0.750000  1
  Tm  Tm1  1  0.332367  0.676095  0.065272  1
  Tm  Tm2  1  0.167708  0.175961  0.434756  1
  Tm  Tm3  1  0.665577  0.323993  0.560128  1
  Tm  Tm4  1  0.834283  0.824092  0.939808  1
  Tm  Tm5  1  0.665577  0.323993  0.939872  1
  Tm  Tm6  1  0.834283  0.824092  0.560192  1
  Tm  Tm7  1  0.332367  0.676095  0.434728  1
  Tm  Tm8  1  0.167708  0.175961  0.065244  1
  Tm  Tm9  1  0.874097  0.539579  0.250000  1
  Tm  Tm10  1  0.625923  0.039575  0.250000  1
  Tm  Tm11  1  0.367474  0.959604  0.750000  1
  Tc  Tc12  1  0.035766  0.884728  0.250000  1
  Tc  Tc13  1  0.464213  0.384676  0.250000  1
  Ir  Ir14  1  0.956229  0.115684  0.750000  1
  Ir  Ir15  1  0.544000  0.616148  0.750000  1
