# generated using pymatgen
data_Ho3BiIr2(RhO7)2
_symmetry_space_group_name_H-M   'P 1'
_cell_length_a   7.26318663
_cell_length_b   7.27034967
_cell_length_c   7.27035001
_cell_angle_alpha   59.75862262
_cell_angle_beta   59.69407753
_cell_angle_gamma   59.69408264
_symmetry_Int_Tables_number   1
_chemical_formula_structural   Ho3BiIr2(RhO7)2
_chemical_formula_sum   'Ho3 Bi1 Ir2 Rh2 O14'
_cell_volume   269.71678417
_cell_formula_units_Z   1
loop_
 _symmetry_equiv_pos_site_id
 _symmetry_equiv_pos_as_xyz
  1  'x, y, z'
loop_
 _atom_site_type_symbol
 _atom_site_label
 _atom_site_symmetry_multiplicity
 _atom_site_fract_x
 _atom_site_fract_y
 _atom_site_fract_z
 _atom_site_occupancy
  Ho  Ho0  1  0.125000  0.625000  0.125000  1
  Ho  Ho1  1  0.625000  0.125000  0.125000  1
  Ho  Ho2  1  0.125000  0.125000  0.625000  1
  Bi  Bi3  1  0.125000  0.125000  0.125000  1
  Ir  Ir4  1  0.625000  0.625000  0.625000  1
  Ir  Ir5  1  0.125000  0.625000  0.625000  1
  Rh  Rh6  1  0.625000  0.625000  0.125000  1
  Rh  Rh7  1  0.625000  0.125000  0.625000  1
  O  O8  1  0.252129  0.254476  0.254476  1
  O  O9  1  0.286470  0.704112  0.290860  1
  O  O10  1  0.963530  0.959140  0.545888  1
  O  O11  1  0.535615  0.959663  0.540032  1
  O  O12  1  0.714385  0.709968  0.290337  1
  O  O13  1  0.960413  0.539614  0.539614  1
  O  O14  1  0.714385  0.290337  0.709968  1
  O  O15  1  0.286470  0.290860  0.704112  1
  O  O16  1  0.707554  0.286193  0.286193  1
  O  O17  1  0.289587  0.710386  0.710386  1
  O  O18  1  0.963530  0.545888  0.959140  1
  O  O19  1  0.535615  0.540032  0.959663  1
  O  O20  1  0.997871  0.995524  0.995524  1
  O  O21  1  0.542446  0.963807  0.963807  1
