# generated using pymatgen
data_Ho2LuZnAg3Ge2
_symmetry_space_group_name_H-M   'P 1'
_cell_length_a   7.16792615
_cell_length_b   7.16792671
_cell_length_c   4.12266700
_cell_angle_alpha   90.00000000
_cell_angle_beta   90.00000000
_cell_angle_gamma   119.91481057
_symmetry_Int_Tables_number   1
_chemical_formula_structural   Ho2LuZnAg3Ge2
_chemical_formula_sum   'Ho2 Lu1 Zn1 Ag3 Ge2'
_cell_volume   183.59808070
_cell_formula_units_Z   1
loop_
 _symmetry_equiv_pos_site_id
 _symmetry_equiv_pos_as_xyz
  1  'x, y, z'
loop_
 _atom_site_type_symbol
 _atom_site_label
 _atom_site_symmetry_multiplicity
 _atom_site_fract_x
 _atom_site_fract_y
 _atom_site_fract_z
 _atom_site_occupancy
  Ho  Ho0  1  0.580661  0.999451  0.000000  1
  Ho  Ho1  1  0.999451  0.580661  0.000000  1
  Lu  Lu2  1  0.419254  0.419254  0.000000  1
  Zn  Zn3  1  0.002084  0.002084  0.000000  1
  Ag  Ag4  1  0.248261  0.000863  0.500000  1
  Ag  Ag5  1  0.000863  0.248261  0.500000  1
  Ag  Ag6  1  0.751093  0.751093  0.500000  1
  Ge  Ge7  1  0.333748  0.664585  0.500000  1
  Ge  Ge8  1  0.664585  0.333748  0.500000  1
