# generated using pymatgen
data_Ho12SiTc3
_symmetry_space_group_name_H-M   'P 1'
_cell_length_a   6.25942900
_cell_length_b   7.49030734
_cell_length_c   9.11729000
_cell_angle_alpha   90.00000000
_cell_angle_beta   90.00000000
_cell_angle_gamma   89.74472595
_symmetry_Int_Tables_number   1
_chemical_formula_structural   Ho12SiTc3
_chemical_formula_sum   'Ho12 Si1 Tc3'
_cell_volume   427.46032750
_cell_formula_units_Z   1
loop_
 _symmetry_equiv_pos_site_id
 _symmetry_equiv_pos_as_xyz
  1  'x, y, z'
loop_
 _atom_site_type_symbol
 _atom_site_label
 _atom_site_symmetry_multiplicity
 _atom_site_fract_x
 _atom_site_fract_y
 _atom_site_fract_z
 _atom_site_occupancy
  Ho  Ho0  1  0.335073  0.674711  0.063875  1
  Ho  Ho1  1  0.162584  0.179673  0.434624  1
  Ho  Ho2  1  0.658364  0.312293  0.559677  1
  Ho  Ho3  1  0.847924  0.833670  0.939248  1
  Ho  Ho4  1  0.658364  0.312293  0.940323  1
  Ho  Ho5  1  0.847924  0.833670  0.560752  1
  Ho  Ho6  1  0.335073  0.674711  0.436125  1
  Ho  Ho7  1  0.162584  0.179673  0.065376  1
  Ho  Ho8  1  0.869043  0.542046  0.250000  1
  Ho  Ho9  1  0.622560  0.034591  0.250000  1
  Ho  Ho10  1  0.118806  0.456696  0.750000  1
  Ho  Ho11  1  0.370509  0.969810  0.750000  1
  Si  Si12  1  0.558557  0.615279  0.750000  1
  Tc  Tc13  1  0.038898  0.881694  0.250000  1
  Tc  Tc14  1  0.462851  0.381343  0.250000  1
  Tc  Tc15  1  0.950888  0.117848  0.750000  1
