# generated using pymatgen
data_NdY7(CdPd)2
_symmetry_space_group_name_H-M   'P 1'
_cell_length_a   9.79044265
_cell_length_b   9.79044241
_cell_length_c   9.79627200
_cell_angle_alpha   59.98030116
_cell_angle_beta   59.98030197
_cell_angle_gamma   60.05210323
_symmetry_Int_Tables_number   1
_chemical_formula_structural   NdY7(CdPd)2
_chemical_formula_sum   'Nd2 Y14 Cd4 Pd4'
_cell_volume   664.03615917
_cell_formula_units_Z   2
loop_
 _symmetry_equiv_pos_site_id
 _symmetry_equiv_pos_as_xyz
  1  'x, y, z'
loop_
 _atom_site_type_symbol
 _atom_site_label
 _atom_site_symmetry_multiplicity
 _atom_site_fract_x
 _atom_site_fract_y
 _atom_site_fract_z
 _atom_site_occupancy
  Nd  Nd0  1  0.353844  0.353844  0.353007  1
  Nd  Nd1  1  0.353844  0.353844  0.939306  1
  Y  Y2  1  0.357206  0.933506  0.354644  1
  Y  Y3  1  0.933506  0.357206  0.354644  1
  Y  Y4  1  0.812017  0.188746  0.188758  1
  Y  Y5  1  0.188746  0.812017  0.810478  1
  Y  Y6  1  0.188746  0.812017  0.188758  1
  Y  Y7  1  0.812017  0.188746  0.810478  1
  Y  Y8  1  0.188456  0.188456  0.811544  1
  Y  Y9  1  0.810848  0.810848  0.189152  1
  Y  Y10  1  0.934867  0.565627  0.565802  1
  Y  Y11  1  0.565627  0.934867  0.933704  1
  Y  Y12  1  0.565627  0.934867  0.565802  1
  Y  Y13  1  0.934867  0.565627  0.933704  1
  Y  Y14  1  0.566527  0.566527  0.933473  1
  Y  Y15  1  0.935623  0.935623  0.564377  1
  Cd  Cd16  1  0.583786  0.583786  0.580573  1
  Cd  Cd17  1  0.583786  0.583786  0.251856  1
  Cd  Cd18  1  0.584556  0.251445  0.582000  1
  Cd  Cd19  1  0.251445  0.584556  0.582000  1
  Pd  Pd20  1  0.142268  0.142268  0.149480  1
  Pd  Pd21  1  0.142268  0.142268  0.565981  1
  Pd  Pd22  1  0.139414  0.570113  0.145237  1
  Pd  Pd23  1  0.570113  0.139414  0.145237  1
