# generated using pymatgen
data_Zr3BeSiAsRu3
_symmetry_space_group_name_H-M   'P 1'
_cell_length_a   6.74027700
_cell_length_b   6.74027715
_cell_length_c   3.59349400
_cell_angle_alpha   90.00000000
_cell_angle_beta   90.00000000
_cell_angle_gamma   120.00000415
_symmetry_Int_Tables_number   1
_chemical_formula_structural   Zr3BeSiAsRu3
_chemical_formula_sum   'Zr3 Be1 Si1 As1 Ru3'
_cell_volume   141.38490263
_cell_formula_units_Z   1
loop_
 _symmetry_equiv_pos_site_id
 _symmetry_equiv_pos_as_xyz
  1  'x, y, z'
loop_
 _atom_site_type_symbol
 _atom_site_label
 _atom_site_symmetry_multiplicity
 _atom_site_fract_x
 _atom_site_fract_y
 _atom_site_fract_z
 _atom_site_occupancy
  Zr  Zr0  1  0.393643  0.399244  0.500000  1
  Zr  Zr1  1  0.600756  0.994399  0.500000  1
  Zr  Zr2  1  0.005601  0.606357  0.500000  1
  Be  Be3  1  0.000000  0.000000  0.500000  1
  Si  Si4  1  0.333333  0.666667  0.000000  1
  As  As5  1  0.666667  0.333333  0.000000  1
  Ru  Ru6  1  0.004895  0.240486  0.000000  1
  Ru  Ru7  1  0.235591  0.995105  0.000000  1
  Ru  Ru8  1  0.759514  0.764409  0.000000  1
