# generated using pymatgen
data_Ho4MoOs5Ru2
_symmetry_space_group_name_H-M   'P 1'
_cell_length_a   5.40840014
_cell_length_b   5.21298687
_cell_length_c   9.06128200
_cell_angle_alpha   90.00000000
_cell_angle_beta   90.00000000
_cell_angle_gamma   121.18383135
_symmetry_Int_Tables_number   1
_chemical_formula_structural   Ho4MoOs5Ru2
_chemical_formula_sum   'Ho4 Mo1 Os5 Ru2'
_cell_volume   218.55985421
_cell_formula_units_Z   1
loop_
 _symmetry_equiv_pos_site_id
 _symmetry_equiv_pos_as_xyz
  1  'x, y, z'
loop_
 _atom_site_type_symbol
 _atom_site_label
 _atom_site_symmetry_multiplicity
 _atom_site_fract_x
 _atom_site_fract_y
 _atom_site_fract_z
 _atom_site_occupancy
  Ho  Ho0  1  0.671316  0.342873  0.563493  1
  Ho  Ho1  1  0.334556  0.669117  0.433131  1
  Ho  Ho2  1  0.334556  0.669117  0.066869  1
  Ho  Ho3  1  0.671316  0.342873  0.936507  1
  Mo  Mo4  1  0.159858  0.320349  0.750000  1
  Os  Os5  1  0.172105  0.824338  0.750000  1
  Os  Os6  1  0.652097  0.824856  0.750000  1
  Os  Os7  1  0.824756  0.648809  0.250000  1
  Os  Os8  1  0.830287  0.164240  0.250000  1
  Os  Os9  1  0.334593  0.164576  0.250000  1
  Ru  Ru10  1  0.007280  0.014426  0.497884  1
  Ru  Ru11  1  0.007280  0.014426  0.002116  1
