# generated using pymatgen
data_Y3Ta3(Si2Ru5)2
_symmetry_space_group_name_H-M   'P 1'
_cell_length_a   9.99226888
_cell_length_b   9.99226842
_cell_length_c   3.22162500
_cell_angle_alpha   90.00000000
_cell_angle_beta   90.00000000
_cell_angle_gamma   89.89736080
_symmetry_Int_Tables_number   1
_chemical_formula_structural   Y3Ta3(Si2Ru5)2
_chemical_formula_sum   'Y3 Ta3 Si4 Ru10'
_cell_volume   321.66402628
_cell_formula_units_Z   1
loop_
 _symmetry_equiv_pos_site_id
 _symmetry_equiv_pos_as_xyz
  1  'x, y, z'
loop_
 _atom_site_type_symbol
 _atom_site_label
 _atom_site_symmetry_multiplicity
 _atom_site_fract_x
 _atom_site_fract_y
 _atom_site_fract_z
 _atom_site_occupancy
  Y  Y0  1  0.172530  0.827470  0.000000  1
  Y  Y1  1  0.326693  0.326001  0.000000  1
  Y  Y2  1  0.673999  0.673307  0.000000  1
  Ta  Ta3  1  0.499122  0.999044  0.000000  1
  Ta  Ta4  1  0.000956  0.500878  0.000000  1
  Ta  Ta5  1  0.825756  0.174244  0.000000  1
  Si  Si6  1  0.628525  0.371475  0.000000  1
  Si  Si7  1  0.375322  0.624678  0.000000  1
  Si  Si8  1  0.123051  0.126901  0.000000  1
  Si  Si9  1  0.873099  0.876949  0.000000  1
  Ru  Ru10  1  0.502924  0.497076  0.500000  1
  Ru  Ru11  1  0.989454  0.010546  0.500000  1
  Ru  Ru12  1  0.581640  0.204104  0.500000  1
  Ru  Ru13  1  0.434858  0.791877  0.500000  1
  Ru  Ru14  1  0.056418  0.289076  0.500000  1
  Ru  Ru15  1  0.930818  0.710111  0.500000  1
  Ru  Ru16  1  0.289889  0.069182  0.500000  1
  Ru  Ru17  1  0.710924  0.943582  0.500000  1
  Ru  Ru18  1  0.208123  0.565142  0.500000  1
  Ru  Ru19  1  0.795896  0.418360  0.500000  1
