# generated using pymatgen
data_ScNi5IrW
_symmetry_space_group_name_H-M   'P 1'
_cell_length_a   5.27028148
_cell_length_b   5.27028181
_cell_length_c   4.25459600
_cell_angle_alpha   90.00000000
_cell_angle_beta   90.00000000
_cell_angle_gamma   120.16529402
_symmetry_Int_Tables_number   1
_chemical_formula_structural   ScNi5IrW
_chemical_formula_sum   'Sc1 Ni5 Ir1 W1'
_cell_volume   102.17174946
_cell_formula_units_Z   1
loop_
 _symmetry_equiv_pos_site_id
 _symmetry_equiv_pos_as_xyz
  1  'x, y, z'
loop_
 _atom_site_type_symbol
 _atom_site_label
 _atom_site_symmetry_multiplicity
 _atom_site_fract_x
 _atom_site_fract_y
 _atom_site_fract_z
 _atom_site_occupancy
  Sc  Sc0  1  0.670767  0.329233  0.750000  1
  Ni  Ni1  1  0.673134  0.833257  0.750000  1
  Ni  Ni2  1  0.316524  0.168116  0.250000  1
  Ni  Ni3  1  0.843519  0.156481  0.250000  1
  Ni  Ni4  1  0.166743  0.326866  0.750000  1
  Ni  Ni5  1  0.831884  0.683476  0.250000  1
  Ir  Ir6  1  0.162653  0.837347  0.750000  1
  W  W7  1  0.334778  0.665222  0.250000  1
