# generated using pymatgen
data_Y10Hg2IrRu3
_symmetry_space_group_name_H-M   'P 1'
_cell_length_a   8.72961593
_cell_length_b   8.72961690
_cell_length_c   8.70774800
_cell_angle_alpha   127.06790808
_cell_angle_beta   127.06790469
_cell_angle_gamma   78.31666608
_symmetry_Int_Tables_number   1
_chemical_formula_structural   Y10Hg2IrRu3
_chemical_formula_sum   'Y10 Hg2 Ir1 Ru3'
_cell_volume   408.79038446
_cell_formula_units_Z   1
loop_
 _symmetry_equiv_pos_site_id
 _symmetry_equiv_pos_as_xyz
  1  'x, y, z'
loop_
 _atom_site_type_symbol
 _atom_site_label
 _atom_site_symmetry_multiplicity
 _atom_site_fract_x
 _atom_site_fract_y
 _atom_site_fract_z
 _atom_site_occupancy
  Y  Y0  1  0.002124  0.999720  0.001845  1
  Y  Y1  1  0.500280  0.497876  0.998155  1
  Y  Y2  1  0.798878  0.293936  0.823790  1
  Y  Y3  1  0.206064  0.701122  0.176210  1
  Y  Y4  1  0.475088  0.970146  0.176210  1
  Y  Y5  1  0.289580  0.474900  0.500000  1
  Y  Y6  1  0.025100  0.210420  0.500000  1
  Y  Y7  1  0.529854  0.024912  0.823790  1
  Y  Y8  1  0.702018  0.529362  0.500000  1
  Y  Y9  1  0.970638  0.797982  0.500000  1
  Hg  Hg10  1  0.251385  0.248615  0.000000  1
  Hg  Hg11  1  0.751385  0.748615  0.000000  1
  Ir  Ir12  1  0.363175  0.136825  0.500000  1
  Ru  Ru13  1  0.138063  0.642040  0.780104  1
  Ru  Ru14  1  0.857960  0.361937  0.219896  1
  Ru  Ru15  1  0.638409  0.861591  0.500000  1
