# generated using pymatgen
data_Ho3Er17(Bi2Ir)4
_symmetry_space_group_name_H-M   'P 1'
_cell_length_a   7.93523536
_cell_length_b   8.97300000
_cell_length_c   12.41478805
_cell_angle_alpha   90.00000000
_cell_angle_beta   90.01199379
_cell_angle_gamma   90.00000000
_symmetry_Int_Tables_number   1
_chemical_formula_structural   Ho3Er17(Bi2Ir)4
_chemical_formula_sum   'Ho3 Er17 Bi8 Ir4'
_cell_volume   883.96848146
_cell_formula_units_Z   1
loop_
 _symmetry_equiv_pos_site_id
 _symmetry_equiv_pos_as_xyz
  1  'x, y, z'
loop_
 _atom_site_type_symbol
 _atom_site_label
 _atom_site_symmetry_multiplicity
 _atom_site_fract_x
 _atom_site_fract_y
 _atom_site_fract_z
 _atom_site_occupancy
  Ho  Ho0  1  0.945388  0.250000  0.501035  1
  Ho  Ho1  1  0.554696  0.250000  0.000911  1
  Ho  Ho2  1  0.445158  0.750000  0.999084  1
  Er  Er3  1  0.339640  0.750000  0.706119  1
  Er  Er4  1  0.660430  0.250000  0.293611  1
  Er  Er5  1  0.839577  0.250000  0.793265  1
  Er  Er6  1  0.160636  0.750000  0.206888  1
  Er  Er7  1  0.878894  0.750000  0.808082  1
  Er  Er8  1  0.120756  0.250000  0.192057  1
  Er  Er9  1  0.378778  0.250000  0.692194  1
  Er  Er10  1  0.621386  0.750000  0.307590  1
  Er  Er11  1  0.675388  0.542892  0.565571  1
  Er  Er12  1  0.325122  0.457498  0.434398  1
  Er  Er13  1  0.174693  0.457253  0.934342  1
  Er  Er14  1  0.325122  0.042502  0.434398  1
  Er  Er15  1  0.824853  0.542566  0.065926  1
  Er  Er16  1  0.675388  0.957108  0.565571  1
  Er  Er17  1  0.824853  0.957434  0.065926  1
  Er  Er18  1  0.174693  0.042747  0.934342  1
  Er  Er19  1  0.055312  0.750000  0.498717  1
  Bi  Bi20  1  0.568235  0.509957  0.826931  1
  Bi  Bi21  1  0.431568  0.489988  0.173011  1
  Bi  Bi22  1  0.068271  0.490383  0.672707  1
  Bi  Bi23  1  0.431568  0.010012  0.173011  1
  Bi  Bi24  1  0.931824  0.510082  0.327292  1
  Bi  Bi25  1  0.568235  0.990043  0.826931  1
  Bi  Bi26  1  0.931824  0.989918  0.327292  1
  Bi  Bi27  1  0.068271  0.009617  0.672707  1
  Ir  Ir28  1  0.071496  0.750000  0.991586  1
  Ir  Ir29  1  0.927792  0.250000  0.008761  1
  Ir  Ir30  1  0.572063  0.250000  0.508899  1
  Ir  Ir31  1  0.428090  0.750000  0.490843  1
