# generated using pymatgen
data_RbMoH9Pb
_symmetry_space_group_name_H-M   'P 1'
_cell_length_a   9.09235600
_cell_length_b   9.09235403
_cell_length_c   5.50327300
_cell_angle_alpha   90.00000000
_cell_angle_beta   90.00000000
_cell_angle_gamma   120.00000717
_symmetry_Int_Tables_number   1
_chemical_formula_structural   RbMoH9Pb
_chemical_formula_sum   'Rb3 Mo3 H27 Pb3'
_cell_volume   394.00744375
_cell_formula_units_Z   3
loop_
 _symmetry_equiv_pos_site_id
 _symmetry_equiv_pos_as_xyz
  1  'x, y, z'
loop_
 _atom_site_type_symbol
 _atom_site_label
 _atom_site_symmetry_multiplicity
 _atom_site_fract_x
 _atom_site_fract_y
 _atom_site_fract_z
 _atom_site_occupancy
  Rb  Rb0  1  0.000000  0.588356  0.000000  1
  Rb  Rb1  1  0.411644  0.411644  0.000000  1
  Rb  Rb2  1  0.588356  0.000000  0.000000  1
  Mo  Mo3  1  0.666667  0.333333  0.500000  1
  Mo  Mo4  1  0.333333  0.666667  0.500000  1
  Mo  Mo5  1  0.000000  0.000000  0.000000  1
  H  H6  1  0.785828  0.303870  0.729490  1
  H  H7  1  0.696130  0.481956  0.729490  1
  H  H8  1  0.518044  0.214172  0.729490  1
  H  H9  1  0.214172  0.518044  0.270510  1
  H  H10  1  0.518044  0.214172  0.270510  1
  H  H11  1  0.785828  0.303870  0.270510  1
  H  H12  1  0.696130  0.481956  0.270510  1
  H  H13  1  0.303870  0.785828  0.729490  1
  H  H14  1  0.481956  0.696130  0.729490  1
  H  H15  1  0.191847  0.000000  0.000000  1
  H  H16  1  0.808153  0.808153  0.000000  1
  H  H17  1  0.000000  0.191847  0.000000  1
  H  H18  1  0.863977  0.000000  0.230274  1
  H  H19  1  0.136023  0.136023  0.769726  1
  H  H20  1  0.000000  0.863977  0.769726  1
  H  H21  1  0.000000  0.863977  0.230274  1
  H  H22  1  0.136023  0.136023  0.230274  1
  H  H23  1  0.863977  0.000000  0.769726  1
  H  H24  1  0.127410  0.628839  0.500000  1
  H  H25  1  0.501429  0.872590  0.500000  1
  H  H26  1  0.371161  0.498571  0.500000  1
  H  H27  1  0.498571  0.371161  0.500000  1
  H  H28  1  0.872590  0.501429  0.500000  1
  H  H29  1  0.628839  0.127410  0.500000  1
  H  H30  1  0.214172  0.518044  0.729490  1
  H  H31  1  0.303870  0.785828  0.270510  1
  H  H32  1  0.481956  0.696130  0.270510  1
  Pb  Pb33  1  0.000000  0.272616  0.500000  1
  Pb  Pb34  1  0.727384  0.727384  0.500000  1
  Pb  Pb35  1  0.272616  0.000000  0.500000  1
