# generated using pymatgen
data_Tb3Y17CoBi8Ru3
_symmetry_space_group_name_H-M   'P 1'
_cell_length_a   8.02094606
_cell_length_b   9.01256567
_cell_length_c   12.47315524
_cell_angle_alpha   89.93639829
_cell_angle_beta   90.22447389
_cell_angle_gamma   90.02921877
_symmetry_Int_Tables_number   1
_chemical_formula_structural   Tb3Y17CoBi8Ru3
_chemical_formula_sum   'Tb3 Y17 Co1 Bi8 Ru3'
_cell_volume   901.66810851
_cell_formula_units_Z   1
loop_
 _symmetry_equiv_pos_site_id
 _symmetry_equiv_pos_as_xyz
  1  'x, y, z'
loop_
 _atom_site_type_symbol
 _atom_site_label
 _atom_site_symmetry_multiplicity
 _atom_site_fract_x
 _atom_site_fract_y
 _atom_site_fract_z
 _atom_site_occupancy
  Tb  Tb0  1  0.675591  0.459296  0.563846  1
  Tb  Tb1  1  0.824896  0.464409  0.062745  1
  Tb  Tb2  1  0.177045  0.541437  0.935893  1
  Y  Y3  1  0.844977  0.749974  0.798459  1
  Y  Y4  1  0.156232  0.250210  0.206521  1
  Y  Y5  1  0.343641  0.250226  0.707328  1
  Y  Y6  1  0.654866  0.749918  0.294247  1
  Y  Y7  1  0.376486  0.749953  0.694619  1
  Y  Y8  1  0.622373  0.250006  0.305935  1
  Y  Y9  1  0.876569  0.249996  0.806557  1
  Y  Y10  1  0.120669  0.750169  0.189950  1
  Y  Y11  1  0.946691  0.749563  0.504531  1
  Y  Y12  1  0.052790  0.250296  0.496134  1
  Y  Y13  1  0.449667  0.250591  0.996873  1
  Y  Y14  1  0.550594  0.749244  0.003149  1
  Y  Y15  1  0.676190  0.041001  0.564723  1
  Y  Y16  1  0.323303  0.957911  0.435221  1
  Y  Y17  1  0.177184  0.957247  0.935398  1
  Y  Y18  1  0.322470  0.542134  0.435005  1
  Y  Y19  1  0.824776  0.036468  0.063356  1
  Co  Co20  1  0.931582  0.748666  0.009772  1
  Bi  Bi21  1  0.571939  0.492387  0.827675  1
  Bi  Bi22  1  0.428769  0.508012  0.172260  1
  Bi  Bi23  1  0.070310  0.507877  0.673225  1
  Bi  Bi24  1  0.429421  0.992083  0.171799  1
  Bi  Bi25  1  0.929520  0.492789  0.326781  1
  Bi  Bi26  1  0.571340  0.007627  0.828044  1
  Bi  Bi27  1  0.929563  0.007162  0.326811  1
  Bi  Bi28  1  0.069813  0.992259  0.673107  1
  Ru  Ru29  1  0.573024  0.748774  0.511857  1
  Ru  Ru30  1  0.426468  0.250590  0.488974  1
  Ru  Ru31  1  0.071241  0.251728  0.989202  1
