# generated using pymatgen
data_YHo5(AuO7)2
_symmetry_space_group_name_H-M   'P 1'
_cell_length_a   6.47360036
_cell_length_b   6.47360096
_cell_length_c   7.42216900
_cell_angle_alpha   90.00065158
_cell_angle_beta   89.99934838
_cell_angle_gamma   108.87613957
_symmetry_Int_Tables_number   1
_chemical_formula_structural   YHo5(AuO7)2
_chemical_formula_sum   'Y1 Ho5 Au2 O14'
_cell_volume   294.31666310
_cell_formula_units_Z   1
loop_
 _symmetry_equiv_pos_site_id
 _symmetry_equiv_pos_as_xyz
  1  'x, y, z'
loop_
 _atom_site_type_symbol
 _atom_site_label
 _atom_site_symmetry_multiplicity
 _atom_site_fract_x
 _atom_site_fract_y
 _atom_site_fract_z
 _atom_site_occupancy
  Y  Y0  1  0.500000  0.500000  0.000000  1
  Ho  Ho1  1  0.500000  0.500000  0.500000  1
  Ho  Ho2  1  0.528777  0.997970  0.749884  1
  Ho  Ho3  1  0.997970  0.528777  0.250116  1
  Ho  Ho4  1  0.471223  0.002030  0.250116  1
  Ho  Ho5  1  0.002030  0.471223  0.749884  1
  Au  Au6  1  0.000000  0.000000  0.500000  1
  Au  Au7  1  0.000000  0.000000  0.000000  1
  O  O8  1  0.669071  0.917853  0.475307  1
  O  O9  1  0.917853  0.669071  0.524693  1
  O  O10  1  0.669305  0.918644  0.024734  1
  O  O11  1  0.918644  0.669305  0.975266  1
  O  O12  1  0.330929  0.082147  0.524693  1
  O  O13  1  0.082147  0.330929  0.475307  1
  O  O14  1  0.330695  0.081356  0.975266  1
  O  O15  1  0.081356  0.330695  0.024734  1
  O  O16  1  0.920081  0.079919  0.749994  1
  O  O17  1  0.079919  0.920081  0.250006  1
  O  O18  1  0.367496  0.632504  0.749007  1
  O  O19  1  0.632504  0.367496  0.250993  1
  O  O20  1  0.639196  0.360804  0.749095  1
  O  O21  1  0.360804  0.639196  0.250905  1
