# generated using pymatgen
data_Tm12CoTcNi3Bi
_symmetry_space_group_name_H-M   'P 1'
_cell_length_a   8.22714381
_cell_length_b   8.22714298
_cell_length_c   8.22714305
_cell_angle_alpha   110.02957770
_cell_angle_beta   111.68946432
_cell_angle_gamma   106.73340438
_symmetry_Int_Tables_number   1
_chemical_formula_structural   Tm12CoTcNi3Bi
_chemical_formula_sum   'Tm12 Co1 Tc1 Ni3 Bi1'
_cell_volume   427.84797191
_cell_formula_units_Z   1
loop_
 _symmetry_equiv_pos_site_id
 _symmetry_equiv_pos_as_xyz
  1  'x, y, z'
loop_
 _atom_site_type_symbol
 _atom_site_label
 _atom_site_symmetry_multiplicity
 _atom_site_fract_x
 _atom_site_fract_y
 _atom_site_fract_z
 _atom_site_occupancy
  Tm  Tm0  1  0.282612  0.181680  0.460797  1
  Tm  Tm1  1  0.720881  0.821815  0.539203  1
  Tm  Tm2  1  0.282612  0.821815  0.100933  1
  Tm  Tm3  1  0.720881  0.181680  0.899067  1
  Tm  Tm4  1  0.623128  0.312684  0.310443  1
  Tm  Tm5  1  0.374369  0.682614  0.691755  1
  Tm  Tm6  1  0.002243  0.312684  0.689557  1
  Tm  Tm7  1  0.990856  0.682614  0.308245  1
  Tm  Tm8  1  0.219336  0.413254  0.193918  1
  Tm  Tm9  1  0.782145  0.588284  0.806140  1
  Tm  Tm10  1  0.219336  0.025418  0.806082  1
  Tm  Tm11  1  0.782145  0.976005  0.193860  1
  Co  Co12  1  0.613589  0.113589  0.500000  1
  Tc  Tc13  1  0.001749  0.001749  0.000000  1
  Ni  Ni14  1  0.000764  0.361368  0.360602  1
  Ni  Ni15  1  0.000764  0.640162  0.639398  1
  Ni  Ni16  1  0.382238  0.882238  0.500000  1
  Bi  Bi17  1  0.500352  0.500352  0.000000  1
