# generated using pymatgen
data_Tb4PrEr15Pt16
_symmetry_space_group_name_H-M   'P 1'
_cell_length_a   7.42546266
_cell_length_b   7.51958525
_cell_length_c   14.74912800
_cell_angle_alpha   89.97508410
_cell_angle_beta   89.86816221
_cell_angle_gamma   90.02154401
_symmetry_Int_Tables_number   1
_chemical_formula_structural   Tb4PrEr15Pt16
_chemical_formula_sum   'Tb4 Pr1 Er15 Pt16'
_cell_volume   823.53588584
_cell_formula_units_Z   1
loop_
 _symmetry_equiv_pos_site_id
 _symmetry_equiv_pos_as_xyz
  1  'x, y, z'
loop_
 _atom_site_type_symbol
 _atom_site_label
 _atom_site_symmetry_multiplicity
 _atom_site_fract_x
 _atom_site_fract_y
 _atom_site_fract_z
 _atom_site_occupancy
  Tb  Tb0  1  0.511653  0.325724  0.406522  1
  Tb  Tb1  1  0.013562  0.174647  0.093631  1
  Tb  Tb2  1  0.487489  0.675202  0.906408  1
  Tb  Tb3  1  0.988763  0.822184  0.594708  1
  Pr  Pr4  1  0.011550  0.177240  0.406230  1
  Er  Er5  1  0.643822  0.169194  0.622907  1
  Er  Er6  1  0.142378  0.331423  0.877409  1
  Er  Er7  1  0.358891  0.831434  0.121658  1
  Er  Er8  1  0.857187  0.667682  0.377475  1
  Er  Er9  1  0.357147  0.832503  0.377445  1
  Er  Er10  1  0.858353  0.668895  0.120522  1
  Er  Er11  1  0.640917  0.168664  0.878540  1
  Er  Er12  1  0.144052  0.331937  0.621596  1
  Er  Er13  1  0.489507  0.678549  0.593844  1
  Er  Er14  1  0.986218  0.822852  0.904041  1
  Er  Er15  1  0.514687  0.323397  0.095800  1
  Er  Er16  1  0.804687  0.510487  0.750245  1
  Er  Er17  1  0.304468  0.989213  0.750202  1
  Er  Er18  1  0.195293  0.489213  0.248986  1
  Er  Er19  1  0.695523  0.010719  0.249900  1
  Pt  Pt20  1  0.684342  0.961524  0.460887  1
  Pt  Pt21  1  0.195558  0.528009  0.042162  1
  Pt  Pt22  1  0.304608  0.028009  0.957505  1
  Pt  Pt23  1  0.805629  0.473711  0.543130  1
  Pt  Pt24  1  0.313684  0.026905  0.545048  1
  Pt  Pt25  1  0.809915  0.469672  0.957979  1
  Pt  Pt26  1  0.691042  0.970467  0.041647  1
  Pt  Pt27  1  0.194031  0.538730  0.460687  1
  Pt  Pt28  1  0.437155  0.385008  0.749348  1
  Pt  Pt29  1  0.937406  0.115061  0.750302  1
  Pt  Pt30  1  0.560665  0.618227  0.249976  1
  Pt  Pt31  1  0.062839  0.881383  0.248346  1
  Pt  Pt32  1  0.666072  0.857058  0.750104  1
  Pt  Pt33  1  0.166235  0.641744  0.749997  1
  Pt  Pt34  1  0.335938  0.142322  0.248226  1
  Pt  Pt35  1  0.828734  0.361010  0.246586  1
