# generated using pymatgen
data_Ho3Mg2AlSi2Ni
_symmetry_space_group_name_H-M   'P 1'
_cell_length_a   7.02148717
_cell_length_b   6.96743327
_cell_length_c   4.25208200
_cell_angle_alpha   90.00000000
_cell_angle_beta   90.00000000
_cell_angle_gamma   119.74567794
_symmetry_Int_Tables_number   1
_chemical_formula_structural   Ho3Mg2AlSi2Ni
_chemical_formula_sum   'Ho3 Mg2 Al1 Si2 Ni1'
_cell_volume   180.60986458
_cell_formula_units_Z   1
loop_
 _symmetry_equiv_pos_site_id
 _symmetry_equiv_pos_as_xyz
  1  'x, y, z'
loop_
 _atom_site_type_symbol
 _atom_site_label
 _atom_site_symmetry_multiplicity
 _atom_site_fract_x
 _atom_site_fract_y
 _atom_site_fract_z
 _atom_site_occupancy
  Ho  Ho0  1  0.409237  0.002214  0.000000  1
  Ho  Ho1  1  0.000000  0.417978  0.000000  1
  Ho  Ho2  1  0.590764  0.592977  0.000000  1
  Mg  Mg3  1  0.761621  0.998617  0.499999  1
  Mg  Mg4  1  0.238378  0.236995  0.499999  1
  Al  Al5  1  0.000000  0.763487  0.499999  1
  Si  Si6  1  0.674918  0.344427  0.499999  1
  Si  Si7  1  0.325083  0.669509  0.499999  1
  Ni  Ni8  1  0.000000  0.973795  0.000000  1
