# generated using pymatgen
data_Cs3MoS4
_symmetry_space_group_name_H-M   'P 1'
_cell_length_a   10.02759600
_cell_length_b   10.02343200
_cell_length_c   11.86824800
_cell_angle_alpha   90.00000000
_cell_angle_beta   90.00000000
_cell_angle_gamma   90.00000000
_symmetry_Int_Tables_number   1
_chemical_formula_structural   Cs3MoS4
_chemical_formula_sum   'Cs12 Mo4 S16'
_cell_volume   1192.88860395
_cell_formula_units_Z   4
loop_
 _symmetry_equiv_pos_site_id
 _symmetry_equiv_pos_as_xyz
  1  'x, y, z'
loop_
 _atom_site_type_symbol
 _atom_site_label
 _atom_site_symmetry_multiplicity
 _atom_site_fract_x
 _atom_site_fract_y
 _atom_site_fract_z
 _atom_site_occupancy
  Cs  Cs0  1  0.413739  0.849433  0.750000  1
  Cs  Cs1  1  0.586261  0.150567  0.250000  1
  Cs  Cs2  1  0.086261  0.349433  0.750000  1
  Cs  Cs3  1  0.710155  0.545915  0.958048  1
  Cs  Cs4  1  0.289845  0.454085  0.041952  1
  Cs  Cs5  1  0.913739  0.650567  0.250000  1
  Cs  Cs6  1  0.210155  0.954085  0.041952  1
  Cs  Cs7  1  0.289845  0.454085  0.458048  1
  Cs  Cs8  1  0.210155  0.954085  0.458048  1
  Cs  Cs9  1  0.710155  0.545915  0.541952  1
  Cs  Cs10  1  0.789845  0.045915  0.541952  1
  Cs  Cs11  1  0.789845  0.045915  0.958048  1
  Mo  Mo12  1  0.983486  0.775772  0.750000  1
  Mo  Mo13  1  0.516514  0.275772  0.750000  1
  Mo  Mo14  1  0.016514  0.224228  0.250000  1
  Mo  Mo15  1  0.483486  0.724228  0.250000  1
  S  S16  1  0.567997  0.515660  0.250000  1
  S  S17  1  0.067997  0.984340  0.750000  1
  S  S18  1  0.450834  0.168399  0.906894  1
  S  S19  1  0.049166  0.668399  0.593106  1
  S  S20  1  0.432003  0.484340  0.750000  1
  S  S21  1  0.950834  0.331601  0.093106  1
  S  S22  1  0.549166  0.831601  0.406894  1
  S  S23  1  0.759673  0.789209  0.750000  1
  S  S24  1  0.049166  0.668399  0.906894  1
  S  S25  1  0.259673  0.710791  0.250000  1
  S  S26  1  0.549166  0.831601  0.093106  1
  S  S27  1  0.240327  0.210791  0.250000  1
  S  S28  1  0.740327  0.289209  0.750000  1
  S  S29  1  0.450834  0.168399  0.593106  1
  S  S30  1  0.932003  0.015660  0.250000  1
  S  S31  1  0.950834  0.331601  0.406894  1
