# generated using pymatgen
data_TbCe2DyAl2(InRh2)2
_symmetry_space_group_name_H-M   'P 1'
_cell_length_a   4.06692900
_cell_length_b   7.50681890
_cell_length_c   16.45354803
_cell_angle_alpha   89.94349757
_cell_angle_beta   90.00000000
_cell_angle_gamma   90.00000000
_symmetry_Int_Tables_number   1
_chemical_formula_structural   TbCe2DyAl2(InRh2)2
_chemical_formula_sum   'Tb2 Ce4 Dy2 Al4 In4 Rh8'
_cell_volume   502.32163245
_cell_formula_units_Z   2
loop_
 _symmetry_equiv_pos_site_id
 _symmetry_equiv_pos_as_xyz
  1  'x, y, z'
loop_
 _atom_site_type_symbol
 _atom_site_label
 _atom_site_symmetry_multiplicity
 _atom_site_fract_x
 _atom_site_fract_y
 _atom_site_fract_z
 _atom_site_occupancy
  Tb  Tb0  1  0.250000  0.678478  0.941009  1
  Tb  Tb1  1  0.750000  0.321522  0.058991  1
  Ce  Ce2  1  0.250000  0.056603  0.785303  1
  Ce  Ce3  1  0.750000  0.943397  0.214697  1
  Ce  Ce4  1  0.250000  0.556721  0.713883  1
  Ce  Ce5  1  0.750000  0.443279  0.286117  1
  Dy  Dy6  1  0.250000  0.178180  0.558836  1
  Dy  Dy7  1  0.750000  0.821820  0.441164  1
  Al  Al8  1  0.250000  0.002344  0.061361  1
  Al  Al9  1  0.750000  0.997656  0.938639  1
  Al  Al10  1  0.250000  0.502483  0.438970  1
  Al  Al11  1  0.750000  0.497517  0.561030  1
  In  In12  1  0.250000  0.108571  0.352665  1
  In  In13  1  0.750000  0.891429  0.647335  1
  In  In14  1  0.250000  0.608732  0.148093  1
  In  In15  1  0.750000  0.391268  0.851907  1
  Rh  Rh16  1  0.750000  0.287973  0.435774  1
  Rh  Rh17  1  0.250000  0.712027  0.564226  1
  Rh  Rh18  1  0.750000  0.789545  0.065024  1
  Rh  Rh19  1  0.250000  0.210455  0.934976  1
  Rh  Rh20  1  0.750000  0.774199  0.816216  1
  Rh  Rh21  1  0.250000  0.225801  0.183784  1
  Rh  Rh22  1  0.750000  0.273452  0.683224  1
  Rh  Rh23  1  0.250000  0.726548  0.316776  1
