# generated using pymatgen
data_Tb8In4Pd5Au3
_symmetry_space_group_name_H-M   'P 1'
_cell_length_a   7.85766511
_cell_length_b   7.87189492
_cell_length_c   7.45563354
_cell_angle_alpha   89.93552584
_cell_angle_beta   89.99093806
_cell_angle_gamma   90.36476389
_symmetry_Int_Tables_number   1
_chemical_formula_structural   Tb8In4Pd5Au3
_chemical_formula_sum   'Tb8 In4 Pd5 Au3'
_cell_volume   461.15643720
_cell_formula_units_Z   1
loop_
 _symmetry_equiv_pos_site_id
 _symmetry_equiv_pos_as_xyz
  1  'x, y, z'
loop_
 _atom_site_type_symbol
 _atom_site_label
 _atom_site_symmetry_multiplicity
 _atom_site_fract_x
 _atom_site_fract_y
 _atom_site_fract_z
 _atom_site_occupancy
  Tb  Tb0  1  0.159249  0.173108  0.003384  1
  Tb  Tb1  1  0.823292  0.834049  0.000515  1
  Tb  Tb2  1  0.672796  0.331461  0.497164  1
  Tb  Tb3  1  0.342673  0.664316  0.497100  1
  Tb  Tb4  1  0.681865  0.323265  0.002617  1
  Tb  Tb5  1  0.331668  0.675397  0.002589  1
  Tb  Tb6  1  0.814213  0.824352  0.499389  1
  Tb  Tb7  1  0.171286  0.183475  0.497275  1
  In  In8  1  0.501308  0.004750  0.249044  1
  In  In9  1  0.503360  0.996947  0.749650  1
  In  In10  1  0.000686  0.498501  0.249958  1
  In  In11  1  0.994061  0.500163  0.749341  1
  Pd  Pd12  1  0.372906  0.369482  0.239351  1
  Pd  Pd13  1  0.630378  0.626916  0.760193  1
  Pd  Pd14  1  0.629676  0.624808  0.239648  1
  Pd  Pd15  1  0.871337  0.127491  0.739824  1
  Pd  Pd16  1  0.871334  0.126371  0.260635  1
  Au  Au17  1  0.376286  0.370878  0.761735  1
  Au  Au18  1  0.125355  0.871836  0.261410  1
  Au  Au19  1  0.126269  0.872434  0.739176  1
