# generated using pymatgen
data_RbTb3S5
_symmetry_space_group_name_H-M   'P 1'
_cell_length_a   4.02102900
_cell_length_b   11.91077300
_cell_length_c   21.42558500
_cell_angle_alpha   90.00000000
_cell_angle_beta   90.00000000
_cell_angle_gamma   90.00000000
_symmetry_Int_Tables_number   1
_chemical_formula_structural   RbTb3S5
_chemical_formula_sum   'Rb4 Tb12 S20'
_cell_volume   1026.14761884
_cell_formula_units_Z   4
loop_
 _symmetry_equiv_pos_site_id
 _symmetry_equiv_pos_as_xyz
  1  'x, y, z'
loop_
 _atom_site_type_symbol
 _atom_site_label
 _atom_site_symmetry_multiplicity
 _atom_site_fract_x
 _atom_site_fract_y
 _atom_site_fract_z
 _atom_site_occupancy
  Rb  Rb0  1  0.250000  0.653076  0.599367  1
  Rb  Rb1  1  0.250000  0.846924  0.099367  1
  Rb  Rb2  1  0.750000  0.346924  0.400633  1
  Rb  Rb3  1  0.750000  0.153076  0.900633  1
  Tb  Tb4  1  0.250000  0.962710  0.697628  1
  Tb  Tb5  1  0.250000  0.537290  0.197628  1
  Tb  Tb6  1  0.750000  0.037290  0.302372  1
  Tb  Tb7  1  0.750000  0.462710  0.802372  1
  Tb  Tb8  1  0.750000  0.804751  0.827838  1
  Tb  Tb9  1  0.750000  0.695249  0.327838  1
  Tb  Tb10  1  0.250000  0.195249  0.172162  1
  Tb  Tb11  1  0.250000  0.304751  0.672162  1
  Tb  Tb12  1  0.750000  0.113722  0.551022  1
  Tb  Tb13  1  0.750000  0.386278  0.051022  1
  Tb  Tb14  1  0.250000  0.886278  0.448978  1
  Tb  Tb15  1  0.250000  0.613722  0.948978  1
  S  S16  1  0.750000  0.812560  0.699967  1
  S  S17  1  0.750000  0.687440  0.199967  1
  S  S18  1  0.250000  0.187440  0.300033  1
  S  S19  1  0.250000  0.312560  0.800033  1
  S  S20  1  0.750000  0.132164  0.681135  1
  S  S21  1  0.750000  0.367836  0.181135  1
  S  S22  1  0.250000  0.867836  0.318865  1
  S  S23  1  0.250000  0.632164  0.818865  1
  S  S24  1  0.250000  0.956414  0.825576  1
  S  S25  1  0.250000  0.543586  0.325576  1
  S  S26  1  0.750000  0.043586  0.174424  1
  S  S27  1  0.750000  0.456414  0.674424  1
  S  S28  1  0.750000  0.768391  0.954797  1
  S  S29  1  0.750000  0.731609  0.454797  1
  S  S30  1  0.250000  0.231609  0.045203  1
  S  S31  1  0.250000  0.268391  0.545203  1
  S  S32  1  0.250000  0.953188  0.569373  1
  S  S33  1  0.250000  0.546812  0.069373  1
  S  S34  1  0.750000  0.046812  0.430627  1
  S  S35  1  0.750000  0.453188  0.930627  1
