# generated using pymatgen
data_Tb7DyHf11Si16Tc
_symmetry_space_group_name_H-M   'P 1'
_cell_length_a   7.25458759
_cell_length_b   7.25442619
_cell_length_c   13.28672815
_cell_angle_alpha   89.95171926
_cell_angle_beta   90.06295070
_cell_angle_gamma   90.05696543
_symmetry_Int_Tables_number   1
_chemical_formula_structural   Tb7DyHf11Si16Tc
_chemical_formula_sum   'Tb7 Dy1 Hf11 Si16 Tc1'
_cell_volume   699.25118949
_cell_formula_units_Z   1
loop_
 _symmetry_equiv_pos_site_id
 _symmetry_equiv_pos_as_xyz
  1  'x, y, z'
loop_
 _atom_site_type_symbol
 _atom_site_label
 _atom_site_symmetry_multiplicity
 _atom_site_fract_x
 _atom_site_fract_y
 _atom_site_fract_z
 _atom_site_occupancy
  Tb  Tb0  1  0.004413  0.655996  0.716998  1
  Tb  Tb1  1  0.156462  0.495247  0.465404  1
  Tb  Tb2  1  0.501184  0.845650  0.033647  1
  Tb  Tb3  1  0.845664  0.501130  0.966393  1
  Tb  Tb4  1  0.495263  0.156511  0.534541  1
  Tb  Tb5  1  0.342673  0.999004  0.787855  1
  Tb  Tb6  1  0.656074  0.004462  0.283005  1
  Dy  Dy7  1  0.999189  0.342783  0.212073  1
  Hf  Hf8  1  0.825243  0.825200  0.499981  1
  Hf  Hf9  1  0.324148  0.674544  0.248589  1
  Hf  Hf10  1  0.674664  0.324279  0.751399  1
  Hf  Hf11  1  0.148424  0.997173  0.373048  1
  Hf  Hf12  1  0.853279  0.004935  0.877632  1
  Hf  Hf13  1  0.503618  0.648123  0.625069  1
  Hf  Hf14  1  0.349913  0.493907  0.877221  1
  Hf  Hf15  1  0.493928  0.349925  0.122814  1
  Hf  Hf16  1  0.648197  0.503543  0.374887  1
  Hf  Hf17  1  0.997117  0.148521  0.626887  1
  Hf  Hf18  1  0.004905  0.853374  0.122406  1
  Si  Si19  1  0.361836  0.295114  0.315885  1
  Si  Si20  1  0.637027  0.705101  0.818065  1
  Si  Si21  1  0.205249  0.862451  0.567277  1
  Si  Si22  1  0.136633  0.795423  0.932494  1
  Si  Si23  1  0.795642  0.136862  0.067652  1
  Si  Si24  1  0.862457  0.205291  0.432665  1
  Si  Si25  1  0.295057  0.362083  0.684058  1
  Si  Si26  1  0.705248  0.636883  0.181936  1
  Si  Si27  1  0.293476  0.052707  0.181893  1
  Si  Si28  1  0.704265  0.951515  0.685879  1
  Si  Si29  1  0.450178  0.795914  0.435001  1
  Si  Si30  1  0.205124  0.547807  0.064578  1
  Si  Si31  1  0.548027  0.205306  0.935536  1
  Si  Si32  1  0.795914  0.450181  0.564987  1
  Si  Si33  1  0.052557  0.293624  0.818104  1
  Si  Si34  1  0.951576  0.704004  0.314044  1
  Tc  Tc35  1  0.175378  0.175428  0.000097  1
