# generated using pymatgen
data_Li2Cu3SbO8
_symmetry_space_group_name_H-M   'P 1'
_cell_length_a   5.97799668
_cell_length_b   6.16740257
_cell_length_c   10.36621335
_cell_angle_alpha   106.28291663
_cell_angle_beta   89.98406027
_cell_angle_gamma   61.01787736
_symmetry_Int_Tables_number   1
_chemical_formula_structural   Li2Cu3SbO8
_chemical_formula_sum   'Li4 Cu6 Sb2 O16'
_cell_volume   316.67191024
_cell_formula_units_Z   2
loop_
 _symmetry_equiv_pos_site_id
 _symmetry_equiv_pos_as_xyz
  1  'x, y, z'
loop_
 _atom_site_type_symbol
 _atom_site_label
 _atom_site_symmetry_multiplicity
 _atom_site_fract_x
 _atom_site_fract_y
 _atom_site_fract_z
 _atom_site_occupancy
  Li  Li0  1  0.304890  0.390196  0.565169  1
  Li  Li1  1  0.805122  0.389500  0.064820  1
  Li  Li2  1  0.195417  0.609315  0.934833  1
  Li  Li3  1  0.694719  0.610848  0.435147  1
  Cu  Cu4  1  0.249828  0.999867  0.749974  1
  Cu  Cu5  1  0.749835  0.000382  0.250090  1
  Cu  Cu6  1  0.000170  0.999701  0.499776  1
  Cu  Cu7  1  0.750241  0.999776  0.750047  1
  Cu  Cu8  1  0.250088  0.000044  0.249953  1
  Cu  Cu9  1  0.499814  0.000144  0.000104  1
  Sb  Sb10  1  0.749903  0.499973  0.749907  1
  Sb  Sb11  1  0.250038  0.500112  0.250046  1
  O  O12  1  0.072086  0.855808  0.642463  1
  O  O13  1  0.571968  0.856088  0.142577  1
  O  O14  1  0.428042  0.143931  0.857452  1
  O  O15  1  0.927982  0.144129  0.357517  1
  O  O16  1  0.942338  0.272826  0.864216  1
  O  O17  1  0.442410  0.272886  0.364322  1
  O  O18  1  0.595964  0.272350  0.675575  1
  O  O19  1  0.095666  0.272782  0.175622  1
  O  O20  1  0.052978  0.272141  0.596682  1
  O  O21  1  0.552685  0.272463  0.096604  1
  O  O22  1  0.447280  0.727631  0.903381  1
  O  O23  1  0.947156  0.727647  0.403320  1
  O  O24  1  0.904411  0.727168  0.824356  1
  O  O25  1  0.404114  0.727620  0.324425  1
  O  O26  1  0.557395  0.727372  0.635767  1
  O  O27  1  0.057459  0.727304  0.135856  1
