# generated using pymatgen
data_TbTh2(InPt)3
_symmetry_space_group_name_H-M   'P 1'
_cell_length_a   7.73237967
_cell_length_b   7.73237867
_cell_length_c   4.04165800
_cell_angle_alpha   90.00000000
_cell_angle_beta   90.00000000
_cell_angle_gamma   120.24497072
_symmetry_Int_Tables_number   1
_chemical_formula_structural   TbTh2(InPt)3
_chemical_formula_sum   'Tb1 Th2 In3 Pt3'
_cell_volume   208.75607629
_cell_formula_units_Z   1
loop_
 _symmetry_equiv_pos_site_id
 _symmetry_equiv_pos_as_xyz
  1  'x, y, z'
loop_
 _atom_site_type_symbol
 _atom_site_label
 _atom_site_symmetry_multiplicity
 _atom_site_fract_x
 _atom_site_fract_y
 _atom_site_fract_z
 _atom_site_occupancy
  Tb  Tb0  1  0.594257  0.594257  0.000000  1
  Th  Th1  1  0.408580  0.999607  0.000000  1
  Th  Th2  1  0.999607  0.408580  0.000000  1
  In  In3  1  0.261604  0.261604  0.500000  1
  In  In4  1  0.990547  0.745643  0.500000  1
  In  In5  1  0.745643  0.990547  0.500000  1
  Pt  Pt6  1  0.005919  0.005919  0.000000  1
  Pt  Pt7  1  0.667555  0.326288  0.500000  1
  Pt  Pt8  1  0.326288  0.667555  0.500000  1
