# generated using pymatgen
data_Er3TlIn3IrRh
_symmetry_space_group_name_H-M   'P 1'
_cell_length_a   7.83391100
_cell_length_b   7.83391167
_cell_length_c   3.82786600
_cell_angle_alpha   90.00000000
_cell_angle_beta   90.00000000
_cell_angle_gamma   119.99999295
_symmetry_Int_Tables_number   1
_chemical_formula_structural   Er3TlIn3IrRh
_chemical_formula_sum   'Er3 Tl1 In3 Ir1 Rh1'
_cell_volume   203.44390934
_cell_formula_units_Z   1
loop_
 _symmetry_equiv_pos_site_id
 _symmetry_equiv_pos_as_xyz
  1  'x, y, z'
loop_
 _atom_site_type_symbol
 _atom_site_label
 _atom_site_symmetry_multiplicity
 _atom_site_fract_x
 _atom_site_fract_y
 _atom_site_fract_z
 _atom_site_occupancy
  Er  Er0  1  0.964405  0.578857  0.500000  1
  Er  Er1  1  0.421143  0.385548  0.500000  1
  Er  Er2  1  0.614452  0.035595  0.500000  1
  Tl  Tl3  1  0.333333  0.666667  0.000000  1
  In  In4  1  0.256193  0.006812  0.000000  1
  In  In5  1  0.750619  0.743807  0.000000  1
  In  In6  1  0.993188  0.249381  0.000000  1
  Ir  Ir7  1  0.666667  0.333333  0.000000  1
  Rh  Rh8  1  0.000000  0.000000  0.500000  1
