# generated using pymatgen
data_Pr15Th(HgIr)4
_symmetry_space_group_name_H-M   'P 1'
_cell_length_a   10.02075914
_cell_length_b   10.02075846
_cell_length_c   10.02075929
_cell_angle_alpha   59.90783016
_cell_angle_beta   59.90783307
_cell_angle_gamma   59.90782922
_symmetry_Int_Tables_number   1
_chemical_formula_structural   Pr15Th(HgIr)4
_chemical_formula_sum   'Pr15 Th1 Hg4 Ir4'
_cell_volume   710.03184406
_cell_formula_units_Z   1
loop_
 _symmetry_equiv_pos_site_id
 _symmetry_equiv_pos_as_xyz
  1  'x, y, z'
loop_
 _atom_site_type_symbol
 _atom_site_label
 _atom_site_symmetry_multiplicity
 _atom_site_fract_x
 _atom_site_fract_y
 _atom_site_fract_z
 _atom_site_occupancy
  Pr  Pr0  1  0.350322  0.350322  0.949571  1
  Pr  Pr1  1  0.350322  0.949571  0.350322  1
  Pr  Pr2  1  0.949571  0.350322  0.350322  1
  Pr  Pr3  1  0.810133  0.190409  0.190409  1
  Pr  Pr4  1  0.189881  0.808304  0.808304  1
  Pr  Pr5  1  0.190409  0.810133  0.190409  1
  Pr  Pr6  1  0.808304  0.189881  0.808304  1
  Pr  Pr7  1  0.190409  0.190409  0.810133  1
  Pr  Pr8  1  0.808304  0.808304  0.189881  1
  Pr  Pr9  1  0.941684  0.561594  0.561594  1
  Pr  Pr10  1  0.559123  0.939628  0.939628  1
  Pr  Pr11  1  0.561594  0.941684  0.561594  1
  Pr  Pr12  1  0.939628  0.559123  0.939628  1
  Pr  Pr13  1  0.561594  0.561594  0.941684  1
  Pr  Pr14  1  0.939628  0.939628  0.559123  1
  Th  Th15  1  0.344729  0.344729  0.344729  1
  Hg  Hg16  1  0.583617  0.583617  0.583617  1
  Hg  Hg17  1  0.583138  0.583138  0.247691  1
  Hg  Hg18  1  0.583138  0.247691  0.583138  1
  Hg  Hg19  1  0.247691  0.583138  0.583138  1
  Ir  Ir20  1  0.142359  0.142359  0.142359  1
  Ir  Ir21  1  0.146905  0.146905  0.570609  1
  Ir  Ir22  1  0.146905  0.570609  0.146905  1
  Ir  Ir23  1  0.570609  0.146905  0.146905  1
