# generated using pymatgen
data_Er2FeCo8P6Os
_symmetry_space_group_name_H-M   'P 1'
_cell_length_a   3.67643900
_cell_length_b   10.28711400
_cell_length_c   11.74061700
_cell_angle_alpha   90.00000000
_cell_angle_beta   90.00000000
_cell_angle_gamma   90.00000000
_symmetry_Int_Tables_number   1
_chemical_formula_structural   Er2FeCo8P6Os
_chemical_formula_sum   'Er4 Fe2 Co16 P12 Os2'
_cell_volume   444.02951394
_cell_formula_units_Z   2
loop_
 _symmetry_equiv_pos_site_id
 _symmetry_equiv_pos_as_xyz
  1  'x, y, z'
loop_
 _atom_site_type_symbol
 _atom_site_label
 _atom_site_symmetry_multiplicity
 _atom_site_fract_x
 _atom_site_fract_y
 _atom_site_fract_z
 _atom_site_occupancy
  Er  Er0  1  0.250000  0.581358  0.701988  1
  Er  Er1  1  0.250000  0.918642  0.201988  1
  Er  Er2  1  0.750000  0.413165  0.294784  1
  Er  Er3  1  0.750000  0.086835  0.794784  1
  Fe  Fe4  1  0.750000  0.288908  0.012524  1
  Fe  Fe5  1  0.750000  0.211092  0.512524  1
  Co  Co6  1  0.250000  0.405223  0.486297  1
  Co  Co7  1  0.250000  0.094777  0.986297  1
  Co  Co8  1  0.750000  0.591573  0.510786  1
  Co  Co9  1  0.750000  0.908427  0.010786  1
  Co  Co10  1  0.250000  0.219950  0.177102  1
  Co  Co11  1  0.250000  0.280050  0.677102  1
  Co  Co12  1  0.750000  0.778342  0.822424  1
  Co  Co13  1  0.750000  0.721658  0.322424  1
  Co  Co14  1  0.250000  0.887991  0.701760  1
  Co  Co15  1  0.250000  0.612009  0.201760  1
  Co  Co16  1  0.750000  0.115243  0.301302  1
  Co  Co17  1  0.750000  0.384757  0.801302  1
  Co  Co18  1  0.250000  0.465850  0.933545  1
  Co  Co19  1  0.250000  0.034150  0.433545  1
  Co  Co20  1  0.750000  0.533956  0.068419  1
  Co  Co21  1  0.750000  0.966044  0.568419  1
  P  P22  1  0.250000  0.416073  0.113262  1
  P  P23  1  0.250000  0.083927  0.613262  1
  P  P24  1  0.750000  0.579404  0.885750  1
  P  P25  1  0.750000  0.920596  0.385750  1
  P  P26  1  0.250000  0.270405  0.867883  1
  P  P27  1  0.250000  0.229595  0.367883  1
  P  P28  1  0.750000  0.730854  0.133008  1
  P  P29  1  0.750000  0.769146  0.633008  1
  P  P30  1  0.250000  0.592698  0.389776  1
  P  P31  1  0.250000  0.907302  0.889776  1
  P  P32  1  0.750000  0.397416  0.608515  1
  P  P33  1  0.750000  0.102584  0.108515  1
  Os  Os34  1  0.250000  0.714543  0.990874  1
  Os  Os35  1  0.250000  0.785457  0.490874  1
