# generated using pymatgen
data_Ho19Mg(Ir2Pt)4
_symmetry_space_group_name_H-M   'P 1'
_cell_length_a   10.86607800
_cell_length_b   10.86607800
_cell_length_c   6.31437600
_cell_angle_alpha   90.00000000
_cell_angle_beta   90.00000000
_cell_angle_gamma   90.00000000
_symmetry_Int_Tables_number   1
_chemical_formula_structural   Ho19Mg(Ir2Pt)4
_chemical_formula_sum   'Ho19 Mg1 Ir8 Pt4'
_cell_volume   745.54880000
_cell_formula_units_Z   1
loop_
 _symmetry_equiv_pos_site_id
 _symmetry_equiv_pos_as_xyz
  1  'x, y, z'
loop_
 _atom_site_type_symbol
 _atom_site_label
 _atom_site_symmetry_multiplicity
 _atom_site_fract_x
 _atom_site_fract_y
 _atom_site_fract_z
 _atom_site_occupancy
  Ho  Ho0  1  0.288025  0.086149  0.375700  1
  Ho  Ho1  1  0.293824  0.909749  0.876240  1
  Ho  Ho2  1  0.706176  0.090251  0.876240  1
  Ho  Ho3  1  0.711975  0.913851  0.375700  1
  Ho  Ho4  1  0.587035  0.791033  0.880327  1
  Ho  Ho5  1  0.584731  0.208821  0.377991  1
  Ho  Ho6  1  0.415269  0.791179  0.377991  1
  Ho  Ho7  1  0.412965  0.208967  0.880327  1
  Ho  Ho8  1  0.208821  0.415269  0.622009  1
  Ho  Ho9  1  0.208967  0.587035  0.119673  1
  Ho  Ho10  1  0.791033  0.412965  0.119673  1
  Ho  Ho11  1  0.791179  0.584731  0.622009  1
  Ho  Ho12  1  0.909749  0.706176  0.123760  1
  Ho  Ho13  1  0.913851  0.288025  0.624300  1
  Ho  Ho14  1  0.086149  0.711975  0.624300  1
  Ho  Ho15  1  0.090251  0.293824  0.123760  1
  Ho  Ho16  1  0.000000  0.000000  0.000000  1
  Ho  Ho17  1  0.500000  0.500000  0.000000  1
  Ho  Ho18  1  0.500000  0.500000  0.500000  1
  Mg  Mg19  1  0.000000  0.000000  0.500000  1
  Ir  Ir20  1  0.655183  0.345151  0.748207  1
  Ir  Ir21  1  0.654849  0.655183  0.251793  1
  Ir  Ir22  1  0.345151  0.344817  0.251793  1
  Ir  Ir23  1  0.344817  0.654849  0.748207  1
  Ir  Ir24  1  0.500000  0.000000  0.125023  1
  Ir  Ir25  1  0.500000  0.000000  0.622624  1
  Ir  Ir26  1  0.000000  0.500000  0.874977  1
  Ir  Ir27  1  0.000000  0.500000  0.377376  1
  Pt  Pt28  1  0.848390  0.153112  0.249090  1
  Pt  Pt29  1  0.846888  0.848390  0.750910  1
  Pt  Pt30  1  0.153112  0.151610  0.750910  1
  Pt  Pt31  1  0.151610  0.846888  0.249090  1
