# generated using pymatgen
data_Ho2Er10InCo4Ru
_symmetry_space_group_name_H-M   'P 1'
_cell_length_a   8.21473049
_cell_length_b   8.21473035
_cell_length_c   8.21428429
_cell_angle_alpha   111.25276026
_cell_angle_beta   110.84518690
_cell_angle_gamma   106.36241081
_symmetry_Int_Tables_number   1
_chemical_formula_structural   Ho2Er10InCo4Ru
_chemical_formula_sum   'Ho2 Er10 In1 Co4 Ru1'
_cell_volume   425.75724833
_cell_formula_units_Z   1
loop_
 _symmetry_equiv_pos_site_id
 _symmetry_equiv_pos_as_xyz
  1  'x, y, z'
loop_
 _atom_site_type_symbol
 _atom_site_label
 _atom_site_symmetry_multiplicity
 _atom_site_fract_x
 _atom_site_fract_y
 _atom_site_fract_z
 _atom_site_occupancy
  Ho  Ho0  1  0.183932  0.283534  0.467466  1
  Ho  Ho1  1  0.816068  0.716466  0.532534  1
  Er  Er2  1  0.183957  0.716618  0.900575  1
  Er  Er3  1  0.816043  0.283382  0.099425  1
  Er  Er4  1  0.313957  0.619565  0.305342  1
  Er  Er5  1  0.686043  0.380435  0.694658  1
  Er  Er6  1  0.314223  0.008616  0.694658  1
  Er  Er7  1  0.685777  0.991384  0.305342  1
  Er  Er8  1  0.413266  0.219259  0.193685  1
  Er  Er9  1  0.586734  0.780741  0.806315  1
  Er  Er10  1  0.025574  0.219581  0.806315  1
  Er  Er11  1  0.974426  0.780419  0.193685  1
  In  In12  1  0.500000  0.500000  0.000000  1
  Co  Co13  1  0.112009  0.612009  0.500000  1
  Co  Co14  1  0.887991  0.387991  0.500000  1
  Co  Co15  1  0.375891  0.999907  0.375799  1
  Co  Co16  1  0.624109  0.000093  0.624201  1
  Ru  Ru17  1  0.000000  0.000000  0.000000  1
