# generated using pymatgen
data_Nd11In9(CuNi)2
_symmetry_space_group_name_H-M   'P 1'
_cell_length_a   13.40411143
_cell_length_b   13.39472345
_cell_length_c   3.76462500
_cell_angle_alpha   90.00000000
_cell_angle_beta   90.00000000
_cell_angle_gamma   111.22883755
_symmetry_Int_Tables_number   1
_chemical_formula_structural   Nd11In9(CuNi)2
_chemical_formula_sum   'Nd11 In9 Cu2 Ni2'
_cell_volume   630.05059724
_cell_formula_units_Z   1
loop_
 _symmetry_equiv_pos_site_id
 _symmetry_equiv_pos_as_xyz
  1  'x, y, z'
loop_
 _atom_site_type_symbol
 _atom_site_label
 _atom_site_symmetry_multiplicity
 _atom_site_fract_x
 _atom_site_fract_y
 _atom_site_fract_z
 _atom_site_occupancy
  Nd  Nd0  1  0.070986  0.417808  0.000000  1
  Nd  Nd1  1  0.928982  0.582135  0.000000  1
  Nd  Nd2  1  0.418982  0.075235  0.000000  1
  Nd  Nd3  1  0.580991  0.924757  0.000000  1
  Nd  Nd4  1  0.620807  0.368478  0.000000  1
  Nd  Nd5  1  0.379382  0.631662  0.000000  1
  Nd  Nd6  1  0.839416  0.159805  0.000000  1
  Nd  Nd7  1  0.160439  0.839985  0.000000  1
  Nd  Nd8  1  0.999904  0.999919  0.000000  1
  Nd  Nd9  1  0.314780  0.307694  0.000000  1
  Nd  Nd10  1  0.685255  0.692444  0.000000  1
  In  In11  1  0.837555  0.367977  0.500000  1
  In  In12  1  0.162587  0.631976  0.500000  1
  In  In13  1  0.367974  0.838245  0.500000  1
  In  In14  1  0.632049  0.161830  0.500000  1
  In  In15  1  0.078283  0.220808  0.500000  1
  In  In16  1  0.921643  0.779109  0.500000  1
  In  In17  1  0.220505  0.078039  0.500000  1
  In  In18  1  0.779348  0.921937  0.500000  1
  In  In19  1  0.499990  0.500045  0.500000  1
  Cu  Cu20  1  0.249487  0.450110  0.500000  1
  Cu  Cu21  1  0.750511  0.549933  0.500000  1
  Ni  Ni22  1  0.450010  0.248030  0.500000  1
  Ni  Ni23  1  0.550136  0.752039  0.500000  1
