# generated using pymatgen
data_Sc6Ti4Al12Co5OsRh
_symmetry_space_group_name_H-M   'P 1'
_cell_length_a   8.60636464
_cell_length_b   8.60637375
_cell_length_c   8.58137100
_cell_angle_alpha   60.09704177
_cell_angle_beta   60.09706834
_cell_angle_gamma   59.90280005
_symmetry_Int_Tables_number   1
_chemical_formula_structural   Sc6Ti4Al12Co5OsRh
_chemical_formula_sum   'Sc6 Ti4 Al12 Co5 Os1 Rh1'
_cell_volume   449.77591942
_cell_formula_units_Z   1
loop_
 _symmetry_equiv_pos_site_id
 _symmetry_equiv_pos_as_xyz
  1  'x, y, z'
loop_
 _atom_site_type_symbol
 _atom_site_label
 _atom_site_symmetry_multiplicity
 _atom_site_fract_x
 _atom_site_fract_y
 _atom_site_fract_z
 _atom_site_occupancy
  Sc  Sc0  1  0.700188  0.299720  0.293653  1
  Sc  Sc1  1  0.700192  0.299784  0.706396  1
  Sc  Sc2  1  0.706102  0.706102  0.293929  1
  Sc  Sc3  1  0.299784  0.700192  0.706395  1
  Sc  Sc4  1  0.299720  0.700188  0.293652  1
  Sc  Sc5  1  0.295461  0.295461  0.704509  1
  Ti  Ti6  1  0.645339  0.117086  0.118794  1
  Ti  Ti7  1  0.117086  0.645339  0.118794  1
  Ti  Ti8  1  0.119195  0.119196  0.646856  1
  Ti  Ti9  1  0.119190  0.119190  0.114745  1
  Al  Al10  1  0.357324  0.882668  0.879991  1
  Al  Al11  1  0.882668  0.357324  0.879991  1
  Al  Al12  1  0.880408  0.880407  0.356810  1
  Al  Al13  1  0.880422  0.880422  0.882370  1
  Al  Al14  1  0.997888  0.338652  0.331775  1
  Al  Al15  1  0.338652  0.997888  0.331774  1
  Al  Al16  1  0.328886  0.328886  0.002181  1
  Al  Al17  1  0.328869  0.328870  0.340091  1
  Al  Al18  1  0.002571  0.660637  0.668342  1
  Al  Al19  1  0.660637  0.002571  0.668343  1
  Al  Al20  1  0.671386  0.671386  0.997261  1
  Al  Al21  1  0.671427  0.671426  0.659900  1
  Co  Co22  1  0.000057  0.000057  0.999941  1
  Co  Co23  1  0.496572  0.002136  0.002313  1
  Co  Co24  1  0.496623  0.002093  0.499011  1
  Co  Co25  1  0.002093  0.496623  0.499011  1
  Co  Co26  1  0.002136  0.496572  0.002313  1
  Os  Os27  1  0.498648  0.498648  0.001338  1
  Rh  Rh28  1  0.000473  0.000473  0.499518  1
