# generated using pymatgen
data_Er5Sc3Ti3Si16Mo9
_symmetry_space_group_name_H-M   'P 1'
_cell_length_a   6.83934463
_cell_length_b   6.83803385
_cell_length_c   12.65552392
_cell_angle_alpha   89.97615707
_cell_angle_beta   90.06679995
_cell_angle_gamma   89.72002521
_symmetry_Int_Tables_number   1
_chemical_formula_structural   Er5Sc3Ti3Si16Mo9
_chemical_formula_sum   'Er5 Sc3 Ti3 Si16 Mo9'
_cell_volume   591.86184640
_cell_formula_units_Z   1
loop_
 _symmetry_equiv_pos_site_id
 _symmetry_equiv_pos_as_xyz
  1  'x, y, z'
loop_
 _atom_site_type_symbol
 _atom_site_label
 _atom_site_symmetry_multiplicity
 _atom_site_fract_x
 _atom_site_fract_y
 _atom_site_fract_z
 _atom_site_occupancy
  Er  Er0  1  0.837797  0.495224  0.280974  1
  Er  Er1  1  0.163265  0.500735  0.781103  1
  Er  Er2  1  0.659486  0.999791  0.969103  1
  Er  Er3  1  0.003753  0.337967  0.530842  1
  Er  Er4  1  0.999558  0.659420  0.031561  1
  Sc  Sc5  1  0.342308  0.998081  0.468404  1
  Sc  Sc6  1  0.500824  0.841701  0.718753  1
  Sc  Sc7  1  0.495229  0.159305  0.217687  1
  Ti  Ti8  1  0.170666  0.832083  0.249213  1
  Ti  Ti9  1  0.831097  0.169198  0.750322  1
  Ti  Ti10  1  0.668008  0.669962  0.499659  1
  Si  Si11  1  0.205143  0.125856  0.681248  1
  Si  Si12  1  0.373451  0.699324  0.932366  1
  Si  Si13  1  0.625653  0.294397  0.431815  1
  Si  Si14  1  0.694955  0.369881  0.068930  1
  Si  Si15  1  0.301661  0.637440  0.568368  1
  Si  Si16  1  0.793563  0.874191  0.184248  1
  Si  Si17  1  0.137845  0.198177  0.318874  1
  Si  Si18  1  0.867018  0.796693  0.815258  1
  Si  Si19  1  0.290592  0.965044  0.063308  1
  Si  Si20  1  0.537343  0.799325  0.314596  1
  Si  Si21  1  0.458597  0.205323  0.813696  1
  Si  Si22  1  0.789297  0.540881  0.685899  1
  Si  Si23  1  0.213290  0.455213  0.185856  1
  Si  Si24  1  0.701899  0.039204  0.564293  1
  Si  Si25  1  0.963350  0.288334  0.938036  1
  Si  Si26  1  0.043444  0.711518  0.436398  1
  Mo  Mo27  1  0.332472  0.330190  0.000541  1
  Mo  Mo28  1  0.156085  0.999455  0.872048  1
  Mo  Mo29  1  0.496633  0.667208  0.125028  1
  Mo  Mo30  1  0.502976  0.340869  0.623486  1
  Mo  Mo31  1  0.664567  0.495768  0.875180  1
  Mo  Mo32  1  0.342921  0.507283  0.375651  1
  Mo  Mo33  1  0.840577  0.996371  0.374294  1
  Mo  Mo34  1  0.002074  0.155778  0.128024  1
  Mo  Mo35  1  0.992606  0.842809  0.624937  1
