# generated using pymatgen
data_Lu8Si16Tc5W7
_symmetry_space_group_name_H-M   'P 1'
_cell_length_a   6.74601768
_cell_length_b   6.84118703
_cell_length_c   12.66101442
_cell_angle_alpha   89.84260386
_cell_angle_beta   90.00273333
_cell_angle_gamma   90.32395788
_symmetry_Int_Tables_number   1
_chemical_formula_structural   Lu8Si16Tc5W7
_chemical_formula_sum   'Lu8 Si16 Tc5 W7'
_cell_volume   584.30400174
_cell_formula_units_Z   1
loop_
 _symmetry_equiv_pos_site_id
 _symmetry_equiv_pos_as_xyz
  1  'x, y, z'
loop_
 _atom_site_type_symbol
 _atom_site_label
 _atom_site_symmetry_multiplicity
 _atom_site_fract_x
 _atom_site_fract_y
 _atom_site_fract_z
 _atom_site_occupancy
  Lu  Lu0  1  0.492351  0.334138  0.093463  1
  Lu  Lu1  1  0.994349  0.167183  0.406856  1
  Lu  Lu2  1  0.508408  0.666597  0.592328  1
  Lu  Lu3  1  0.007758  0.834501  0.906633  1
  Lu  Lu4  1  0.503493  0.668600  0.906315  1
  Lu  Lu5  1  0.003676  0.831601  0.593457  1
  Lu  Lu6  1  0.498108  0.331992  0.406572  1
  Lu  Lu7  1  0.995209  0.165793  0.095448  1
  Si  Si8  1  0.658993  0.042044  0.545339  1
  Si  Si9  1  0.157343  0.456327  0.953419  1
  Si  Si10  1  0.338336  0.957566  0.045628  1
  Si  Si11  1  0.846983  0.551302  0.449698  1
  Si  Si12  1  0.332814  0.953482  0.452330  1
  Si  Si13  1  0.836861  0.548237  0.047227  1
  Si  Si14  1  0.664538  0.046486  0.953316  1
  Si  Si15  1  0.164634  0.452708  0.546758  1
  Si  Si16  1  0.531135  0.367704  0.746273  1
  Si  Si17  1  0.031181  0.134442  0.752529  1
  Si  Si18  1  0.472269  0.633257  0.248920  1
  Si  Si19  1  0.965799  0.860154  0.259197  1
  Si  Si20  1  0.804961  0.637005  0.751587  1
  Si  Si21  1  0.304653  0.864123  0.747712  1
  Si  Si22  1  0.194715  0.361363  0.251084  1
  Si  Si23  1  0.692929  0.132940  0.249365  1
  Tc  Tc24  1  0.660825  0.848229  0.372081  1
  Tc  Tc25  1  0.191763  0.646118  0.377851  1
  Tc  Tc26  1  0.669760  0.846142  0.124967  1
  Tc  Tc27  1  0.820769  0.348211  0.878374  1
  Tc  Tc28  1  0.326363  0.152954  0.620765  1
  W  W29  1  0.829442  0.342085  0.626200  1
  W  W30  1  0.332646  0.158032  0.871746  1
  W  W31  1  0.171530  0.659006  0.128177  1
  W  W32  1  0.669959  0.997593  0.749544  1
  W  W33  1  0.168014  0.503869  0.749690  1
  W  W34  1  0.325955  0.002614  0.249418  1
  W  W35  1  0.831477  0.495600  0.249731  1
