# generated using pymatgen
data_Zr10Ga12Ir7
_symmetry_space_group_name_H-M   'P 1'
_cell_length_a   8.96443804
_cell_length_b   8.96435328
_cell_length_c   8.96439200
_cell_angle_alpha   59.99965590
_cell_angle_beta   60.00001203
_cell_angle_gamma   60.00575720
_symmetry_Int_Tables_number   1
_chemical_formula_structural   Zr10Ga12Ir7
_chemical_formula_sum   'Zr10 Ga12 Ir7'
_cell_volume   509.40790178
_cell_formula_units_Z   1
loop_
 _symmetry_equiv_pos_site_id
 _symmetry_equiv_pos_as_xyz
  1  'x, y, z'
loop_
 _atom_site_type_symbol
 _atom_site_label
 _atom_site_symmetry_multiplicity
 _atom_site_fract_x
 _atom_site_fract_y
 _atom_site_fract_z
 _atom_site_occupancy
  Zr  Zr0  1  0.689251  0.689237  0.310753  1
  Zr  Zr1  1  0.310765  0.689244  0.310762  1
  Zr  Zr2  1  0.689238  0.310777  0.310776  1
  Zr  Zr3  1  0.310770  0.310769  0.689218  1
  Zr  Zr4  1  0.689269  0.310756  0.689216  1
  Zr  Zr5  1  0.310773  0.689245  0.689207  1
  Zr  Zr6  1  0.878355  0.878342  0.365053  1
  Zr  Zr7  1  0.878343  0.365114  0.878265  1
  Zr  Zr8  1  0.365126  0.878325  0.878260  1
  Zr  Zr9  1  0.878366  0.878339  0.878232  1
  Ga  Ga10  1  0.121042  0.121053  0.636838  1
  Ga  Ga11  1  0.121054  0.636764  0.121097  1
  Ga  Ga12  1  0.636740  0.121069  0.121100  1
  Ga  Ga13  1  0.121047  0.121054  0.121085  1
  Ga  Ga14  1  0.655770  0.655771  0.032696  1
  Ga  Ga15  1  0.655800  0.032613  0.655796  1
  Ga  Ga16  1  0.032589  0.655807  0.655801  1
  Ga  Ga17  1  0.655776  0.655773  0.655767  1
  Ga  Ga18  1  0.341090  0.341082  0.976751  1
  Ga  Ga19  1  0.341107  0.976755  0.341063  1
  Ga  Ga20  1  0.976764  0.341098  0.341065  1
  Ga  Ga21  1  0.341088  0.341082  0.341060  1
  Ir  Ir22  1  0.999940  0.999967  0.000063  1
  Ir  Ir23  1  0.999537  0.999531  0.500476  1
  Ir  Ir24  1  0.500425  0.999553  0.500481  1
  Ir  Ir25  1  0.999552  0.500435  0.500478  1
  Ir  Ir26  1  0.500432  0.500445  0.999558  1
  Ir  Ir27  1  0.999559  0.500439  0.999536  1
  Ir  Ir28  1  0.500430  0.999559  0.999543  1
