# generated using pymatgen
data_Nd2HoMg3AgSn2
_symmetry_space_group_name_H-M   'P 1'
_cell_length_a   7.61332522
_cell_length_b   7.61332455
_cell_length_c   4.58842600
_cell_angle_alpha   90.00000000
_cell_angle_beta   90.00000000
_cell_angle_gamma   119.52745612
_symmetry_Int_Tables_number   1
_chemical_formula_structural   Nd2HoMg3AgSn2
_chemical_formula_sum   'Nd2 Ho1 Mg3 Ag1 Sn2'
_cell_volume   231.41495571
_cell_formula_units_Z   1
loop_
 _symmetry_equiv_pos_site_id
 _symmetry_equiv_pos_as_xyz
  1  'x, y, z'
loop_
 _atom_site_type_symbol
 _atom_site_label
 _atom_site_symmetry_multiplicity
 _atom_site_fract_x
 _atom_site_fract_y
 _atom_site_fract_z
 _atom_site_occupancy
  Nd  Nd0  1  0.584635  0.998451  0.000000  1
  Nd  Nd1  1  0.998451  0.584635  0.000000  1
  Ho  Ho2  1  0.413268  0.413268  0.000000  1
  Mg  Mg3  1  0.236889  0.000499  0.500000  1
  Mg  Mg4  1  0.000499  0.236889  0.500000  1
  Mg  Mg5  1  0.763085  0.763085  0.500000  1
  Ag  Ag6  1  0.006086  0.006086  0.000000  1
  Sn  Sn7  1  0.335194  0.661893  0.500000  1
  Sn  Sn8  1  0.661893  0.335194  0.500000  1
