# generated using pymatgen
data_Pr6TcP12Rh17
_symmetry_space_group_name_H-M   'P 1'
_cell_length_a   3.98893300
_cell_length_b   11.32794300
_cell_length_c   12.99346600
_cell_angle_alpha   90.00000000
_cell_angle_beta   90.00000000
_cell_angle_gamma   90.00000000
_symmetry_Int_Tables_number   1
_chemical_formula_structural   Pr6TcP12Rh17
_chemical_formula_sum   'Pr6 Tc1 P12 Rh17'
_cell_volume   587.12802554
_cell_formula_units_Z   1
loop_
 _symmetry_equiv_pos_site_id
 _symmetry_equiv_pos_as_xyz
  1  'x, y, z'
loop_
 _atom_site_type_symbol
 _atom_site_label
 _atom_site_symmetry_multiplicity
 _atom_site_fract_x
 _atom_site_fract_y
 _atom_site_fract_z
 _atom_site_occupancy
  Pr  Pr0  1  0.000000  0.500000  0.519645  1
  Pr  Pr1  1  0.500000  0.000000  0.481177  1
  Pr  Pr2  1  0.500000  0.815398  0.205450  1
  Pr  Pr3  1  0.500000  0.184602  0.205450  1
  Pr  Pr4  1  0.000000  0.683198  0.795944  1
  Pr  Pr5  1  0.000000  0.316802  0.795944  1
  Tc  Tc6  1  0.500000  0.500000  0.159755  1
  P  P7  1  0.500000  0.500000  0.881631  1
  P  P8  1  0.000000  0.000000  0.117076  1
  P  P9  1  0.500000  0.500000  0.341657  1
  P  P10  1  0.000000  0.000000  0.654797  1
  P  P11  1  0.500000  0.312348  0.616784  1
  P  P12  1  0.500000  0.687652  0.616784  1
  P  P13  1  0.000000  0.188668  0.382990  1
  P  P14  1  0.000000  0.811332  0.382990  1
  P  P15  1  0.500000  0.848323  0.892890  1
  P  P16  1  0.500000  0.151677  0.892890  1
  P  P17  1  0.000000  0.652322  0.108438  1
  P  P18  1  0.000000  0.347678  0.108438  1
  Rh  Rh19  1  0.000000  0.000000  0.834239  1
  Rh  Rh20  1  0.500000  0.500000  0.702363  1
  Rh  Rh21  1  0.000000  0.000000  0.296218  1
  Rh  Rh22  1  0.000000  0.500000  0.990594  1
  Rh  Rh23  1  0.500000  0.000000  0.016329  1
  Rh  Rh24  1  0.500000  0.333775  0.991728  1
  Rh  Rh25  1  0.500000  0.666225  0.991728  1
  Rh  Rh26  1  0.000000  0.167158  0.007705  1
  Rh  Rh27  1  0.000000  0.832842  0.007705  1
  Rh  Rh28  1  0.500000  0.293778  0.430608  1
  Rh  Rh29  1  0.500000  0.706222  0.430608  1
  Rh  Rh30  1  0.000000  0.206289  0.569358  1
  Rh  Rh31  1  0.000000  0.793711  0.569358  1
  Rh  Rh32  1  0.500000  0.875035  0.711476  1
  Rh  Rh33  1  0.500000  0.124965  0.711476  1
  Rh  Rh34  1  0.000000  0.622249  0.288890  1
  Rh  Rh35  1  0.000000  0.377751  0.288890  1
