# generated using pymatgen
data_Dy4Tm4B24RuW3
_symmetry_space_group_name_H-M   'P 1'
_cell_length_a   3.59720300
_cell_length_b   9.24231966
_cell_length_c   11.64856460
_cell_angle_alpha   89.89809634
_cell_angle_beta   90.00000000
_cell_angle_gamma   90.00000000
_symmetry_Int_Tables_number   1
_chemical_formula_structural   Dy4Tm4B24RuW3
_chemical_formula_sum   'Dy4 Tm4 B24 Ru1 W3'
_cell_volume   387.27339051
_cell_formula_units_Z   1
loop_
 _symmetry_equiv_pos_site_id
 _symmetry_equiv_pos_as_xyz
  1  'x, y, z'
loop_
 _atom_site_type_symbol
 _atom_site_label
 _atom_site_symmetry_multiplicity
 _atom_site_fract_x
 _atom_site_fract_y
 _atom_site_fract_z
 _atom_site_occupancy
  Dy  Dy0  1  0.000000  0.320231  0.414427  1
  Dy  Dy1  1  0.000000  0.678918  0.586500  1
  Dy  Dy2  1  0.000000  0.820841  0.085184  1
  Dy  Dy3  1  0.000000  0.178579  0.913215  1
  Tm  Tm4  1  0.000000  0.944268  0.373298  1
  Tm  Tm5  1  0.000000  0.054650  0.630272  1
  Tm  Tm6  1  0.000000  0.444609  0.126779  1
  Tm  Tm7  1  0.000000  0.559240  0.871023  1
  B  B8  1  0.500000  0.551358  0.434970  1
  B  B9  1  0.500000  0.448241  0.565798  1
  B  B10  1  0.500000  0.050221  0.063555  1
  B  B11  1  0.500000  0.944654  0.931273  1
  B  B12  1  0.500000  0.752313  0.421930  1
  B  B13  1  0.500000  0.246921  0.579718  1
  B  B14  1  0.500000  0.253320  0.077937  1
  B  B15  1  0.500000  0.751277  0.917533  1
  B  B16  1  0.500000  0.795514  0.264693  1
  B  B17  1  0.500000  0.203976  0.737119  1
  B  B18  1  0.500000  0.294737  0.234964  1
  B  B19  1  0.500000  0.709622  0.765758  1
  B  B20  1  0.500000  0.631730  0.182142  1
  B  B21  1  0.500000  0.369077  0.818274  1
  B  B22  1  0.500000  0.130237  0.316795  1
  B  B23  1  0.500000  0.868988  0.686080  1
  B  B24  1  0.500000  0.978338  0.212846  1
  B  B25  1  0.500000  0.015281  0.787717  1
  B  B26  1  0.500000  0.478820  0.286217  1
  B  B27  1  0.500000  0.522333  0.713291  1
  B  B28  1  0.500000  0.602840  0.026697  1
  B  B29  1  0.500000  0.401001  0.971489  1
  B  B30  1  0.500000  0.100343  0.473128  1
  B  B31  1  0.500000  0.898522  0.530011  1
  Ru  Ru32  1  0.000000  0.860503  0.820131  1
  W  W33  1  0.000000  0.639455  0.319774  1
  W  W34  1  0.000000  0.360489  0.680906  1
  W  W35  1  0.000000  0.138556  0.178555  1
