# generated using pymatgen
data_Er5Tm(Si3Pt2)4
_symmetry_space_group_name_H-M   'P 1'
_cell_length_a   4.23732200
_cell_length_b   8.54099689
_cell_length_c   12.90751100
_cell_angle_alpha   80.24650536
_cell_angle_beta   90.00000000
_cell_angle_gamma   90.00000000
_symmetry_Int_Tables_number   1
_chemical_formula_structural   Er5Tm(Si3Pt2)4
_chemical_formula_sum   'Er5 Tm1 Si12 Pt8'
_cell_volume   460.38303895
_cell_formula_units_Z   1
loop_
 _symmetry_equiv_pos_site_id
 _symmetry_equiv_pos_as_xyz
  1  'x, y, z'
loop_
 _atom_site_type_symbol
 _atom_site_label
 _atom_site_symmetry_multiplicity
 _atom_site_fract_x
 _atom_site_fract_y
 _atom_site_fract_z
 _atom_site_occupancy
  Er  Er0  1  0.250000  0.583763  0.186427  1
  Er  Er1  1  0.750000  0.233735  0.560598  1
  Er  Er2  1  0.750000  0.416335  0.813527  1
  Er  Er3  1  0.750000  0.926391  0.815779  1
  Er  Er4  1  0.250000  0.073526  0.184228  1
  Tm  Tm5  1  0.250000  0.766294  0.439291  1
  Si  Si6  1  0.750000  0.588966  0.571371  1
  Si  Si7  1  0.750000  0.126995  0.004562  1
  Si  Si8  1  0.750000  0.872576  0.573629  1
  Si  Si9  1  0.250000  0.696417  0.713634  1
  Si  Si10  1  0.750000  0.303563  0.286499  1
  Si  Si11  1  0.750000  0.805685  0.277286  1
  Si  Si12  1  0.250000  0.872979  0.995492  1
  Si  Si13  1  0.250000  0.194284  0.722833  1
  Si  Si14  1  0.250000  0.378560  0.001497  1
  Si  Si15  1  0.250000  0.127099  0.426177  1
  Si  Si16  1  0.750000  0.621444  0.998549  1
  Si  Si17  1  0.250000  0.411446  0.428415  1
  Pt  Pt18  1  0.750000  0.351747  0.099599  1
  Pt  Pt19  1  0.250000  0.971343  0.623948  1
  Pt  Pt20  1  0.750000  0.849220  0.089311  1
  Pt  Pt21  1  0.750000  0.028078  0.376041  1
  Pt  Pt22  1  0.250000  0.648253  0.900491  1
  Pt  Pt23  1  0.250000  0.150744  0.910813  1
  Pt  Pt24  1  0.750000  0.533781  0.376304  1
  Pt  Pt25  1  0.250000  0.466777  0.623698  1
