# generated using pymatgen
data_Lu2MnOs3
_symmetry_space_group_name_H-M   'P 1'
_cell_length_a   5.29637100
_cell_length_b   5.29637053
_cell_length_c   8.51987500
_cell_angle_alpha   90.00000000
_cell_angle_beta   90.00000000
_cell_angle_gamma   120.00000919
_symmetry_Int_Tables_number   1
_chemical_formula_structural   Lu2MnOs3
_chemical_formula_sum   'Lu4 Mn2 Os6'
_cell_volume   206.97627837
_cell_formula_units_Z   2
loop_
 _symmetry_equiv_pos_site_id
 _symmetry_equiv_pos_as_xyz
  1  'x, y, z'
loop_
 _atom_site_type_symbol
 _atom_site_label
 _atom_site_symmetry_multiplicity
 _atom_site_fract_x
 _atom_site_fract_y
 _atom_site_fract_z
 _atom_site_occupancy
  Lu  Lu0  1  0.666666  0.333333  0.065338  1
  Lu  Lu1  1  0.666666  0.333333  0.434662  1
  Lu  Lu2  1  0.333334  0.666668  0.565338  1
  Lu  Lu3  1  0.333334  0.666668  0.934662  1
  Mn  Mn4  1  0.000000  0.000000  0.000000  1
  Mn  Mn5  1  0.000000  0.000000  0.500000  1
  Os  Os6  1  0.169766  0.339533  0.249999  1
  Os  Os7  1  0.169767  0.830233  0.249999  1
  Os  Os8  1  0.660466  0.830233  0.249999  1
  Os  Os9  1  0.339534  0.169767  0.749999  1
  Os  Os10  1  0.830235  0.169767  0.749999  1
  Os  Os11  1  0.830233  0.660467  0.749999  1
