# generated using pymatgen
data_LiGd4Se5
_symmetry_space_group_name_H-M   'P 1'
_cell_length_a   7.31238287
_cell_length_b   7.31238336
_cell_length_c   10.34790900
_cell_angle_alpha   61.78890689
_cell_angle_beta   61.78890481
_cell_angle_gamma   33.61128456
_symmetry_Int_Tables_number   1
_chemical_formula_structural   LiGd4Se5
_chemical_formula_sum   'Li1 Gd4 Se5'
_cell_volume   266.33958794
_cell_formula_units_Z   1
loop_
 _symmetry_equiv_pos_site_id
 _symmetry_equiv_pos_as_xyz
  1  'x, y, z'
loop_
 _atom_site_type_symbol
 _atom_site_label
 _atom_site_symmetry_multiplicity
 _atom_site_fract_x
 _atom_site_fract_y
 _atom_site_fract_z
 _atom_site_occupancy
  Li  Li0  1  0.000000  0.000000  0.000000  1
  Gd  Gd1  1  0.598317  0.598317  0.599848  1
  Gd  Gd2  1  0.198703  0.198703  0.202320  1
  Gd  Gd3  1  0.801297  0.801297  0.797680  1
  Gd  Gd4  1  0.401683  0.401683  0.400152  1
  Se  Se5  1  0.196935  0.196935  0.701715  1
  Se  Se6  1  0.803065  0.803065  0.298285  1
  Se  Se7  1  0.398752  0.398752  0.901857  1
  Se  Se8  1  0.000000  0.000000  0.500000  1
  Se  Se9  1  0.601248  0.601248  0.098143  1
