# generated using pymatgen
data_NdEr3(ScIr)4
_symmetry_space_group_name_H-M   'P 1'
_cell_length_a   7.13591308
_cell_length_b   4.24670000
_cell_length_c   8.76362208
_cell_angle_alpha   90.00000000
_cell_angle_beta   89.06727251
_cell_angle_gamma   90.00000000
_symmetry_Int_Tables_number   1
_chemical_formula_structural   NdEr3(ScIr)4
_chemical_formula_sum   'Nd1 Er3 Sc4 Ir4'
_cell_volume   265.53833362
_cell_formula_units_Z   1
loop_
 _symmetry_equiv_pos_site_id
 _symmetry_equiv_pos_as_xyz
  1  'x, y, z'
loop_
 _atom_site_type_symbol
 _atom_site_label
 _atom_site_symmetry_multiplicity
 _atom_site_fract_x
 _atom_site_fract_y
 _atom_site_fract_z
 _atom_site_occupancy
  Nd  Nd0  1  0.510173  0.750000  0.676525  1
  Er  Er1  1  0.981159  0.250000  0.174023  1
  Er  Er2  1  0.481380  0.250000  0.324528  1
  Er  Er3  1  0.020696  0.750000  0.829090  1
  Sc  Sc4  1  0.857178  0.250000  0.563370  1
  Sc  Sc5  1  0.361530  0.250000  0.942031  1
  Sc  Sc6  1  0.139425  0.750000  0.430773  1
  Sc  Sc7  1  0.646557  0.750000  0.067397  1
  Ir  Ir8  1  0.746097  0.250000  0.896059  1
  Ir  Ir9  1  0.230510  0.250000  0.602441  1
  Ir  Ir10  1  0.262877  0.750000  0.108300  1
  Ir  Ir11  1  0.762419  0.750000  0.385463  1
