# generated using pymatgen
data_Ca2Cd2Ru3RhO14
_symmetry_space_group_name_H-M   'P 1'
_cell_length_a   7.23617398
_cell_length_b   7.17370520
_cell_length_c   7.23617356
_cell_angle_alpha   60.80263959
_cell_angle_beta   61.11103569
_cell_angle_gamma   60.80263663
_symmetry_Int_Tables_number   1
_chemical_formula_structural   Ca2Cd2Ru3RhO14
_chemical_formula_sum   'Ca2 Cd2 Ru3 Rh1 O14'
_cell_volume   271.02672970
_cell_formula_units_Z   1
loop_
 _symmetry_equiv_pos_site_id
 _symmetry_equiv_pos_as_xyz
  1  'x, y, z'
loop_
 _atom_site_type_symbol
 _atom_site_label
 _atom_site_symmetry_multiplicity
 _atom_site_fract_x
 _atom_site_fract_y
 _atom_site_fract_z
 _atom_site_occupancy
  Ca  Ca0  1  0.625000  0.625000  0.125000  1
  Ca  Ca1  1  0.125000  0.625000  0.625000  1
  Cd  Cd2  1  0.625000  0.125000  0.625000  1
  Cd  Cd3  1  0.625000  0.625000  0.625000  1
  Ru  Ru4  1  0.625000  0.125000  0.125000  1
  Ru  Ru5  1  0.125000  0.625000  0.125000  1
  Ru  Ru6  1  0.125000  0.125000  0.625000  1
  Rh  Rh7  1  0.125000  0.125000  0.125000  1
  O  O8  1  0.196575  0.200667  0.797997  1
  O  O9  1  0.202884  0.793898  0.202884  1
  O  O10  1  0.452003  0.049333  0.053425  1
  O  O11  1  0.195463  0.807955  0.809576  1
  O  O12  1  0.054537  0.442045  0.440424  1
  O  O13  1  0.809576  0.807955  0.195463  1
  O  O14  1  0.440424  0.442045  0.054537  1
  O  O15  1  0.510370  0.489660  0.510370  1
  O  O16  1  0.053425  0.049333  0.452003  1
  O  O17  1  0.437981  0.058673  0.437981  1
  O  O18  1  0.047116  0.456102  0.047116  1
  O  O19  1  0.739630  0.760340  0.739630  1
  O  O20  1  0.812019  0.191327  0.812019  1
  O  O21  1  0.797997  0.200667  0.196575  1
