# generated using pymatgen
data_Cs7Ta(SeO4)6
_symmetry_space_group_name_H-M   'P 1'
_cell_length_a   10.53890477
_cell_length_b   10.53890440
_cell_length_c   10.53890418
_cell_angle_alpha   109.70781672
_cell_angle_beta   109.70781805
_cell_angle_gamma   109.70781338
_symmetry_Int_Tables_number   1
_chemical_formula_structural   Cs7Ta(SeO4)6
_chemical_formula_sum   'Cs7 Ta1 Se6 O24'
_cell_volume   893.10200407
_cell_formula_units_Z   1
loop_
 _symmetry_equiv_pos_site_id
 _symmetry_equiv_pos_as_xyz
  1  'x, y, z'
loop_
 _atom_site_type_symbol
 _atom_site_label
 _atom_site_symmetry_multiplicity
 _atom_site_fract_x
 _atom_site_fract_y
 _atom_site_fract_z
 _atom_site_occupancy
  Cs  Cs0  1  0.500000  0.500000  0.500000  1
  Cs  Cs1  1  0.669670  0.167616  0.329640  1
  Cs  Cs2  1  0.329640  0.669670  0.167616  1
  Cs  Cs3  1  0.167616  0.329640  0.669670  1
  Cs  Cs4  1  0.330330  0.832384  0.670360  1
  Cs  Cs5  1  0.670360  0.330330  0.832384  1
  Cs  Cs6  1  0.832384  0.670360  0.330330  1
  Ta  Ta7  1  0.000000  0.000000  0.000000  1
  Se  Se8  1  0.241101  0.026859  0.360559  1
  Se  Se9  1  0.360559  0.241101  0.026859  1
  Se  Se10  1  0.026859  0.360559  0.241101  1
  Se  Se11  1  0.758899  0.973141  0.639441  1
  Se  Se12  1  0.639441  0.758899  0.973141  1
  Se  Se13  1  0.973141  0.639441  0.758899  1
  O  O14  1  0.102762  0.602052  0.853873  1
  O  O15  1  0.853873  0.102762  0.602052  1
  O  O16  1  0.602052  0.853873  0.102762  1
  O  O17  1  0.897238  0.397948  0.146127  1
  O  O18  1  0.146127  0.897238  0.397948  1
  O  O19  1  0.397948  0.146127  0.897238  1
  O  O20  1  0.014853  0.701630  0.645712  1
  O  O21  1  0.645712  0.014853  0.701630  1
  O  O22  1  0.701630  0.645712  0.014853  1
  O  O23  1  0.985147  0.298370  0.354288  1
  O  O24  1  0.354288  0.985147  0.298370  1
  O  O25  1  0.298370  0.354288  0.985147  1
  O  O26  1  0.021137  0.209736  0.096686  1
  O  O27  1  0.096686  0.021137  0.209736  1
  O  O28  1  0.510568  0.338075  0.208563  1
  O  O29  1  0.338075  0.208563  0.510568  1
  O  O30  1  0.208563  0.510568  0.338075  1
  O  O31  1  0.489432  0.661925  0.791437  1
  O  O32  1  0.661925  0.791437  0.489432  1
  O  O33  1  0.791437  0.489432  0.661925  1
  O  O34  1  0.790264  0.903314  0.978863  1
  O  O35  1  0.903314  0.978863  0.790264  1
  O  O36  1  0.978863  0.790264  0.903314  1
  O  O37  1  0.209736  0.096686  0.021137  1
