# generated using pymatgen
data_Dy2Ho2MoOs7
_symmetry_space_group_name_H-M   'P 1'
_cell_length_a   5.28675339
_cell_length_b   5.28670423
_cell_length_c   8.87572607
_cell_angle_alpha   89.98825302
_cell_angle_beta   90.01214177
_cell_angle_gamma   117.98250897
_symmetry_Int_Tables_number   1
_chemical_formula_structural   Dy2Ho2MoOs7
_chemical_formula_sum   'Dy2 Ho2 Mo1 Os7'
_cell_volume   219.07021745
_cell_formula_units_Z   1
loop_
 _symmetry_equiv_pos_site_id
 _symmetry_equiv_pos_as_xyz
  1  'x, y, z'
loop_
 _atom_site_type_symbol
 _atom_site_label
 _atom_site_symmetry_multiplicity
 _atom_site_fract_x
 _atom_site_fract_y
 _atom_site_fract_z
 _atom_site_occupancy
  Dy  Dy0  1  0.329734  0.670268  0.437879  1
  Dy  Dy1  1  0.666500  0.333497  0.566017  1
  Ho  Ho2  1  0.666674  0.333318  0.934048  1
  Ho  Ho3  1  0.329778  0.670228  0.062092  1
  Mo  Mo4  1  0.832681  0.167323  0.249621  1
  Os  Os5  1  0.993106  0.006925  0.501797  1
  Os  Os6  1  0.993265  0.006765  0.998173  1
  Os  Os7  1  0.826468  0.652848  0.249310  1
  Os  Os8  1  0.347146  0.173525  0.249311  1
  Os  Os9  1  0.178660  0.821311  0.750673  1
  Os  Os10  1  0.172749  0.336762  0.750540  1
  Os  Os11  1  0.663239  0.827231  0.750540  1
