# generated using pymatgen
data_Sc4Co14Si3(P3Ru2)3
_symmetry_space_group_name_H-M   'P 1'
_cell_length_a   3.67196400
_cell_length_b   10.37469200
_cell_length_c   11.79158100
_cell_angle_alpha   90.00256293
_cell_angle_beta   90.00000000
_cell_angle_gamma   90.00000000
_symmetry_Int_Tables_number   1
_chemical_formula_structural   Sc4Co14Si3(P3Ru2)3
_chemical_formula_sum   'Sc4 Co14 Si3 P9 Ru6'
_cell_volume   449.20612111
_cell_formula_units_Z   1
loop_
 _symmetry_equiv_pos_site_id
 _symmetry_equiv_pos_as_xyz
  1  'x, y, z'
loop_
 _atom_site_type_symbol
 _atom_site_label
 _atom_site_symmetry_multiplicity
 _atom_site_fract_x
 _atom_site_fract_y
 _atom_site_fract_z
 _atom_site_occupancy
  Sc  Sc0  1  0.250000  0.584401  0.704065  1
  Sc  Sc1  1  0.250000  0.913954  0.204217  1
  Sc  Sc2  1  0.750000  0.415315  0.293283  1
  Sc  Sc3  1  0.750000  0.081992  0.793868  1
  Co  Co4  1  0.750000  0.596121  0.516008  1
  Co  Co5  1  0.750000  0.902037  0.016907  1
  Co  Co6  1  0.250000  0.217468  0.181169  1
  Co  Co7  1  0.250000  0.284434  0.676904  1
  Co  Co8  1  0.750000  0.776720  0.822802  1
  Co  Co9  1  0.750000  0.723604  0.322787  1
  Co  Co10  1  0.250000  0.880169  0.700693  1
  Co  Co11  1  0.250000  0.619725  0.200898  1
  Co  Co12  1  0.750000  0.111936  0.298844  1
  Co  Co13  1  0.750000  0.390150  0.798029  1
  Co  Co14  1  0.250000  0.472066  0.929086  1
  Co  Co15  1  0.250000  0.032633  0.427761  1
  Co  Co16  1  0.750000  0.541513  0.066417  1
  Co  Co17  1  0.750000  0.958781  0.565890  1
  Si  Si18  1  0.250000  0.420035  0.114701  1
  Si  Si19  1  0.250000  0.080504  0.615520  1
  Si  Si20  1  0.250000  0.269096  0.866820  1
  P  P21  1  0.750000  0.579538  0.882973  1
  P  P22  1  0.750000  0.920707  0.383271  1
  P  P23  1  0.250000  0.230002  0.365180  1
  P  P24  1  0.750000  0.734036  0.135252  1
  P  P25  1  0.750000  0.765586  0.634798  1
  P  P26  1  0.250000  0.599112  0.384144  1
  P  P27  1  0.250000  0.900712  0.884523  1
  P  P28  1  0.750000  0.404257  0.613936  1
  P  P29  1  0.750000  0.095376  0.114169  1
  Ru  Ru30  1  0.250000  0.716582  0.990563  1
  Ru  Ru31  1  0.250000  0.783607  0.489906  1
  Ru  Ru32  1  0.750000  0.293081  0.015798  1
  Ru  Ru33  1  0.750000  0.208354  0.514404  1
  Ru  Ru34  1  0.250000  0.410246  0.484495  1
  Ru  Ru35  1  0.250000  0.086151  0.989922  1
