# generated using pymatgen
data_Tm10ZnBi2Au3
_symmetry_space_group_name_H-M   'P 1'
_cell_length_a   8.61310780
_cell_length_b   8.61310711
_cell_length_c   8.58764924
_cell_angle_alpha   124.13581631
_cell_angle_beta   124.13581486
_cell_angle_gamma   83.16584718
_symmetry_Int_Tables_number   1
_chemical_formula_structural   Tm10ZnBi2Au3
_chemical_formula_sum   'Tm10 Zn1 Bi2 Au3'
_cell_volume   418.24174858
_cell_formula_units_Z   1
loop_
 _symmetry_equiv_pos_site_id
 _symmetry_equiv_pos_as_xyz
  1  'x, y, z'
loop_
 _atom_site_type_symbol
 _atom_site_label
 _atom_site_symmetry_multiplicity
 _atom_site_fract_x
 _atom_site_fract_y
 _atom_site_fract_z
 _atom_site_occupancy
  Tm  Tm0  1  0.500478  0.499556  0.000034  1
  Tm  Tm1  1  0.999556  0.000478  0.000034  1
  Tm  Tm2  1  0.514103  0.014103  0.808400  1
  Tm  Tm3  1  0.206244  0.706244  0.192492  1
  Tm  Tm4  1  0.013956  0.205396  0.499458  1
  Tm  Tm5  1  0.705396  0.513956  0.499458  1
  Tm  Tm6  1  0.486247  0.986247  0.192492  1
  Tm  Tm7  1  0.794297  0.294297  0.808400  1
  Tm  Tm8  1  0.985502  0.794063  0.499458  1
  Tm  Tm9  1  0.294063  0.485502  0.499458  1
  Zn  Zn10  1  0.138283  0.638283  0.776566  1
  Bi  Bi11  1  0.249412  0.249412  0.998824  1
  Bi  Bi12  1  0.749412  0.749412  0.998824  1
  Au  Au13  1  0.864347  0.364347  0.228694  1
  Au  Au14  1  0.637580  0.861123  0.498704  1
  Au  Au15  1  0.361123  0.137580  0.498704  1
