# generated using pymatgen
data_Nd4Ga20AgPt10
_symmetry_space_group_name_H-M   'P 1'
_cell_length_a   4.31098652
_cell_length_b   11.04859941
_cell_length_c   13.72549646
_cell_angle_alpha   80.83168333
_cell_angle_beta   80.60832371
_cell_angle_gamma   78.49413324
_symmetry_Int_Tables_number   1
_chemical_formula_structural   Nd4Ga20AgPt10
_chemical_formula_sum   'Nd4 Ga20 Ag1 Pt10'
_cell_volume   626.56738907
_cell_formula_units_Z   1
loop_
 _symmetry_equiv_pos_site_id
 _symmetry_equiv_pos_as_xyz
  1  'x, y, z'
loop_
 _atom_site_type_symbol
 _atom_site_label
 _atom_site_symmetry_multiplicity
 _atom_site_fract_x
 _atom_site_fract_y
 _atom_site_fract_z
 _atom_site_occupancy
  Nd  Nd0  1  0.122509  0.089806  0.663811  1
  Nd  Nd1  1  0.877491  0.910194  0.336189  1
  Nd  Nd2  1  0.771562  0.631852  0.820685  1
  Nd  Nd3  1  0.228438  0.368148  0.179315  1
  Ga  Ga4  1  0.008251  0.073405  0.911835  1
  Ga  Ga5  1  0.991749  0.926595  0.088165  1
  Ga  Ga6  1  0.062206  0.676702  0.193958  1
  Ga  Ga7  1  0.937794  0.323298  0.806042  1
  Ga  Ga8  1  0.106864  0.335293  0.452904  1
  Ga  Ga9  1  0.893136  0.664707  0.547096  1
  Ga  Ga10  1  0.200514  0.603928  0.992330  1
  Ga  Ga11  1  0.799486  0.396072  0.007670  1
  Ga  Ga12  1  0.256566  0.784699  0.699459  1
  Ga  Ga13  1  0.743434  0.215301  0.300541  1
  Ga  Ga14  1  0.302904  0.896784  0.498481  1
  Ga  Ga15  1  0.697096  0.103216  0.501519  1
  Ga  Ga16  1  0.386313  0.521125  0.704860  1
  Ga  Ga17  1  0.613687  0.478875  0.295140  1
  Ga  Ga18  1  0.397601  0.200615  0.002861  1
  Ga  Ga19  1  0.602399  0.799385  0.997139  1
  Ga  Ga20  1  0.541496  0.283397  0.632500  1
  Ga  Ga21  1  0.458504  0.716603  0.367500  1
  Ga  Ga22  1  0.636055  0.936143  0.795130  1
  Ga  Ga23  1  0.363945  0.063857  0.204870  1
  Ag  Ag24  1  0.500000  0.500000  0.500000  1
  Pt  Pt25  1  0.028082  0.572584  0.373760  1
  Pt  Pt26  1  0.971918  0.427416  0.626240  1
  Pt  Pt27  1  0.139228  0.837701  0.888267  1
  Pt  Pt28  1  0.860772  0.162299  0.111733  1
  Pt  Pt29  1  0.241381  0.126470  0.391162  1
  Pt  Pt30  1  0.758619  0.873530  0.608838  1
  Pt  Pt31  1  0.346150  0.416940  0.893431  1
  Pt  Pt32  1  0.653850  0.583060  0.106569  1
  Pt  Pt33  1  0.505964  0.169902  0.818875  1
  Pt  Pt34  1  0.494036  0.830098  0.181125  1
