# generated using pymatgen
data_Tm2AlVB8
_symmetry_space_group_name_H-M   'P 1'
_cell_length_a   3.47549400
_cell_length_b   5.94211124
_cell_length_c   11.49377598
_cell_angle_alpha   90.34091914
_cell_angle_beta   90.00000000
_cell_angle_gamma   90.00000000
_symmetry_Int_Tables_number   1
_chemical_formula_structural   Tm2AlVB8
_chemical_formula_sum   'Tm4 Al2 V2 B16'
_cell_volume   237.36263855
_cell_formula_units_Z   2
loop_
 _symmetry_equiv_pos_site_id
 _symmetry_equiv_pos_as_xyz
  1  'x, y, z'
loop_
 _atom_site_type_symbol
 _atom_site_label
 _atom_site_symmetry_multiplicity
 _atom_site_fract_x
 _atom_site_fract_y
 _atom_site_fract_z
 _atom_site_occupancy
  Tm  Tm0  1  0.000000  0.626984  0.346328  1
  Tm  Tm1  1  0.000000  0.373016  0.653672  1
  Tm  Tm2  1  0.000000  0.125552  0.147449  1
  Tm  Tm3  1  0.000000  0.874448  0.852551  1
  Al  Al4  1  0.000000  0.137788  0.408673  1
  Al  Al5  1  0.000000  0.862212  0.591327  1
  V  V6  1  0.000000  0.626451  0.082190  1
  V  V7  1  0.000000  0.373549  0.917810  1
  B  B8  1  0.500000  0.789215  0.187041  1
  B  B9  1  0.500000  0.210785  0.812959  1
  B  B10  1  0.500000  0.289578  0.313508  1
  B  B11  1  0.500000  0.710422  0.686492  1
  B  B12  1  0.500000  0.865850  0.033080  1
  B  B13  1  0.500000  0.134150  0.966920  1
  B  B14  1  0.500000  0.366863  0.469901  1
  B  B15  1  0.500000  0.633137  0.530099  1
  B  B16  1  0.500000  0.886590  0.452260  1
  B  B17  1  0.500000  0.113410  0.547740  1
  B  B18  1  0.500000  0.385255  0.047269  1
  B  B19  1  0.500000  0.614745  0.952731  1
  B  B20  1  0.500000  0.974327  0.306959  1
  B  B21  1  0.500000  0.025673  0.693041  1
  B  B22  1  0.500000  0.477170  0.193399  1
  B  B23  1  0.500000  0.522830  0.806601  1
