# generated using pymatgen
data_Sm3AlCd2Pt3
_symmetry_space_group_name_H-M   'P 1'
_cell_length_a   7.61237700
_cell_length_b   7.61237654
_cell_length_c   3.97442300
_cell_angle_alpha   90.00000000
_cell_angle_beta   90.00000000
_cell_angle_gamma   120.21973367
_symmetry_Int_Tables_number   1
_chemical_formula_structural   Sm3AlCd2Pt3
_chemical_formula_sum   'Sm3 Al1 Cd2 Pt3'
_cell_volume   199.01206126
_cell_formula_units_Z   1
loop_
 _symmetry_equiv_pos_site_id
 _symmetry_equiv_pos_as_xyz
  1  'x, y, z'
loop_
 _atom_site_type_symbol
 _atom_site_label
 _atom_site_symmetry_multiplicity
 _atom_site_fract_x
 _atom_site_fract_y
 _atom_site_fract_z
 _atom_site_occupancy
  Sm  Sm0  1  0.416947  0.416947  0.000000  1
  Sm  Sm1  1  0.592094  0.000793  0.000000  1
  Sm  Sm2  1  0.000793  0.592094  0.000000  1
  Al  Al3  1  0.748433  0.748433  0.500000  1
  Cd  Cd4  1  0.251050  0.005527  0.500000  1
  Cd  Cd5  1  0.005527  0.251050  0.500000  1
  Pt  Pt6  1  0.674705  0.354664  0.500000  1
  Pt  Pt7  1  0.354664  0.674705  0.500000  1
  Pt  Pt8  1  0.955785  0.955785  0.000000  1
