# generated using pymatgen
data_Tb3Co(P3Ir4)2
_symmetry_space_group_name_H-M   'P 1'
_cell_length_a   3.94138400
_cell_length_b   11.10649900
_cell_length_c   12.78860900
_cell_angle_alpha   90.00000000
_cell_angle_beta   90.00000000
_cell_angle_gamma   90.00000000
_symmetry_Int_Tables_number   1
_chemical_formula_structural   Tb3Co(P3Ir4)2
_chemical_formula_sum   'Tb6 Co2 P12 Ir16'
_cell_volume   559.82107065
_cell_formula_units_Z   2
loop_
 _symmetry_equiv_pos_site_id
 _symmetry_equiv_pos_as_xyz
  1  'x, y, z'
loop_
 _atom_site_type_symbol
 _atom_site_label
 _atom_site_symmetry_multiplicity
 _atom_site_fract_x
 _atom_site_fract_y
 _atom_site_fract_z
 _atom_site_occupancy
  Tb  Tb0  1  0.000000  0.500000  0.522448  1
  Tb  Tb1  1  0.500000  0.000000  0.477552  1
  Tb  Tb2  1  0.500000  0.815885  0.200374  1
  Tb  Tb3  1  0.500000  0.184115  0.200374  1
  Tb  Tb4  1  0.000000  0.684115  0.799626  1
  Tb  Tb5  1  0.000000  0.315885  0.799626  1
  Co  Co6  1  0.000000  0.500000  0.978415  1
  Co  Co7  1  0.500000  0.000000  0.021585  1
  P  P8  1  0.500000  0.500000  0.880259  1
  P  P9  1  0.000000  0.000000  0.119741  1
  P  P10  1  0.500000  0.500000  0.358165  1
  P  P11  1  0.000000  0.000000  0.641835  1
  P  P12  1  0.500000  0.315027  0.619178  1
  P  P13  1  0.500000  0.684973  0.619178  1
  P  P14  1  0.000000  0.184973  0.380822  1
  P  P15  1  0.000000  0.815027  0.380822  1
  P  P16  1  0.500000  0.851572  0.896768  1
  P  P17  1  0.500000  0.148428  0.896768  1
  P  P18  1  0.000000  0.648428  0.103232  1
  P  P19  1  0.000000  0.351572  0.103232  1
  Ir  Ir20  1  0.500000  0.500000  0.178284  1
  Ir  Ir21  1  0.000000  0.000000  0.821716  1
  Ir  Ir22  1  0.500000  0.500000  0.701965  1
  Ir  Ir23  1  0.000000  0.000000  0.298035  1
  Ir  Ir24  1  0.500000  0.339325  0.997966  1
  Ir  Ir25  1  0.500000  0.660675  0.997966  1
  Ir  Ir26  1  0.000000  0.160675  0.002034  1
  Ir  Ir27  1  0.000000  0.839325  0.002034  1
  Ir  Ir28  1  0.500000  0.292706  0.429261  1
  Ir  Ir29  1  0.500000  0.707294  0.429261  1
  Ir  Ir30  1  0.000000  0.207294  0.570739  1
  Ir  Ir31  1  0.000000  0.792706  0.570739  1
  Ir  Ir32  1  0.500000  0.870717  0.714702  1
  Ir  Ir33  1  0.500000  0.129283  0.714702  1
  Ir  Ir34  1  0.000000  0.629283  0.285298  1
  Ir  Ir35  1  0.000000  0.370717  0.285298  1
