# generated using pymatgen
data_Dy8Cu3Si12Rh
_symmetry_space_group_name_H-M   'P 1'
_cell_length_a   8.04168200
_cell_length_b   8.04168245
_cell_length_c   8.12609600
_cell_angle_alpha   90.00000000
_cell_angle_beta   90.00000000
_cell_angle_gamma   119.99998992
_symmetry_Int_Tables_number   1
_chemical_formula_structural   Dy8Cu3Si12Rh
_chemical_formula_sum   'Dy8 Cu3 Si12 Rh1'
_cell_volume   455.09958520
_cell_formula_units_Z   1
loop_
 _symmetry_equiv_pos_site_id
 _symmetry_equiv_pos_as_xyz
  1  'x, y, z'
loop_
 _atom_site_type_symbol
 _atom_site_label
 _atom_site_symmetry_multiplicity
 _atom_site_fract_x
 _atom_site_fract_y
 _atom_site_fract_z
 _atom_site_occupancy
  Dy  Dy0  1  0.000000  0.000000  0.249974  1
  Dy  Dy1  1  0.000000  0.000000  0.749760  1
  Dy  Dy2  1  0.000343  0.500171  0.251735  1
  Dy  Dy3  1  0.499829  0.500171  0.251735  1
  Dy  Dy4  1  0.501597  0.003194  0.748219  1
  Dy  Dy5  1  0.499829  0.999657  0.251735  1
  Dy  Dy6  1  0.501597  0.498403  0.748219  1
  Dy  Dy7  1  0.996806  0.498403  0.748219  1
  Cu  Cu8  1  0.333333  0.666667  0.995875  1
  Cu  Cu9  1  0.333333  0.666667  0.503396  1
  Cu  Cu10  1  0.666667  0.333333  0.003977  1
  Si  Si11  1  0.169024  0.338047  0.999955  1
  Si  Si12  1  0.661953  0.830976  0.999955  1
  Si  Si13  1  0.167964  0.335927  0.500670  1
  Si  Si14  1  0.337819  0.168910  0.999952  1
  Si  Si15  1  0.169024  0.830976  0.999955  1
  Si  Si16  1  0.664073  0.832036  0.500670  1
  Si  Si17  1  0.831090  0.662181  0.999952  1
  Si  Si18  1  0.335581  0.167791  0.499080  1
  Si  Si19  1  0.167964  0.832036  0.500670  1
  Si  Si20  1  0.832209  0.664419  0.499080  1
  Si  Si21  1  0.831090  0.168910  0.999952  1
  Si  Si22  1  0.832209  0.167791  0.499080  1
  Rh  Rh23  1  0.666667  0.333333  0.498181  1
