# generated using pymatgen
data_Tb3Y9(AlAu5)4
_symmetry_space_group_name_H-M   'P 1'
_cell_length_a   8.51460913
_cell_length_b   8.51460934
_cell_length_c   13.50236000
_cell_angle_alpha   90.00000000
_cell_angle_beta   90.00000000
_cell_angle_gamma   128.47801974
_symmetry_Int_Tables_number   1
_chemical_formula_structural   Tb3Y9(AlAu5)4
_chemical_formula_sum   'Tb3 Y9 Al4 Au20'
_cell_volume   766.33025047
_cell_formula_units_Z   1
loop_
 _symmetry_equiv_pos_site_id
 _symmetry_equiv_pos_as_xyz
  1  'x, y, z'
loop_
 _atom_site_type_symbol
 _atom_site_label
 _atom_site_symmetry_multiplicity
 _atom_site_fract_x
 _atom_site_fract_y
 _atom_site_fract_z
 _atom_site_occupancy
  Tb  Tb0  1  0.072754  0.927246  0.750000  1
  Tb  Tb1  1  0.320667  0.679333  0.250000  1
  Tb  Tb2  1  0.679386  0.320614  0.750000  1
  Y  Y3  1  0.926917  0.073083  0.250000  1
  Y  Y4  1  0.630845  0.369155  0.464701  1
  Y  Y5  1  0.369155  0.630845  0.535256  1
  Y  Y6  1  0.630845  0.369155  0.035299  1
  Y  Y7  1  0.369155  0.630845  0.964744  1
  Y  Y8  1  0.881689  0.118311  0.951330  1
  Y  Y9  1  0.118295  0.881705  0.048912  1
  Y  Y10  1  0.881689  0.118311  0.548670  1
  Y  Y11  1  0.118295  0.881705  0.451088  1
  Al  Al12  1  0.720128  0.279872  0.250000  1
  Al  Al13  1  0.279910  0.720090  0.750000  1
  Al  Al14  1  0.532661  0.467339  0.250000  1
  Al  Al15  1  0.467331  0.532669  0.750000  1
  Au  Au16  1  0.323692  0.069736  0.250000  1
  Au  Au17  1  0.069733  0.323587  0.750000  1
  Au  Au18  1  0.676413  0.930267  0.750000  1
  Au  Au19  1  0.930264  0.676308  0.250000  1
  Au  Au20  1  0.570943  0.004236  0.396525  1
  Au  Au21  1  0.004319  0.570965  0.603442  1
  Au  Au22  1  0.570943  0.004236  0.103475  1
  Au  Au23  1  0.004319  0.570965  0.896558  1
  Au  Au24  1  0.429035  0.995681  0.603442  1
  Au  Au25  1  0.995764  0.429057  0.396525  1
  Au  Au26  1  0.429035  0.995681  0.896558  1
  Au  Au27  1  0.995764  0.429057  0.103475  1
  Au  Au28  1  0.685775  0.740848  0.394742  1
  Au  Au29  1  0.740923  0.685824  0.605276  1
  Au  Au30  1  0.685775  0.740848  0.105258  1
  Au  Au31  1  0.740923  0.685824  0.894724  1
  Au  Au32  1  0.314176  0.259077  0.605276  1
  Au  Au33  1  0.259152  0.314225  0.394742  1
  Au  Au34  1  0.314176  0.259077  0.894724  1
  Au  Au35  1  0.259152  0.314225  0.105258  1
