# generated using pymatgen
data_Tm17Hf2MgIr12
_symmetry_space_group_name_H-M   'P 1'
_cell_length_a   10.69840300
_cell_length_b   10.69840300
_cell_length_c   6.21757400
_cell_angle_alpha   90.00000000
_cell_angle_beta   90.00000000
_cell_angle_gamma   90.00000000
_symmetry_Int_Tables_number   1
_chemical_formula_structural   Tm17Hf2MgIr12
_chemical_formula_sum   'Tm17 Hf2 Mg1 Ir12'
_cell_volume   711.63757255
_cell_formula_units_Z   1
loop_
 _symmetry_equiv_pos_site_id
 _symmetry_equiv_pos_as_xyz
  1  'x, y, z'
loop_
 _atom_site_type_symbol
 _atom_site_label
 _atom_site_symmetry_multiplicity
 _atom_site_fract_x
 _atom_site_fract_y
 _atom_site_fract_z
 _atom_site_occupancy
  Tm  Tm0  1  0.285024  0.083439  0.376725  1
  Tm  Tm1  1  0.291795  0.912360  0.877302  1
  Tm  Tm2  1  0.708205  0.087640  0.877302  1
  Tm  Tm3  1  0.714976  0.916561  0.376725  1
  Tm  Tm4  1  0.587643  0.789805  0.876220  1
  Tm  Tm5  1  0.585599  0.210145  0.374700  1
  Tm  Tm6  1  0.414401  0.789855  0.374700  1
  Tm  Tm7  1  0.412357  0.210195  0.876220  1
  Tm  Tm8  1  0.210145  0.414401  0.625300  1
  Tm  Tm9  1  0.210195  0.587643  0.123780  1
  Tm  Tm10  1  0.789805  0.412357  0.123780  1
  Tm  Tm11  1  0.789855  0.585599  0.625300  1
  Tm  Tm12  1  0.912360  0.708205  0.122698  1
  Tm  Tm13  1  0.916561  0.285024  0.623275  1
  Tm  Tm14  1  0.083439  0.714976  0.623275  1
  Tm  Tm15  1  0.087640  0.291795  0.122698  1
  Tm  Tm16  1  0.000000  0.000000  0.000000  1
  Hf  Hf17  1  0.500000  0.500000  0.000000  1
  Hf  Hf18  1  0.500000  0.500000  0.500000  1
  Mg  Mg19  1  0.000000  0.000000  0.500000  1
  Ir  Ir20  1  0.844969  0.155924  0.246717  1
  Ir  Ir21  1  0.844076  0.844969  0.753283  1
  Ir  Ir22  1  0.155924  0.155031  0.753283  1
  Ir  Ir23  1  0.155031  0.844076  0.246717  1
  Ir  Ir24  1  0.644210  0.355680  0.748688  1
  Ir  Ir25  1  0.644320  0.644210  0.251312  1
  Ir  Ir26  1  0.355680  0.355790  0.251312  1
  Ir  Ir27  1  0.355790  0.644320  0.748688  1
  Ir  Ir28  1  0.500000  0.000000  0.125485  1
  Ir  Ir29  1  0.500000  0.000000  0.621734  1
  Ir  Ir30  1  0.000000  0.500000  0.874515  1
  Ir  Ir31  1  0.000000  0.500000  0.378266  1
