# generated using pymatgen
data_Nd5Sn2Ru
_symmetry_space_group_name_H-M   'P 1'
_cell_length_a   8.20110800
_cell_length_b   9.19865900
_cell_length_c   12.74769400
_cell_angle_alpha   90.00000000
_cell_angle_beta   90.00000000
_cell_angle_gamma   90.00000000
_symmetry_Int_Tables_number   1
_chemical_formula_structural   Nd5Sn2Ru
_chemical_formula_sum   'Nd20 Sn8 Ru4'
_cell_volume   961.67578512
_cell_formula_units_Z   4
loop_
 _symmetry_equiv_pos_site_id
 _symmetry_equiv_pos_as_xyz
  1  'x, y, z'
loop_
 _atom_site_type_symbol
 _atom_site_label
 _atom_site_symmetry_multiplicity
 _atom_site_fract_x
 _atom_site_fract_y
 _atom_site_fract_z
 _atom_site_occupancy
  Nd  Nd0  1  0.656287  0.750000  0.713386  1
  Nd  Nd1  1  0.343713  0.250000  0.286614  1
  Nd  Nd2  1  0.156287  0.250000  0.786614  1
  Nd  Nd3  1  0.843713  0.750000  0.213386  1
  Nd  Nd4  1  0.126625  0.750000  0.802487  1
  Nd  Nd5  1  0.873375  0.250000  0.197513  1
  Nd  Nd6  1  0.626625  0.250000  0.697513  1
  Nd  Nd7  1  0.373375  0.750000  0.302487  1
  Nd  Nd8  1  0.548372  0.750000  0.997613  1
  Nd  Nd9  1  0.451628  0.250000  0.002387  1
  Nd  Nd10  1  0.048372  0.250000  0.502387  1
  Nd  Nd11  1  0.951628  0.750000  0.497613  1
  Nd  Nd12  1  0.824575  0.466005  0.931217  1
  Nd  Nd13  1  0.175425  0.533995  0.068783  1
  Nd  Nd14  1  0.324575  0.533995  0.568783  1
  Nd  Nd15  1  0.175425  0.966005  0.068783  1
  Nd  Nd16  1  0.675425  0.466005  0.431217  1
  Nd  Nd17  1  0.824575  0.033995  0.931217  1
  Nd  Nd18  1  0.675425  0.033995  0.431217  1
  Nd  Nd19  1  0.324575  0.966005  0.568783  1
  Sn  Sn20  1  0.929784  0.004393  0.669430  1
  Sn  Sn21  1  0.070216  0.995607  0.330570  1
  Sn  Sn22  1  0.429784  0.995607  0.830570  1
  Sn  Sn23  1  0.070216  0.504393  0.330570  1
  Sn  Sn24  1  0.570216  0.004393  0.169430  1
  Sn  Sn25  1  0.929784  0.495607  0.669430  1
  Sn  Sn26  1  0.570216  0.495607  0.169430  1
  Sn  Sn27  1  0.429784  0.504393  0.830570  1
  Ru  Ru28  1  0.919864  0.750000  0.989318  1
  Ru  Ru29  1  0.080136  0.250000  0.010682  1
  Ru  Ru30  1  0.419864  0.250000  0.510682  1
  Ru  Ru31  1  0.580136  0.750000  0.489318  1
