# generated using pymatgen
data_Y3Th11TcOs5
_symmetry_space_group_name_H-M   'P 1'
_cell_length_a   9.89730196
_cell_length_b   9.95526897
_cell_length_c   6.39618076
_cell_angle_alpha   89.94643735
_cell_angle_beta   90.18297273
_cell_angle_gamma   120.07512418
_symmetry_Int_Tables_number   1
_chemical_formula_structural   Y3Th11TcOs5
_chemical_formula_sum   'Y3 Th11 Tc1 Os5'
_cell_volume   545.36790556
_cell_formula_units_Z   1
loop_
 _symmetry_equiv_pos_site_id
 _symmetry_equiv_pos_as_xyz
  1  'x, y, z'
loop_
 _atom_site_type_symbol
 _atom_site_label
 _atom_site_symmetry_multiplicity
 _atom_site_fract_x
 _atom_site_fract_y
 _atom_site_fract_z
 _atom_site_occupancy
  Y  Y0  1  0.460966  0.534959  0.296618  1
  Y  Y1  1  0.073476  0.535302  0.299640  1
  Y  Y2  1  0.926700  0.461741  0.797732  1
  Th  Th3  1  0.251786  0.127677  0.509710  1
  Th  Th4  1  0.540824  0.079832  0.797249  1
  Th  Th5  1  0.747464  0.870556  0.014189  1
  Th  Th6  1  0.668163  0.334788  0.272458  1
  Th  Th7  1  0.124113  0.868953  0.008930  1
  Th  Th8  1  0.461502  0.919120  0.297457  1
  Th  Th9  1  0.538681  0.466590  0.799148  1
  Th  Th10  1  0.874809  0.130094  0.511333  1
  Th  Th11  1  0.124821  0.252617  0.013721  1
  Th  Th12  1  0.874679  0.749696  0.510729  1
  Th  Th13  1  0.331761  0.664328  0.769312  1
  Tc  Tc14  1  0.811819  0.635293  0.045081  1
  Os  Os15  1  0.811913  0.180520  0.048093  1
  Os  Os16  1  0.629700  0.815102  0.547621  1
  Os  Os17  1  0.371529  0.186350  0.043374  1
  Os  Os18  1  0.186006  0.367968  0.556415  1
  Os  Os19  1  0.189289  0.818514  0.545186  1
