# generated using pymatgen
data_TcP2OsO10
_symmetry_space_group_name_H-M   'P 1'
_cell_length_a   5.26091400
_cell_length_b   6.59786540
_cell_length_c   11.26589396
_cell_angle_alpha   89.59516655
_cell_angle_beta   90.00000000
_cell_angle_gamma   90.00000000
_symmetry_Int_Tables_number   1
_chemical_formula_structural   TcP2OsO10
_chemical_formula_sum   'Tc2 P4 Os2 O20'
_cell_volume   391.03845864
_cell_formula_units_Z   2
loop_
 _symmetry_equiv_pos_site_id
 _symmetry_equiv_pos_as_xyz
  1  'x, y, z'
loop_
 _atom_site_type_symbol
 _atom_site_label
 _atom_site_symmetry_multiplicity
 _atom_site_fract_x
 _atom_site_fract_y
 _atom_site_fract_z
 _atom_site_occupancy
  Tc  Tc0  1  0.250000  0.166718  0.944022  1
  Tc  Tc1  1  0.750000  0.833282  0.055978  1
  P  P2  1  0.250000  0.969189  0.656807  1
  P  P3  1  0.750000  0.030811  0.343193  1
  P  P4  1  0.750000  0.475489  0.844667  1
  P  P5  1  0.250000  0.524511  0.155333  1
  Os  Os6  1  0.750000  0.663005  0.560107  1
  Os  Os7  1  0.250000  0.336995  0.439893  1
  O  O8  1  0.250000  0.012120  0.788412  1
  O  O9  1  0.750000  0.987880  0.211588  1
  O  O10  1  0.750000  0.499124  0.708307  1
  O  O11  1  0.250000  0.500876  0.291693  1
  O  O12  1  0.509307  0.154585  0.373497  1
  O  O13  1  0.009307  0.845415  0.626503  1
  O  O14  1  0.490725  0.642315  0.121231  1
  O  O15  1  0.990725  0.357685  0.878769  1
  O  O16  1  0.000000  0.000000  0.000000  1
  O  O17  1  0.500000  0.000000  0.000000  1
  O  O18  1  0.000000  0.500000  0.500000  1
  O  O19  1  0.500000  0.500000  0.500000  1
  O  O20  1  0.250000  0.313180  0.099127  1
  O  O21  1  0.750000  0.686820  0.900873  1
  O  O22  1  0.750000  0.828463  0.411757  1
  O  O23  1  0.250000  0.171537  0.588243  1
  O  O24  1  0.009275  0.642315  0.121231  1
  O  O25  1  0.509275  0.357685  0.878769  1
  O  O26  1  0.990693  0.154585  0.373497  1
  O  O27  1  0.490693  0.845415  0.626503  1
