# generated using pymatgen
data_LaYErRh9
_symmetry_space_group_name_H-M   'P 1'
_cell_length_a   5.31039900
_cell_length_b   5.31039837
_cell_length_c   17.53036300
_cell_angle_alpha   90.00000000
_cell_angle_beta   90.00000000
_cell_angle_gamma   119.99999769
_symmetry_Int_Tables_number   1
_chemical_formula_structural   LaYErRh9
_chemical_formula_sum   'La2 Y2 Er2 Rh18'
_cell_volume   428.13014305
_cell_formula_units_Z   2
loop_
 _symmetry_equiv_pos_site_id
 _symmetry_equiv_pos_as_xyz
  1  'x, y, z'
loop_
 _atom_site_type_symbol
 _atom_site_label
 _atom_site_symmetry_multiplicity
 _atom_site_fract_x
 _atom_site_fract_y
 _atom_site_fract_z
 _atom_site_occupancy
  La  La0  1  0.333333  0.666667  0.750228  1
  La  La1  1  0.666667  0.333333  0.250228  1
  Y  Y2  1  0.333333  0.666667  0.540835  1
  Y  Y3  1  0.666667  0.333333  0.040835  1
  Er  Er4  1  0.666667  0.333333  0.458545  1
  Er  Er5  1  0.333333  0.666667  0.958545  1
  Rh  Rh6  1  0.167554  0.335108  0.124175  1
  Rh  Rh7  1  0.832446  0.664892  0.624175  1
  Rh  Rh8  1  0.664892  0.832446  0.124175  1
  Rh  Rh9  1  0.167554  0.832446  0.124175  1
  Rh  Rh10  1  0.832446  0.167554  0.624175  1
  Rh  Rh11  1  0.335108  0.167554  0.624175  1
  Rh  Rh12  1  0.832465  0.664930  0.876033  1
  Rh  Rh13  1  0.832465  0.167535  0.876033  1
  Rh  Rh14  1  0.335070  0.167535  0.876033  1
  Rh  Rh15  1  0.664930  0.832465  0.376033  1
  Rh  Rh16  1  0.167535  0.832465  0.376033  1
  Rh  Rh17  1  0.167535  0.335070  0.376033  1
  Rh  Rh18  1  0.000000  0.000000  0.249872  1
  Rh  Rh19  1  0.000000  0.000000  0.749872  1
  Rh  Rh20  1  0.333333  0.666667  0.250023  1
  Rh  Rh21  1  0.666667  0.333333  0.750023  1
  Rh  Rh22  1  0.000000  0.000000  0.999874  1
  Rh  Rh23  1  0.000000  0.000000  0.499874  1
