# generated using pymatgen
data_Pr2Nd2P7Ir8
_symmetry_space_group_name_H-M   'P 1'
_cell_length_a   3.99421700
_cell_length_b   12.87447651
_cell_length_c   13.27337705
_cell_angle_alpha   80.82047060
_cell_angle_beta   90.00000000
_cell_angle_gamma   90.00000000
_symmetry_Int_Tables_number   1
_chemical_formula_structural   Pr2Nd2P7Ir8
_chemical_formula_sum   'Pr4 Nd4 P14 Ir16'
_cell_volume   673.82151908
_cell_formula_units_Z   2
loop_
 _symmetry_equiv_pos_site_id
 _symmetry_equiv_pos_as_xyz
  1  'x, y, z'
loop_
 _atom_site_type_symbol
 _atom_site_label
 _atom_site_symmetry_multiplicity
 _atom_site_fract_x
 _atom_site_fract_y
 _atom_site_fract_z
 _atom_site_occupancy
  Pr  Pr0  1  0.750000  0.719822  0.896926  1
  Pr  Pr1  1  0.250000  0.103601  0.789351  1
  Pr  Pr2  1  0.750000  0.896399  0.210649  1
  Pr  Pr3  1  0.250000  0.280178  0.103074  1
  Nd  Nd4  1  0.750000  0.790570  0.561036  1
  Nd  Nd5  1  0.250000  0.209430  0.438964  1
  Nd  Nd6  1  0.750000  0.481461  0.706297  1
  Nd  Nd7  1  0.250000  0.518539  0.293703  1
  P  P8  1  0.250000  0.908907  0.409926  1
  P  P9  1  0.750000  0.473633  0.127947  1
  P  P10  1  0.250000  0.526367  0.872053  1
  P  P11  1  0.750000  0.091093  0.590074  1
  P  P12  1  0.250000  0.741597  0.081283  1
  P  P13  1  0.750000  0.258403  0.918717  1
  P  P14  1  0.750000  0.156247  0.281920  1
  P  P15  1  0.250000  0.843753  0.718080  1
  P  P16  1  0.250000  0.052347  0.098543  1
  P  P17  1  0.750000  0.947653  0.901457  1
  P  P18  1  0.250000  0.313911  0.688554  1
  P  P19  1  0.750000  0.686089  0.311446  1
  P  P20  1  0.250000  0.607162  0.562978  1
  P  P21  1  0.750000  0.392838  0.437022  1
  Ir  Ir22  1  0.250000  0.989362  0.576706  1
  Ir  Ir23  1  0.750000  0.010638  0.423294  1
  Ir  Ir24  1  0.250000  0.662502  0.730514  1
  Ir  Ir25  1  0.750000  0.337498  0.269486  1
  Ir  Ir26  1  0.250000  0.551999  0.047165  1
  Ir  Ir27  1  0.750000  0.448001  0.952835  1
  Ir  Ir28  1  0.250000  0.062236  0.272110  1
  Ir  Ir29  1  0.750000  0.937764  0.727890  1
  Ir  Ir30  1  0.250000  0.423045  0.527063  1
  Ir  Ir31  1  0.750000  0.576955  0.472937  1
  Ir  Ir32  1  0.250000  0.915016  0.998169  1
  Ir  Ir33  1  0.750000  0.084984  0.001831  1
  Ir  Ir34  1  0.250000  0.729192  0.393991  1
  Ir  Ir35  1  0.750000  0.270808  0.606009  1
  Ir  Ir36  1  0.250000  0.341895  0.858723  1
  Ir  Ir37  1  0.750000  0.658105  0.141277  1
