# generated using pymatgen
data_DyEr9(Al2Ru3)2
_symmetry_space_group_name_H-M   'P 1'
_cell_length_a   8.29098068
_cell_length_b   8.29098148
_cell_length_c   8.28214593
_cell_angle_alpha   109.27068008
_cell_angle_beta   109.55452705
_cell_angle_gamma   109.63173847
_symmetry_Int_Tables_number   1
_chemical_formula_structural   DyEr9(Al2Ru3)2
_chemical_formula_sum   'Dy1 Er9 Al4 Ru6'
_cell_volume   438.02312968
_cell_formula_units_Z   1
loop_
 _symmetry_equiv_pos_site_id
 _symmetry_equiv_pos_as_xyz
  1  'x, y, z'
loop_
 _atom_site_type_symbol
 _atom_site_label
 _atom_site_symmetry_multiplicity
 _atom_site_fract_x
 _atom_site_fract_y
 _atom_site_fract_z
 _atom_site_occupancy
  Dy  Dy0  1  0.181545  0.931545  0.250000  1
  Er  Er1  1  0.785456  0.786958  0.785549  1
  Er  Er2  1  0.318031  0.568031  0.750000  1
  Er  Er3  1  0.751856  0.321766  0.571198  1
  Er  Er4  1  0.569133  0.748890  0.318655  1
  Er  Er5  1  0.712856  0.499048  0.998252  1
  Er  Er6  1  0.000796  0.714603  0.501748  1
  Er  Er7  1  0.501409  0.999907  0.714451  1
  Er  Er8  1  0.250567  0.180658  0.928802  1
  Er  Er9  1  0.930235  0.250478  0.181345  1
  Al  Al10  1  0.411113  0.410955  0.409655  1
  Al  Al11  1  0.091173  0.499420  0.002863  1
  Al  Al12  1  0.996558  0.088311  0.497137  1
  Al  Al13  1  0.501299  0.001458  0.090345  1
  Ru  Ru14  1  0.876819  0.126819  0.750000  1
  Ru  Ru15  1  0.746560  0.873980  0.122679  1
  Ru  Ru16  1  0.127040  0.750169  0.878607  1
  Ru  Ru17  1  0.251301  0.623882  0.377321  1
  Ru  Ru18  1  0.371563  0.248434  0.621393  1
  Ru  Ru19  1  0.624688  0.374688  0.250000  1
