# generated using pymatgen
data_Li4Tb(Ni2P3)2
_symmetry_space_group_name_H-M   'P 1'
_cell_length_a   7.70575032
_cell_length_b   7.70575230
_cell_length_c   7.70575100
_cell_angle_alpha   151.36954980
_cell_angle_beta   113.09387391
_cell_angle_gamma   74.33767406
_symmetry_Int_Tables_number   1
_chemical_formula_structural   Li4Tb(Ni2P3)2
_chemical_formula_sum   'Li4 Tb1 Ni4 P6'
_cell_volume   198.78583757
_cell_formula_units_Z   1
loop_
 _symmetry_equiv_pos_site_id
 _symmetry_equiv_pos_as_xyz
  1  'x, y, z'
loop_
 _atom_site_type_symbol
 _atom_site_label
 _atom_site_symmetry_multiplicity
 _atom_site_fract_x
 _atom_site_fract_y
 _atom_site_fract_z
 _atom_site_occupancy
  Li  Li0  1  0.718911  0.718911  0.000000  1
  Li  Li1  1  0.673135  0.500000  0.173135  1
  Li  Li2  1  0.326865  0.500000  0.826865  1
  Li  Li3  1  0.281089  0.281089  0.000000  1
  Tb  Tb4  1  0.000000  0.000000  0.000000  1
  Ni  Ni5  1  0.905728  0.173167  0.732563  1
  Ni  Ni6  1  0.559396  0.826833  0.732563  1
  Ni  Ni7  1  0.440604  0.173167  0.267437  1
  Ni  Ni8  1  0.094272  0.826833  0.267437  1
  P  P9  1  0.978398  0.345616  0.632783  1
  P  P10  1  0.712831  0.345616  0.367217  1
  P  P11  1  0.587189  0.087189  0.500000  1
  P  P12  1  0.412811  0.912811  0.500000  1
  P  P13  1  0.287169  0.654384  0.632783  1
  P  P14  1  0.021602  0.654384  0.367217  1
