# generated using pymatgen
data_Sr3Ca2CeBiSbO12
_symmetry_space_group_name_H-M   'P 1'
_cell_length_a   5.82629961
_cell_length_b   5.98499548
_cell_length_c   8.28761900
_cell_angle_alpha   89.92113565
_cell_angle_beta   89.85914760
_cell_angle_gamma   89.94424322
_symmetry_Int_Tables_number   1
_chemical_formula_structural   Sr3Ca2CeBiSbO12
_chemical_formula_sum   'Sr3 Ca2 Ce1 Bi1 Sb1 O12'
_cell_volume   288.99111462
_cell_formula_units_Z   1
loop_
 _symmetry_equiv_pos_site_id
 _symmetry_equiv_pos_as_xyz
  1  'x, y, z'
loop_
 _atom_site_type_symbol
 _atom_site_label
 _atom_site_symmetry_multiplicity
 _atom_site_fract_x
 _atom_site_fract_y
 _atom_site_fract_z
 _atom_site_occupancy
  Sr  Sr0  1  0.510354  0.957750  0.232948  1
  Sr  Sr1  1  0.484637  0.046043  0.765717  1
  Sr  Sr2  1  0.011232  0.544620  0.769619  1
  Ca  Ca3  1  0.998743  0.997388  0.001265  1
  Ca  Ca4  1  0.988364  0.445861  0.222129  1
  Ce  Ce5  1  0.500285  0.499565  0.497433  1
  Bi  Bi6  1  0.000680  0.998598  0.497362  1
  Sb  Sb7  1  0.499001  0.500624  0.003055  1
  O  O8  1  0.896895  0.955278  0.735922  1
  O  O9  1  0.817231  0.697931  0.428297  1
  O  O10  1  0.777296  0.685274  0.048781  1
  O  O11  1  0.702836  0.198187  0.446483  1
  O  O12  1  0.692637  0.232012  0.048685  1
  O  O13  1  0.586623  0.473472  0.762682  1
  O  O14  1  0.391784  0.531320  0.239248  1
  O  O15  1  0.313985  0.774270  0.956621  1
  O  O16  1  0.300839  0.802835  0.550621  1
  O  O17  1  0.225335  0.308261  0.964185  1
  O  O18  1  0.199533  0.287965  0.567124  1
  O  O19  1  0.101710  0.062748  0.261823  1
