# generated using pymatgen
data_Ho6Ta3NbAl12Os7
_symmetry_space_group_name_H-M   'P 1'
_cell_length_a   9.02313328
_cell_length_b   9.02313303
_cell_length_c   9.02550404
_cell_angle_alpha   60.00868065
_cell_angle_beta   60.00868400
_cell_angle_gamma   60.00000418
_symmetry_Int_Tables_number   1
_chemical_formula_structural   Ho6Ta3NbAl12Os7
_chemical_formula_sum   'Ho6 Ta3 Nb1 Al12 Os7'
_cell_volume   519.67065662
_cell_formula_units_Z   1
loop_
 _symmetry_equiv_pos_site_id
 _symmetry_equiv_pos_as_xyz
  1  'x, y, z'
loop_
 _atom_site_type_symbol
 _atom_site_label
 _atom_site_symmetry_multiplicity
 _atom_site_fract_x
 _atom_site_fract_y
 _atom_site_fract_z
 _atom_site_occupancy
  Ho  Ho0  1  0.707069  0.707069  0.293326  1
  Ho  Ho1  1  0.292537  0.707069  0.293326  1
  Ho  Ho2  1  0.707069  0.292537  0.293326  1
  Ho  Ho3  1  0.293801  0.293801  0.705712  1
  Ho  Ho4  1  0.706687  0.293801  0.705712  1
  Ho  Ho5  1  0.293801  0.706687  0.705712  1
  Ta  Ta6  1  0.879565  0.361556  0.879314  1
  Ta  Ta7  1  0.361556  0.879565  0.879314  1
  Ta  Ta8  1  0.879565  0.879565  0.879314  1
  Nb  Nb9  1  0.879401  0.879401  0.361795  1
  Al  Al10  1  0.120413  0.120413  0.638762  1
  Al  Al11  1  0.120991  0.638189  0.119831  1
  Al  Al12  1  0.638189  0.120991  0.119831  1
  Al  Al13  1  0.120991  0.120991  0.119831  1
  Al  Al14  1  0.666005  0.666005  0.001988  1
  Al  Al15  1  0.666162  0.000986  0.666694  1
  Al  Al16  1  0.000986  0.666162  0.666694  1
  Al  Al17  1  0.666162  0.666162  0.666694  1
  Al  Al18  1  0.331297  0.331297  0.006108  1
  Al  Al19  1  0.331157  0.006509  0.331177  1
  Al  Al20  1  0.006509  0.331157  0.331177  1
  Al  Al21  1  0.331157  0.331157  0.331177  1
  Os  Os22  1  0.000160  0.000160  0.999519  1
  Os  Os23  1  0.995608  0.995608  0.505740  1
  Os  Os24  1  0.503044  0.995608  0.505740  1
  Os  Os25  1  0.995608  0.503044  0.505740  1
  Os  Os26  1  0.504574  0.504574  0.995484  1
  Os  Os27  1  0.995370  0.504574  0.995484  1
  Os  Os28  1  0.504574  0.995370  0.995484  1
