# generated using pymatgen
data_YTmBe25Co
_symmetry_space_group_name_H-M   'P 1'
_cell_length_a   7.20887314
_cell_length_b   7.25166790
_cell_length_c   7.19259744
_cell_angle_alpha   59.87214568
_cell_angle_beta   59.91054592
_cell_angle_gamma   59.67013761
_symmetry_Int_Tables_number   1
_chemical_formula_structural   YTmBe25Co
_chemical_formula_sum   'Y1 Tm1 Be25 Co1'
_cell_volume   264.77069761
_cell_formula_units_Z   1
loop_
 _symmetry_equiv_pos_site_id
 _symmetry_equiv_pos_as_xyz
  1  'x, y, z'
loop_
 _atom_site_type_symbol
 _atom_site_label
 _atom_site_symmetry_multiplicity
 _atom_site_fract_x
 _atom_site_fract_y
 _atom_site_fract_z
 _atom_site_occupancy
  Y  Y0  1  0.247182  0.254659  0.250266  1
  Tm  Tm1  1  0.749907  0.751787  0.753990  1
  Be  Be2  1  0.502766  0.501519  0.497207  1
  Be  Be3  1  0.998754  0.002925  0.001205  1
  Be  Be4  1  0.202451  0.440782  0.796781  1
  Be  Be5  1  0.566914  0.787430  0.433643  1
  Be  Be6  1  0.435174  0.207517  0.565501  1
  Be  Be7  1  0.291755  0.933923  0.708863  1
  Be  Be8  1  0.707442  0.063614  0.293134  1
  Be  Be9  1  0.933606  0.289541  0.065709  1
  Be  Be10  1  0.065721  0.714544  0.933614  1
  Be  Be11  1  0.205938  0.795889  0.561968  1
  Be  Be12  1  0.791553  0.206652  0.436678  1
  Be  Be13  1  0.438584  0.564407  0.793468  1
  Be  Be14  1  0.563986  0.435534  0.207801  1
  Be  Be15  1  0.710740  0.285038  0.934202  1
  Be  Be16  1  0.288854  0.712432  0.063952  1
  Be  Be17  1  0.065286  0.929506  0.289856  1
  Be  Be18  1  0.935452  0.064693  0.711732  1
  Be  Be19  1  0.559858  0.208441  0.793922  1
  Be  Be20  1  0.439589  0.790997  0.205872  1
  Be  Be21  1  0.793352  0.437102  0.561075  1
  Be  Be22  1  0.205478  0.562833  0.440770  1
  Be  Be23  1  0.935962  0.709685  0.289718  1
  Be  Be24  1  0.064999  0.289471  0.709147  1
  Be  Be25  1  0.291508  0.063019  0.934433  1
  Be  Be26  1  0.710858  0.934778  0.063369  1
  Co  Co27  1  0.796334  0.561282  0.202124  1
