# generated using pymatgen
data_Sc2Sn2IrRu3
_symmetry_space_group_name_H-M   'P 1'
_cell_length_a   4.56060402
_cell_length_b   6.40792728
_cell_length_c   13.68432062
_cell_angle_alpha   90.03327539
_cell_angle_beta   90.00982259
_cell_angle_gamma   90.00643365
_symmetry_Int_Tables_number   1
_chemical_formula_structural   Sc2Sn2IrRu3
_chemical_formula_sum   'Sc6 Sn6 Ir3 Ru9'
_cell_volume   399.91076934
_cell_formula_units_Z   3
loop_
 _symmetry_equiv_pos_site_id
 _symmetry_equiv_pos_as_xyz
  1  'x, y, z'
loop_
 _atom_site_type_symbol
 _atom_site_label
 _atom_site_symmetry_multiplicity
 _atom_site_fract_x
 _atom_site_fract_y
 _atom_site_fract_z
 _atom_site_occupancy
  Sc  Sc0  1  0.000001  0.500880  0.998723  1
  Sc  Sc1  1  0.499947  0.997969  0.169296  1
  Sc  Sc2  1  0.999987  0.501081  0.334907  1
  Sc  Sc3  1  0.500052  0.999981  0.500276  1
  Sc  Sc4  1  0.000051  0.499658  0.666131  1
  Sc  Sc5  1  0.500029  0.999867  0.830632  1
  Sn  Sn6  1  0.000003  0.997958  0.998477  1
  Sn  Sn7  1  0.499948  0.503805  0.170112  1
  Sn  Sn8  1  0.999925  0.997542  0.335006  1
  Sn  Sn9  1  0.500007  0.500174  0.500077  1
  Sn  Sn10  1  0.000037  0.999953  0.666523  1
  Sn  Sn11  1  0.500078  0.500399  0.829769  1
  Ir  Ir12  1  0.500022  0.252025  0.000741  1
  Ir  Ir13  1  0.499995  0.748109  0.000506  1
  Ir  Ir14  1  0.999903  0.249443  0.165416  1
  Ru  Ru15  1  0.999941  0.751227  0.164881  1
  Ru  Ru16  1  0.500072  0.249335  0.332035  1
  Ru  Ru17  1  0.499785  0.750743  0.332483  1
  Ru  Ru18  1  0.999885  0.250639  0.499411  1
  Ru  Ru19  1  0.000184  0.749113  0.500131  1
  Ru  Ru20  1  0.500223  0.249118  0.667098  1
  Ru  Ru21  1  0.499804  0.751029  0.667158  1
  Ru  Ru22  1  0.999973  0.250163  0.835416  1
  Ru  Ru23  1  0.000151  0.749795  0.834793  1
