# generated using pymatgen
data_La2Pt(SeO3)4
_symmetry_space_group_name_H-M   'P 1'
_cell_length_a   7.18935400
_cell_length_b   8.40947790
_cell_length_c   11.08243108
_cell_angle_alpha   70.83997686
_cell_angle_beta   90.00000000
_cell_angle_gamma   90.00000000
_symmetry_Int_Tables_number   1
_chemical_formula_structural   La2Pt(SeO3)4
_chemical_formula_sum   'La4 Pt2 Se8 O24'
_cell_volume   632.91364313
_cell_formula_units_Z   2
loop_
 _symmetry_equiv_pos_site_id
 _symmetry_equiv_pos_as_xyz
  1  'x, y, z'
loop_
 _atom_site_type_symbol
 _atom_site_label
 _atom_site_symmetry_multiplicity
 _atom_site_fract_x
 _atom_site_fract_y
 _atom_site_fract_z
 _atom_site_occupancy
  La  La0  1  0.660177  0.761217  0.086234  1
  La  La1  1  0.160177  0.738783  0.913766  1
  La  La2  1  0.339823  0.238783  0.913766  1
  La  La3  1  0.839823  0.261217  0.086234  1
  Pt  Pt4  1  0.500000  0.500000  0.500000  1
  Pt  Pt5  1  0.000000  0.000000  0.500000  1
  Se  Se6  1  0.676313  0.628721  0.820851  1
  Se  Se7  1  0.176313  0.871279  0.179149  1
  Se  Se8  1  0.323687  0.371279  0.179149  1
  Se  Se9  1  0.823687  0.128721  0.820851  1
  Se  Se10  1  0.330750  0.122350  0.630247  1
  Se  Se11  1  0.830750  0.377650  0.369753  1
  Se  Se12  1  0.669250  0.877650  0.369753  1
  Se  Se13  1  0.169250  0.622350  0.630247  1
  O  O14  1  0.397072  0.313735  0.653196  1
  O  O15  1  0.897072  0.186265  0.346804  1
  O  O16  1  0.602928  0.686265  0.346804  1
  O  O17  1  0.102928  0.813735  0.653196  1
  O  O18  1  0.615100  0.425011  0.844138  1
  O  O19  1  0.115100  0.074989  0.155862  1
  O  O20  1  0.384900  0.574989  0.155862  1
  O  O21  1  0.884900  0.925011  0.844138  1
  O  O22  1  0.839786  0.587139  0.946392  1
  O  O23  1  0.339786  0.912861  0.053608  1
  O  O24  1  0.160214  0.412861  0.053608  1
  O  O25  1  0.660214  0.087139  0.946392  1
  O  O26  1  0.107791  0.179051  0.567395  1
  O  O27  1  0.607791  0.320949  0.432605  1
  O  O28  1  0.892209  0.820949  0.432605  1
  O  O29  1  0.392209  0.679051  0.567395  1
  O  O30  1  0.504413  0.708570  0.895277  1
  O  O31  1  0.004413  0.791430  0.104723  1
  O  O32  1  0.495587  0.291430  0.104723  1
  O  O33  1  0.995587  0.208570  0.895277  1
  O  O34  1  0.290933  0.027750  0.790817  1
  O  O35  1  0.790933  0.472250  0.209183  1
  O  O36  1  0.709067  0.972250  0.209183  1
  O  O37  1  0.209067  0.527750  0.790817  1
