# generated using pymatgen
data_HoSi4Pt5Rh
_symmetry_space_group_name_H-M   'P 1'
_cell_length_a   7.19580018
_cell_length_b   7.19579966
_cell_length_c   3.84847800
_cell_angle_alpha   90.00000000
_cell_angle_beta   90.00000000
_cell_angle_gamma   120.69456891
_symmetry_Int_Tables_number   1
_chemical_formula_structural   HoSi4Pt5Rh
_chemical_formula_sum   'Ho1 Si4 Pt5 Rh1'
_cell_volume   171.35447467
_cell_formula_units_Z   1
loop_
 _symmetry_equiv_pos_site_id
 _symmetry_equiv_pos_as_xyz
  1  'x, y, z'
loop_
 _atom_site_type_symbol
 _atom_site_label
 _atom_site_symmetry_multiplicity
 _atom_site_fract_x
 _atom_site_fract_y
 _atom_site_fract_z
 _atom_site_occupancy
  Ho  Ho0  1  0.001428  0.998572  0.000000  1
  Si  Si1  1  0.337286  0.662715  0.000000  1
  Si  Si2  1  0.391750  0.201308  0.499999  1
  Si  Si3  1  0.806773  0.193226  0.499999  1
  Si  Si4  1  0.798691  0.608250  0.499999  1
  Pt  Pt5  1  0.531667  0.065000  0.000000  1
  Pt  Pt6  1  0.934999  0.468333  0.000000  1
  Pt  Pt7  1  0.192822  0.385464  0.499999  1
  Pt  Pt8  1  0.188797  0.811202  0.499999  1
  Pt  Pt9  1  0.614536  0.807177  0.499999  1
  Rh  Rh10  1  0.534585  0.465416  0.000000  1
