# generated using pymatgen
data_Er16Tm3LuPb16
_symmetry_space_group_name_H-M   'P 1'
_cell_length_a   8.15496903
_cell_length_b   8.20783713
_cell_length_c   15.50758400
_cell_angle_alpha   90.00000000
_cell_angle_beta   90.00000000
_cell_angle_gamma   89.94713032
_symmetry_Int_Tables_number   1
_chemical_formula_structural   Er16Tm3LuPb16
_chemical_formula_sum   'Er16 Tm3 Lu1 Pb16'
_cell_volume   1037.99438218
_cell_formula_units_Z   1
loop_
 _symmetry_equiv_pos_site_id
 _symmetry_equiv_pos_as_xyz
  1  'x, y, z'
loop_
 _atom_site_type_symbol
 _atom_site_label
 _atom_site_symmetry_multiplicity
 _atom_site_fract_x
 _atom_site_fract_y
 _atom_site_fract_z
 _atom_site_occupancy
  Er  Er0  1  0.377755  0.841768  0.878519  1
  Er  Er1  1  0.878131  0.657856  0.621397  1
  Er  Er2  1  0.621996  0.158159  0.378451  1
  Er  Er3  1  0.122073  0.341876  0.121388  1
  Er  Er4  1  0.621996  0.158159  0.121549  1
  Er  Er5  1  0.122073  0.341876  0.378612  1
  Er  Er6  1  0.377755  0.841768  0.621481  1
  Er  Er7  1  0.878131  0.657856  0.878603  1
  Er  Er8  1  0.539350  0.324655  0.899992  1
  Er  Er9  1  0.039424  0.175747  0.599898  1
  Er  Er10  1  0.460596  0.675509  0.400020  1
  Er  Er11  1  0.960661  0.824472  0.099980  1
  Er  Er12  1  0.460596  0.675509  0.099980  1
  Er  Er13  1  0.960661  0.824472  0.400020  1
  Er  Er14  1  0.539350  0.324655  0.600008  1
  Er  Er15  1  0.039424  0.175747  0.900102  1
  Tm  Tm16  1  0.709179  0.995655  0.750000  1
  Tm  Tm17  1  0.790759  0.495605  0.250000  1
  Tm  Tm18  1  0.290720  0.004427  0.250000  1
  Lu  Lu19  1  0.209222  0.504485  0.750000  1
  Pb  Pb20  1  0.280511  0.032528  0.042767  1
  Pb  Pb21  1  0.780374  0.467362  0.457308  1
  Pb  Pb22  1  0.719614  0.967469  0.542719  1
  Pb  Pb23  1  0.219719  0.532492  0.957068  1
  Pb  Pb24  1  0.719614  0.967469  0.957281  1
  Pb  Pb25  1  0.219719  0.532492  0.542932  1
  Pb  Pb26  1  0.280511  0.032528  0.457233  1
  Pb  Pb27  1  0.780374  0.467362  0.042692  1
  Pb  Pb28  1  0.571404  0.625998  0.750000  1
  Pb  Pb29  1  0.071764  0.873305  0.750000  1
  Pb  Pb30  1  0.427968  0.374053  0.250000  1
  Pb  Pb31  1  0.928205  0.126180  0.250000  1
  Pb  Pb32  1  0.350472  0.156123  0.750000  1
  Pb  Pb33  1  0.851176  0.344421  0.750000  1
  Pb  Pb34  1  0.649377  0.844512  0.250000  1
  Pb  Pb35  1  0.149344  0.655447  0.250000  1
