# generated using pymatgen
data_Ac3SmCr4F28
_symmetry_space_group_name_H-M   'P 1'
_cell_length_a   5.61297518
_cell_length_b   9.03069671
_cell_length_c   11.92291400
_cell_angle_alpha   62.32995992
_cell_angle_beta   90.05046706
_cell_angle_gamma   89.83311163
_symmetry_Int_Tables_number   1
_chemical_formula_structural   Ac3SmCr4F28
_chemical_formula_sum   'Ac3 Sm1 Cr4 F28'
_cell_volume   535.24067278
_cell_formula_units_Z   1
loop_
 _symmetry_equiv_pos_site_id
 _symmetry_equiv_pos_as_xyz
  1  'x, y, z'
loop_
 _atom_site_type_symbol
 _atom_site_label
 _atom_site_symmetry_multiplicity
 _atom_site_fract_x
 _atom_site_fract_y
 _atom_site_fract_z
 _atom_site_occupancy
  Ac  Ac0  1  0.762193  0.805073  0.763675  1
  Ac  Ac1  1  0.262248  0.190583  0.735142  1
  Ac  Ac2  1  0.236927  0.187963  0.235435  1
  Sm  Sm3  1  0.734053  0.806190  0.264594  1
  Cr  Cr4  1  0.752815  0.269577  0.959523  1
  Cr  Cr5  1  0.252796  0.723837  0.536840  1
  Cr  Cr6  1  0.241888  0.725507  0.051046  1
  Cr  Cr7  1  0.745179  0.285182  0.452035  1
  F  F8  1  0.417881  0.706446  0.927900  1
  F  F9  1  0.908945  0.299211  0.580509  1
  F  F10  1  0.593747  0.294091  0.084454  1
  F  F11  1  0.075273  0.710917  0.412561  1
  F  F12  1  0.454241  0.292723  0.524157  1
  F  F13  1  0.958732  0.715727  0.971966  1
  F  F14  1  0.541493  0.719841  0.456328  1
  F  F15  1  0.046773  0.282603  0.028168  1
  F  F16  1  0.764888  0.498076  0.865211  1
  F  F17  1  0.273329  0.496864  0.627479  1
  F  F18  1  0.228510  0.498225  0.143921  1
  F  F19  1  0.737808  0.514827  0.360305  1
  F  F20  1  0.762699  0.040205  0.048916  1
  F  F21  1  0.262117  0.952634  0.458735  1
  F  F22  1  0.236037  0.953813  0.962372  1
  F  F23  1  0.736708  0.055032  0.539304  1
  F  F24  1  0.968217  0.720397  0.617896  1
  F  F25  1  0.460536  0.271386  0.886027  1
  F  F26  1  0.034689  0.278372  0.380072  1
  F  F27  1  0.526218  0.726454  0.132253  1
  F  F28  1  0.060980  0.742626  0.175393  1
  F  F29  1  0.586516  0.274243  0.320420  1
  F  F30  1  0.911377  0.260059  0.827493  1
  F  F31  1  0.423152  0.728512  0.668182  1
  F  F32  1  0.396257  0.954089  0.220306  1
  F  F33  1  0.874928  0.024562  0.281002  1
  F  F34  1  0.633621  0.042001  0.782741  1
  F  F35  1  0.136230  0.952148  0.717638  1
