# generated using pymatgen
data_Er7Ni16
_symmetry_space_group_name_H-M   'P 1'
_cell_length_a   8.64383948
_cell_length_b   8.64383949
_cell_length_c   8.64383956
_cell_angle_alpha   131.67343167
_cell_angle_beta   131.67343273
_cell_angle_gamma   70.74529854
_symmetry_Int_Tables_number   1
_chemical_formula_structural   Er7Ni16
_chemical_formula_sum   'Er7 Ni16'
_cell_volume   352.95400268
_cell_formula_units_Z   1
loop_
 _symmetry_equiv_pos_site_id
 _symmetry_equiv_pos_as_xyz
  1  'x, y, z'
loop_
 _atom_site_type_symbol
 _atom_site_label
 _atom_site_symmetry_multiplicity
 _atom_site_fract_x
 _atom_site_fract_y
 _atom_site_fract_z
 _atom_site_occupancy
  Er  Er0  1  0.098029  0.098029  0.401674  1
  Er  Er1  1  0.696353  0.696353  0.598326  1
  Er  Er2  1  0.901971  0.303647  0.000000  1
  Er  Er3  1  0.750000  0.250000  0.500000  1
  Er  Er4  1  0.500000  0.500000  0.000000  1
  Er  Er5  1  0.303647  0.901971  0.000000  1
  Er  Er6  1  0.250000  0.750000  0.500000  1
  Ni  Ni7  1  0.432901  0.191130  0.000000  1
  Ni  Ni8  1  0.681785  0.933974  0.482765  1
  Ni  Ni9  1  0.933974  0.681785  0.482765  1
  Ni  Ni10  1  0.191130  0.432901  0.000000  1
  Ni  Ni11  1  0.318215  0.800979  0.252188  1
  Ni  Ni12  1  0.939713  0.666828  0.000000  1
  Ni  Ni13  1  0.808870  0.808870  0.241770  1
  Ni  Ni14  1  0.066026  0.548791  0.747812  1
  Ni  Ni15  1  0.060287  0.060287  0.727115  1
  Ni  Ni16  1  0.666828  0.939713  0.000000  1
  Ni  Ni17  1  0.567099  0.567099  0.758230  1
  Ni  Ni18  1  0.800979  0.318215  0.252188  1
  Ni  Ni19  1  0.548791  0.066026  0.747812  1
  Ni  Ni20  1  0.199021  0.451209  0.517235  1
  Ni  Ni21  1  0.333172  0.333172  0.272885  1
  Ni  Ni22  1  0.451209  0.199021  0.517235  1
