# generated using pymatgen
data_LiHoNi9Mo3As7
_symmetry_space_group_name_H-M   'P 1'
_cell_length_a   9.47824300
_cell_length_b   9.47824219
_cell_length_c   3.80062100
_cell_angle_alpha   90.00000000
_cell_angle_beta   90.00000000
_cell_angle_gamma   120.00000631
_symmetry_Int_Tables_number   1
_chemical_formula_structural   LiHoNi9Mo3As7
_chemical_formula_sum   'Li1 Ho1 Ni9 Mo3 As7'
_cell_volume   295.69283990
_cell_formula_units_Z   1
loop_
 _symmetry_equiv_pos_site_id
 _symmetry_equiv_pos_as_xyz
  1  'x, y, z'
loop_
 _atom_site_type_symbol
 _atom_site_label
 _atom_site_symmetry_multiplicity
 _atom_site_fract_x
 _atom_site_fract_y
 _atom_site_fract_z
 _atom_site_occupancy
  Li  Li0  1  0.333333  0.666667  0.000000  1
  Ho  Ho1  1  0.000000  0.000000  0.500000  1
  Ni  Ni2  1  0.280601  0.385515  0.500000  1
  Ni  Ni3  1  0.614485  0.895085  0.500000  1
  Ni  Ni4  1  0.104915  0.719399  0.500000  1
  Ni  Ni5  1  0.506671  0.458861  0.000000  1
  Ni  Ni6  1  0.541139  0.047810  0.000000  1
  Ni  Ni7  1  0.952190  0.493329  0.000000  1
  Ni  Ni8  1  0.723970  0.762312  0.000000  1
  Ni  Ni9  1  0.237688  0.961658  0.000000  1
  Ni  Ni10  1  0.038342  0.276030  0.000000  1
  Mo  Mo11  1  0.764177  0.551642  0.500000  1
  Mo  Mo12  1  0.448358  0.212535  0.500000  1
  Mo  Mo13  1  0.787465  0.235823  0.500000  1
  As  As14  1  0.963745  0.747682  0.000000  1
  As  As15  1  0.252318  0.216062  0.000000  1
  As  As16  1  0.783938  0.036255  0.000000  1
  As  As17  1  0.666667  0.333333  0.000000  1
  As  As18  1  0.539773  0.624091  0.500000  1
  As  As19  1  0.375909  0.915683  0.500000  1
  As  As20  1  0.084317  0.460227  0.500000  1
