# generated using pymatgen
data_Dy6Er5Tm5(CdIr)4
_symmetry_space_group_name_H-M   'P 1'
_cell_length_a   9.56756582
_cell_length_b   9.55960743
_cell_length_c   9.55960721
_cell_angle_alpha   59.96547240
_cell_angle_beta   59.97245349
_cell_angle_gamma   59.97245847
_symmetry_Int_Tables_number   1
_chemical_formula_structural   Dy6Er5Tm5(CdIr)4
_chemical_formula_sum   'Dy6 Er5 Tm5 Cd4 Ir4'
_cell_volume   617.83466689
_cell_formula_units_Z   1
loop_
 _symmetry_equiv_pos_site_id
 _symmetry_equiv_pos_as_xyz
  1  'x, y, z'
loop_
 _atom_site_type_symbol
 _atom_site_label
 _atom_site_symmetry_multiplicity
 _atom_site_fract_x
 _atom_site_fract_y
 _atom_site_fract_z
 _atom_site_occupancy
  Dy  Dy0  1  0.188763  0.811237  0.811237  1
  Dy  Dy1  1  0.811127  0.188873  0.188873  1
  Dy  Dy2  1  0.811106  0.189014  0.811289  1
  Dy  Dy3  1  0.188591  0.811289  0.189014  1
  Dy  Dy4  1  0.811106  0.811289  0.189014  1
  Dy  Dy5  1  0.188591  0.189014  0.811289  1
  Er  Er6  1  0.598127  0.599048  0.599048  1
  Er  Er7  1  0.598795  0.599610  0.202801  1
  Er  Er8  1  0.598795  0.202801  0.599610  1
  Er  Er9  1  0.203778  0.599048  0.599048  1
  Er  Er10  1  0.061436  0.438564  0.438564  1
  Tm  Tm11  1  0.438418  0.061582  0.061582  1
  Tm  Tm12  1  0.439175  0.060792  0.438052  1
  Tm  Tm13  1  0.061981  0.438052  0.060792  1
  Tm  Tm14  1  0.439175  0.438052  0.060792  1
  Tm  Tm15  1  0.061981  0.060792  0.438052  1
  Cd  Cd16  1  0.830716  0.830522  0.830522  1
  Cd  Cd17  1  0.830841  0.830795  0.507522  1
  Cd  Cd18  1  0.830841  0.507522  0.830795  1
  Cd  Cd19  1  0.508240  0.830522  0.830522  1
  Ir  Ir20  1  0.391209  0.391769  0.391769  1
  Ir  Ir21  1  0.390978  0.392091  0.825954  1
  Ir  Ir22  1  0.390978  0.825954  0.392091  1
  Ir  Ir23  1  0.825254  0.391769  0.391769  1
