# generated using pymatgen
data_Dy3Lu2SiBi2
_symmetry_space_group_name_H-M   'P 1'
_cell_length_a   8.02705300
_cell_length_b   9.05437600
_cell_length_c   12.02775800
_cell_angle_alpha   90.00000000
_cell_angle_beta   90.00000000
_cell_angle_gamma   90.00000000
_symmetry_Int_Tables_number   1
_chemical_formula_structural   Dy3Lu2SiBi2
_chemical_formula_sum   'Dy12 Lu8 Si4 Bi8'
_cell_volume   874.17692263
_cell_formula_units_Z   4
loop_
 _symmetry_equiv_pos_site_id
 _symmetry_equiv_pos_as_xyz
  1  'x, y, z'
loop_
 _atom_site_type_symbol
 _atom_site_label
 _atom_site_symmetry_multiplicity
 _atom_site_fract_x
 _atom_site_fract_y
 _atom_site_fract_z
 _atom_site_occupancy
  Dy  Dy0  1  0.164673  0.750000  0.212295  1
  Dy  Dy1  1  0.335327  0.750000  0.712295  1
  Dy  Dy2  1  0.835327  0.250000  0.787705  1
  Dy  Dy3  1  0.664673  0.250000  0.287705  1
  Dy  Dy4  1  0.461296  0.750000  0.001015  1
  Dy  Dy5  1  0.038704  0.750000  0.501015  1
  Dy  Dy6  1  0.538704  0.250000  0.998985  1
  Dy  Dy7  1  0.961296  0.250000  0.498985  1
  Dy  Dy8  1  0.638922  0.750000  0.295535  1
  Dy  Dy9  1  0.861078  0.750000  0.795535  1
  Dy  Dy10  1  0.361078  0.250000  0.704465  1
  Dy  Dy11  1  0.138922  0.250000  0.204465  1
  Lu  Lu12  1  0.822535  0.554538  0.062552  1
  Lu  Lu13  1  0.677465  0.945462  0.562552  1
  Lu  Lu14  1  0.177465  0.054538  0.937448  1
  Lu  Lu15  1  0.322535  0.445462  0.437448  1
  Lu  Lu16  1  0.177465  0.445462  0.937448  1
  Lu  Lu17  1  0.322535  0.054538  0.437448  1
  Lu  Lu18  1  0.822535  0.945462  0.062552  1
  Lu  Lu19  1  0.677465  0.554538  0.562552  1
  Si  Si20  1  0.412542  0.750000  0.478547  1
  Si  Si21  1  0.087458  0.750000  0.978547  1
  Si  Si22  1  0.587458  0.250000  0.521453  1
  Si  Si23  1  0.912542  0.250000  0.021453  1
  Bi  Bi24  1  0.932527  0.510435  0.325166  1
  Bi  Bi25  1  0.567473  0.989565  0.825166  1
  Bi  Bi26  1  0.067473  0.010435  0.674834  1
  Bi  Bi27  1  0.432527  0.489565  0.174834  1
  Bi  Bi28  1  0.067473  0.489565  0.674834  1
  Bi  Bi29  1  0.432527  0.010435  0.174834  1
  Bi  Bi30  1  0.932527  0.989565  0.325166  1
  Bi  Bi31  1  0.567473  0.510435  0.825166  1
