# generated using pymatgen
data_La2ZnSi3
_symmetry_space_group_name_H-M   'P 1'
_cell_length_a   8.27117600
_cell_length_b   8.27117640
_cell_length_c   8.87566500
_cell_angle_alpha   90.00000000
_cell_angle_beta   90.00000000
_cell_angle_gamma   119.99999839
_symmetry_Int_Tables_number   1
_chemical_formula_structural   La2ZnSi3
_chemical_formula_sum   'La8 Zn4 Si12'
_cell_volume   525.85509506
_cell_formula_units_Z   4
loop_
 _symmetry_equiv_pos_site_id
 _symmetry_equiv_pos_as_xyz
  1  'x, y, z'
loop_
 _atom_site_type_symbol
 _atom_site_label
 _atom_site_symmetry_multiplicity
 _atom_site_fract_x
 _atom_site_fract_y
 _atom_site_fract_z
 _atom_site_occupancy
  La  La0  1  0.000000  0.000000  0.250000  1
  La  La1  1  0.000000  0.000000  0.750000  1
  La  La2  1  0.500547  0.499453  0.250000  1
  La  La3  1  0.500547  0.001095  0.250000  1
  La  La4  1  0.998905  0.499453  0.250000  1
  La  La5  1  0.499453  0.500547  0.750000  1
  La  La6  1  0.499453  0.998905  0.750000  1
  La  La7  1  0.001095  0.500547  0.750000  1
  Zn  Zn8  1  0.333333  0.666667  0.495911  1
  Zn  Zn9  1  0.666667  0.333333  0.504089  1
  Zn  Zn10  1  0.666667  0.333333  0.995911  1
  Zn  Zn11  1  0.333333  0.666667  0.004089  1
  Si  Si12  1  0.165566  0.834434  0.500826  1
  Si  Si13  1  0.165566  0.331132  0.500826  1
  Si  Si14  1  0.668868  0.834434  0.500826  1
  Si  Si15  1  0.834434  0.165566  0.499174  1
  Si  Si16  1  0.834434  0.668868  0.499174  1
  Si  Si17  1  0.331132  0.165566  0.499174  1
  Si  Si18  1  0.834434  0.165566  0.000826  1
  Si  Si19  1  0.834434  0.668868  0.000826  1
  Si  Si20  1  0.331132  0.165566  0.000826  1
  Si  Si21  1  0.165566  0.834434  0.999174  1
  Si  Si22  1  0.165566  0.331132  0.999174  1
  Si  Si23  1  0.668868  0.834434  0.999174  1
