# generated using pymatgen
data_Tm2U2Ga12Rh
_symmetry_space_group_name_H-M   'P 1'
_cell_length_a   7.48247657
_cell_length_b   7.40211044
_cell_length_c   7.48247665
_cell_angle_alpha   109.29537314
_cell_angle_beta   110.25640820
_cell_angle_gamma   109.29537107
_symmetry_Int_Tables_number   1
_chemical_formula_structural   Tm2U2Ga12Rh
_chemical_formula_sum   'Tm2 U2 Ga12 Rh1'
_cell_volume   317.28422459
_cell_formula_units_Z   1
loop_
 _symmetry_equiv_pos_site_id
 _symmetry_equiv_pos_as_xyz
  1  'x, y, z'
loop_
 _atom_site_type_symbol
 _atom_site_label
 _atom_site_symmetry_multiplicity
 _atom_site_fract_x
 _atom_site_fract_y
 _atom_site_fract_z
 _atom_site_occupancy
  Tm  Tm0  1  0.000000  0.000000  0.500000  1
  Tm  Tm1  1  0.500000  0.000000  0.000000  1
  U  U2  1  0.500000  0.500000  0.500000  1
  U  U3  1  0.000000  0.500000  0.000000  1
  Ga  Ga4  1  0.750204  0.249742  0.499538  1
  Ga  Ga5  1  0.999359  0.707748  0.708388  1
  Ga  Ga6  1  0.291754  0.000000  0.291754  1
  Ga  Ga7  1  0.499538  0.249742  0.750204  1
  Ga  Ga8  1  0.750000  0.500000  0.250000  1
  Ga  Ga9  1  0.249796  0.750258  0.500462  1
  Ga  Ga10  1  0.250000  0.500000  0.750000  1
  Ga  Ga11  1  0.708246  0.000000  0.708246  1
  Ga  Ga12  1  0.500462  0.750258  0.249796  1
  Ga  Ga13  1  0.708388  0.707748  0.999359  1
  Ga  Ga14  1  0.291612  0.292252  0.000641  1
  Ga  Ga15  1  0.000641  0.292252  0.291612  1
  Rh  Rh16  1  0.000000  0.000000  0.000000  1
