# generated using pymatgen
data_Ti8Al14GaIr7
_symmetry_space_group_name_H-M   'P 1'
_cell_length_a   8.65149191
_cell_length_b   8.65148988
_cell_length_c   8.65149073
_cell_angle_alpha   120.10473996
_cell_angle_beta   119.86271778
_cell_angle_gamma   90.02831474
_symmetry_Int_Tables_number   1
_chemical_formula_structural   Ti8Al14GaIr7
_chemical_formula_sum   'Ti8 Al14 Ga1 Ir7'
_cell_volume   457.99651040
_cell_formula_units_Z   1
loop_
 _symmetry_equiv_pos_site_id
 _symmetry_equiv_pos_as_xyz
  1  'x, y, z'
loop_
 _atom_site_type_symbol
 _atom_site_label
 _atom_site_symmetry_multiplicity
 _atom_site_fract_x
 _atom_site_fract_y
 _atom_site_fract_z
 _atom_site_occupancy
  Ti  Ti0  1  0.793554  0.292257  0.077065  1
  Ti  Ti1  1  0.215192  0.292257  0.498704  1
  Ti  Ti2  1  0.206095  0.706095  0.500000  1
  Ti  Ti3  1  0.215192  0.716488  0.922935  1
  Ti  Ti4  1  0.793554  0.716488  0.501296  1
  Ti  Ti5  1  0.783955  0.283955  0.500000  1
  Ti  Ti6  1  0.379030  0.122859  0.743828  1
  Ti  Ti7  1  0.379030  0.635202  0.256172  1
  Al  Al8  1  0.155171  0.342272  0.187099  1
  Al  Al9  1  0.155171  0.968072  0.812901  1
  Al  Al10  1  0.151185  0.345757  0.805428  1
  Al  Al11  1  0.540329  0.345757  0.194572  1
  Al  Al12  1  0.844796  0.653780  0.808985  1
  Al  Al13  1  0.844796  0.035812  0.191015  1
  Al  Al14  1  0.842343  0.655511  0.186832  1
  Al  Al15  1  0.468678  0.655511  0.813168  1
  Al  Al16  1  0.379727  0.121395  0.258332  1
  Al  Al17  1  0.863064  0.121395  0.741668  1
  Al  Al18  1  0.620956  0.877792  0.256837  1
  Al  Al19  1  0.620956  0.364120  0.743163  1
  Al  Al20  1  0.621012  0.878282  0.742730  1
  Al  Al21  1  0.135551  0.878282  0.257270  1
  Ga  Ga22  1  0.995740  0.495740  0.500000  1
  Ir  Ir23  1  0.001123  0.999952  0.501590  1
  Ir  Ir24  1  0.498362  0.999952  0.998829  1
  Ir  Ir25  1  0.497391  0.497391  0.000000  1
  Ir  Ir26  1  0.498362  0.499532  0.498410  1
  Ir  Ir27  1  0.001123  0.499532  0.001171  1
  Ir  Ir28  1  0.999242  0.999242  0.000000  1
  Ir  Ir29  1  0.499317  0.999317  0.500000  1
