# generated using pymatgen
data_Ho4Al3(Ga5Ir2)3
_symmetry_space_group_name_H-M   'P 1'
_cell_length_a   7.56887474
_cell_length_b   7.56887542
_cell_length_c   9.50725602
_cell_angle_alpha   89.99655851
_cell_angle_beta   89.99656100
_cell_angle_gamma   119.69054371
_symmetry_Int_Tables_number   1
_chemical_formula_structural   Ho4Al3(Ga5Ir2)3
_chemical_formula_sum   'Ho4 Al3 Ga15 Ir6'
_cell_volume   473.14506920
_cell_formula_units_Z   1
loop_
 _symmetry_equiv_pos_site_id
 _symmetry_equiv_pos_as_xyz
  1  'x, y, z'
loop_
 _atom_site_type_symbol
 _atom_site_label
 _atom_site_symmetry_multiplicity
 _atom_site_fract_x
 _atom_site_fract_y
 _atom_site_fract_z
 _atom_site_occupancy
  Ho  Ho0  1  0.000662  0.671548  0.250096  1
  Ho  Ho1  1  0.999409  0.329953  0.749318  1
  Ho  Ho2  1  0.671548  0.000662  0.250096  1
  Ho  Ho3  1  0.329953  0.999409  0.749318  1
  Al  Al4  1  0.663940  0.663940  0.448575  1
  Al  Al5  1  0.668564  0.668564  0.051550  1
  Al  Al6  1  0.331534  0.331534  0.947928  1
  Ga  Ga7  1  0.128342  0.128342  0.249060  1
  Ga  Ga8  1  0.872813  0.872813  0.749153  1
  Ga  Ga9  1  0.999964  0.336023  0.079875  1
  Ga  Ga10  1  0.000380  0.664755  0.920253  1
  Ga  Ga11  1  0.999423  0.664349  0.579772  1
  Ga  Ga12  1  0.336218  0.001608  0.418097  1
  Ga  Ga13  1  0.001608  0.336218  0.418097  1
  Ga  Ga14  1  0.664349  0.999423  0.579772  1
  Ga  Ga15  1  0.664755  0.000380  0.920253  1
  Ga  Ga16  1  0.336023  0.999964  0.079875  1
  Ga  Ga17  1  0.327643  0.327643  0.565610  1
  Ga  Ga18  1  0.348429  0.551510  0.249816  1
  Ga  Ga19  1  0.656151  0.450577  0.750072  1
  Ga  Ga20  1  0.551510  0.348429  0.249816  1
  Ga  Ga21  1  0.450577  0.656151  0.750072  1
  Ir  Ir22  1  0.669008  0.330118  0.999544  1
  Ir  Ir23  1  0.330118  0.669008  0.999544  1
  Ir  Ir24  1  0.329742  0.671953  0.499200  1
  Ir  Ir25  1  0.671953  0.329742  0.499200  1
  Ir  Ir26  1  0.000329  0.000329  0.999186  1
  Ir  Ir27  1  0.995053  0.995053  0.496851  1
