# generated using pymatgen
data_Lu3In3CoAu
_symmetry_space_group_name_H-M   'P 1'
_cell_length_a   7.65602300
_cell_length_b   7.65602239
_cell_length_c   3.47600300
_cell_angle_alpha   90.00000000
_cell_angle_beta   90.00000000
_cell_angle_gamma   119.99999829
_symmetry_Int_Tables_number   1
_chemical_formula_structural   Lu3In3CoAu
_chemical_formula_sum   'Lu3 In3 Co1 Au1'
_cell_volume   176.44818944
_cell_formula_units_Z   1
loop_
 _symmetry_equiv_pos_site_id
 _symmetry_equiv_pos_as_xyz
  1  'x, y, z'
loop_
 _atom_site_type_symbol
 _atom_site_label
 _atom_site_symmetry_multiplicity
 _atom_site_fract_x
 _atom_site_fract_y
 _atom_site_fract_z
 _atom_site_occupancy
  Lu  Lu0  1  0.591933  0.025916  0.500001  1
  Lu  Lu1  1  0.433983  0.408067  0.500001  1
  Lu  Lu2  1  0.974084  0.566017  0.500001  1
  In  In3  1  0.234515  0.004240  0.000000  1
  In  In4  1  0.995760  0.230276  0.000000  1
  In  In5  1  0.769725  0.765485  0.000000  1
  Co  Co6  1  0.666667  0.333334  0.000000  1
  Au  Au7  1  0.333334  0.666667  0.000000  1
