# generated using pymatgen
data_TbCe2Dy5(ReB6)4
_symmetry_space_group_name_H-M   'P 1'
_cell_length_a   3.71639500
_cell_length_b   9.21373646
_cell_length_c   11.60342101
_cell_angle_alpha   90.12866617
_cell_angle_beta   90.00000000
_cell_angle_gamma   90.00000000
_symmetry_Int_Tables_number   1
_chemical_formula_structural   TbCe2Dy5(ReB6)4
_chemical_formula_sum   'Tb1 Ce2 Dy5 Re4 B24'
_cell_volume   397.32199552
_cell_formula_units_Z   1
loop_
 _symmetry_equiv_pos_site_id
 _symmetry_equiv_pos_as_xyz
  1  'x, y, z'
loop_
 _atom_site_type_symbol
 _atom_site_label
 _atom_site_symmetry_multiplicity
 _atom_site_fract_x
 _atom_site_fract_y
 _atom_site_fract_z
 _atom_site_occupancy
  Tb  Tb0  1  0.000000  0.824025  0.085468  1
  Ce  Ce1  1  0.000000  0.322325  0.413715  1
  Ce  Ce2  1  0.000000  0.677835  0.586223  1
  Dy  Dy3  1  0.000000  0.175808  0.914482  1
  Dy  Dy4  1  0.000000  0.943145  0.370469  1
  Dy  Dy5  1  0.000000  0.056944  0.629558  1
  Dy  Dy6  1  0.000000  0.442483  0.128697  1
  Dy  Dy7  1  0.000000  0.557350  0.871340  1
  Re  Re8  1  0.000000  0.637208  0.322020  1
  Re  Re9  1  0.000000  0.362740  0.678173  1
  Re  Re10  1  0.000000  0.138977  0.179678  1
  Re  Re11  1  0.000000  0.861297  0.820080  1
  B  B12  1  0.500000  0.553901  0.431621  1
  B  B13  1  0.500000  0.445977  0.568541  1
  B  B14  1  0.500000  0.053478  0.066794  1
  B  B15  1  0.500000  0.946850  0.932944  1
  B  B16  1  0.500000  0.748621  0.417399  1
  B  B17  1  0.500000  0.251411  0.582705  1
  B  B18  1  0.500000  0.248032  0.080892  1
  B  B19  1  0.500000  0.751997  0.918810  1
  B  B20  1  0.500000  0.791222  0.265319  1
  B  B21  1  0.500000  0.208626  0.734919  1
  B  B22  1  0.500000  0.290605  0.233395  1
  B  B23  1  0.500000  0.709365  0.766425  1
  B  B24  1  0.500000  0.630782  0.185465  1
  B  B25  1  0.500000  0.368971  0.814820  1
  B  B26  1  0.500000  0.130908  0.313350  1
  B  B27  1  0.500000  0.869250  0.686644  1
  B  B28  1  0.500000  0.982667  0.211561  1
  B  B29  1  0.500000  0.017569  0.788441  1
  B  B30  1  0.500000  0.483329  0.286956  1
  B  B31  1  0.500000  0.516599  0.713145  1
  B  B32  1  0.500000  0.601700  0.028532  1
  B  B33  1  0.500000  0.397901  0.971427  1
  B  B34  1  0.500000  0.103292  0.471183  1
  B  B35  1  0.500000  0.896807  0.528807  1
