# generated using pymatgen
data_Sc4Re2B8Ru7W
_symmetry_space_group_name_H-M   'P 1'
_cell_length_a   3.03729900
_cell_length_b   8.57853743
_cell_length_c   10.03205890
_cell_angle_alpha   89.98886308
_cell_angle_beta   90.00000000
_cell_angle_gamma   90.00000000
_symmetry_Int_Tables_number   1
_chemical_formula_structural   Sc4Re2B8Ru7W
_chemical_formula_sum   'Sc4 Re2 B8 Ru7 W1'
_cell_volume   261.39113980
_cell_formula_units_Z   1
loop_
 _symmetry_equiv_pos_site_id
 _symmetry_equiv_pos_as_xyz
  1  'x, y, z'
loop_
 _atom_site_type_symbol
 _atom_site_label
 _atom_site_symmetry_multiplicity
 _atom_site_fract_x
 _atom_site_fract_y
 _atom_site_fract_z
 _atom_site_occupancy
  Sc  Sc0  1  0.500000  0.840558  0.180041  1
  Sc  Sc1  1  0.500000  0.157271  0.819760  1
  Sc  Sc2  1  0.500000  0.656829  0.681409  1
  Sc  Sc3  1  0.500000  0.340807  0.316752  1
  Re  Re4  1  0.000000  0.660169  0.952518  1
  Re  Re5  1  0.000000  0.339182  0.046415  1
  B  B6  1  0.500000  0.966852  0.590120  1
  B  B7  1  0.500000  0.038364  0.412692  1
  B  B8  1  0.500000  0.849663  0.902435  1
  B  B9  1  0.500000  0.153205  0.098650  1
  B  B10  1  0.500000  0.649054  0.399473  1
  B  B11  1  0.500000  0.351398  0.599603  1
  B  B12  1  0.500000  0.464448  0.911173  1
  B  B13  1  0.500000  0.535652  0.087463  1
  Ru  Ru14  1  0.000000  0.163191  0.549047  1
  Ru  Ru15  1  0.000000  0.000119  0.000524  1
  Ru  Ru16  1  0.000000  0.403088  0.759933  1
  Ru  Ru17  1  0.000000  0.593946  0.238679  1
  Ru  Ru18  1  0.000000  0.497397  0.499502  1
  Ru  Ru19  1  0.000000  0.903943  0.738978  1
  Ru  Ru20  1  0.000000  0.094086  0.261331  1
  W  W21  1  0.000000  0.840778  0.453503  1
