# generated using pymatgen
data_Pa2CoNiH6
_symmetry_space_group_name_H-M   'P 1'
_cell_length_a   5.93430444
_cell_length_b   5.93430394
_cell_length_c   4.44947100
_cell_angle_alpha   90.00000000
_cell_angle_beta   90.00000000
_cell_angle_gamma   143.18421308
_symmetry_Int_Tables_number   1
_chemical_formula_structural   Pa2CoNiH6
_chemical_formula_sum   'Pa2 Co1 Ni1 H6'
_cell_volume   93.89702478
_cell_formula_units_Z   1
loop_
 _symmetry_equiv_pos_site_id
 _symmetry_equiv_pos_as_xyz
  1  'x, y, z'
loop_
 _atom_site_type_symbol
 _atom_site_label
 _atom_site_symmetry_multiplicity
 _atom_site_fract_x
 _atom_site_fract_y
 _atom_site_fract_z
 _atom_site_occupancy
  Pa  Pa0  1  0.633677  0.366323  0.250000  1
  Pa  Pa1  1  0.365074  0.634926  0.750000  1
  Co  Co2  1  0.933866  0.066134  0.250000  1
  Ni  Ni3  1  0.059689  0.940311  0.750000  1
  H  H4  1  0.571424  0.428576  0.750000  1
  H  H5  1  0.188412  0.811588  0.503936  1
  H  H6  1  0.188412  0.811588  0.996064  1
  H  H7  1  0.815264  0.184736  0.008122  1
  H  H8  1  0.815264  0.184736  0.491878  1
  H  H9  1  0.428919  0.571081  0.250000  1
