# generated using pymatgen
data_Dy3Hf(SnRh5)2
_symmetry_space_group_name_H-M   'P 1'
_cell_length_a   4.25255600
_cell_length_b   5.71134665
_cell_length_c   11.28463565
_cell_angle_alpha   89.96763098
_cell_angle_beta   90.00000000
_cell_angle_gamma   90.00000000
_symmetry_Int_Tables_number   1
_chemical_formula_structural   Dy3Hf(SnRh5)2
_chemical_formula_sum   'Dy3 Hf1 Sn2 Rh10'
_cell_volume   274.07917207
_cell_formula_units_Z   1
loop_
 _symmetry_equiv_pos_site_id
 _symmetry_equiv_pos_as_xyz
  1  'x, y, z'
loop_
 _atom_site_type_symbol
 _atom_site_label
 _atom_site_symmetry_multiplicity
 _atom_site_fract_x
 _atom_site_fract_y
 _atom_site_fract_z
 _atom_site_occupancy
  Dy  Dy0  1  0.500000  0.178224  0.641214  1
  Dy  Dy1  1  0.500000  0.824124  0.359562  1
  Dy  Dy2  1  0.500000  0.678138  0.860519  1
  Hf  Hf3  1  0.500000  0.328384  0.141588  1
  Sn  Sn4  1  0.000000  0.496824  0.499001  1
  Sn  Sn5  1  0.000000  0.995457  0.001235  1
  Rh  Rh6  1  0.500000  0.192367  0.895644  1
  Rh  Rh7  1  0.500000  0.805904  0.112507  1
  Rh  Rh8  1  0.500000  0.689195  0.611725  1
  Rh  Rh9  1  0.500000  0.311833  0.379857  1
  Rh  Rh10  1  0.000000  0.430679  0.752611  1
  Rh  Rh11  1  0.000000  0.568388  0.246959  1
  Rh  Rh12  1  0.000000  0.000116  0.498023  1
  Rh  Rh13  1  0.000000  0.487988  0.006050  1
  Rh  Rh14  1  0.000000  0.080783  0.242040  1
  Rh  Rh15  1  0.000000  0.931597  0.751466  1
