# generated using pymatgen
data_CrCdFe(P2O7)2
_symmetry_space_group_name_H-M   'P 1'
_cell_length_a   4.87287261
_cell_length_b   7.04784108
_cell_length_c   7.91270359
_cell_angle_alpha   89.42245870
_cell_angle_beta   87.22137502
_cell_angle_gamma   73.57680399
_symmetry_Int_Tables_number   1
_chemical_formula_structural   CrCdFe(P2O7)2
_chemical_formula_sum   'Cr1 Cd1 Fe1 P4 O14'
_cell_volume   260.35206586
_cell_formula_units_Z   1
loop_
 _symmetry_equiv_pos_site_id
 _symmetry_equiv_pos_as_xyz
  1  'x, y, z'
loop_
 _atom_site_type_symbol
 _atom_site_label
 _atom_site_symmetry_multiplicity
 _atom_site_fract_x
 _atom_site_fract_y
 _atom_site_fract_z
 _atom_site_occupancy
  Cr  Cr0  1  0.500118  0.499994  0.000041  1
  Cd  Cd1  1  0.999922  0.999995  0.999970  1
  Fe  Fe2  1  0.000217  0.999917  0.499940  1
  P  P3  1  0.976875  0.615894  0.752180  1
  P  P4  1  0.023093  0.384154  0.247845  1
  P  P5  1  0.387169  0.213060  0.719806  1
  P  P6  1  0.612869  0.786944  0.280173  1
  O  O7  1  0.208782  0.431978  0.664860  1
  O  O8  1  0.791136  0.568016  0.335118  1
  O  O9  1  0.120072  0.669995  0.911158  1
  O  O10  1  0.879987  0.329990  0.088874  1
  O  O11  1  0.498702  0.231548  0.898131  1
  O  O12  1  0.501228  0.768502  0.101886  1
  O  O13  1  0.705991  0.557734  0.796505  1
  O  O14  1  0.382018  0.844416  0.418776  1
  O  O15  1  0.618006  0.155481  0.581198  1
  O  O16  1  0.179602  0.081298  0.731273  1
  O  O17  1  0.293948  0.442328  0.203548  1
  O  O18  1  0.072626  0.219871  0.375485  1
  O  O19  1  0.927321  0.780116  0.624498  1
  O  O20  1  0.820323  0.918767  0.268737  1
