# generated using pymatgen
data_TaNb3Si4(PdRu)2
_symmetry_space_group_name_H-M   'P 1'
_cell_length_a   3.78340100
_cell_length_b   6.46724848
_cell_length_c   7.41444781
_cell_angle_alpha   90.10000905
_cell_angle_beta   90.00000000
_cell_angle_gamma   90.00000000
_symmetry_Int_Tables_number   1
_chemical_formula_structural   TaNb3Si4(PdRu)2
_chemical_formula_sum   'Ta1 Nb3 Si4 Pd2 Ru2'
_cell_volume   181.41787363
_cell_formula_units_Z   1
loop_
 _symmetry_equiv_pos_site_id
 _symmetry_equiv_pos_as_xyz
  1  'x, y, z'
loop_
 _atom_site_type_symbol
 _atom_site_label
 _atom_site_symmetry_multiplicity
 _atom_site_fract_x
 _atom_site_fract_y
 _atom_site_fract_z
 _atom_site_occupancy
  Ta  Ta0  1  0.750000  0.525692  0.827952  1
  Nb  Nb1  1  0.250000  0.971159  0.325695  1
  Nb  Nb2  1  0.750000  0.025582  0.671301  1
  Nb  Nb3  1  0.250000  0.471714  0.173667  1
  Si  Si4  1  0.250000  0.230706  0.867967  1
  Si  Si5  1  0.250000  0.730635  0.632229  1
  Si  Si6  1  0.750000  0.764296  0.120969  1
  Si  Si7  1  0.750000  0.264481  0.379269  1
  Pd  Pd8  1  0.750000  0.649140  0.436695  1
  Pd  Pd9  1  0.750000  0.149646  0.062929  1
  Ru  Ru10  1  0.250000  0.857373  0.939744  1
  Ru  Ru11  1  0.250000  0.359573  0.561583  1
