# generated using pymatgen
data_K8Li4Er3InAs8
_symmetry_space_group_name_H-M   'P 1'
_cell_length_a   10.27610787
_cell_length_b   10.27610804
_cell_length_c   6.67709627
_cell_angle_alpha   90.04918173
_cell_angle_beta   89.95081733
_cell_angle_gamma   99.31148775
_symmetry_Int_Tables_number   1
_chemical_formula_structural   K8Li4Er3InAs8
_chemical_formula_sum   'K8 Li4 Er3 In1 As8'
_cell_volume   695.79943520
_cell_formula_units_Z   1
loop_
 _symmetry_equiv_pos_site_id
 _symmetry_equiv_pos_as_xyz
  1  'x, y, z'
loop_
 _atom_site_type_symbol
 _atom_site_label
 _atom_site_symmetry_multiplicity
 _atom_site_fract_x
 _atom_site_fract_y
 _atom_site_fract_z
 _atom_site_occupancy
  K  K0  1  0.567275  0.932242  0.748122  1
  K  K1  1  0.932242  0.567275  0.251878  1
  K  K2  1  0.433755  0.075521  0.257659  1
  K  K3  1  0.075521  0.433755  0.742341  1
  K  K4  1  0.673126  0.318433  0.780660  1
  K  K5  1  0.822060  0.177350  0.289070  1
  K  K6  1  0.318433  0.673126  0.219340  1
  K  K7  1  0.177350  0.822060  0.710930  1
  Li  Li8  1  0.615333  0.615333  0.000000  1
  Li  Li9  1  0.881229  0.881229  0.500000  1
  Li  Li10  1  0.381912  0.381912  0.000000  1
  Li  Li11  1  0.123812  0.123812  0.500000  1
  Er  Er12  1  0.866806  0.866806  0.000000  1
  Er  Er13  1  0.626634  0.626634  0.500000  1
  Er  Er14  1  0.132713  0.132713  0.000000  1
  In  In15  1  0.372303  0.372303  0.500000  1
  As  As16  1  0.350497  0.155502  0.746074  1
  As  As17  1  0.155502  0.350497  0.253926  1
  As  As18  1  0.649261  0.845790  0.250213  1
  As  As19  1  0.845790  0.649261  0.749787  1
  As  As20  1  0.904546  0.097002  0.765310  1
  As  As21  1  0.595967  0.400930  0.262519  1
  As  As22  1  0.097002  0.904546  0.234690  1
  As  As23  1  0.400930  0.595967  0.737481  1
