# generated using pymatgen
data_Nd9Al(Ni2Au)2
_symmetry_space_group_name_H-M   'P 1'
_cell_length_a   8.75104186
_cell_length_b   8.75104247
_cell_length_c   8.75104200
_cell_angle_alpha   128.68897691
_cell_angle_beta   128.68896331
_cell_angle_gamma   75.51154239
_symmetry_Int_Tables_number   1
_chemical_formula_structural   Nd9Al(Ni2Au)2
_chemical_formula_sum   'Nd9 Al1 Ni4 Au2'
_cell_volume   397.28822380
_cell_formula_units_Z   1
loop_
 _symmetry_equiv_pos_site_id
 _symmetry_equiv_pos_as_xyz
  1  'x, y, z'
loop_
 _atom_site_type_symbol
 _atom_site_label
 _atom_site_symmetry_multiplicity
 _atom_site_fract_x
 _atom_site_fract_y
 _atom_site_fract_z
 _atom_site_occupancy
  Nd  Nd0  1  0.000000  0.000000  0.000000  1
  Nd  Nd1  1  0.786583  0.323208  0.843871  1
  Nd  Nd2  1  0.213417  0.676792  0.156129  1
  Nd  Nd3  1  0.479336  0.942713  0.156129  1
  Nd  Nd4  1  0.323410  0.479251  0.536636  1
  Nd  Nd5  1  0.057383  0.213224  0.536633  1
  Nd  Nd6  1  0.520664  0.057287  0.843871  1
  Nd  Nd7  1  0.676590  0.520749  0.463364  1
  Nd  Nd8  1  0.942617  0.786776  0.463367  1
  Al  Al9  1  0.500000  0.500000  0.000000  1
  Ni  Ni10  1  0.125487  0.621317  0.746791  1
  Ni  Ni11  1  0.874513  0.378683  0.253209  1
  Ni  Ni12  1  0.621637  0.874561  0.496236  1
  Ni  Ni13  1  0.378363  0.125439  0.503764  1
  Au  Au14  1  0.239245  0.239245  0.000001  1
  Au  Au15  1  0.760755  0.760755  0.999999  1
