# generated using pymatgen
data_PrNpS2
_symmetry_space_group_name_H-M   'P 1'
_cell_length_a   6.91069130
_cell_length_b   6.91069088
_cell_length_c   6.91069026
_cell_angle_alpha   33.89598526
_cell_angle_beta   33.89598849
_cell_angle_gamma   33.89599365
_symmetry_Int_Tables_number   1
_chemical_formula_structural   PrNpS2
_chemical_formula_sum   'Pr1 Np1 S2'
_cell_volume   91.48109745
_cell_formula_units_Z   1
loop_
 _symmetry_equiv_pos_site_id
 _symmetry_equiv_pos_as_xyz
  1  'x, y, z'
loop_
 _atom_site_type_symbol
 _atom_site_label
 _atom_site_symmetry_multiplicity
 _atom_site_fract_x
 _atom_site_fract_y
 _atom_site_fract_z
 _atom_site_occupancy
  Pr  Pr0  1  0.000000  0.000000  0.000000  1
  Np  Np1  1  0.500000  0.500000  0.500000  1
  S  S2  1  0.244359  0.244359  0.244359  1
  S  S3  1  0.755641  0.755641  0.755641  1
