# generated using pymatgen
data_Cs2LiAs2Pd3
_symmetry_space_group_name_H-M   'P 1'
_cell_length_a   4.40561900
_cell_length_b   6.85132590
_cell_length_c   7.35229989
_cell_angle_alpha   88.59342999
_cell_angle_beta   90.00000000
_cell_angle_gamma   90.00000000
_symmetry_Int_Tables_number   1
_chemical_formula_structural   Cs2LiAs2Pd3
_chemical_formula_sum   'Cs2 Li1 As2 Pd3'
_cell_volume   221.85738763
_cell_formula_units_Z   1
loop_
 _symmetry_equiv_pos_site_id
 _symmetry_equiv_pos_as_xyz
  1  'x, y, z'
loop_
 _atom_site_type_symbol
 _atom_site_label
 _atom_site_symmetry_multiplicity
 _atom_site_fract_x
 _atom_site_fract_y
 _atom_site_fract_z
 _atom_site_occupancy
  Cs  Cs0  1  0.500000  0.098842  0.471225  1
  Cs  Cs1  1  0.000000  0.893212  0.996803  1
  Li  Li2  1  0.000000  0.420418  0.824035  1
  As  As3  1  0.000000  0.576942  0.495080  1
  As  As4  1  0.500000  0.433841  0.014506  1
  Pd  Pd5  1  0.000000  0.416434  0.176049  1
  Pd  Pd6  1  0.500000  0.592049  0.326326  1
  Pd  Pd7  1  0.500000  0.568262  0.695975  1
