# generated using pymatgen
data_Tm12Co8Si7Mo
_symmetry_space_group_name_H-M   'P 1'
_cell_length_a   5.46547700
_cell_length_b   7.51594785
_cell_length_c   12.59210816
_cell_angle_alpha   90.25576056
_cell_angle_beta   90.00000000
_cell_angle_gamma   90.00000000
_symmetry_Int_Tables_number   1
_chemical_formula_structural   Tm12Co8Si7Mo
_chemical_formula_sum   'Tm12 Co8 Si7 Mo1'
_cell_volume   517.25648845
_cell_formula_units_Z   1
loop_
 _symmetry_equiv_pos_site_id
 _symmetry_equiv_pos_as_xyz
  1  'x, y, z'
loop_
 _atom_site_type_symbol
 _atom_site_label
 _atom_site_symmetry_multiplicity
 _atom_site_fract_x
 _atom_site_fract_y
 _atom_site_fract_z
 _atom_site_occupancy
  Tm  Tm0  1  0.631140  0.252112  0.252757  1
  Tm  Tm1  1  0.369430  0.747853  0.746594  1
  Tm  Tm2  1  0.369430  0.752147  0.253406  1
  Tm  Tm3  1  0.631140  0.247888  0.747243  1
  Tm  Tm4  1  0.132570  0.394244  0.102937  1
  Tm  Tm5  1  0.861040  0.604947  0.897860  1
  Tm  Tm6  1  0.858300  0.603831  0.600629  1
  Tm  Tm7  1  0.858300  0.896169  0.399371  1
  Tm  Tm8  1  0.142539  0.394458  0.398444  1
  Tm  Tm9  1  0.142539  0.105542  0.601556  1
  Tm  Tm10  1  0.132570  0.105756  0.897063  1
  Tm  Tm11  1  0.861040  0.895053  0.102140  1
  Co  Co12  1  0.380421  0.026827  0.088643  1
  Co  Co13  1  0.624974  0.965850  0.909900  1
  Co  Co14  1  0.634432  0.971412  0.586532  1
  Co  Co15  1  0.634432  0.528588  0.413468  1
  Co  Co16  1  0.365979  0.027213  0.413414  1
  Co  Co17  1  0.365979  0.472787  0.586586  1
  Co  Co18  1  0.380421  0.473173  0.911357  1
  Co  Co19  1  0.624974  0.534150  0.090100  1
  Si  Si20  1  0.154449  0.100045  0.251050  1
  Si  Si21  1  0.848185  0.898380  0.747490  1
  Si  Si22  1  0.848185  0.601620  0.252510  1
  Si  Si23  1  0.154449  0.399955  0.748950  1
  Si  Si24  1  0.374256  0.750000  0.000000  1
  Si  Si25  1  0.387428  0.750000  0.500000  1
  Si  Si26  1  0.611725  0.250000  0.500000  1
  Mo  Mo27  1  0.619674  0.250000  0.000000  1
