# generated using pymatgen
data_ErTlP6Pd20Pb
_symmetry_space_group_name_H-M   'P 1'
_cell_length_a   8.68935410
_cell_length_b   8.68935380
_cell_length_c   8.68935500
_cell_angle_alpha   60.00000685
_cell_angle_beta   60.00000800
_cell_angle_gamma   60.00000199
_symmetry_Int_Tables_number   1
_chemical_formula_structural   ErTlP6Pd20Pb
_chemical_formula_sum   'Er1 Tl1 P6 Pd20 Pb1'
_cell_volume   463.92478384
_cell_formula_units_Z   1
loop_
 _symmetry_equiv_pos_site_id
 _symmetry_equiv_pos_as_xyz
  1  'x, y, z'
loop_
 _atom_site_type_symbol
 _atom_site_label
 _atom_site_symmetry_multiplicity
 _atom_site_fract_x
 _atom_site_fract_y
 _atom_site_fract_z
 _atom_site_occupancy
  Er  Er0  1  0.000000  0.000000  0.000000  1
  Tl  Tl1  1  0.250000  0.250000  0.250000  1
  P  P2  1  0.734902  0.265098  0.265098  1
  P  P3  1  0.265098  0.734902  0.734902  1
  P  P4  1  0.265098  0.734902  0.265098  1
  P  P5  1  0.734902  0.265098  0.734902  1
  P  P6  1  0.265098  0.265098  0.734902  1
  P  P7  1  0.734902  0.734902  0.265098  1
  Pd  Pd8  1  0.383670  0.383670  0.383670  1
  Pd  Pd9  1  0.615288  0.615288  0.615288  1
  Pd  Pd10  1  0.383670  0.383670  0.848992  1
  Pd  Pd11  1  0.383670  0.848992  0.383670  1
  Pd  Pd12  1  0.615288  0.615288  0.154138  1
  Pd  Pd13  1  0.615288  0.154138  0.615288  1
  Pd  Pd14  1  0.848992  0.383670  0.383670  1
  Pd  Pd15  1  0.154138  0.615288  0.615288  1
  Pd  Pd16  1  0.342755  0.000179  0.000179  1
  Pd  Pd17  1  0.656888  0.000179  0.000179  1
  Pd  Pd18  1  0.000179  0.342755  0.656888  1
  Pd  Pd19  1  0.000179  0.656888  0.342755  1
  Pd  Pd20  1  0.000179  0.342755  0.000179  1
  Pd  Pd21  1  0.656888  0.000179  0.342755  1
  Pd  Pd22  1  0.000179  0.656888  0.000179  1
  Pd  Pd23  1  0.342755  0.000179  0.656888  1
  Pd  Pd24  1  0.000179  0.000179  0.342755  1
  Pd  Pd25  1  0.000179  0.000179  0.656888  1
  Pd  Pd26  1  0.656888  0.342755  0.000179  1
  Pd  Pd27  1  0.342755  0.656888  0.000179  1
  Pb  Pb28  1  0.750000  0.750000  0.750000  1
