# generated using pymatgen
data_CeTh3(Zn5Ge)2
_symmetry_space_group_name_H-M   'P 1'
_cell_length_a   8.42546609
_cell_length_b   8.42546828
_cell_length_c   8.91648100
_cell_angle_alpha   90.54208104
_cell_angle_beta   89.45791882
_cell_angle_gamma   149.35561162
_symmetry_Int_Tables_number   1
_chemical_formula_structural   CeTh3(Zn5Ge)2
_chemical_formula_sum   'Ce1 Th3 Zn10 Ge2'
_cell_volume   322.61318279
_cell_formula_units_Z   1
loop_
 _symmetry_equiv_pos_site_id
 _symmetry_equiv_pos_as_xyz
  1  'x, y, z'
loop_
 _atom_site_type_symbol
 _atom_site_label
 _atom_site_symmetry_multiplicity
 _atom_site_fract_x
 _atom_site_fract_y
 _atom_site_fract_z
 _atom_site_occupancy
  Ce  Ce0  1  0.000000  0.000000  0.000000  1
  Th  Th1  1  0.202386  0.797614  0.248227  1
  Th  Th2  1  0.797614  0.202386  0.751773  1
  Th  Th3  1  0.000000  0.000000  0.500000  1
  Zn  Zn4  1  0.815580  0.184420  0.392257  1
  Zn  Zn5  1  0.184420  0.815580  0.607743  1
  Zn  Zn6  1  0.814941  0.185059  0.105297  1
  Zn  Zn7  1  0.185059  0.814941  0.894703  1
  Zn  Zn8  1  0.653087  0.346913  0.479567  1
  Zn  Zn9  1  0.346913  0.653087  0.520433  1
  Zn  Zn10  1  0.651648  0.348352  0.020112  1
  Zn  Zn11  1  0.348352  0.651648  0.979888  1
  Zn  Zn12  1  0.402160  0.597840  0.250334  1
  Zn  Zn13  1  0.597840  0.402160  0.749666  1
  Ge  Ge14  1  0.556891  0.443109  0.252064  1
  Ge  Ge15  1  0.443109  0.556891  0.747936  1
