# generated using pymatgen
data_Nd5YAl24Os5Pt3
_symmetry_space_group_name_H-M   'P 1'
_cell_length_a   8.90589181
_cell_length_b   8.92440082
_cell_length_c   9.66141666
_cell_angle_alpha   90.05930194
_cell_angle_beta   89.84503847
_cell_angle_gamma   119.58867463
_symmetry_Int_Tables_number   1
_chemical_formula_structural   Nd5YAl24Os5Pt3
_chemical_formula_sum   'Nd5 Y1 Al24 Os5 Pt3'
_cell_volume   667.74629843
_cell_formula_units_Z   1
loop_
 _symmetry_equiv_pos_site_id
 _symmetry_equiv_pos_as_xyz
  1  'x, y, z'
loop_
 _atom_site_type_symbol
 _atom_site_label
 _atom_site_symmetry_multiplicity
 _atom_site_fract_x
 _atom_site_fract_y
 _atom_site_fract_z
 _atom_site_occupancy
  Nd  Nd0  1  0.187792  0.379857  0.249950  1
  Nd  Nd1  1  0.812293  0.619629  0.750243  1
  Nd  Nd2  1  0.617649  0.813510  0.251775  1
  Nd  Nd3  1  0.383190  0.186611  0.748293  1
  Nd  Nd4  1  0.192439  0.810306  0.250288  1
  Y  Y5  1  0.805002  0.191233  0.749076  1
  Al  Al6  1  0.335658  0.671307  0.024921  1
  Al  Al7  1  0.665605  0.328336  0.972345  1
  Al  Al8  1  0.670147  0.330691  0.526393  1
  Al  Al9  1  0.330463  0.668526  0.476104  1
  Al  Al10  1  0.156946  0.325317  0.573981  1
  Al  Al11  1  0.841210  0.673434  0.427581  1
  Al  Al12  1  0.673856  0.842127  0.575027  1
  Al  Al13  1  0.836118  0.675081  0.075723  1
  Al  Al14  1  0.327190  0.159500  0.426375  1
  Al  Al15  1  0.162217  0.324027  0.922951  1
  Al  Al16  1  0.164346  0.834656  0.575359  1
  Al  Al17  1  0.326629  0.159115  0.074121  1
  Al  Al18  1  0.835573  0.165125  0.426931  1
  Al  Al19  1  0.674577  0.842649  0.924424  1
  Al  Al20  1  0.831416  0.159532  0.075029  1
  Al  Al21  1  0.168817  0.840686  0.922601  1
  Al  Al22  1  0.562199  0.126428  0.249709  1
  Al  Al23  1  0.440331  0.875271  0.750183  1
  Al  Al24  1  0.872291  0.436034  0.253323  1
  Al  Al25  1  0.126053  0.561483  0.747178  1
  Al  Al26  1  0.563384  0.435639  0.249667  1
  Al  Al27  1  0.436534  0.564503  0.750392  1
  Al  Al28  1  0.998262  0.003320  0.250192  1
  Al  Al29  1  0.000299  0.998338  0.749721  1
  Os  Os30  1  0.501226  0.000651  0.999039  1
  Os  Os31  1  0.500926  0.000389  0.500830  1
  Os  Os32  1  0.999425  0.498850  0.500923  1
  Os  Os33  1  0.999954  0.000053  0.999601  1
  Os  Os34  1  0.999915  0.999904  0.500413  1
  Pt  Pt35  1  0.999542  0.498760  0.999252  1
  Pt  Pt36  1  0.500241  0.499556  0.999745  1
  Pt  Pt37  1  0.500288  0.499566  0.500342  1
