# generated using pymatgen
data_Li4AlGePd10
_symmetry_space_group_name_H-M   'P 1'
_cell_length_a   4.14011000
_cell_length_b   5.32316689
_cell_length_c   10.40608300
_cell_angle_alpha   89.42303564
_cell_angle_beta   90.00000000
_cell_angle_gamma   90.00000000
_symmetry_Int_Tables_number   1
_chemical_formula_structural   Li4AlGePd10
_chemical_formula_sum   'Li4 Al1 Ge1 Pd10'
_cell_volume   229.32279600
_cell_formula_units_Z   1
loop_
 _symmetry_equiv_pos_site_id
 _symmetry_equiv_pos_as_xyz
  1  'x, y, z'
loop_
 _atom_site_type_symbol
 _atom_site_label
 _atom_site_symmetry_multiplicity
 _atom_site_fract_x
 _atom_site_fract_y
 _atom_site_fract_z
 _atom_site_occupancy
  Li  Li0  1  0.500000  0.160091  0.365547  1
  Li  Li1  1  0.500000  0.839909  0.634453  1
  Li  Li2  1  0.500000  0.656324  0.136895  1
  Li  Li3  1  0.500000  0.343676  0.863105  1
  Al  Al4  1  0.000000  0.500000  0.500000  1
  Ge  Ge5  1  0.000000  0.000000  0.000000  1
  Pd  Pd6  1  0.500000  0.174075  0.109817  1
  Pd  Pd7  1  0.500000  0.825925  0.890183  1
  Pd  Pd8  1  0.500000  0.673974  0.389707  1
  Pd  Pd9  1  0.500000  0.326026  0.610293  1
  Pd  Pd10  1  0.000000  0.000000  0.500000  1
  Pd  Pd11  1  0.000000  0.500000  0.000000  1
  Pd  Pd12  1  0.000000  0.886002  0.235941  1
  Pd  Pd13  1  0.000000  0.113998  0.764059  1
  Pd  Pd14  1  0.000000  0.385735  0.265818  1
  Pd  Pd15  1  0.000000  0.614265  0.734182  1
