# generated using pymatgen
data_Cs6Na4HoNbAs6
_symmetry_space_group_name_H-M   'P 1'
_cell_length_a   11.23436752
_cell_length_b   11.23436535
_cell_length_c   16.88712900
_cell_angle_alpha   90.00000000
_cell_angle_beta   90.00000000
_cell_angle_gamma   143.03833693
_symmetry_Int_Tables_number   1
_chemical_formula_structural   Cs6Na4HoNbAs6
_chemical_formula_sum   'Cs12 Na8 Ho2 Nb2 As12'
_cell_volume   1281.53397206
_cell_formula_units_Z   2
loop_
 _symmetry_equiv_pos_site_id
 _symmetry_equiv_pos_as_xyz
  1  'x, y, z'
loop_
 _atom_site_type_symbol
 _atom_site_label
 _atom_site_symmetry_multiplicity
 _atom_site_fract_x
 _atom_site_fract_y
 _atom_site_fract_z
 _atom_site_occupancy
  Cs  Cs0  1  0.948700  0.607938  0.825812  1
  Cs  Cs1  1  0.551300  0.892062  0.325812  1
  Cs  Cs2  1  0.392062  0.051300  0.174188  1
  Cs  Cs3  1  0.053653  0.391707  0.174993  1
  Cs  Cs4  1  0.891707  0.553653  0.325007  1
  Cs  Cs5  1  0.446347  0.108293  0.674993  1
  Cs  Cs6  1  0.608293  0.946347  0.825007  1
  Cs  Cs7  1  0.282816  0.279958  0.317124  1
  Cs  Cs8  1  0.779958  0.782816  0.182876  1
  Cs  Cs9  1  0.217184  0.220042  0.817124  1
  Cs  Cs10  1  0.720042  0.717184  0.682876  1
  Cs  Cs11  1  0.107938  0.448700  0.674188  1
  Na  Na12  1  0.918716  0.081284  0.000000  1
  Na  Na13  1  0.581284  0.418716  0.500000  1
  Na  Na14  1  0.080072  0.919928  0.000000  1
  Na  Na15  1  0.419928  0.580072  0.500000  1
  Na  Na16  1  0.754874  0.245126  0.000000  1
  Na  Na17  1  0.745126  0.254874  0.500000  1
  Na  Na18  1  0.247017  0.752983  0.000000  1
  Na  Na19  1  0.252983  0.747017  0.500000  1
  Ho  Ho20  1  0.412841  0.587159  0.000000  1
  Ho  Ho21  1  0.087159  0.912841  0.500000  1
  Nb  Nb22  1  0.584620  0.415380  0.000000  1
  Nb  Nb23  1  0.915380  0.084620  0.500000  1
  As  As24  1  0.857429  0.553262  0.086714  1
  As  As25  1  0.446738  0.142571  0.913286  1
  As  As26  1  0.642571  0.946738  0.586714  1
  As  As27  1  0.930820  0.609916  0.596503  1
  As  As28  1  0.109916  0.430820  0.903497  1
  As  As29  1  0.569180  0.890084  0.096503  1
  As  As30  1  0.390084  0.069180  0.403497  1
  As  As31  1  0.188978  0.207223  0.583918  1
  As  As32  1  0.707223  0.688978  0.916082  1
  As  As33  1  0.311022  0.292777  0.083918  1
  As  As34  1  0.053262  0.357429  0.413286  1
  As  As35  1  0.792777  0.811022  0.416082  1
