# generated using pymatgen
data_YbAgRuPtO7
_symmetry_space_group_name_H-M   'P 1'
_cell_length_a   7.20848660
_cell_length_b   7.20848533
_cell_length_c   7.37011000
_cell_angle_alpha   59.25549086
_cell_angle_beta   59.25549687
_cell_angle_gamma   58.47033082
_symmetry_Int_Tables_number   1
_chemical_formula_structural   YbAgRuPtO7
_chemical_formula_sum   'Yb2 Ag2 Ru2 Pt2 O14'
_cell_volume   264.54929885
_cell_formula_units_Z   2
loop_
 _symmetry_equiv_pos_site_id
 _symmetry_equiv_pos_as_xyz
  1  'x, y, z'
loop_
 _atom_site_type_symbol
 _atom_site_label
 _atom_site_symmetry_multiplicity
 _atom_site_fract_x
 _atom_site_fract_y
 _atom_site_fract_z
 _atom_site_occupancy
  Yb  Yb0  1  0.125000  0.125000  0.125000  1
  Yb  Yb1  1  0.125000  0.125000  0.625000  1
  Ag  Ag2  1  0.625000  0.125000  0.125000  1
  Ag  Ag3  1  0.125000  0.625000  0.125000  1
  Ru  Ru4  1  0.625000  0.625000  0.625000  1
  Ru  Ru5  1  0.625000  0.625000  0.125000  1
  Pt  Pt6  1  0.125000  0.625000  0.625000  1
  Pt  Pt7  1  0.625000  0.125000  0.625000  1
  O  O8  1  0.983417  0.983417  0.016583  1
  O  O9  1  0.266583  0.266583  0.233417  1
  O  O10  1  0.279019  0.279019  0.720981  1
  O  O11  1  0.573151  0.573151  0.926849  1
  O  O12  1  0.694596  0.298599  0.713008  1
  O  O13  1  0.694596  0.298599  0.293797  1
  O  O14  1  0.298599  0.694596  0.713008  1
  O  O15  1  0.298599  0.694596  0.293797  1
  O  O16  1  0.676849  0.676849  0.323151  1
  O  O17  1  0.951401  0.555404  0.536992  1
  O  O18  1  0.555404  0.951401  0.956203  1
  O  O19  1  0.970981  0.970981  0.529019  1
  O  O20  1  0.951401  0.555404  0.956203  1
  O  O21  1  0.555404  0.951401  0.536992  1
