# generated using pymatgen
data_Y10Ir3PdRu2
_symmetry_space_group_name_H-M   'P 1'
_cell_length_a   10.90674409
_cell_length_b   10.90591800
_cell_length_c   6.47816065
_cell_angle_alpha   90.00000000
_cell_angle_beta   90.05121232
_cell_angle_gamma   90.00000000
_symmetry_Int_Tables_number   1
_chemical_formula_structural   Y10Ir3PdRu2
_chemical_formula_sum   'Y20 Ir6 Pd2 Ru4'
_cell_volume   770.56431203
_cell_formula_units_Z   2
loop_
 _symmetry_equiv_pos_site_id
 _symmetry_equiv_pos_as_xyz
  1  'x, y, z'
loop_
 _atom_site_type_symbol
 _atom_site_label
 _atom_site_symmetry_multiplicity
 _atom_site_fract_x
 _atom_site_fract_y
 _atom_site_fract_z
 _atom_site_occupancy
  Y  Y0  1  0.293451  0.086383  0.378339  1
  Y  Y1  1  0.293451  0.913617  0.878339  1
  Y  Y2  1  0.701290  0.090015  0.873357  1
  Y  Y3  1  0.701290  0.909985  0.373357  1
  Y  Y4  1  0.581150  0.792221  0.879533  1
  Y  Y5  1  0.581150  0.207779  0.379533  1
  Y  Y6  1  0.410994  0.792934  0.379485  1
  Y  Y7  1  0.410994  0.207066  0.879485  1
  Y  Y8  1  0.207726  0.412483  0.619989  1
  Y  Y9  1  0.207726  0.587517  0.119989  1
  Y  Y10  1  0.792967  0.418149  0.120516  1
  Y  Y11  1  0.792967  0.581851  0.620516  1
  Y  Y12  1  0.915925  0.704639  0.128832  1
  Y  Y13  1  0.915925  0.295361  0.628832  1
  Y  Y14  1  0.091833  0.703847  0.619969  1
  Y  Y15  1  0.091833  0.296153  0.119969  1
  Y  Y16  1  0.003910  0.999242  0.500416  1
  Y  Y17  1  0.003910  0.000758  0.000416  1
  Y  Y18  1  0.499720  0.499536  0.000118  1
  Y  Y19  1  0.499720  0.500464  0.500118  1
  Ir  Ir20  1  0.151233  0.152676  0.749523  1
  Ir  Ir21  1  0.151233  0.847324  0.249523  1
  Ir  Ir22  1  0.653608  0.346770  0.749955  1
  Ir  Ir23  1  0.653608  0.653230  0.249955  1
  Ir  Ir24  1  0.347993  0.347165  0.250036  1
  Ir  Ir25  1  0.347993  0.652835  0.750036  1
  Pd  Pd26  1  0.846376  0.152950  0.250205  1
  Pd  Pd27  1  0.846376  0.847050  0.750205  1
  Ru  Ru28  1  0.501850  0.000255  0.125194  1
  Ru  Ru29  1  0.501850  0.999745  0.625194  1
  Ru  Ru30  1  0.999975  0.500312  0.874532  1
  Ru  Ru31  1  0.999975  0.499688  0.374532  1
