# generated using pymatgen
data_Tb4Lu3Pa(ReB6)4
_symmetry_space_group_name_H-M   'P 1'
_cell_length_a   3.67509800
_cell_length_b   9.13820789
_cell_length_c   11.51787327
_cell_angle_alpha   90.15887868
_cell_angle_beta   90.00000000
_cell_angle_gamma   90.00000000
_symmetry_Int_Tables_number   1
_chemical_formula_structural   Tb4Lu3Pa(ReB6)4
_chemical_formula_sum   'Tb4 Lu3 Pa1 Re4 B24'
_cell_volume   386.81257497
_cell_formula_units_Z   1
loop_
 _symmetry_equiv_pos_site_id
 _symmetry_equiv_pos_as_xyz
  1  'x, y, z'
loop_
 _atom_site_type_symbol
 _atom_site_label
 _atom_site_symmetry_multiplicity
 _atom_site_fract_x
 _atom_site_fract_y
 _atom_site_fract_z
 _atom_site_occupancy
  Tb  Tb0  1  0.000000  0.679079  0.587143  1
  Tb  Tb1  1  0.000000  0.822685  0.085051  1
  Tb  Tb2  1  0.000000  0.176656  0.913374  1
  Tb  Tb3  1  0.000000  0.942849  0.372159  1
  Lu  Lu4  1  0.000000  0.055688  0.630259  1
  Lu  Lu5  1  0.000000  0.443571  0.127168  1
  Lu  Lu6  1  0.000000  0.557082  0.870145  1
  Pa  Pa7  1  0.000000  0.323387  0.414329  1
  Re  Re8  1  0.000000  0.633868  0.320759  1
  Re  Re9  1  0.000000  0.361624  0.677219  1
  Re  Re10  1  0.000000  0.143030  0.181511  1
  Re  Re11  1  0.000000  0.860863  0.820635  1
  B  B12  1  0.500000  0.551649  0.431627  1
  B  B13  1  0.500000  0.445002  0.567543  1
  B  B14  1  0.500000  0.055112  0.067475  1
  B  B15  1  0.500000  0.946569  0.932972  1
  B  B16  1  0.500000  0.747545  0.418077  1
  B  B17  1  0.500000  0.249960  0.581668  1
  B  B18  1  0.500000  0.251017  0.081072  1
  B  B19  1  0.500000  0.749382  0.918485  1
  B  B20  1  0.500000  0.789982  0.265342  1
  B  B21  1  0.500000  0.207818  0.734649  1
  B  B22  1  0.500000  0.293414  0.234300  1
  B  B23  1  0.500000  0.707532  0.765931  1
  B  B24  1  0.500000  0.629117  0.184013  1
  B  B25  1  0.500000  0.370589  0.814604  1
  B  B26  1  0.500000  0.133206  0.314840  1
  B  B27  1  0.500000  0.869623  0.685987  1
  B  B28  1  0.500000  0.983877  0.211905  1
  B  B29  1  0.500000  0.017758  0.787537  1
  B  B30  1  0.500000  0.481665  0.286533  1
  B  B31  1  0.500000  0.517887  0.713540  1
  B  B32  1  0.500000  0.598402  0.026694  1
  B  B33  1  0.500000  0.401517  0.971667  1
  B  B34  1  0.500000  0.104963  0.472995  1
  B  B35  1  0.500000  0.896032  0.530792  1
