# generated using pymatgen
data_La2GaGe3Au4
_symmetry_space_group_name_H-M   'P 1'
_cell_length_a   4.52361900
_cell_length_b   4.52361900
_cell_length_c   10.53314500
_cell_angle_alpha   90.00000000
_cell_angle_beta   90.00000000
_cell_angle_gamma   90.00000000
_symmetry_Int_Tables_number   1
_chemical_formula_structural   La2GaGe3Au4
_chemical_formula_sum   'La2 Ga1 Ge3 Au4'
_cell_volume   215.54110341
_cell_formula_units_Z   1
loop_
 _symmetry_equiv_pos_site_id
 _symmetry_equiv_pos_as_xyz
  1  'x, y, z'
loop_
 _atom_site_type_symbol
 _atom_site_label
 _atom_site_symmetry_multiplicity
 _atom_site_fract_x
 _atom_site_fract_y
 _atom_site_fract_z
 _atom_site_occupancy
  La  La0  1  0.000000  0.500001  0.246885  1
  La  La1  1  0.500001  0.000000  0.753115  1
  Ga  Ga2  1  0.500001  0.500001  0.500000  1
  Ge  Ge3  1  0.500001  0.000000  0.131783  1
  Ge  Ge4  1  0.000000  0.000000  0.500000  1
  Ge  Ge5  1  0.000000  0.500001  0.868217  1
  Au  Au6  1  0.000000  0.000000  0.000000  1
  Au  Au7  1  0.500001  0.500001  0.000000  1
  Au  Au8  1  0.500001  0.000000  0.370836  1
  Au  Au9  1  0.000000  0.500001  0.629164  1
