# generated using pymatgen
data_Nd2(SbPd3)3
_symmetry_space_group_name_H-M   'P 1'
_cell_length_a   8.08122305
_cell_length_b   8.08122320
_cell_length_c   9.36610200
_cell_angle_alpha   90.00000000
_cell_angle_beta   90.00000000
_cell_angle_gamma   119.13174691
_symmetry_Int_Tables_number   1
_chemical_formula_structural   Nd2(SbPd3)3
_chemical_formula_sum   'Nd4 Sb6 Pd18'
_cell_volume   534.29029897
_cell_formula_units_Z   2
loop_
 _symmetry_equiv_pos_site_id
 _symmetry_equiv_pos_as_xyz
  1  'x, y, z'
loop_
 _atom_site_type_symbol
 _atom_site_label
 _atom_site_symmetry_multiplicity
 _atom_site_fract_x
 _atom_site_fract_y
 _atom_site_fract_z
 _atom_site_occupancy
  Nd  Nd0  1  0.324551  0.015415  0.750000  1
  Nd  Nd1  1  0.675449  0.984585  0.250000  1
  Nd  Nd2  1  0.015415  0.324551  0.750000  1
  Nd  Nd3  1  0.984585  0.675449  0.250000  1
  Sb  Sb4  1  0.000000  0.000000  0.500000  1
  Sb  Sb5  1  0.678209  0.321791  0.000000  1
  Sb  Sb6  1  0.321791  0.678209  0.500000  1
  Sb  Sb7  1  0.321791  0.678209  0.000000  1
  Sb  Sb8  1  0.000000  0.000000  0.000000  1
  Sb  Sb9  1  0.678209  0.321791  0.500000  1
  Pd  Pd10  1  0.332023  0.332023  0.964966  1
  Pd  Pd11  1  0.443185  0.639745  0.750000  1
  Pd  Pd12  1  0.556815  0.360255  0.250000  1
  Pd  Pd13  1  0.639745  0.443185  0.750000  1
  Pd  Pd14  1  0.001830  0.344691  0.087973  1
  Pd  Pd15  1  0.998170  0.655309  0.587973  1
  Pd  Pd16  1  0.344691  0.001830  0.412027  1
  Pd  Pd17  1  0.655309  0.998170  0.912027  1
  Pd  Pd18  1  0.998170  0.655309  0.912027  1
  Pd  Pd19  1  0.001830  0.344691  0.412027  1
  Pd  Pd20  1  0.655309  0.998170  0.587973  1
  Pd  Pd21  1  0.853693  0.853693  0.750000  1
  Pd  Pd22  1  0.332023  0.332023  0.535034  1
  Pd  Pd23  1  0.667977  0.667977  0.035034  1
  Pd  Pd24  1  0.344691  0.001830  0.087973  1
  Pd  Pd25  1  0.667977  0.667977  0.464966  1
  Pd  Pd26  1  0.146307  0.146307  0.250000  1
  Pd  Pd27  1  0.360255  0.556815  0.250000  1
