# generated using pymatgen
data_Pr2(ZnAu2)3
_symmetry_space_group_name_H-M   'P 1'
_cell_length_a   8.97480744
_cell_length_b   8.97480726
_cell_length_c   8.97480720
_cell_angle_alpha   55.00304761
_cell_angle_beta   55.00304845
_cell_angle_gamma   55.00304509
_symmetry_Int_Tables_number   1
_chemical_formula_structural   Pr2(ZnAu2)3
_chemical_formula_sum   'Pr4 Zn6 Au12'
_cell_volume   451.73488540
_cell_formula_units_Z   2
loop_
 _symmetry_equiv_pos_site_id
 _symmetry_equiv_pos_as_xyz
  1  'x, y, z'
loop_
 _atom_site_type_symbol
 _atom_site_label
 _atom_site_symmetry_multiplicity
 _atom_site_fract_x
 _atom_site_fract_y
 _atom_site_fract_z
 _atom_site_occupancy
  Pr  Pr0  1  0.907976  0.907976  0.907976  1
  Pr  Pr1  1  0.407976  0.407976  0.407976  1
  Pr  Pr2  1  0.092024  0.092024  0.092024  1
  Pr  Pr3  1  0.592024  0.592024  0.592024  1
  Zn  Zn4  1  0.548227  0.750000  0.951773  1
  Zn  Zn5  1  0.951773  0.548227  0.750000  1
  Zn  Zn6  1  0.750000  0.951773  0.548227  1
  Zn  Zn7  1  0.451773  0.250000  0.048227  1
  Zn  Zn8  1  0.048227  0.451773  0.250000  1
  Zn  Zn9  1  0.250000  0.048227  0.451773  1
  Au  Au10  1  0.489610  0.862894  0.204230  1
  Au  Au11  1  0.204230  0.489610  0.862894  1
  Au  Au12  1  0.862894  0.204230  0.489610  1
  Au  Au13  1  0.704230  0.362894  0.989610  1
  Au  Au14  1  0.989610  0.704230  0.362894  1
  Au  Au15  1  0.362894  0.989610  0.704230  1
  Au  Au16  1  0.510390  0.137106  0.795770  1
  Au  Au17  1  0.795770  0.510390  0.137106  1
  Au  Au18  1  0.137106  0.795770  0.510390  1
  Au  Au19  1  0.295770  0.637106  0.010390  1
  Au  Au20  1  0.010390  0.295770  0.637106  1
  Au  Au21  1  0.637106  0.010390  0.295770  1
