# generated using pymatgen
data_Pr8HoErSn6
_symmetry_space_group_name_H-M   'P 1'
_cell_length_a   9.28554600
_cell_length_b   9.28554711
_cell_length_c   6.81115700
_cell_angle_alpha   90.00000000
_cell_angle_beta   90.00000000
_cell_angle_gamma   119.99999606
_symmetry_Int_Tables_number   1
_chemical_formula_structural   Pr8HoErSn6
_chemical_formula_sum   'Pr8 Ho1 Er1 Sn6'
_cell_volume   508.58843843
_cell_formula_units_Z   1
loop_
 _symmetry_equiv_pos_site_id
 _symmetry_equiv_pos_as_xyz
  1  'x, y, z'
loop_
 _atom_site_type_symbol
 _atom_site_label
 _atom_site_symmetry_multiplicity
 _atom_site_fract_x
 _atom_site_fract_y
 _atom_site_fract_z
 _atom_site_occupancy
  Pr  Pr0  1  0.333333  0.666667  0.000000  1
  Pr  Pr1  1  0.666667  0.333333  0.000000  1
  Pr  Pr2  1  0.756272  0.756305  0.252576  1
  Pr  Pr3  1  0.243695  0.999967  0.252576  1
  Pr  Pr4  1  0.000033  0.243728  0.252576  1
  Pr  Pr5  1  0.243695  0.243728  0.747424  1
  Pr  Pr6  1  0.756272  0.999967  0.747424  1
  Pr  Pr7  1  0.000033  0.756305  0.747424  1
  Ho  Ho8  1  0.666667  0.333333  0.500000  1
  Er  Er9  1  0.333333  0.666667  0.500000  1
  Sn  Sn10  1  0.396013  0.396071  0.260126  1
  Sn  Sn11  1  0.603929  0.999942  0.260126  1
  Sn  Sn12  1  0.000058  0.603987  0.260126  1
  Sn  Sn13  1  0.603929  0.603987  0.739874  1
  Sn  Sn14  1  0.396013  0.999942  0.739874  1
  Sn  Sn15  1  0.000058  0.396071  0.739874  1
