# generated using pymatgen
data_Yb6Pr2Si12NiPd3
_symmetry_space_group_name_H-M   'P 1'
_cell_length_a   8.21253800
_cell_length_b   8.21253617
_cell_length_c   8.36698000
_cell_angle_alpha   90.00000000
_cell_angle_beta   90.00000000
_cell_angle_gamma   119.99999932
_symmetry_Int_Tables_number   1
_chemical_formula_structural   Yb6Pr2Si12NiPd3
_chemical_formula_sum   'Yb6 Pr2 Si12 Ni1 Pd3'
_cell_volume   488.71318143
_cell_formula_units_Z   1
loop_
 _symmetry_equiv_pos_site_id
 _symmetry_equiv_pos_as_xyz
  1  'x, y, z'
loop_
 _atom_site_type_symbol
 _atom_site_label
 _atom_site_symmetry_multiplicity
 _atom_site_fract_x
 _atom_site_fract_y
 _atom_site_fract_z
 _atom_site_occupancy
  Yb  Yb0  1  0.498879  0.997758  0.249290  1
  Yb  Yb1  1  0.499038  0.998075  0.750754  1
  Yb  Yb2  1  0.002242  0.501121  0.249290  1
  Yb  Yb3  1  0.001925  0.500962  0.750754  1
  Yb  Yb4  1  0.498879  0.501121  0.249290  1
  Yb  Yb5  1  0.499038  0.500962  0.750754  1
  Pr  Pr6  1  0.000000  0.000000  0.248817  1
  Pr  Pr7  1  0.000000  0.000000  0.751182  1
  Si  Si8  1  0.171182  0.342364  0.000057  1
  Si  Si9  1  0.834675  0.669350  0.999873  1
  Si  Si10  1  0.657636  0.828818  0.000057  1
  Si  Si11  1  0.834271  0.668543  0.499832  1
  Si  Si12  1  0.330650  0.165325  0.999873  1
  Si  Si13  1  0.165331  0.330662  0.500226  1
  Si  Si14  1  0.171182  0.828818  0.000057  1
  Si  Si15  1  0.331457  0.165729  0.499832  1
  Si  Si16  1  0.834675  0.165325  0.999873  1
  Si  Si17  1  0.669338  0.834669  0.500226  1
  Si  Si18  1  0.834271  0.165729  0.499832  1
  Si  Si19  1  0.165331  0.834669  0.500226  1
  Ni  Ni20  1  0.333333  0.666667  0.999686  1
  Pd  Pd21  1  0.666667  0.333333  0.999867  1
  Pd  Pd22  1  0.666667  0.333333  0.499820  1
  Pd  Pd23  1  0.333333  0.666667  0.500531  1
