# generated using pymatgen
data_Hf7Zr3(PaPt5)4
_symmetry_space_group_name_H-M   'P 1'
_cell_length_a   8.28279659
_cell_length_b   8.28279596
_cell_length_c   9.81469920
_cell_angle_alpha   89.98613013
_cell_angle_beta   89.98612719
_cell_angle_gamma   107.17169514
_symmetry_Int_Tables_number   1
_chemical_formula_structural   Hf7Zr3(PaPt5)4
_chemical_formula_sum   'Hf7 Zr3 Pa4 Pt20'
_cell_volume   643.32023669
_cell_formula_units_Z   1
loop_
 _symmetry_equiv_pos_site_id
 _symmetry_equiv_pos_as_xyz
  1  'x, y, z'
loop_
 _atom_site_type_symbol
 _atom_site_label
 _atom_site_symmetry_multiplicity
 _atom_site_fract_x
 _atom_site_fract_y
 _atom_site_fract_z
 _atom_site_occupancy
  Hf  Hf0  1  0.000257  0.000257  0.000522  1
  Hf  Hf1  1  0.499482  0.499482  0.499728  1
  Hf  Hf2  1  0.000795  0.499976  0.250124  1
  Hf  Hf3  1  0.999525  0.499510  0.749985  1
  Hf  Hf4  1  0.499510  0.999525  0.749985  1
  Hf  Hf5  1  0.499976  0.000795  0.250124  1
  Hf  Hf6  1  0.310623  0.310623  0.187954  1
  Zr  Zr7  1  0.691572  0.691572  0.809884  1
  Zr  Zr8  1  0.190997  0.190997  0.689961  1
  Zr  Zr9  1  0.808736  0.808736  0.310273  1
  Pa  Pa10  1  0.689231  0.310692  0.999982  1
  Pa  Pa11  1  0.310692  0.689231  0.999982  1
  Pa  Pa12  1  0.810686  0.189357  0.499993  1
  Pa  Pa13  1  0.189357  0.810686  0.499993  1
  Pt  Pt14  1  0.850466  0.141305  0.207725  1
  Pt  Pt15  1  0.149334  0.858896  0.792831  1
  Pt  Pt16  1  0.648643  0.358589  0.707622  1
  Pt  Pt17  1  0.638818  0.350518  0.291927  1
  Pt  Pt18  1  0.350518  0.638818  0.291927  1
  Pt  Pt19  1  0.358589  0.648643  0.707622  1
  Pt  Pt20  1  0.858896  0.149334  0.792831  1
  Pt  Pt21  1  0.141305  0.850466  0.207725  1
  Pt  Pt22  1  0.938026  0.647128  0.997172  1
  Pt  Pt23  1  0.063455  0.352060  0.004578  1
  Pt  Pt24  1  0.561522  0.852375  0.496811  1
  Pt  Pt25  1  0.147213  0.438089  0.503218  1
  Pt  Pt26  1  0.438089  0.147213  0.503218  1
  Pt  Pt27  1  0.852375  0.561522  0.496811  1
  Pt  Pt28  1  0.352060  0.063455  0.004578  1
  Pt  Pt29  1  0.647128  0.938026  0.997172  1
  Pt  Pt30  1  0.109361  0.109361  0.390775  1
  Pt  Pt31  1  0.893641  0.893641  0.606153  1
  Pt  Pt32  1  0.393152  0.393152  0.894158  1
  Pt  Pt33  1  0.605969  0.605969  0.106659  1
