# generated using pymatgen
data_K4Ti6CoCl18
_symmetry_space_group_name_H-M   'P 1'
_cell_length_a   9.80566709
_cell_length_b   10.00923976
_cell_length_c   10.09310900
_cell_angle_alpha   118.49552239
_cell_angle_beta   100.45824451
_cell_angle_gamma   103.75399329
_symmetry_Int_Tables_number   1
_chemical_formula_structural   K4Ti6CoCl18
_chemical_formula_sum   'K4 Ti6 Co1 Cl18'
_cell_volume   793.55917279
_cell_formula_units_Z   1
loop_
 _symmetry_equiv_pos_site_id
 _symmetry_equiv_pos_as_xyz
  1  'x, y, z'
loop_
 _atom_site_type_symbol
 _atom_site_label
 _atom_site_symmetry_multiplicity
 _atom_site_fract_x
 _atom_site_fract_y
 _atom_site_fract_z
 _atom_site_occupancy
  K  K0  1  0.658909  0.539780  0.230158  1
  K  K1  1  0.341091  0.460220  0.769842  1
  K  K2  1  0.694521  0.228827  0.567389  1
  K  K3  1  0.305479  0.771173  0.432611  1
  Ti  Ti4  1  0.157022  0.058870  0.239152  1
  Ti  Ti5  1  0.842978  0.941130  0.760848  1
  Ti  Ti6  1  0.855828  0.133573  0.140692  1
  Ti  Ti7  1  0.144172  0.866427  0.859308  1
  Ti  Ti8  1  0.151125  0.245798  0.046258  1
  Ti  Ti9  1  0.848875  0.754202  0.953742  1
  Co  Co10  1  0.000000  0.000000  0.000000  1
  Cl  Cl11  1  0.011576  0.397947  0.191019  1
  Cl  Cl12  1  0.988424  0.602053  0.808981  1
  Cl  Cl13  1  0.320343  0.321284  0.300499  1
  Cl  Cl14  1  0.679657  0.678716  0.699501  1
  Cl  Cl15  1  0.320608  0.511730  0.099197  1
  Cl  Cl16  1  0.679392  0.488270  0.900803  1
  Cl  Cl17  1  0.005414  0.803427  0.202105  1
  Cl  Cl18  1  0.994586  0.196573  0.797895  1
  Cl  Cl19  1  0.708748  0.271821  0.284444  1
  Cl  Cl20  1  0.291252  0.728179  0.715556  1
  Cl  Cl21  1  0.306442  0.123734  0.906776  1
  Cl  Cl22  1  0.693558  0.876266  0.093224  1
  Cl  Cl23  1  0.018872  0.199100  0.399274  1
  Cl  Cl24  1  0.981128  0.800900  0.600726  1
  Cl  Cl25  1  0.309919  0.925549  0.107577  1
  Cl  Cl26  1  0.690081  0.074451  0.892423  1
  Cl  Cl27  1  0.333968  0.120673  0.494395  1
  Cl  Cl28  1  0.666032  0.879327  0.505605  1
