# generated using pymatgen
data_TbHo15CdIn3Rh4
_symmetry_space_group_name_H-M   'P 1'
_cell_length_a   9.61562951
_cell_length_b   9.61549374
_cell_length_c   9.61232100
_cell_angle_alpha   60.01091098
_cell_angle_beta   60.01137786
_cell_angle_gamma   60.01094869
_symmetry_Int_Tables_number   1
_chemical_formula_structural   TbHo15CdIn3Rh4
_chemical_formula_sum   'Tb1 Ho15 Cd1 In3 Rh4'
_cell_volume   628.59605187
_cell_formula_units_Z   1
loop_
 _symmetry_equiv_pos_site_id
 _symmetry_equiv_pos_as_xyz
  1  'x, y, z'
loop_
 _atom_site_type_symbol
 _atom_site_label
 _atom_site_symmetry_multiplicity
 _atom_site_fract_x
 _atom_site_fract_y
 _atom_site_fract_z
 _atom_site_occupancy
  Tb  Tb0  1  0.936237  0.933823  0.564970  1
  Ho  Ho1  1  0.563278  0.560139  0.938291  1
  Ho  Ho2  1  0.690317  0.690494  0.309595  1
  Ho  Ho3  1  0.148880  0.550059  0.150530  1
  Ho  Ho4  1  0.688943  0.312842  0.688231  1
  Ho  Ho5  1  0.150839  0.149982  0.153107  1
  Ho  Ho6  1  0.549311  0.148824  0.150932  1
  Ho  Ho7  1  0.688943  0.312842  0.309983  1
  Ho  Ho8  1  0.150839  0.149982  0.546069  1
  Ho  Ho9  1  0.311390  0.690535  0.308451  1
  Ho  Ho10  1  0.311390  0.690535  0.689625  1
  Ho  Ho11  1  0.936924  0.560045  0.565216  1
  Ho  Ho12  1  0.936924  0.560045  0.937814  1
  Ho  Ho13  1  0.562334  0.936069  0.563330  1
  Ho  Ho14  1  0.562334  0.936069  0.938268  1
  Ho  Ho15  1  0.311498  0.310937  0.688782  1
  Cd  Cd16  1  0.918049  0.247264  0.917343  1
  In  In17  1  0.917157  0.919395  0.246539  1
  In  In18  1  0.247324  0.919994  0.916342  1
  In  In19  1  0.917157  0.919395  0.916910  1
  Rh  Rh20  1  0.357344  0.357972  0.927507  1
  Rh  Rh21  1  0.358962  0.925602  0.357718  1
  Rh  Rh22  1  0.926281  0.359179  0.357270  1
  Rh  Rh23  1  0.357344  0.357972  0.357177  1
