# generated using pymatgen
data_UCo3Sn
_symmetry_space_group_name_H-M   'P 1'
_cell_length_a   5.17036200
_cell_length_b   7.26689900
_cell_length_c   8.16550300
_cell_angle_alpha   90.00000000
_cell_angle_beta   90.00000000
_cell_angle_gamma   90.00000000
_symmetry_Int_Tables_number   1
_chemical_formula_structural   UCo3Sn
_chemical_formula_sum   'U4 Co12 Sn4'
_cell_volume   306.79834879
_cell_formula_units_Z   4
loop_
 _symmetry_equiv_pos_site_id
 _symmetry_equiv_pos_as_xyz
  1  'x, y, z'
loop_
 _atom_site_type_symbol
 _atom_site_label
 _atom_site_symmetry_multiplicity
 _atom_site_fract_x
 _atom_site_fract_y
 _atom_site_fract_z
 _atom_site_occupancy
  U  U0  1  0.750000  0.881405  0.831298  1
  U  U1  1  0.750000  0.381405  0.668702  1
  U  U2  1  0.250000  0.118595  0.168702  1
  U  U3  1  0.250000  0.618595  0.331298  1
  Co  Co4  1  0.750000  0.551261  0.424853  1
  Co  Co5  1  0.750000  0.051261  0.075147  1
  Co  Co6  1  0.250000  0.448739  0.575147  1
  Co  Co7  1  0.250000  0.948739  0.924853  1
  Co  Co8  1  0.998092  0.251873  0.371901  1
  Co  Co9  1  0.501908  0.751873  0.128099  1
  Co  Co10  1  0.498092  0.748127  0.628099  1
  Co  Co11  1  0.001908  0.248127  0.871901  1
  Co  Co12  1  0.001908  0.748127  0.628099  1
  Co  Co13  1  0.498092  0.248127  0.871901  1
  Co  Co14  1  0.501908  0.251873  0.371901  1
  Co  Co15  1  0.998092  0.751873  0.128099  1
  Sn  Sn16  1  0.750000  0.927422  0.386930  1
  Sn  Sn17  1  0.750000  0.427422  0.113070  1
  Sn  Sn18  1  0.250000  0.072578  0.613070  1
  Sn  Sn19  1  0.250000  0.572578  0.886930  1
