# generated using pymatgen
data_Sm3Gd3RuCl10
_symmetry_space_group_name_H-M   'P 1'
_cell_length_a   7.38157411
_cell_length_b   9.02758734
_cell_length_c   9.29072700
_cell_angle_alpha   109.69403482
_cell_angle_beta   96.84140316
_cell_angle_gamma   106.47597105
_symmetry_Int_Tables_number   1
_chemical_formula_structural   Sm3Gd3RuCl10
_chemical_formula_sum   'Sm3 Gd3 Ru1 Cl10'
_cell_volume   542.92983659
_cell_formula_units_Z   1
loop_
 _symmetry_equiv_pos_site_id
 _symmetry_equiv_pos_as_xyz
  1  'x, y, z'
loop_
 _atom_site_type_symbol
 _atom_site_label
 _atom_site_symmetry_multiplicity
 _atom_site_fract_x
 _atom_site_fract_y
 _atom_site_fract_z
 _atom_site_occupancy
  Sm  Sm0  1  0.030479  0.704414  0.905498  1
  Sm  Sm1  1  0.374845  0.150510  0.198802  1
  Sm  Sm2  1  0.968146  0.294375  0.093598  1
  Gd  Gd3  1  0.140625  0.059379  0.752110  1
  Gd  Gd4  1  0.624931  0.850330  0.801315  1
  Gd  Gd5  1  0.859096  0.939891  0.247727  1
  Ru  Ru6  1  0.000629  0.999840  0.000148  1
  Cl  Cl7  1  0.211797  0.755829  0.662466  1
  Cl  Cl8  1  0.652681  0.547097  0.723131  1
  Cl  Cl9  1  0.233195  0.079766  0.449921  1
  Cl  Cl10  1  0.793693  0.244803  0.339778  1
  Cl  Cl11  1  0.551750  0.168948  0.928138  1
  Cl  Cl12  1  0.767321  0.918664  0.550288  1
  Cl  Cl13  1  0.909198  0.629310  0.157809  1
  Cl  Cl14  1  0.346535  0.455251  0.274961  1
  Cl  Cl15  1  0.088228  0.369118  0.840691  1
  Cl  Cl16  1  0.446851  0.832477  0.073621  1
