# generated using pymatgen
data_HoEr5Si4(GeRu2)2
_symmetry_space_group_name_H-M   'P 1'
_cell_length_a   5.71722392
_cell_length_b   5.71722333
_cell_length_c   13.82061900
_cell_angle_alpha   90.00000000
_cell_angle_beta   90.00000000
_cell_angle_gamma   137.24475110
_symmetry_Int_Tables_number   1
_chemical_formula_structural   HoEr5Si4(GeRu2)2
_chemical_formula_sum   'Ho1 Er5 Si4 Ge2 Ru4'
_cell_volume   306.67840838
_cell_formula_units_Z   1
loop_
 _symmetry_equiv_pos_site_id
 _symmetry_equiv_pos_as_xyz
  1  'x, y, z'
loop_
 _atom_site_type_symbol
 _atom_site_label
 _atom_site_symmetry_multiplicity
 _atom_site_fract_x
 _atom_site_fract_y
 _atom_site_fract_z
 _atom_site_occupancy
  Ho  Ho0  1  0.644776  0.355224  0.250000  1
  Er  Er1  1  0.924595  0.075405  0.387403  1
  Er  Er2  1  0.075403  0.924597  0.612676  1
  Er  Er3  1  0.924595  0.075405  0.112597  1
  Er  Er4  1  0.075403  0.924597  0.887324  1
  Er  Er5  1  0.354809  0.645191  0.750000  1
  Si  Si6  1  0.616627  0.383373  0.461402  1
  Si  Si7  1  0.383371  0.616629  0.538846  1
  Si  Si8  1  0.616627  0.383373  0.038598  1
  Si  Si9  1  0.383371  0.616629  0.961154  1
  Ge  Ge10  1  0.338427  0.661573  0.250000  1
  Ge  Ge11  1  0.661817  0.338183  0.750000  1
  Ru  Ru12  1  0.788441  0.211559  0.920617  1
  Ru  Ru13  1  0.211649  0.788351  0.079110  1
  Ru  Ru14  1  0.788441  0.211559  0.579383  1
  Ru  Ru15  1  0.211649  0.788351  0.420890  1
