# generated using pymatgen
data_Sc4CoSi2Ni5
_symmetry_space_group_name_H-M   'P 1'
_cell_length_a   5.00629848
_cell_length_b   4.98029166
_cell_length_c   7.68654400
_cell_angle_alpha   90.00000000
_cell_angle_beta   90.00000000
_cell_angle_gamma   119.82830801
_symmetry_Int_Tables_number   1
_chemical_formula_structural   Sc4CoSi2Ni5
_chemical_formula_sum   'Sc4 Co1 Si2 Ni5'
_cell_volume   166.25780163
_cell_formula_units_Z   1
loop_
 _symmetry_equiv_pos_site_id
 _symmetry_equiv_pos_as_xyz
  1  'x, y, z'
loop_
 _atom_site_type_symbol
 _atom_site_label
 _atom_site_symmetry_multiplicity
 _atom_site_fract_x
 _atom_site_fract_y
 _atom_site_fract_z
 _atom_site_occupancy
  Sc  Sc0  1  0.332330  0.666165  0.560188  1
  Sc  Sc1  1  0.664117  0.332058  0.443949  1
  Sc  Sc2  1  0.664117  0.332058  0.056051  1
  Sc  Sc3  1  0.332330  0.666165  0.939812  1
  Co  Co4  1  0.336025  0.168013  0.750000  1
  Si  Si5  1  0.004088  0.002044  0.502470  1
  Si  Si6  1  0.004088  0.002044  0.997530  1
  Ni  Ni7  1  0.830171  0.167633  0.750000  1
  Ni  Ni8  1  0.666071  0.833035  0.250000  1
  Ni  Ni9  1  0.168246  0.831812  0.250000  1
  Ni  Ni10  1  0.830171  0.662539  0.750000  1
  Ni  Ni11  1  0.168246  0.336433  0.250000  1
