# generated using pymatgen
data_LiPr8Er8Sc3Si16
_symmetry_space_group_name_H-M   'P 1'
_cell_length_a   7.33989459
_cell_length_b   7.74605562
_cell_length_c   14.70464800
_cell_angle_alpha   90.00000000
_cell_angle_beta   90.00000000
_cell_angle_gamma   90.04590040
_symmetry_Int_Tables_number   1
_chemical_formula_structural   LiPr8Er8Sc3Si16
_chemical_formula_sum   'Li1 Pr8 Er8 Sc3 Si16'
_cell_volume   836.03590142
_cell_formula_units_Z   1
loop_
 _symmetry_equiv_pos_site_id
 _symmetry_equiv_pos_as_xyz
  1  'x, y, z'
loop_
 _atom_site_type_symbol
 _atom_site_label
 _atom_site_symmetry_multiplicity
 _atom_site_fract_x
 _atom_site_fract_y
 _atom_site_fract_z
 _atom_site_occupancy
  Li  Li0  1  0.655011  0.990581  0.750000  1
  Pr  Pr1  1  0.016944  0.177923  0.401565  1
  Pr  Pr2  1  0.516637  0.322820  0.401304  1
  Pr  Pr3  1  0.483236  0.686016  0.898658  1
  Pr  Pr4  1  0.483236  0.686016  0.601342  1
  Pr  Pr5  1  0.975675  0.822916  0.600803  1
  Pr  Pr6  1  0.975675  0.822916  0.899197  1
  Pr  Pr7  1  0.516637  0.322820  0.098696  1
  Pr  Pr8  1  0.016944  0.177923  0.098435  1
  Er  Er9  1  0.330406  0.175167  0.625646  1
  Er  Er10  1  0.677148  0.820569  0.374020  1
  Er  Er11  1  0.176890  0.677235  0.375473  1
  Er  Er12  1  0.822127  0.315552  0.874552  1
  Er  Er13  1  0.822127  0.315552  0.625448  1
  Er  Er14  1  0.330406  0.175167  0.874354  1
  Er  Er15  1  0.176890  0.677235  0.124527  1
  Er  Er16  1  0.677148  0.820569  0.125980  1
  Sc  Sc17  1  0.845305  0.491541  0.250000  1
  Sc  Sc18  1  0.344335  0.009129  0.250000  1
  Sc  Sc19  1  0.153327  0.507300  0.750000  1
  Si  Si20  1  0.269347  0.876706  0.750000  1
  Si  Si21  1  0.476374  0.607648  0.250000  1
  Si  Si22  1  0.033177  0.109323  0.750000  1
  Si  Si23  1  0.522722  0.402126  0.750000  1
  Si  Si24  1  0.149955  0.468473  0.541266  1
  Si  Si25  1  0.977088  0.889473  0.250000  1
  Si  Si26  1  0.716799  0.125497  0.250000  1
  Si  Si27  1  0.851942  0.532443  0.037564  1
  Si  Si28  1  0.351643  0.967024  0.040004  1
  Si  Si29  1  0.149955  0.468473  0.958734  1
  Si  Si30  1  0.650632  0.036708  0.532182  1
  Si  Si31  1  0.351643  0.967024  0.459996  1
  Si  Si32  1  0.851942  0.532443  0.462436  1
  Si  Si33  1  0.782670  0.609416  0.750000  1
  Si  Si34  1  0.217376  0.375566  0.250000  1
  Si  Si35  1  0.650632  0.036708  0.967818  1
