# generated using pymatgen
data_Ta6Al3ReGeRuC2
_symmetry_space_group_name_H-M   'P 1'
_cell_length_a   8.32095821
_cell_length_b   8.28517088
_cell_length_c   8.32095700
_cell_angle_alpha   60.14215974
_cell_angle_beta   60.33596569
_cell_angle_gamma   60.14216496
_symmetry_Int_Tables_number   1
_chemical_formula_structural   Ta6Al3ReGeRuC2
_chemical_formula_sum   'Ta12 Al6 Re2 Ge2 Ru2 C4'
_cell_volume   407.52878030
_cell_formula_units_Z   2
loop_
 _symmetry_equiv_pos_site_id
 _symmetry_equiv_pos_as_xyz
  1  'x, y, z'
loop_
 _atom_site_type_symbol
 _atom_site_label
 _atom_site_symmetry_multiplicity
 _atom_site_fract_x
 _atom_site_fract_y
 _atom_site_fract_z
 _atom_site_occupancy
  Ta  Ta0  1  0.552289  0.947497  0.552579  1
  Ta  Ta1  1  0.310557  0.695256  0.685787  1
  Ta  Ta2  1  0.688148  0.305493  0.306750  1
  Ta  Ta3  1  0.311982  0.688483  0.311559  1
  Ta  Ta4  1  0.686921  0.695900  0.309991  1
  Ta  Ta5  1  0.307597  0.306780  0.687002  1
  Ta  Ta6  1  0.562563  0.550848  0.942993  1
  Ta  Ta7  1  0.941437  0.554523  0.563912  1
  Ta  Ta8  1  0.561521  0.943646  0.942423  1
  Ta  Ta9  1  0.941016  0.940357  0.563033  1
  Ta  Ta10  1  0.692812  0.306976  0.694847  1
  Ta  Ta11  1  0.938392  0.562663  0.936885  1
  Al  Al12  1  0.333356  0.000496  0.330101  1
  Al  Al13  1  0.332017  0.336932  0.995261  1
  Al  Al14  1  0.922580  0.249642  0.919449  1
  Al  Al15  1  0.922570  0.912483  0.255029  1
  Al  Al16  1  0.255109  0.912781  0.921955  1
  Al  Al17  1  0.331729  0.338319  0.328703  1
  Re  Re18  1  0.628358  0.124032  0.122952  1
  Re  Re19  1  0.124210  0.124954  0.625168  1
  Ge  Ge20  1  0.918070  0.910242  0.914904  1
  Ge  Ge21  1  0.987788  0.339322  0.335066  1
  Ru  Ru22  1  0.124636  0.126656  0.127936  1
  Ru  Ru23  1  0.122393  0.625338  0.125062  1
  C  C24  1  0.625520  0.625660  0.625547  1
  C  C25  1  0.125849  0.624865  0.625018  1
  C  C26  1  0.625031  0.124934  0.624998  1
  C  C27  1  0.625548  0.624922  0.125090  1
