# generated using pymatgen
data_Y7HoTi12Si15Ge
_symmetry_space_group_name_H-M   'P 1'
_cell_length_a   7.07410838
_cell_length_b   7.06582198
_cell_length_c   12.98264304
_cell_angle_alpha   90.00460802
_cell_angle_beta   89.93578116
_cell_angle_gamma   89.97322912
_symmetry_Int_Tables_number   1
_chemical_formula_structural   Y7HoTi12Si15Ge
_chemical_formula_sum   'Y7 Ho1 Ti12 Si15 Ge1'
_cell_volume   648.92901860
_cell_formula_units_Z   1
loop_
 _symmetry_equiv_pos_site_id
 _symmetry_equiv_pos_as_xyz
  1  'x, y, z'
loop_
 _atom_site_type_symbol
 _atom_site_label
 _atom_site_symmetry_multiplicity
 _atom_site_fract_x
 _atom_site_fract_y
 _atom_site_fract_z
 _atom_site_occupancy
  Y  Y0  1  0.341607  0.001496  0.465633  1
  Y  Y1  1  0.498924  0.840184  0.717013  1
  Y  Y2  1  0.502340  0.159401  0.216734  1
  Y  Y3  1  0.840775  0.497466  0.283168  1
  Y  Y4  1  0.159233  0.503030  0.783841  1
  Y  Y5  1  0.660122  0.996900  0.967238  1
  Y  Y6  1  0.000234  0.342552  0.532181  1
  Ho  Ho7  1  0.998214  0.659028  0.033547  1
  Ti  Ti8  1  0.326103  0.326610  0.000190  1
  Ti  Ti9  1  0.173555  0.826209  0.249902  1
  Ti  Ti10  1  0.823199  0.174205  0.750546  1
  Ti  Ti11  1  0.673381  0.673523  0.499940  1
  Ti  Ti12  1  0.152104  0.009016  0.877654  1
  Ti  Ti13  1  0.491367  0.651299  0.126365  1
  Ti  Ti14  1  0.510552  0.349457  0.626580  1
  Ti  Ti15  1  0.652428  0.492086  0.874219  1
  Ti  Ti16  1  0.348076  0.509080  0.373438  1
  Ti  Ti17  1  0.848032  0.991481  0.376231  1
  Ti  Ti18  1  0.008956  0.151551  0.123669  1
  Ti  Ti19  1  0.988540  0.845170  0.622499  1
  Si  Si20  1  0.369268  0.702767  0.934692  1
  Si  Si21  1  0.629675  0.297520  0.434319  1
  Si  Si22  1  0.703157  0.369915  0.065861  1
  Si  Si23  1  0.297662  0.630272  0.565533  1
  Si  Si24  1  0.797606  0.869255  0.184277  1
  Si  Si25  1  0.130278  0.202537  0.315606  1
  Si  Si26  1  0.870250  0.797890  0.815761  1
  Si  Si27  1  0.290577  0.952052  0.065167  1
  Si  Si28  1  0.548135  0.790173  0.314538  1
  Si  Si29  1  0.455416  0.209960  0.816596  1
  Si  Si30  1  0.791026  0.547379  0.685533  1
  Si  Si31  1  0.209194  0.452606  0.185125  1
  Si  Si32  1  0.709011  0.047747  0.564768  1
  Si  Si33  1  0.952613  0.291001  0.935340  1
  Si  Si34  1  0.047738  0.709922  0.434739  1
  Ge  Ge35  1  0.200649  0.129260  0.681561  1
