# generated using pymatgen
data_CaSm6SeBr12
_symmetry_space_group_name_H-M   'P 1'
_cell_length_a   9.27754151
_cell_length_b   9.27706936
_cell_length_c   9.27708613
_cell_angle_alpha   106.81276164
_cell_angle_beta   106.79937973
_cell_angle_gamma   106.79610327
_symmetry_Int_Tables_number   1
_chemical_formula_structural   CaSm6SeBr12
_chemical_formula_sum   'Ca1 Sm6 Se1 Br12'
_cell_volume   668.51417839
_cell_formula_units_Z   1
loop_
 _symmetry_equiv_pos_site_id
 _symmetry_equiv_pos_as_xyz
  1  'x, y, z'
loop_
 _atom_site_type_symbol
 _atom_site_label
 _atom_site_symmetry_multiplicity
 _atom_site_fract_x
 _atom_site_fract_y
 _atom_site_fract_z
 _atom_site_occupancy
  Ca  Ca0  1  0.500001  0.500002  0.500001  1
  Sm  Sm1  1  0.318904  0.104258  0.026047  1
  Sm  Sm2  1  0.026065  0.318980  0.104322  1
  Sm  Sm3  1  0.104298  0.026083  0.318968  1
  Sm  Sm4  1  0.895701  0.973917  0.681031  1
  Sm  Sm5  1  0.973937  0.681019  0.895681  1
  Sm  Sm6  1  0.681096  0.895743  0.973953  1
  Se  Se7  1  0.000000  0.999999  0.999999  1
  Br  Br8  1  0.682010  0.227581  0.073232  1
  Br  Br9  1  0.376998  0.457773  0.156672  1
  Br  Br10  1  0.073272  0.682038  0.227578  1
  Br  Br11  1  0.772491  0.926765  0.317969  1
  Br  Br12  1  0.457815  0.156638  0.376962  1
  Br  Br13  1  0.156687  0.377014  0.457803  1
  Br  Br14  1  0.843314  0.622986  0.542199  1
  Br  Br15  1  0.542185  0.843363  0.623038  1
  Br  Br16  1  0.227509  0.073233  0.682030  1
  Br  Br17  1  0.926729  0.317963  0.772424  1
  Br  Br18  1  0.623002  0.542227  0.843327  1
  Br  Br19  1  0.317990  0.772420  0.926768  1
