# generated using pymatgen
data_TbDy5WO12
_symmetry_space_group_name_H-M   'P 1'
_cell_length_a   6.49630540
_cell_length_b   6.49425584
_cell_length_c   6.49350674
_cell_angle_alpha   98.69015866
_cell_angle_beta   98.61547132
_cell_angle_gamma   98.68949942
_symmetry_Int_Tables_number   1
_chemical_formula_structural   TbDy5WO12
_chemical_formula_sum   'Tb1 Dy5 W1 O12'
_cell_volume   263.48848751
_cell_formula_units_Z   1
loop_
 _symmetry_equiv_pos_site_id
 _symmetry_equiv_pos_as_xyz
  1  'x, y, z'
loop_
 _atom_site_type_symbol
 _atom_site_label
 _atom_site_symmetry_multiplicity
 _atom_site_fract_x
 _atom_site_fract_y
 _atom_site_fract_z
 _atom_site_occupancy
  Tb  Tb0  1  0.143963  0.315165  0.611737  1
  Dy  Dy1  1  0.389023  0.855587  0.684080  1
  Dy  Dy2  1  0.683998  0.388665  0.855983  1
  Dy  Dy3  1  0.316664  0.611439  0.144564  1
  Dy  Dy4  1  0.611168  0.143920  0.315820  1
  Dy  Dy5  1  0.855504  0.683532  0.388654  1
  W  W6  1  0.999671  0.999785  0.999679  1
  O  O7  1  0.076158  0.297098  0.966541  1
  O  O8  1  0.034552  0.924288  0.702973  1
  O  O9  1  0.410462  0.568075  0.823145  1
  O  O10  1  0.177411  0.592270  0.432621  1
  O  O11  1  0.703534  0.034303  0.923339  1
  O  O12  1  0.433723  0.176735  0.591303  1
  O  O13  1  0.567779  0.822417  0.408748  1
  O  O14  1  0.296486  0.965307  0.075825  1
  O  O15  1  0.821488  0.409654  0.567123  1
  O  O16  1  0.590388  0.431882  0.177411  1
  O  O17  1  0.964938  0.076450  0.296201  1
  O  O18  1  0.923092  0.703429  0.034255  1
