# generated using pymatgen
data_Er7ScGa12Ir3Au
_symmetry_space_group_name_H-M   'P 1'
_cell_length_a   7.01894100
_cell_length_b   8.80808753
_cell_length_c   8.80808700
_cell_angle_alpha   119.99999426
_cell_angle_beta   90.00000000
_cell_angle_gamma   90.00000000
_symmetry_Int_Tables_number   1
_chemical_formula_structural   Er7ScGa12Ir3Au
_chemical_formula_sum   'Er7 Sc1 Ga12 Ir3 Au1'
_cell_volume   471.59095408
_cell_formula_units_Z   1
loop_
 _symmetry_equiv_pos_site_id
 _symmetry_equiv_pos_as_xyz
  1  'x, y, z'
loop_
 _atom_site_type_symbol
 _atom_site_label
 _atom_site_symmetry_multiplicity
 _atom_site_fract_x
 _atom_site_fract_y
 _atom_site_fract_z
 _atom_site_occupancy
  Er  Er0  1  0.251122  0.000000  0.000000  1
  Er  Er1  1  0.750290  0.472749  0.527251  1
  Er  Er2  1  0.242969  0.520380  0.479620  1
  Er  Er3  1  0.750290  0.054503  0.527251  1
  Er  Er4  1  0.242969  0.959238  0.479620  1
  Er  Er5  1  0.750290  0.472749  0.945497  1
  Er  Er6  1  0.242969  0.520380  0.040762  1
  Sc  Sc7  1  0.759469  0.000000  0.000000  1
  Ga  Ga8  1  0.947783  0.832372  0.167628  1
  Ga  Ga9  1  0.044755  0.167210  0.832790  1
  Ga  Ga10  1  0.947783  0.335256  0.167628  1
  Ga  Ga11  1  0.449858  0.168655  0.831345  1
  Ga  Ga12  1  0.044755  0.665579  0.832790  1
  Ga  Ga13  1  0.551943  0.838877  0.161123  1
  Ga  Ga14  1  0.947783  0.832372  0.664744  1
  Ga  Ga15  1  0.449858  0.662690  0.831345  1
  Ga  Ga16  1  0.044755  0.167210  0.334421  1
  Ga  Ga17  1  0.551943  0.322245  0.161123  1
  Ga  Ga18  1  0.449858  0.168655  0.337310  1
  Ga  Ga19  1  0.551943  0.838877  0.677755  1
  Ir  Ir20  1  0.978937  0.666667  0.333333  1
  Ir  Ir21  1  0.032592  0.333333  0.666667  1
  Ir  Ir22  1  0.467158  0.333333  0.666667  1
  Au  Au23  1  0.547923  0.666667  0.333333  1
