# generated using pymatgen
data_CeCu3PtAu
_symmetry_space_group_name_H-M   'P 1'
_cell_length_a   5.21417452
_cell_length_b   5.21417550
_cell_length_c   5.21417487
_cell_angle_alpha   58.91084582
_cell_angle_beta   58.91084810
_cell_angle_gamma   58.91084241
_symmetry_Int_Tables_number   1
_chemical_formula_structural   CeCu3PtAu
_chemical_formula_sum   'Ce1 Cu3 Pt1 Au1'
_cell_volume   97.74850011
_cell_formula_units_Z   1
loop_
 _symmetry_equiv_pos_site_id
 _symmetry_equiv_pos_as_xyz
  1  'x, y, z'
loop_
 _atom_site_type_symbol
 _atom_site_label
 _atom_site_symmetry_multiplicity
 _atom_site_fract_x
 _atom_site_fract_y
 _atom_site_fract_z
 _atom_site_occupancy
  Ce  Ce0  1  0.251236  0.251236  0.251236  1
  Cu  Cu1  1  0.623379  0.623379  0.119139  1
  Cu  Cu2  1  0.623379  0.119139  0.623379  1
  Cu  Cu3  1  0.119139  0.623379  0.623379  1
  Pt  Pt4  1  0.622143  0.622143  0.622143  1
  Au  Au5  1  0.010721  0.010721  0.010721  1
