# generated using pymatgen
data_YEr7Sc12Si15Os
_symmetry_space_group_name_H-M   'P 1'
_cell_length_a   7.05687912
_cell_length_b   7.41172417
_cell_length_c   13.89986139
_cell_angle_alpha   90.02608438
_cell_angle_beta   90.00797885
_cell_angle_gamma   90.21093712
_symmetry_Int_Tables_number   1
_chemical_formula_structural   YEr7Sc12Si15Os
_chemical_formula_sum   'Y1 Er7 Sc12 Si15 Os1'
_cell_volume   727.00835809
_cell_formula_units_Z   1
loop_
 _symmetry_equiv_pos_site_id
 _symmetry_equiv_pos_as_xyz
  1  'x, y, z'
loop_
 _atom_site_type_symbol
 _atom_site_label
 _atom_site_symmetry_multiplicity
 _atom_site_fract_x
 _atom_site_fract_y
 _atom_site_fract_z
 _atom_site_occupancy
  Y  Y0  1  0.011703  0.179710  0.096092  1
  Er  Er1  1  0.990228  0.827311  0.904420  1
  Er  Er2  1  0.488226  0.677204  0.904568  1
  Er  Er3  1  0.990220  0.827487  0.595530  1
  Er  Er4  1  0.511486  0.322725  0.096167  1
  Er  Er5  1  0.011980  0.180232  0.403537  1
  Er  Er6  1  0.511501  0.322591  0.403868  1
  Er  Er7  1  0.488150  0.677201  0.595415  1
  Sc  Sc8  1  0.156247  0.498559  0.750005  1
  Sc  Sc9  1  0.838800  0.495947  0.250138  1
  Sc  Sc10  1  0.340339  0.006413  0.250128  1
  Sc  Sc11  1  0.667926  0.996297  0.750009  1
  Sc  Sc12  1  0.316427  0.171300  0.627520  1
  Sc  Sc13  1  0.672662  0.826261  0.373698  1
  Sc  Sc14  1  0.172004  0.678101  0.374006  1
  Sc  Sc15  1  0.672526  0.826123  0.126338  1
  Sc  Sc16  1  0.837330  0.318606  0.627793  1
  Sc  Sc17  1  0.316576  0.171251  0.872398  1
  Sc  Sc18  1  0.837178  0.318778  0.872065  1
  Sc  Sc19  1  0.172034  0.678049  0.126032  1
  Si  Si20  1  0.969919  0.886357  0.250209  1
  Si  Si21  1  0.470510  0.613304  0.250032  1
  Si  Si22  1  0.528456  0.389715  0.749990  1
  Si  Si23  1  0.285297  0.863922  0.749994  1
  Si  Si24  1  0.713629  0.132364  0.250287  1
  Si  Si25  1  0.215340  0.370419  0.250392  1
  Si  Si26  1  0.778140  0.627630  0.749982  1
  Si  Si27  1  0.160250  0.468887  0.537008  1
  Si  Si28  1  0.843574  0.535717  0.461498  1
  Si  Si29  1  0.344240  0.966556  0.459766  1
  Si  Si30  1  0.843284  0.536393  0.038350  1
  Si  Si31  1  0.655428  0.034004  0.538353  1
  Si  Si32  1  0.160433  0.469440  0.962768  1
  Si  Si33  1  0.655201  0.033884  0.961561  1
  Si  Si34  1  0.345084  0.966078  0.040087  1
  Os  Os35  1  0.027670  0.105182  0.749999  1
