# generated using pymatgen
data_Ho3Al10(SiOs2)2
_symmetry_space_group_name_H-M   'P 1'
_cell_length_a   8.68578600
_cell_length_b   8.68578622
_cell_length_c   9.61888600
_cell_angle_alpha   90.00000000
_cell_angle_beta   90.00000000
_cell_angle_gamma   120.00000679
_symmetry_Int_Tables_number   1
_chemical_formula_structural   Ho3Al10(SiOs2)2
_chemical_formula_sum   'Ho6 Al20 Si4 Os8'
_cell_volume   628.45421082
_cell_formula_units_Z   2
loop_
 _symmetry_equiv_pos_site_id
 _symmetry_equiv_pos_as_xyz
  1  'x, y, z'
loop_
 _atom_site_type_symbol
 _atom_site_label
 _atom_site_symmetry_multiplicity
 _atom_site_fract_x
 _atom_site_fract_y
 _atom_site_fract_z
 _atom_site_occupancy
  Ho  Ho0  1  0.195667  0.391337  0.250000  1
  Ho  Ho1  1  0.804333  0.608663  0.750000  1
  Ho  Ho2  1  0.608663  0.804333  0.250000  1
  Ho  Ho3  1  0.391337  0.195667  0.750000  1
  Ho  Ho4  1  0.195667  0.804333  0.250000  1
  Ho  Ho5  1  0.804333  0.195667  0.750000  1
  Al  Al6  1  0.164958  0.329917  0.577260  1
  Al  Al7  1  0.835042  0.670083  0.422740  1
  Al  Al8  1  0.670083  0.835042  0.577260  1
  Al  Al9  1  0.835042  0.670083  0.077260  1
  Al  Al10  1  0.329917  0.164958  0.422740  1
  Al  Al11  1  0.164958  0.329917  0.922740  1
  Al  Al12  1  0.164958  0.835042  0.577260  1
  Al  Al13  1  0.329917  0.164958  0.077260  1
  Al  Al14  1  0.835042  0.164958  0.422740  1
  Al  Al15  1  0.670083  0.835042  0.922740  1
  Al  Al16  1  0.835042  0.164958  0.077260  1
  Al  Al17  1  0.164958  0.835042  0.922740  1
  Al  Al18  1  0.563663  0.127326  0.250000  1
  Al  Al19  1  0.436337  0.872674  0.750000  1
  Al  Al20  1  0.872674  0.436337  0.250000  1
  Al  Al21  1  0.127326  0.563663  0.750000  1
  Al  Al22  1  0.563663  0.436337  0.250000  1
  Al  Al23  1  0.436337  0.563663  0.750000  1
  Al  Al24  1  0.000000  0.000000  0.250000  1
  Al  Al25  1  0.000000  0.000000  0.750000  1
  Si  Si26  1  0.333333  0.666667  0.037743  1
  Si  Si27  1  0.666667  0.333333  0.962257  1
  Si  Si28  1  0.666667  0.333333  0.537743  1
  Si  Si29  1  0.333333  0.666667  0.462257  1
  Os  Os30  1  0.500000  0.000000  0.000000  1
  Os  Os31  1  0.000000  0.500000  0.000000  1
  Os  Os32  1  0.500000  0.000000  0.500000  1
  Os  Os33  1  0.500000  0.500000  0.000000  1
  Os  Os34  1  0.000000  0.500000  0.500000  1
  Os  Os35  1  0.500000  0.500000  0.500000  1
  Os  Os36  1  0.000000  0.000000  0.000000  1
  Os  Os37  1  0.000000  0.000000  0.500000  1
