# generated using pymatgen
data_CuPtRhS4
_symmetry_space_group_name_H-M   'P 1'
_cell_length_a   7.05142112
_cell_length_b   7.05142083
_cell_length_c   7.05142083
_cell_angle_alpha   119.66688726
_cell_angle_beta   120.28773659
_cell_angle_gamma   90.04014366
_symmetry_Int_Tables_number   1
_chemical_formula_structural   CuPtRhS4
_chemical_formula_sum   'Cu2 Pt2 Rh2 S8'
_cell_volume   247.99777572
_cell_formula_units_Z   2
loop_
 _symmetry_equiv_pos_site_id
 _symmetry_equiv_pos_as_xyz
  1  'x, y, z'
loop_
 _atom_site_type_symbol
 _atom_site_label
 _atom_site_symmetry_multiplicity
 _atom_site_fract_x
 _atom_site_fract_y
 _atom_site_fract_z
 _atom_site_occupancy
  Cu  Cu0  1  0.371884  0.621884  0.750000  1
  Cu  Cu1  1  0.628116  0.378116  0.250000  1
  Pt  Pt2  1  0.000000  0.000000  0.500000  1
  Pt  Pt3  1  0.000000  0.500000  0.000000  1
  Rh  Rh4  1  0.000000  0.000000  0.000000  1
  Rh  Rh5  1  0.500000  0.000000  0.500000  1
  S  S6  1  0.241470  0.763491  0.022020  1
  S  S7  1  0.241470  0.219450  0.477980  1
  S  S8  1  0.242642  0.761702  0.480940  1
  S  S9  1  0.780762  0.761702  0.019060  1
  S  S10  1  0.758530  0.236509  0.977980  1
  S  S11  1  0.758530  0.780550  0.522020  1
  S  S12  1  0.757358  0.238298  0.519060  1
  S  S13  1  0.219238  0.238298  0.980940  1
