# generated using pymatgen
data_DyZrCo12GeP6
_symmetry_space_group_name_H-M   'P 1'
_cell_length_a   9.07981700
_cell_length_b   9.07981746
_cell_length_c   3.57845100
_cell_angle_alpha   90.00000000
_cell_angle_beta   90.00000000
_cell_angle_gamma   119.99999469
_symmetry_Int_Tables_number   1
_chemical_formula_structural   DyZrCo12GeP6
_chemical_formula_sum   'Dy1 Zr1 Co12 Ge1 P6'
_cell_volume   255.49355116
_cell_formula_units_Z   1
loop_
 _symmetry_equiv_pos_site_id
 _symmetry_equiv_pos_as_xyz
  1  'x, y, z'
loop_
 _atom_site_type_symbol
 _atom_site_label
 _atom_site_symmetry_multiplicity
 _atom_site_fract_x
 _atom_site_fract_y
 _atom_site_fract_z
 _atom_site_occupancy
  Dy  Dy0  1  0.666667  0.333333  0.500000  1
  Zr  Zr1  1  0.333333  0.666667  0.000000  1
  Co  Co2  1  0.126747  0.837701  0.000000  1
  Co  Co3  1  0.383753  0.442096  0.500000  1
  Co  Co4  1  0.710954  0.873253  0.000000  1
  Co  Co5  1  0.557904  0.941657  0.500000  1
  Co  Co6  1  0.251218  0.110743  0.500000  1
  Co  Co7  1  0.859525  0.748782  0.500000  1
  Co  Co8  1  0.889257  0.140475  0.500000  1
  Co  Co9  1  0.941825  0.378713  0.000000  1
  Co  Co10  1  0.621287  0.563109  0.000000  1
  Co  Co11  1  0.436891  0.058175  0.000000  1
  Co  Co12  1  0.058343  0.616247  0.500000  1
  Co  Co13  1  0.162299  0.289046  0.000000  1
  Ge  Ge14  1  0.000000  0.000000  0.000000  1
  P  P15  1  0.593647  0.708071  0.500000  1
  P  P16  1  0.708164  0.113419  0.000000  1
  P  P17  1  0.886581  0.594746  0.000000  1
  P  P18  1  0.405254  0.291836  0.000000  1
  P  P19  1  0.291929  0.885576  0.500000  1
  P  P20  1  0.114424  0.406353  0.500000  1
