# generated using pymatgen
data_Pr9NdZn3GaRu6
_symmetry_space_group_name_H-M   'P 1'
_cell_length_a   8.55104454
_cell_length_b   8.59685567
_cell_length_c   8.55203414
_cell_angle_alpha   109.50533138
_cell_angle_beta   109.43811462
_cell_angle_gamma   109.56934778
_symmetry_Int_Tables_number   1
_chemical_formula_structural   Pr9NdZn3GaRu6
_chemical_formula_sum   'Pr9 Nd1 Zn3 Ga1 Ru6'
_cell_volume   483.36304959
_cell_formula_units_Z   1
loop_
 _symmetry_equiv_pos_site_id
 _symmetry_equiv_pos_as_xyz
  1  'x, y, z'
loop_
 _atom_site_type_symbol
 _atom_site_label
 _atom_site_symmetry_multiplicity
 _atom_site_fract_x
 _atom_site_fract_y
 _atom_site_fract_z
 _atom_site_occupancy
  Pr  Pr0  1  0.749103  0.814835  0.063407  1
  Pr  Pr1  1  0.437215  0.250865  0.686251  1
  Pr  Pr2  1  0.688090  0.435492  0.249824  1
  Pr  Pr3  1  0.061629  0.747566  0.811520  1
  Pr  Pr4  1  0.813266  0.064993  0.750684  1
  Pr  Pr5  1  0.221679  0.222071  0.221075  1
  Pr  Pr6  1  0.498881  0.000034  0.278327  1
  Pr  Pr7  1  0.279155  0.500944  0.000835  1
  Pr  Pr8  1  0.000548  0.278652  0.500246  1
  Nd  Nd9  1  0.250208  0.685349  0.437631  1
  Zn  Zn10  1  0.499256  0.999702  0.910102  1
  Zn  Zn11  1  0.588440  0.588852  0.588483  1
  Zn  Zn12  1  0.912490  0.501735  0.001594  1
  Ga  Ga13  1  0.999680  0.908212  0.499734  1
  Ru  Ru14  1  0.244672  0.122860  0.869500  1
  Ru  Ru15  1  0.748875  0.371787  0.621331  1
  Ru  Ru16  1  0.878969  0.251370  0.127186  1
  Ru  Ru17  1  0.125121  0.877909  0.256116  1
  Ru  Ru18  1  0.629991  0.752610  0.375376  1
  Ru  Ru19  1  0.372734  0.624161  0.750782  1
