# generated using pymatgen
data_NaNdPt3Rh
_symmetry_space_group_name_H-M   'P 1'
_cell_length_a   5.40442248
_cell_length_b   5.41113550
_cell_length_c   5.41113600
_cell_angle_alpha   59.99999697
_cell_angle_beta   59.95889897
_cell_angle_gamma   59.95889672
_symmetry_Int_Tables_number   1
_chemical_formula_structural   NaNdPt3Rh
_chemical_formula_sum   'Na1 Nd1 Pt3 Rh1'
_cell_volume   111.82555298
_cell_formula_units_Z   1
loop_
 _symmetry_equiv_pos_site_id
 _symmetry_equiv_pos_as_xyz
  1  'x, y, z'
loop_
 _atom_site_type_symbol
 _atom_site_label
 _atom_site_symmetry_multiplicity
 _atom_site_fract_x
 _atom_site_fract_y
 _atom_site_fract_z
 _atom_site_occupancy
  Na  Na0  1  0.749615  0.750128  0.750128  1
  Nd  Nd1  1  0.500903  0.499699  0.499699  1
  Pt  Pt2  1  0.124767  0.124585  0.626062  1
  Pt  Pt3  1  0.124767  0.626062  0.124585  1
  Pt  Pt4  1  0.124767  0.124585  0.124585  1
  Rh  Rh5  1  0.625181  0.124940  0.124940  1
