# generated using pymatgen
data_Cs6ScIn2IrBr18
_symmetry_space_group_name_H-M   'P 1'
_cell_length_a   7.91106200
_cell_length_b   7.91106266
_cell_length_c   19.90516400
_cell_angle_alpha   90.00000000
_cell_angle_beta   90.00000000
_cell_angle_gamma   119.99998889
_symmetry_Int_Tables_number   1
_chemical_formula_structural   Cs6ScIn2IrBr18
_chemical_formula_sum   'Cs6 Sc1 In2 Ir1 Br18'
_cell_volume   1078.86238840
_cell_formula_units_Z   1
loop_
 _symmetry_equiv_pos_site_id
 _symmetry_equiv_pos_as_xyz
  1  'x, y, z'
loop_
 _atom_site_type_symbol
 _atom_site_label
 _atom_site_symmetry_multiplicity
 _atom_site_fract_x
 _atom_site_fract_y
 _atom_site_fract_z
 _atom_site_occupancy
  Cs  Cs0  1  0.333333  0.666667  0.069634  1
  Cs  Cs1  1  0.666667  0.333333  0.931893  1
  Cs  Cs2  1  0.666667  0.333333  0.573571  1
  Cs  Cs3  1  0.333333  0.666667  0.434736  1
  Cs  Cs4  1  0.000000  0.000000  0.250749  1
  Cs  Cs5  1  0.000000  0.000000  0.745415  1
  Sc  Sc6  1  0.333333  0.666667  0.836482  1
  In  In7  1  0.666667  0.333333  0.345581  1
  In  In8  1  0.666667  0.333333  0.155176  1
  Ir  Ir9  1  0.333333  0.666667  0.669323  1
  Br  Br10  1  0.184141  0.368280  0.597119  1
  Br  Br11  1  0.832390  0.664779  0.411799  1
  Br  Br12  1  0.631720  0.815859  0.597119  1
  Br  Br13  1  0.832074  0.664149  0.088166  1
  Br  Br14  1  0.335221  0.167610  0.411799  1
  Br  Br15  1  0.173131  0.346261  0.904756  1
  Br  Br16  1  0.184141  0.815859  0.597119  1
  Br  Br17  1  0.335851  0.167926  0.088166  1
  Br  Br18  1  0.832390  0.167610  0.411799  1
  Br  Br19  1  0.653739  0.826869  0.904756  1
  Br  Br20  1  0.832074  0.167926  0.088166  1
  Br  Br21  1  0.173131  0.826869  0.904756  1
  Br  Br22  1  0.512050  0.024102  0.250038  1
  Br  Br23  1  0.484971  0.969942  0.743936  1
  Br  Br24  1  0.975898  0.487950  0.250038  1
  Br  Br25  1  0.030058  0.515029  0.743936  1
  Br  Br26  1  0.512050  0.487950  0.250038  1
  Br  Br27  1  0.484971  0.515029  0.743936  1
