# generated using pymatgen
data_Sr4GaSi6Pd
_symmetry_space_group_name_H-M   'P 1'
_cell_length_a   8.56775702
_cell_length_b   8.31277774
_cell_length_c   6.22444000
_cell_angle_alpha   70.56133684
_cell_angle_beta   66.19641890
_cell_angle_gamma   43.24224526
_symmetry_Int_Tables_number   1
_chemical_formula_structural   Sr4GaSi6Pd
_chemical_formula_sum   'Sr4 Ga1 Si6 Pd1'
_cell_volume   277.34128867
_cell_formula_units_Z   1
loop_
 _symmetry_equiv_pos_site_id
 _symmetry_equiv_pos_as_xyz
  1  'x, y, z'
loop_
 _atom_site_type_symbol
 _atom_site_label
 _atom_site_symmetry_multiplicity
 _atom_site_fract_x
 _atom_site_fract_y
 _atom_site_fract_z
 _atom_site_occupancy
  Sr  Sr0  1  0.251282  0.251281  0.248719  1
  Sr  Sr1  1  0.247675  0.749756  0.250244  1
  Sr  Sr2  1  0.749756  0.247675  0.752325  1
  Sr  Sr3  1  0.751283  0.751281  0.748718  1
  Ga  Ga4  1  0.666263  0.666263  0.333737  1
  Si  Si5  1  0.840817  0.840817  0.159182  1
  Si  Si6  1  0.840466  0.318818  0.159534  1
  Si  Si7  1  0.661573  0.169499  0.338427  1
  Si  Si8  1  0.318818  0.840466  0.681182  1
  Si  Si9  1  0.169499  0.661573  0.830501  1
  Si  Si10  1  0.169305  0.169305  0.830695  1
  Pd  Pd11  1  0.333264  0.333264  0.666735  1
