# generated using pymatgen
data_Re6S7I4
_symmetry_space_group_name_H-M   'P 1'
_cell_length_a   12.21073457
_cell_length_b   12.21073303
_cell_length_c   12.21073355
_cell_angle_alpha   51.21902810
_cell_angle_beta   51.21903495
_cell_angle_gamma   51.21902009
_symmetry_Int_Tables_number   1
_chemical_formula_structural   Re6S7I4
_chemical_formula_sum   'Re12 S14 I8'
_cell_volume   1021.04958374
_cell_formula_units_Z   2
loop_
 _symmetry_equiv_pos_site_id
 _symmetry_equiv_pos_as_xyz
  1  'x, y, z'
loop_
 _atom_site_type_symbol
 _atom_site_label
 _atom_site_symmetry_multiplicity
 _atom_site_fract_x
 _atom_site_fract_y
 _atom_site_fract_z
 _atom_site_occupancy
  Re  Re0  1  0.521243  0.398219  0.683658  1
  Re  Re1  1  0.398219  0.683658  0.521243  1
  Re  Re2  1  0.683658  0.521243  0.398219  1
  Re  Re3  1  0.183658  0.898219  0.021243  1
  Re  Re4  1  0.898219  0.021243  0.183658  1
  Re  Re5  1  0.021243  0.183658  0.898219  1
  Re  Re6  1  0.480380  0.605408  0.315535  1
  Re  Re7  1  0.605408  0.315535  0.480380  1
  Re  Re8  1  0.315535  0.480380  0.605408  1
  Re  Re9  1  0.815535  0.105408  0.980380  1
  Re  Re10  1  0.105408  0.980380  0.815535  1
  Re  Re11  1  0.980380  0.815535  0.105408  1
  S  S12  1  0.781736  0.256179  0.555390  1
  S  S13  1  0.256179  0.555390  0.781736  1
  S  S14  1  0.555390  0.781736  0.256179  1
  S  S15  1  0.055390  0.756179  0.281736  1
  S  S16  1  0.756179  0.281736  0.055390  1
  S  S17  1  0.281736  0.055390  0.756179  1
  S  S18  1  0.218586  0.746137  0.445485  1
  S  S19  1  0.746137  0.445485  0.218586  1
  S  S20  1  0.445485  0.218586  0.746137  1
  S  S21  1  0.945485  0.246137  0.718586  1
  S  S22  1  0.246137  0.718586  0.945485  1
  S  S23  1  0.718586  0.945485  0.246137  1
  S  S24  1  0.593796  0.593796  0.593796  1
  S  S25  1  0.093796  0.093796  0.093796  1
  I  I26  1  0.972440  0.527213  0.255282  1
  I  I27  1  0.527213  0.255282  0.972440  1
  I  I28  1  0.255282  0.972440  0.527213  1
  I  I29  1  0.755282  0.027213  0.472440  1
  I  I30  1  0.027213  0.472440  0.755282  1
  I  I31  1  0.472440  0.755282  0.027213  1
  I  I32  1  0.393273  0.393273  0.393273  1
  I  I33  1  0.893273  0.893273  0.893273  1
