# generated using pymatgen
data_SrTh(Zn2Pt)4
_symmetry_space_group_name_H-M   'P 1'
_cell_length_a   7.74310000
_cell_length_b   7.74310029
_cell_length_c   4.23253800
_cell_angle_alpha   90.00000000
_cell_angle_beta   90.00000000
_cell_angle_gamma   90.81601755
_symmetry_Int_Tables_number   1
_chemical_formula_structural   SrTh(Zn2Pt)4
_chemical_formula_sum   'Sr1 Th1 Zn8 Pt4'
_cell_volume   253.73861842
_cell_formula_units_Z   1
loop_
 _symmetry_equiv_pos_site_id
 _symmetry_equiv_pos_as_xyz
  1  'x, y, z'
loop_
 _atom_site_type_symbol
 _atom_site_label
 _atom_site_symmetry_multiplicity
 _atom_site_fract_x
 _atom_site_fract_y
 _atom_site_fract_z
 _atom_site_occupancy
  Sr  Sr0  1  0.000000  0.000000  0.000000  1
  Th  Th1  1  0.500000  0.500000  0.500000  1
  Zn  Zn2  1  0.348676  0.091898  0.500000  1
  Zn  Zn3  1  0.651324  0.908102  0.500000  1
  Zn  Zn4  1  0.851632  0.406790  0.000000  1
  Zn  Zn5  1  0.148368  0.593210  0.000000  1
  Zn  Zn6  1  0.091898  0.348676  0.500000  1
  Zn  Zn7  1  0.908102  0.651324  0.500000  1
  Zn  Zn8  1  0.406790  0.851632  0.000000  1
  Zn  Zn9  1  0.593210  0.148368  0.000000  1
  Pt  Pt10  1  0.771217  0.228783  0.500000  1
  Pt  Pt11  1  0.228783  0.771217  0.500000  1
  Pt  Pt12  1  0.295987  0.295987  0.000000  1
  Pt  Pt13  1  0.704013  0.704013  0.000000  1
