# generated using pymatgen
data_Tb6Dy10CdHg3Ir4
_symmetry_space_group_name_H-M   'P 1'
_cell_length_a   9.62056106
_cell_length_b   9.62840038
_cell_length_c   9.62840000
_cell_angle_alpha   60.00000130
_cell_angle_beta   59.97304261
_cell_angle_gamma   59.97304810
_symmetry_Int_Tables_number   1
_chemical_formula_structural   Tb6Dy10CdHg3Ir4
_chemical_formula_sum   'Tb6 Dy10 Cd1 Hg3 Ir4'
_cell_volume   630.40059158
_cell_formula_units_Z   1
loop_
 _symmetry_equiv_pos_site_id
 _symmetry_equiv_pos_as_xyz
  1  'x, y, z'
loop_
 _atom_site_type_symbol
 _atom_site_label
 _atom_site_symmetry_multiplicity
 _atom_site_fract_x
 _atom_site_fract_y
 _atom_site_fract_z
 _atom_site_occupancy
  Tb  Tb0  1  0.186871  0.812431  0.812431  1
  Tb  Tb1  1  0.811847  0.187847  0.187847  1
  Tb  Tb2  1  0.811847  0.187847  0.812461  1
  Tb  Tb3  1  0.186871  0.812431  0.188267  1
  Tb  Tb4  1  0.811847  0.812461  0.187847  1
  Tb  Tb5  1  0.186871  0.188267  0.812431  1
  Dy  Dy6  1  0.600156  0.599701  0.599701  1
  Dy  Dy7  1  0.600156  0.599701  0.200442  1
  Dy  Dy8  1  0.600156  0.200442  0.599701  1
  Dy  Dy9  1  0.197967  0.600678  0.600678  1
  Dy  Dy10  1  0.060427  0.439484  0.439484  1
  Dy  Dy11  1  0.438383  0.061300  0.061300  1
  Dy  Dy12  1  0.438383  0.061300  0.439018  1
  Dy  Dy13  1  0.060427  0.439484  0.060605  1
  Dy  Dy14  1  0.438383  0.439018  0.061300  1
  Dy  Dy15  1  0.060427  0.060605  0.439484  1
  Cd  Cd16  1  0.511437  0.829521  0.829521  1
  Hg  Hg17  1  0.832983  0.834887  0.834887  1
  Hg  Hg18  1  0.832983  0.834887  0.497244  1
  Hg  Hg19  1  0.832983  0.497244  0.834887  1
  Ir  Ir20  1  0.391647  0.392330  0.392330  1
  Ir  Ir21  1  0.391647  0.392330  0.823693  1
  Ir  Ir22  1  0.391647  0.823693  0.392330  1
  Ir  Ir23  1  0.823656  0.392115  0.392115  1
