# generated using pymatgen
data_Ce2ZnCd5As6
_symmetry_space_group_name_H-M   'P 1'
_cell_length_a   4.41753506
_cell_length_b   4.42585605
_cell_length_c   21.70713400
_cell_angle_alpha   90.00000000
_cell_angle_beta   90.00000000
_cell_angle_gamma   60.01329961
_symmetry_Int_Tables_number   1
_chemical_formula_structural   Ce2ZnCd5As6
_chemical_formula_sum   'Ce2 Zn1 Cd5 As6'
_cell_volume   367.59415380
_cell_formula_units_Z   1
loop_
 _symmetry_equiv_pos_site_id
 _symmetry_equiv_pos_as_xyz
  1  'x, y, z'
loop_
 _atom_site_type_symbol
 _atom_site_label
 _atom_site_symmetry_multiplicity
 _atom_site_fract_x
 _atom_site_fract_y
 _atom_site_fract_z
 _atom_site_occupancy
  Ce  Ce0  1  0.999212  0.000407  0.499415  1
  Ce  Ce1  1  0.999212  0.000407  0.000585  1
  Zn  Zn2  1  0.633580  0.631931  0.250000  1
  Cd  Cd3  1  0.335932  0.336752  0.126954  1
  Cd  Cd4  1  0.668032  0.665838  0.874368  1
  Cd  Cd5  1  0.668032  0.665838  0.625632  1
  Cd  Cd6  1  0.335932  0.336752  0.373046  1
  Cd  Cd7  1  0.266276  0.366045  0.750000  1
  As  As8  1  0.333671  0.333071  0.574930  1
  As  As9  1  0.667028  0.668388  0.424377  1
  As  As10  1  0.667028  0.668388  0.075623  1
  As  As11  1  0.333671  0.333071  0.925070  1
  As  As12  1  0.596017  0.701590  0.750000  1
  As  As13  1  0.295877  0.293525  0.250000  1
