# generated using pymatgen
data_Ho3Zn5Ga19Pd9
_symmetry_space_group_name_H-M   'P 1'
_cell_length_a   8.44736518
_cell_length_b   8.44736641
_cell_length_c   8.47110680
_cell_angle_alpha   89.68687126
_cell_angle_beta   89.68687324
_cell_angle_gamma   89.68632573
_symmetry_Int_Tables_number   1
_chemical_formula_structural   Ho3Zn5Ga19Pd9
_chemical_formula_sum   'Ho3 Zn5 Ga19 Pd9'
_cell_volume   604.45413035
_cell_formula_units_Z   1
loop_
 _symmetry_equiv_pos_site_id
 _symmetry_equiv_pos_as_xyz
  1  'x, y, z'
loop_
 _atom_site_type_symbol
 _atom_site_label
 _atom_site_symmetry_multiplicity
 _atom_site_fract_x
 _atom_site_fract_y
 _atom_site_fract_z
 _atom_site_occupancy
  Ho  Ho0  1  0.999485  0.500131  0.999057  1
  Ho  Ho1  1  0.499869  0.000515  0.000943  1
  Ho  Ho2  1  0.001515  0.998485  0.500000  1
  Zn  Zn3  1  0.738691  0.500643  0.259996  1
  Zn  Zn4  1  0.260811  0.499057  0.736966  1
  Zn  Zn5  1  0.499357  0.261309  0.740004  1
  Zn  Zn6  1  0.500943  0.739189  0.263034  1
  Zn  Zn7  1  0.262829  0.737171  0.500000  1
  Ga  Ga8  1  0.995005  0.639205  0.638833  1
  Ga  Ga9  1  0.638421  0.640841  0.996829  1
  Ga  Ga10  1  0.638360  0.992285  0.642501  1
  Ga  Ga11  1  0.007715  0.361640  0.357499  1
  Ga  Ga12  1  0.359159  0.361579  0.003171  1
  Ga  Ga13  1  0.360795  0.004995  0.361167  1
  Ga  Ga14  1  0.737605  0.262395  0.500000  1
  Ga  Ga15  1  0.836992  0.135180  0.838562  1
  Ga  Ga16  1  0.135094  0.837118  0.837056  1
  Ga  Ga17  1  0.837140  0.837494  0.136441  1
  Ga  Ga18  1  0.162882  0.864906  0.162944  1
  Ga  Ga19  1  0.864820  0.163008  0.161438  1
  Ga  Ga20  1  0.162506  0.162860  0.863559  1
  Ga  Ga21  1  0.728766  0.488563  0.733299  1
  Ga  Ga22  1  0.482157  0.726505  0.729060  1
  Ga  Ga23  1  0.729682  0.728907  0.482693  1
  Ga  Ga24  1  0.273495  0.517843  0.270940  1
  Ga  Ga25  1  0.511437  0.271234  0.266701  1
  Ga  Ga26  1  0.271093  0.270318  0.517307  1
  Pd  Pd27  1  0.828803  0.828652  0.829664  1
  Pd  Pd28  1  0.171348  0.171197  0.170336  1
  Pd  Pd29  1  0.667387  0.332613  0.000000  1
  Pd  Pd30  1  0.997508  0.331108  0.665452  1
  Pd  Pd31  1  0.332626  0.998755  0.667900  1
  Pd  Pd32  1  0.331975  0.668025  0.000000  1
  Pd  Pd33  1  0.001245  0.667374  0.332100  1
  Pd  Pd34  1  0.668892  0.002492  0.334548  1
  Pd  Pd35  1  0.503591  0.496409  0.500000  1
