# generated using pymatgen
data_Tb5Si10P2Ir19
_symmetry_space_group_name_H-M   'P 1'
_cell_length_a   12.86010312
_cell_length_b   12.86010458
_cell_length_c   3.97031400
_cell_angle_alpha   90.00000000
_cell_angle_beta   90.00000000
_cell_angle_gamma   120.14284439
_symmetry_Int_Tables_number   1
_chemical_formula_structural   Tb5Si10P2Ir19
_chemical_formula_sum   'Tb5 Si10 P2 Ir19'
_cell_volume   567.82893048
_cell_formula_units_Z   1
loop_
 _symmetry_equiv_pos_site_id
 _symmetry_equiv_pos_as_xyz
  1  'x, y, z'
loop_
 _atom_site_type_symbol
 _atom_site_label
 _atom_site_symmetry_multiplicity
 _atom_site_fract_x
 _atom_site_fract_y
 _atom_site_fract_z
 _atom_site_occupancy
  Tb  Tb0  1  0.666599  0.333661  0.000000  1
  Tb  Tb1  1  0.333661  0.666599  0.000000  1
  Tb  Tb2  1  0.812820  0.812820  0.500000  1
  Tb  Tb3  1  0.186210  0.000994  0.500000  1
  Tb  Tb4  1  0.000994  0.186210  0.500000  1
  Si  Si5  1  0.686385  0.167366  0.500000  1
  Si  Si6  1  0.832296  0.518730  0.500000  1
  Si  Si7  1  0.480696  0.312628  0.500000  1
  Si  Si8  1  0.167366  0.686385  0.500000  1
  Si  Si9  1  0.518730  0.832296  0.500000  1
  Si  Si10  1  0.312628  0.480696  0.500000  1
  Si  Si11  1  0.632702  0.632702  0.000000  1
  Si  Si12  1  0.367639  0.000192  0.000000  1
  Si  Si13  1  0.000192  0.367639  0.000000  1
  Si  Si14  1  0.179319  0.179319  0.000000  1
  P  P15  1  0.820365  0.000825  0.000000  1
  P  P16  1  0.000825  0.820365  0.000000  1
  Ir  Ir17  1  0.806262  0.179983  0.000000  1
  Ir  Ir18  1  0.820450  0.626748  0.000000  1
  Ir  Ir19  1  0.375881  0.194132  0.000000  1
  Ir  Ir20  1  0.179983  0.806262  0.000000  1
  Ir  Ir21  1  0.626748  0.820450  0.000000  1
  Ir  Ir22  1  0.194132  0.375881  0.000000  1
  Ir  Ir23  1  0.447790  0.447790  0.000000  1
  Ir  Ir24  1  0.552549  0.999005  0.000000  1
  Ir  Ir25  1  0.999005  0.552549  0.000000  1
  Ir  Ir26  1  0.281937  0.281937  0.500000  1
  Ir  Ir27  1  0.720795  0.000219  0.500000  1
  Ir  Ir28  1  0.000219  0.720795  0.500000  1
  Ir  Ir29  1  0.872678  0.359690  0.500000  1
  Ir  Ir30  1  0.640282  0.513102  0.500000  1
  Ir  Ir31  1  0.487007  0.125886  0.500000  1
  Ir  Ir32  1  0.359690  0.872678  0.500000  1
  Ir  Ir33  1  0.513102  0.640282  0.500000  1
  Ir  Ir34  1  0.125886  0.487007  0.500000  1
  Ir  Ir35  1  0.996181  0.996181  0.000000  1
