# generated using pymatgen
data_Ac6IrOsI6
_symmetry_space_group_name_H-M   'P 1'
_cell_length_a   4.53121000
_cell_length_b   10.06411577
_cell_length_c   13.01700181
_cell_angle_alpha   87.09534718
_cell_angle_beta   90.00000000
_cell_angle_gamma   90.00000000
_symmetry_Int_Tables_number   1
_chemical_formula_structural   Ac6IrOsI6
_chemical_formula_sum   'Ac6 Ir1 Os1 I6'
_cell_volume   592.84677112
_cell_formula_units_Z   1
loop_
 _symmetry_equiv_pos_site_id
 _symmetry_equiv_pos_as_xyz
  1  'x, y, z'
loop_
 _atom_site_type_symbol
 _atom_site_label
 _atom_site_symmetry_multiplicity
 _atom_site_fract_x
 _atom_site_fract_y
 _atom_site_fract_z
 _atom_site_occupancy
  Ac  Ac0  1  0.750000  0.689563  0.117371  1
  Ac  Ac1  1  0.250000  0.884352  0.337336  1
  Ac  Ac2  1  0.250000  0.312271  0.881326  1
  Ac  Ac3  1  0.250000  0.908186  0.894512  1
  Ac  Ac4  1  0.750000  0.116828  0.664642  1
  Ac  Ac5  1  0.750000  0.094263  0.104023  1
  Ir  Ir6  1  0.250000  0.886328  0.121507  1
  Os  Os7  1  0.750000  0.111516  0.878093  1
  I  I8  1  0.250000  0.396049  0.135398  1
  I  I9  1  0.750000  0.133220  0.382474  1
  I  I10  1  0.750000  0.602034  0.864471  1
  I  I11  1  0.250000  0.363478  0.620557  1
  I  I12  1  0.750000  0.635081  0.380421  1
  I  I13  1  0.250000  0.866829  0.617869  1
