# generated using pymatgen
data_YLu7In3Ag
_symmetry_space_group_name_H-M   'P 1'
_cell_length_a   10.43720800
_cell_length_b   10.43720963
_cell_length_c   6.72044200
_cell_angle_alpha   90.00000000
_cell_angle_beta   90.00000000
_cell_angle_gamma   120.00000751
_symmetry_Int_Tables_number   1
_chemical_formula_structural   YLu7In3Ag
_chemical_formula_sum   'Y2 Lu14 In6 Ag2'
_cell_volume   634.01156647
_cell_formula_units_Z   2
loop_
 _symmetry_equiv_pos_site_id
 _symmetry_equiv_pos_as_xyz
  1  'x, y, z'
loop_
 _atom_site_type_symbol
 _atom_site_label
 _atom_site_symmetry_multiplicity
 _atom_site_fract_x
 _atom_site_fract_y
 _atom_site_fract_z
 _atom_site_occupancy
  Y  Y0  1  0.000000  0.000000  0.498546  1
  Y  Y1  1  0.000000  0.000000  0.998546  1
  Lu  Lu2  1  0.479014  0.520986  0.476056  1
  Lu  Lu3  1  0.041973  0.520986  0.476056  1
  Lu  Lu4  1  0.479014  0.958027  0.476056  1
  Lu  Lu5  1  0.520986  0.479014  0.976056  1
  Lu  Lu6  1  0.958027  0.479014  0.976056  1
  Lu  Lu7  1  0.520986  0.041973  0.976056  1
  Lu  Lu8  1  0.825962  0.174038  0.265158  1
  Lu  Lu9  1  0.348076  0.174038  0.265158  1
  Lu  Lu10  1  0.825962  0.651924  0.265158  1
  Lu  Lu11  1  0.174038  0.825962  0.765158  1
  Lu  Lu12  1  0.651924  0.825962  0.765158  1
  Lu  Lu13  1  0.174038  0.348076  0.765158  1
  Lu  Lu14  1  0.333333  0.666667  0.121518  1
  Lu  Lu15  1  0.666667  0.333333  0.621518  1
  In  In16  1  0.164830  0.835170  0.244415  1
  In  In17  1  0.670341  0.835170  0.244415  1
  In  In18  1  0.164830  0.329659  0.244415  1
  In  In19  1  0.835170  0.164830  0.744415  1
  In  In20  1  0.329659  0.164830  0.744415  1
  In  In21  1  0.835170  0.670341  0.744415  1
  Ag  Ag22  1  0.333333  0.666667  0.695324  1
  Ag  Ag23  1  0.666667  0.333333  0.195324  1
