# generated using pymatgen
data_LaHo3(ZnGa)4
_symmetry_space_group_name_H-M   'P 1'
_cell_length_a   4.45748200
_cell_length_b   7.24377945
_cell_length_c   7.69672100
_cell_angle_alpha   90.18424777
_cell_angle_beta   90.00000000
_cell_angle_gamma   90.00000000
_symmetry_Int_Tables_number   1
_chemical_formula_structural   LaHo3(ZnGa)4
_chemical_formula_sum   'La1 Ho3 Zn4 Ga4'
_cell_volume   248.51826661
_cell_formula_units_Z   1
loop_
 _symmetry_equiv_pos_site_id
 _symmetry_equiv_pos_as_xyz
  1  'x, y, z'
loop_
 _atom_site_type_symbol
 _atom_site_label
 _atom_site_symmetry_multiplicity
 _atom_site_fract_x
 _atom_site_fract_y
 _atom_site_fract_z
 _atom_site_occupancy
  La  La0  1  0.250000  0.999470  0.756929  1
  Ho  Ho1  1  0.250000  0.498831  0.744003  1
  Ho  Ho2  1  0.750000  0.999470  0.245488  1
  Ho  Ho3  1  0.750000  0.498841  0.254945  1
  Zn  Zn4  1  0.250000  0.783732  0.411759  1
  Zn  Zn5  1  0.250000  0.298813  0.085004  1
  Zn  Zn6  1  0.750000  0.287021  0.581211  1
  Zn  Zn7  1  0.750000  0.760312  0.921135  1
  Ga  Ga8  1  0.250000  0.217447  0.410800  1
  Ga  Ga9  1  0.250000  0.707090  0.086060  1
  Ga  Ga10  1  0.750000  0.713928  0.580912  1
  Ga  Ga11  1  0.750000  0.235047  0.921753  1
