# generated using pymatgen
data_Hf5Al16GaIr7
_symmetry_space_group_name_H-M   'P 1'
_cell_length_a   8.65975404
_cell_length_b   8.75137953
_cell_length_c   8.75137971
_cell_angle_alpha   59.30851600
_cell_angle_beta   60.34573979
_cell_angle_gamma   60.34574327
_symmetry_Int_Tables_number   1
_chemical_formula_structural   Hf5Al16GaIr7
_chemical_formula_sum   'Hf5 Al16 Ga1 Ir7'
_cell_volume   468.86667134
_cell_formula_units_Z   1
loop_
 _symmetry_equiv_pos_site_id
 _symmetry_equiv_pos_as_xyz
  1  'x, y, z'
loop_
 _atom_site_type_symbol
 _atom_site_label
 _atom_site_symmetry_multiplicity
 _atom_site_fract_x
 _atom_site_fract_y
 _atom_site_fract_z
 _atom_site_occupancy
  Hf  Hf0  1  0.309743  0.690257  0.690257  1
  Hf  Hf1  1  0.283110  0.716890  0.284372  1
  Hf  Hf2  1  0.715628  0.284372  0.716890  1
  Hf  Hf3  1  0.283110  0.284372  0.716890  1
  Hf  Hf4  1  0.715628  0.716890  0.284372  1
  Al  Al5  1  0.378153  0.335778  0.335778  1
  Al  Al6  1  0.677547  0.653018  0.653018  1
  Al  Al7  1  0.346982  0.322453  0.983583  1
  Al  Al8  1  0.346982  0.983583  0.322453  1
  Al  Al9  1  0.664222  0.621847  0.049708  1
  Al  Al10  1  0.664222  0.049708  0.621847  1
  Al  Al11  1  0.950292  0.335778  0.335778  1
  Al  Al12  1  0.016417  0.653018  0.653018  1
  Al  Al13  1  0.108652  0.121054  0.121054  1
  Al  Al14  1  0.884100  0.869577  0.869577  1
  Al  Al15  1  0.130423  0.115900  0.623255  1
  Al  Al16  1  0.130423  0.623255  0.115900  1
  Al  Al17  1  0.878946  0.891348  0.350759  1
  Al  Al18  1  0.878946  0.350759  0.891348  1
  Al  Al19  1  0.649241  0.121054  0.121054  1
  Al  Al20  1  0.376745  0.869577  0.869577  1
  Ga  Ga21  1  0.538716  0.461284  0.461284  1
  Ir  Ir22  1  0.512127  0.987873  0.987873  1
  Ir  Ir23  1  0.012127  0.487873  0.487873  1
  Ir  Ir24  1  0.013661  0.495752  0.986339  1
  Ir  Ir25  1  0.504248  0.986339  0.495752  1
  Ir  Ir26  1  0.013661  0.986339  0.495752  1
  Ir  Ir27  1  0.504248  0.495752  0.986339  1
  Ir  Ir28  1  0.011698  0.988302  0.988302  1
