# generated using pymatgen
data_Y4Ge6Ir5Rh2
_symmetry_space_group_name_H-M   'P 1'
_cell_length_a   7.28926755
_cell_length_b   7.28588643
_cell_length_c   7.28498239
_cell_angle_alpha   109.51611026
_cell_angle_beta   109.42652230
_cell_angle_gamma   109.44536902
_symmetry_Int_Tables_number   1
_chemical_formula_structural   Y4Ge6Ir5Rh2
_chemical_formula_sum   'Y4 Ge6 Ir5 Rh2'
_cell_volume   297.92718984
_cell_formula_units_Z   1
loop_
 _symmetry_equiv_pos_site_id
 _symmetry_equiv_pos_as_xyz
  1  'x, y, z'
loop_
 _atom_site_type_symbol
 _atom_site_label
 _atom_site_symmetry_multiplicity
 _atom_site_fract_x
 _atom_site_fract_y
 _atom_site_fract_z
 _atom_site_occupancy
  Y  Y0  1  0.999560  0.999776  0.499783  1
  Y  Y1  1  0.999558  0.499777  0.999782  1
  Y  Y2  1  0.500378  0.000530  0.000523  1
  Y  Y3  1  0.500381  0.499856  0.499848  1
  Ge  Ge4  1  0.680998  0.681285  0.999730  1
  Ge  Ge5  1  0.318684  0.999869  0.318813  1
  Ge  Ge6  1  0.000344  0.319597  0.319621  1
  Ge  Ge7  1  0.318682  0.318814  0.999867  1
  Ge  Ge8  1  0.680989  0.999756  0.681245  1
  Ge  Ge9  1  0.000346  0.680724  0.680745  1
  Ir  Ir10  1  0.499551  0.249775  0.749775  1
  Ir  Ir11  1  0.249975  0.500259  0.749715  1
  Ir  Ir12  1  0.249975  0.749713  0.500260  1
  Ir  Ir13  1  0.499549  0.749772  0.249773  1
  Ir  Ir14  1  0.999866  0.999933  0.999932  1
  Rh  Rh15  1  0.750583  0.250201  0.500379  1
  Rh  Rh16  1  0.750583  0.500367  0.250211  1
