# generated using pymatgen
data_Tb3Dy2P12Ru19
_symmetry_space_group_name_H-M   'P 1'
_cell_length_a   12.55615300
_cell_length_b   12.55615321
_cell_length_c   3.98004100
_cell_angle_alpha   90.00000000
_cell_angle_beta   90.00000000
_cell_angle_gamma   119.99999682
_symmetry_Int_Tables_number   1
_chemical_formula_structural   Tb3Dy2P12Ru19
_chemical_formula_sum   'Tb3 Dy2 P12 Ru19'
_cell_volume   543.41471805
_cell_formula_units_Z   1
loop_
 _symmetry_equiv_pos_site_id
 _symmetry_equiv_pos_as_xyz
  1  'x, y, z'
loop_
 _atom_site_type_symbol
 _atom_site_label
 _atom_site_symmetry_multiplicity
 _atom_site_fract_x
 _atom_site_fract_y
 _atom_site_fract_z
 _atom_site_occupancy
  Tb  Tb0  1  0.816178  0.000000  0.500000  1
  Tb  Tb1  1  0.183822  0.183822  0.500000  1
  Tb  Tb2  1  0.000000  0.816178  0.500000  1
  Dy  Dy3  1  0.666667  0.333333  0.000000  1
  Dy  Dy4  1  0.333333  0.666667  0.000000  1
  P  P5  1  0.626509  0.000000  0.000000  1
  P  P6  1  0.373491  0.373491  0.000000  1
  P  P7  1  0.000000  0.626509  0.000000  1
  P  P8  1  0.693917  0.522254  0.500000  1
  P  P9  1  0.828338  0.306083  0.500000  1
  P  P10  1  0.306083  0.828338  0.500000  1
  P  P11  1  0.522254  0.693917  0.500000  1
  P  P12  1  0.184856  0.000000  0.000000  1
  P  P13  1  0.815144  0.815144  0.000000  1
  P  P14  1  0.000000  0.184856  0.000000  1
  P  P15  1  0.477746  0.171662  0.500000  1
  P  P16  1  0.171662  0.477746  0.500000  1
  Ru  Ru17  1  0.622042  0.807106  0.000000  1
  Ru  Ru18  1  0.185064  0.377958  0.000000  1
  Ru  Ru19  1  0.377958  0.185064  0.000000  1
  Ru  Ru20  1  0.192894  0.814936  0.000000  1
  Ru  Ru21  1  0.807106  0.622042  0.000000  1
  Ru  Ru22  1  0.874078  0.507663  0.500000  1
  Ru  Ru23  1  0.492337  0.366414  0.500000  1
  Ru  Ru24  1  0.633586  0.125922  0.500000  1
  Ru  Ru25  1  0.125922  0.633586  0.500000  1
  Ru  Ru26  1  0.366414  0.492337  0.500000  1
  Ru  Ru27  1  0.507663  0.874078  0.500000  1
  Ru  Ru28  1  0.000000  0.000000  0.000000  1
  Ru  Ru29  1  0.716637  0.716637  0.500000  1
  Ru  Ru30  1  0.000000  0.283363  0.500000  1
  Ru  Ru31  1  0.444938  0.000000  0.000000  1
  Ru  Ru32  1  0.555062  0.555062  0.000000  1
  Ru  Ru33  1  0.000000  0.444938  0.000000  1
  Ru  Ru34  1  0.814936  0.192894  0.000000  1
  Ru  Ru35  1  0.283363  0.000000  0.500000  1
