# generated using pymatgen
data_Ho8V11Si16W
_symmetry_space_group_name_H-M   'P 1'
_cell_length_a   6.66529909
_cell_length_b   6.86383402
_cell_length_c   12.88165500
_cell_angle_alpha   90.00000000
_cell_angle_beta   90.00000000
_cell_angle_gamma   90.04444723
_symmetry_Int_Tables_number   1
_chemical_formula_structural   Ho8V11Si16W
_chemical_formula_sum   'Ho8 V11 Si16 W1'
_cell_volume   589.32918403
_cell_formula_units_Z   1
loop_
 _symmetry_equiv_pos_site_id
 _symmetry_equiv_pos_as_xyz
  1  'x, y, z'
loop_
 _atom_site_type_symbol
 _atom_site_label
 _atom_site_symmetry_multiplicity
 _atom_site_fract_x
 _atom_site_fract_y
 _atom_site_fract_z
 _atom_site_occupancy
  Ho  Ho0  1  0.499752  0.331406  0.094830  1
  Ho  Ho1  1  0.999345  0.168843  0.405155  1
  Ho  Ho2  1  0.499751  0.668949  0.595847  1
  Ho  Ho3  1  0.000090  0.831817  0.904276  1
  Ho  Ho4  1  0.499751  0.668949  0.904153  1
  Ho  Ho5  1  0.000090  0.831817  0.595724  1
  Ho  Ho6  1  0.499752  0.331406  0.405170  1
  Ho  Ho7  1  0.999345  0.168843  0.094845  1
  V  V8  1  0.837011  0.327824  0.627183  1
  V  V9  1  0.336649  0.172175  0.873019  1
  V  V10  1  0.163257  0.670302  0.126958  1
  V  V11  1  0.663294  0.828373  0.373103  1
  V  V12  1  0.163257  0.670302  0.373042  1
  V  V13  1  0.663294  0.828373  0.126897  1
  V  V14  1  0.837011  0.327824  0.872817  1
  V  V15  1  0.336649  0.172175  0.626981  1
  V  V16  1  0.663605  0.014749  0.750000  1
  V  V17  1  0.163124  0.485053  0.750000  1
  V  V18  1  0.336834  0.985323  0.250000  1
  Si  Si19  1  0.659406  0.044183  0.545209  1
  Si  Si20  1  0.160101  0.455908  0.954830  1
  Si  Si21  1  0.340345  0.955673  0.044441  1
  Si  Si22  1  0.840112  0.544856  0.456952  1
  Si  Si23  1  0.340345  0.955673  0.455559  1
  Si  Si24  1  0.840112  0.544856  0.043048  1
  Si  Si25  1  0.659406  0.044183  0.954791  1
  Si  Si26  1  0.160101  0.455908  0.545170  1
  Si  Si27  1  0.538447  0.365901  0.750000  1
  Si  Si28  1  0.038546  0.133727  0.750000  1
  Si  Si29  1  0.459532  0.634679  0.250000  1
  Si  Si30  1  0.963911  0.870044  0.250000  1
  Si  Si31  1  0.803135  0.617507  0.750000  1
  Si  Si32  1  0.303237  0.882944  0.750000  1
  Si  Si33  1  0.199657  0.378110  0.250000  1
  Si  Si34  1  0.695654  0.118744  0.250000  1
  W  W35  1  0.836093  0.512598  0.250000  1
