# generated using pymatgen
data_Th4Ti(CuRh3)3
_symmetry_space_group_name_H-M   'P 1'
_cell_length_a   7.24656187
_cell_length_b   7.24656124
_cell_length_c   7.34733300
_cell_angle_alpha   109.75316553
_cell_angle_beta   109.75316374
_cell_angle_gamma   109.18780974
_symmetry_Int_Tables_number   1
_chemical_formula_structural   Th4Ti(CuRh3)3
_chemical_formula_sum   'Th4 Ti1 Cu3 Rh9'
_cell_volume   295.97076104
_cell_formula_units_Z   1
loop_
 _symmetry_equiv_pos_site_id
 _symmetry_equiv_pos_as_xyz
  1  'x, y, z'
loop_
 _atom_site_type_symbol
 _atom_site_label
 _atom_site_symmetry_multiplicity
 _atom_site_fract_x
 _atom_site_fract_y
 _atom_site_fract_z
 _atom_site_occupancy
  Th  Th0  1  0.000000  0.000000  0.500000  1
  Th  Th1  1  0.026083  0.513042  0.013042  1
  Th  Th2  1  0.486958  0.973917  0.986958  1
  Th  Th3  1  0.486958  0.513042  0.500000  1
  Ti  Ti4  1  0.000000  0.000000  0.000000  1
  Cu  Cu5  1  0.748580  0.251420  0.500000  1
  Cu  Cu6  1  0.748580  0.497160  0.248580  1
  Cu  Cu7  1  0.502840  0.251420  0.751420  1
  Rh  Rh8  1  0.242160  0.484322  0.742160  1
  Rh  Rh9  1  0.242160  0.757840  0.500000  1
  Rh  Rh10  1  0.515678  0.757840  0.257840  1
  Rh  Rh11  1  0.720211  0.692889  0.995609  1
  Rh  Rh12  1  0.307111  0.027324  0.302720  1
  Rh  Rh13  1  0.972676  0.279789  0.275396  1
  Rh  Rh14  1  0.307111  0.279789  0.004391  1
  Rh  Rh15  1  0.720211  0.027324  0.724604  1
  Rh  Rh16  1  0.972676  0.692889  0.697280  1
