# generated using pymatgen
data_Nb9GaSe16
_symmetry_space_group_name_H-M   'P 1'
_cell_length_a   7.01837400
_cell_length_b   7.01837435
_cell_length_c   14.09225100
_cell_angle_alpha   90.00000000
_cell_angle_beta   90.00000000
_cell_angle_gamma   120.00000779
_symmetry_Int_Tables_number   1
_chemical_formula_structural   Nb9GaSe16
_chemical_formula_sum   'Nb9 Ga1 Se16'
_cell_volume   601.15159521
_cell_formula_units_Z   1
loop_
 _symmetry_equiv_pos_site_id
 _symmetry_equiv_pos_as_xyz
  1  'x, y, z'
loop_
 _atom_site_type_symbol
 _atom_site_label
 _atom_site_symmetry_multiplicity
 _atom_site_fract_x
 _atom_site_fract_y
 _atom_site_fract_z
 _atom_site_occupancy
  Nb  Nb0  1  0.000000  0.000000  0.267752  1
  Nb  Nb1  1  0.000000  0.000000  0.732248  1
  Nb  Nb2  1  0.505272  0.010545  0.266288  1
  Nb  Nb3  1  0.494728  0.989455  0.733712  1
  Nb  Nb4  1  0.989455  0.494728  0.266288  1
  Nb  Nb5  1  0.010545  0.505272  0.733712  1
  Nb  Nb6  1  0.505272  0.494728  0.266288  1
  Nb  Nb7  1  0.494728  0.505272  0.733712  1
  Nb  Nb8  1  0.000000  0.000000  0.500000  1
  Ga  Ga9  1  0.000000  0.000000  0.000000  1
  Se  Se10  1  0.333333  0.666667  0.613166  1
  Se  Se11  1  0.666667  0.333333  0.386834  1
  Se  Se12  1  0.666667  0.333333  0.145358  1
  Se  Se13  1  0.333333  0.666667  0.854642  1
  Se  Se14  1  0.166464  0.332928  0.149482  1
  Se  Se15  1  0.833536  0.667072  0.850518  1
  Se  Se16  1  0.667072  0.833536  0.149482  1
  Se  Se17  1  0.831219  0.662438  0.614776  1
  Se  Se18  1  0.332928  0.166464  0.850518  1
  Se  Se19  1  0.168781  0.337562  0.385224  1
  Se  Se20  1  0.166464  0.833536  0.149482  1
  Se  Se21  1  0.337562  0.168781  0.614776  1
  Se  Se22  1  0.833536  0.166464  0.850518  1
  Se  Se23  1  0.662438  0.831219  0.385224  1
  Se  Se24  1  0.831219  0.168781  0.614776  1
  Se  Se25  1  0.168781  0.831219  0.385224  1
