# generated using pymatgen
data_Tm16MgIn3(RuRh)2
_symmetry_space_group_name_H-M   'P 1'
_cell_length_a   9.55345990
_cell_length_b   9.55346012
_cell_length_c   9.57752300
_cell_angle_alpha   59.64555721
_cell_angle_beta   59.64555474
_cell_angle_gamma   59.46367465
_symmetry_Int_Tables_number   1
_chemical_formula_structural   Tm16MgIn3(RuRh)2
_chemical_formula_sum   'Tm16 Mg1 In3 Ru2 Rh2'
_cell_volume   612.26528279
_cell_formula_units_Z   1
loop_
 _symmetry_equiv_pos_site_id
 _symmetry_equiv_pos_as_xyz
  1  'x, y, z'
loop_
 _atom_site_type_symbol
 _atom_site_label
 _atom_site_symmetry_multiplicity
 _atom_site_fract_x
 _atom_site_fract_y
 _atom_site_fract_z
 _atom_site_occupancy
  Tm  Tm0  1  0.059382  0.059382  0.440332  1
  Tm  Tm1  1  0.441747  0.061381  0.436386  1
  Tm  Tm2  1  0.061257  0.441546  0.060325  1
  Tm  Tm3  1  0.042474  0.653060  0.652227  1
  Tm  Tm4  1  0.437861  0.437861  0.061690  1
  Tm  Tm5  1  0.653060  0.042474  0.652227  1
  Tm  Tm6  1  0.187130  0.812340  0.190607  1
  Tm  Tm7  1  0.189291  0.189291  0.811037  1
  Tm  Tm8  1  0.809305  0.809305  0.191474  1
  Tm  Tm9  1  0.441546  0.061257  0.060325  1
  Tm  Tm10  1  0.812340  0.187130  0.190607  1
  Tm  Tm11  1  0.061381  0.441747  0.436386  1
  Tm  Tm12  1  0.809459  0.190121  0.808260  1
  Tm  Tm13  1  0.190121  0.809459  0.808260  1
  Tm  Tm14  1  0.651701  0.651701  0.045676  1
  Tm  Tm15  1  0.651073  0.651073  0.649526  1
  Mg  Mg16  1  0.422697  0.422697  0.422545  1
  In  In17  1  0.748658  0.417181  0.416661  1
  In  In18  1  0.417181  0.748658  0.416661  1
  In  In19  1  0.417395  0.417395  0.747627  1
  Ru  Ru20  1  0.856907  0.856907  0.423101  1
  Ru  Ru21  1  0.858162  0.858162  0.860574  1
  Rh  Rh22  1  0.423163  0.856712  0.858743  1
  Rh  Rh23  1  0.856712  0.423163  0.858743  1
