# generated using pymatgen
data_Nd2Dy7ErBi6
_symmetry_space_group_name_H-M   'P 1'
_cell_length_a   8.34209000
_cell_length_b   9.53512700
_cell_length_c   12.21595000
_cell_angle_alpha   90.00000000
_cell_angle_beta   90.00000000
_cell_angle_gamma   90.00272480
_symmetry_Int_Tables_number   1
_chemical_formula_structural   Nd2Dy7ErBi6
_chemical_formula_sum   'Nd4 Dy14 Er2 Bi12'
_cell_volume   971.69193717
_cell_formula_units_Z   2
loop_
 _symmetry_equiv_pos_site_id
 _symmetry_equiv_pos_as_xyz
  1  'x, y, z'
loop_
 _atom_site_type_symbol
 _atom_site_label
 _atom_site_symmetry_multiplicity
 _atom_site_fract_x
 _atom_site_fract_y
 _atom_site_fract_z
 _atom_site_occupancy
  Nd  Nd0  1  0.168329  0.750113  0.222746  1
  Nd  Nd1  1  0.331671  0.749887  0.722746  1
  Nd  Nd2  1  0.831646  0.250085  0.777060  1
  Nd  Nd3  1  0.668354  0.249915  0.277060  1
  Dy  Dy4  1  0.812988  0.563840  0.063220  1
  Dy  Dy5  1  0.687012  0.936160  0.563220  1
  Dy  Dy6  1  0.187001  0.063523  0.936851  1
  Dy  Dy7  1  0.312999  0.436477  0.436851  1
  Dy  Dy8  1  0.186718  0.436362  0.936829  1
  Dy  Dy9  1  0.313282  0.063638  0.436829  1
  Dy  Dy10  1  0.477985  0.750152  0.003056  1
  Dy  Dy11  1  0.022015  0.749848  0.503056  1
  Dy  Dy12  1  0.522410  0.249983  0.996929  1
  Dy  Dy13  1  0.977590  0.250017  0.496929  1
  Dy  Dy14  1  0.667985  0.750123  0.288496  1
  Dy  Dy15  1  0.832015  0.749877  0.788496  1
  Dy  Dy16  1  0.331902  0.249902  0.711387  1
  Dy  Dy17  1  0.168098  0.250098  0.211387  1
  Er  Er18  1  0.813159  0.935708  0.063272  1
  Er  Er19  1  0.686841  0.564292  0.563272  1
  Bi  Bi20  1  0.400893  0.749643  0.462904  1
  Bi  Bi21  1  0.099107  0.750357  0.962904  1
  Bi  Bi22  1  0.599739  0.251147  0.537280  1
  Bi  Bi23  1  0.900261  0.248853  0.037280  1
  Bi  Bi24  1  0.936215  0.505854  0.328020  1
  Bi  Bi25  1  0.563785  0.994146  0.828020  1
  Bi  Bi26  1  0.063704  0.005808  0.672054  1
  Bi  Bi27  1  0.436296  0.494192  0.172054  1
  Bi  Bi28  1  0.063624  0.494148  0.671984  1
  Bi  Bi29  1  0.436376  0.005852  0.171984  1
  Bi  Bi30  1  0.936005  0.994042  0.327912  1
  Bi  Bi31  1  0.563995  0.505958  0.827912  1
