# generated using pymatgen
data_PrNd(Al5Pt3)2
_symmetry_space_group_name_H-M   'P 1'
_cell_length_a   4.14978500
_cell_length_b   7.40032801
_cell_length_c   20.78653701
_cell_angle_alpha   90.00430235
_cell_angle_beta   90.00000000
_cell_angle_gamma   90.00000000
_symmetry_Int_Tables_number   1
_chemical_formula_structural   PrNd(Al5Pt3)2
_chemical_formula_sum   'Pr2 Nd2 Al20 Pt12'
_cell_volume   638.34977216
_cell_formula_units_Z   2
loop_
 _symmetry_equiv_pos_site_id
 _symmetry_equiv_pos_as_xyz
  1  'x, y, z'
loop_
 _atom_site_type_symbol
 _atom_site_label
 _atom_site_symmetry_multiplicity
 _atom_site_fract_x
 _atom_site_fract_y
 _atom_site_fract_z
 _atom_site_occupancy
  Pr  Pr0  1  0.250000  0.118086  0.640106  1
  Pr  Pr1  1  0.750000  0.881914  0.359894  1
  Nd  Nd2  1  0.250000  0.381944  0.140088  1
  Nd  Nd3  1  0.750000  0.618056  0.859912  1
  Al  Al4  1  0.750000  0.355335  0.383110  1
  Al  Al5  1  0.750000  0.886103  0.982934  1
  Al  Al6  1  0.750000  0.687253  0.200664  1
  Al  Al7  1  0.250000  0.869057  0.491701  1
  Al  Al8  1  0.250000  0.630853  0.991653  1
  Al  Al9  1  0.250000  0.312747  0.799336  1
  Al  Al10  1  0.750000  0.076263  0.208441  1
  Al  Al11  1  0.250000  0.644665  0.616890  1
  Al  Al12  1  0.250000  0.575960  0.291456  1
  Al  Al13  1  0.250000  0.187617  0.299246  1
  Al  Al14  1  0.750000  0.144801  0.883136  1
  Al  Al15  1  0.250000  0.923737  0.791559  1
  Al  Al16  1  0.750000  0.369147  0.008347  1
  Al  Al17  1  0.750000  0.613674  0.482967  1
  Al  Al18  1  0.750000  0.130943  0.508299  1
  Al  Al19  1  0.250000  0.113897  0.017066  1
  Al  Al20  1  0.250000  0.855199  0.116864  1
  Al  Al21  1  0.250000  0.386326  0.517033  1
  Al  Al22  1  0.750000  0.424040  0.708544  1
  Al  Al23  1  0.750000  0.812383  0.700754  1
  Pt  Pt24  1  0.750000  0.383297  0.262318  1
  Pt  Pt25  1  0.250000  0.883362  0.237500  1
  Pt  Pt26  1  0.250000  0.616703  0.737682  1
  Pt  Pt27  1  0.750000  0.116638  0.762500  1
  Pt  Pt28  1  0.250000  0.164347  0.427468  1
  Pt  Pt29  1  0.750000  0.422159  0.584467  1
  Pt  Pt30  1  0.750000  0.078283  0.084536  1
  Pt  Pt31  1  0.250000  0.921717  0.915464  1
  Pt  Pt32  1  0.750000  0.835653  0.572532  1
  Pt  Pt33  1  0.250000  0.336017  0.927352  1
  Pt  Pt34  1  0.750000  0.663983  0.072648  1
  Pt  Pt35  1  0.250000  0.577841  0.415533  1
