# generated using pymatgen
data_Dy3Ho4FeBr12
_symmetry_space_group_name_H-M   'P 1'
_cell_length_a   9.22764276
_cell_length_b   9.11880574
_cell_length_c   9.22900455
_cell_angle_alpha   106.70126197
_cell_angle_beta   106.95731386
_cell_angle_gamma   106.86249085
_symmetry_Int_Tables_number   1
_chemical_formula_structural   Dy3Ho4FeBr12
_chemical_formula_sum   'Dy3 Ho4 Fe1 Br12'
_cell_volume   649.53272475
_cell_formula_units_Z   1
loop_
 _symmetry_equiv_pos_site_id
 _symmetry_equiv_pos_as_xyz
  1  'x, y, z'
loop_
 _atom_site_type_symbol
 _atom_site_label
 _atom_site_symmetry_multiplicity
 _atom_site_fract_x
 _atom_site_fract_y
 _atom_site_fract_z
 _atom_site_occupancy
  Dy  Dy0  1  0.479443  0.402276  0.195639  1
  Dy  Dy1  1  0.594171  0.793003  0.520231  1
  Dy  Dy2  1  0.406561  0.207200  0.478983  1
  Ho  Ho3  1  0.803598  0.520299  0.598293  1
  Ho  Ho4  1  0.520604  0.596782  0.801950  1
  Ho  Ho5  1  0.197191  0.480367  0.402115  1
  Ho  Ho6  1  0.998875  0.999924  0.000834  1
  Fe  Fe7  1  0.500534  0.500282  0.499223  1
  Br  Br8  1  0.721485  0.179706  0.571449  1
  Br  Br9  1  0.960142  0.885088  0.669231  1
  Br  Br10  1  0.572996  0.723216  0.179992  1
  Br  Br11  1  0.113572  0.333391  0.038079  1
  Br  Br12  1  0.667121  0.961043  0.884396  1
  Br  Br13  1  0.884527  0.665998  0.962387  1
  Br  Br14  1  0.040377  0.115726  0.333075  1
  Br  Br15  1  0.823487  0.428993  0.280371  1
  Br  Br16  1  0.330356  0.037311  0.114869  1
  Br  Br17  1  0.279576  0.821056  0.429796  1
  Br  Br18  1  0.178527  0.571332  0.720941  1
  Br  Br19  1  0.426862  0.277011  0.818145  1
