# generated using pymatgen
data_BaLi2Y2Al7
_symmetry_space_group_name_H-M   'P 1'
_cell_length_a   9.61125313
_cell_length_b   9.61125343
_cell_length_c   9.61125361
_cell_angle_alpha   34.20620369
_cell_angle_beta   34.20619905
_cell_angle_gamma   34.20619840
_symmetry_Int_Tables_number   1
_chemical_formula_structural   BaLi2Y2Al7
_chemical_formula_sum   'Ba1 Li2 Y2 Al7'
_cell_volume   250.20173103
_cell_formula_units_Z   1
loop_
 _symmetry_equiv_pos_site_id
 _symmetry_equiv_pos_as_xyz
  1  'x, y, z'
loop_
 _atom_site_type_symbol
 _atom_site_label
 _atom_site_symmetry_multiplicity
 _atom_site_fract_x
 _atom_site_fract_y
 _atom_site_fract_z
 _atom_site_occupancy
  Ba  Ba0  1  0.000000  0.000000  0.000000  1
  Li  Li1  1  0.664583  0.664583  0.664583  1
  Li  Li2  1  0.335417  0.335417  0.335417  1
  Y  Y3  1  0.858188  0.858188  0.858188  1
  Y  Y4  1  0.141812  0.141812  0.141812  1
  Al  Al5  1  0.409215  0.409215  0.922162  1
  Al  Al6  1  0.922162  0.409215  0.409215  1
  Al  Al7  1  0.409215  0.922162  0.409215  1
  Al  Al8  1  0.500000  0.500000  0.500000  1
  Al  Al9  1  0.590785  0.077838  0.590785  1
  Al  Al10  1  0.077838  0.590785  0.590785  1
  Al  Al11  1  0.590785  0.590785  0.077838  1
