# generated using pymatgen
data_Lu5Hf3(P3Rh4)4
_symmetry_space_group_name_H-M   'P 1'
_cell_length_a   12.83034500
_cell_length_b   12.83034240
_cell_length_c   3.86021700
_cell_angle_alpha   90.00000000
_cell_angle_beta   90.00000000
_cell_angle_gamma   120.00000412
_symmetry_Int_Tables_number   1
_chemical_formula_structural   Lu5Hf3(P3Rh4)4
_chemical_formula_sum   'Lu5 Hf3 P12 Rh16'
_cell_volume   550.32458362
_cell_formula_units_Z   1
loop_
 _symmetry_equiv_pos_site_id
 _symmetry_equiv_pos_as_xyz
  1  'x, y, z'
loop_
 _atom_site_type_symbol
 _atom_site_label
 _atom_site_symmetry_multiplicity
 _atom_site_fract_x
 _atom_site_fract_y
 _atom_site_fract_z
 _atom_site_occupancy
  Lu  Lu0  1  0.666667  0.333333  0.000000  1
  Lu  Lu1  1  0.333333  0.666667  0.000000  1
  Lu  Lu2  1  0.814882  0.814882  0.500000  1
  Lu  Lu3  1  0.185118  0.000000  0.500000  1
  Lu  Lu4  1  0.000000  0.185118  0.500000  1
  Hf  Hf5  1  0.446380  0.446380  0.000000  1
  Hf  Hf6  1  0.553620  0.000000  0.000000  1
  Hf  Hf7  1  0.000000  0.553620  0.000000  1
  P  P8  1  0.686350  0.170147  0.500000  1
  P  P9  1  0.829853  0.516203  0.500000  1
  P  P10  1  0.483797  0.313650  0.500000  1
  P  P11  1  0.170147  0.686350  0.500000  1
  P  P12  1  0.516203  0.829853  0.500000  1
  P  P13  1  0.313650  0.483797  0.500000  1
  P  P14  1  0.173976  0.173976  0.000000  1
  P  P15  1  0.826024  0.000000  0.000000  1
  P  P16  1  0.000000  0.826024  0.000000  1
  P  P17  1  0.649651  0.649651  0.000000  1
  P  P18  1  0.350349  0.000000  0.000000  1
  P  P19  1  0.000000  0.350349  0.000000  1
  Rh  Rh20  1  0.868055  0.357435  0.500000  1
  Rh  Rh21  1  0.642565  0.510620  0.500000  1
  Rh  Rh22  1  0.489380  0.131945  0.500000  1
  Rh  Rh23  1  0.357435  0.868055  0.500000  1
  Rh  Rh24  1  0.510620  0.642565  0.500000  1
  Rh  Rh25  1  0.131945  0.489380  0.500000  1
  Rh  Rh26  1  0.805814  0.177853  0.000000  1
  Rh  Rh27  1  0.822147  0.627960  0.000000  1
  Rh  Rh28  1  0.372040  0.194186  0.000000  1
  Rh  Rh29  1  0.177853  0.805814  0.000000  1
  Rh  Rh30  1  0.627960  0.822147  0.000000  1
  Rh  Rh31  1  0.194186  0.372040  0.000000  1
  Rh  Rh32  1  0.277485  0.277485  0.500000  1
  Rh  Rh33  1  0.722515  0.000000  0.500000  1
  Rh  Rh34  1  0.000000  0.722515  0.500000  1
  Rh  Rh35  1  0.000000  0.000000  0.000000  1
