# generated using pymatgen
data_Ho8Nb11Si16Ag
_symmetry_space_group_name_H-M   'P 1'
_cell_length_a   7.07318039
_cell_length_b   7.07318128
_cell_length_c   13.01034167
_cell_angle_alpha   90.21437858
_cell_angle_beta   89.78562125
_cell_angle_gamma   89.76690980
_symmetry_Int_Tables_number   1
_chemical_formula_structural   Ho8Nb11Si16Ag
_chemical_formula_sum   'Ho8 Nb11 Si16 Ag1'
_cell_volume   650.89138893
_cell_formula_units_Z   1
loop_
 _symmetry_equiv_pos_site_id
 _symmetry_equiv_pos_as_xyz
  1  'x, y, z'
loop_
 _atom_site_type_symbol
 _atom_site_label
 _atom_site_symmetry_multiplicity
 _atom_site_fract_x
 _atom_site_fract_y
 _atom_site_fract_z
 _atom_site_occupancy
  Ho  Ho0  1  0.342268  0.001830  0.466874  1
  Ho  Ho1  1  0.497271  0.841415  0.716970  1
  Ho  Ho2  1  0.502549  0.157743  0.216111  1
  Ho  Ho3  1  0.841415  0.497271  0.283030  1
  Ho  Ho4  1  0.157743  0.502549  0.783889  1
  Ho  Ho5  1  0.655209  0.001142  0.967339  1
  Ho  Ho6  1  0.001830  0.342268  0.533126  1
  Ho  Ho7  1  0.001142  0.655209  0.032661  1
  Nb  Nb8  1  0.171307  0.826710  0.249933  1
  Nb  Nb9  1  0.826710  0.171307  0.750067  1
  Nb  Nb10  1  0.671689  0.671689  0.500000  1
  Nb  Nb11  1  0.150307  0.007507  0.875909  1
  Nb  Nb12  1  0.497319  0.651768  0.122706  1
  Nb  Nb13  1  0.505044  0.349726  0.623663  1
  Nb  Nb14  1  0.651768  0.497319  0.877294  1
  Nb  Nb15  1  0.349726  0.505044  0.376337  1
  Nb  Nb16  1  0.848053  0.991843  0.373050  1
  Nb  Nb17  1  0.007507  0.150307  0.124091  1
  Nb  Nb18  1  0.991843  0.848053  0.626950  1
  Si  Si19  1  0.202459  0.136206  0.683290  1
  Si  Si20  1  0.370898  0.717961  0.928778  1
  Si  Si21  1  0.635047  0.294220  0.431809  1
  Si  Si22  1  0.717961  0.370898  0.071222  1
  Si  Si23  1  0.294220  0.635047  0.568191  1
  Si  Si24  1  0.796588  0.865446  0.181439  1
  Si  Si25  1  0.136206  0.202459  0.316710  1
  Si  Si26  1  0.865446  0.796588  0.818561  1
  Si  Si27  1  0.288806  0.940884  0.064746  1
  Si  Si28  1  0.545083  0.793581  0.312444  1
  Si  Si29  1  0.455023  0.206042  0.809867  1
  Si  Si30  1  0.793581  0.545083  0.687556  1
  Si  Si31  1  0.206042  0.455023  0.190133  1
  Si  Si32  1  0.705850  0.046555  0.563317  1
  Si  Si33  1  0.940884  0.288806  0.935254  1
  Si  Si34  1  0.046555  0.705850  0.436683  1
  Ag  Ag35  1  0.328648  0.328648  0.000000  1
