# generated using pymatgen
data_Pr2NdSn6Ir
_symmetry_space_group_name_H-M   'P 1'
_cell_length_a   8.73553914
_cell_length_b   8.73554020
_cell_length_c   13.45452000
_cell_angle_alpha   90.00000000
_cell_angle_beta   90.00000000
_cell_angle_gamma   148.52451886
_symmetry_Int_Tables_number   1
_chemical_formula_structural   Pr2NdSn6Ir
_chemical_formula_sum   'Pr4 Nd2 Sn12 Ir2'
_cell_volume   536.07970532
_cell_formula_units_Z   2
loop_
 _symmetry_equiv_pos_site_id
 _symmetry_equiv_pos_as_xyz
  1  'x, y, z'
loop_
 _atom_site_type_symbol
 _atom_site_label
 _atom_site_symmetry_multiplicity
 _atom_site_fract_x
 _atom_site_fract_y
 _atom_site_fract_z
 _atom_site_occupancy
  Pr  Pr0  1  0.399841  0.600159  0.404408  1
  Pr  Pr1  1  0.600159  0.399841  0.595592  1
  Pr  Pr2  1  0.399841  0.600159  0.095592  1
  Pr  Pr3  1  0.600159  0.399841  0.904408  1
  Nd  Nd4  1  0.601966  0.398034  0.250000  1
  Nd  Nd5  1  0.398034  0.601966  0.750000  1
  Sn  Sn6  1  0.926564  0.073436  0.924069  1
  Sn  Sn7  1  0.073436  0.926564  0.075931  1
  Sn  Sn8  1  0.926564  0.073436  0.575931  1
  Sn  Sn9  1  0.073436  0.926564  0.424069  1
  Sn  Sn10  1  0.960575  0.039425  0.250000  1
  Sn  Sn11  1  0.039425  0.960575  0.750000  1
  Sn  Sn12  1  0.744806  0.255195  0.433755  1
  Sn  Sn13  1  0.255195  0.744805  0.566245  1
  Sn  Sn14  1  0.744806  0.255195  0.066245  1
  Sn  Sn15  1  0.255195  0.744805  0.933755  1
  Sn  Sn16  1  0.231392  0.768608  0.250000  1
  Sn  Sn17  1  0.768608  0.231392  0.750000  1
  Ir  Ir18  1  0.802474  0.197526  0.250000  1
  Ir  Ir19  1  0.197526  0.802474  0.750000  1
