# generated using pymatgen
data_Cs(RhO2)6
_symmetry_space_group_name_H-M   'P 1'
_cell_length_a   8.66212216
_cell_length_b   8.66212133
_cell_length_c   8.66212082
_cell_angle_alpha   107.07053499
_cell_angle_beta   107.07052820
_cell_angle_gamma   114.38730990
_symmetry_Int_Tables_number   1
_chemical_formula_structural   Cs(RhO2)6
_chemical_formula_sum   'Cs2 Rh12 O24'
_cell_volume   497.53663430
_cell_formula_units_Z   2
loop_
 _symmetry_equiv_pos_site_id
 _symmetry_equiv_pos_as_xyz
  1  'x, y, z'
loop_
 _atom_site_type_symbol
 _atom_site_label
 _atom_site_symmetry_multiplicity
 _atom_site_fract_x
 _atom_site_fract_y
 _atom_site_fract_z
 _atom_site_occupancy
  Cs  Cs0  1  0.296068  0.296068  0.000000  1
  Cs  Cs1  1  0.703932  0.703932  0.000000  1
  Rh  Rh2  1  0.663390  0.849876  0.513266  1
  Rh  Rh3  1  0.483920  0.997250  0.813827  1
  Rh  Rh4  1  0.816577  0.329908  0.813827  1
  Rh  Rh5  1  0.516080  0.002750  0.186173  1
  Rh  Rh6  1  0.670092  0.483920  0.486669  1
  Rh  Rh7  1  0.336610  0.150124  0.486734  1
  Rh  Rh8  1  0.329908  0.516080  0.513331  1
  Rh  Rh9  1  0.997250  0.183423  0.513331  1
  Rh  Rh10  1  0.150124  0.663390  0.813514  1
  Rh  Rh11  1  0.183423  0.670092  0.186173  1
  Rh  Rh12  1  0.849876  0.336610  0.186486  1
  Rh  Rh13  1  0.002750  0.816577  0.486669  1
  O  O14  1  0.657719  0.042665  0.700384  1
  O  O15  1  0.322851  0.958350  0.949383  1
  O  O16  1  0.655520  0.294638  0.950158  1
  O  O17  1  0.709486  0.007163  0.382301  1
  O  O18  1  0.624862  0.327184  0.617699  1
  O  O19  1  0.290514  0.992837  0.617699  1
  O  O20  1  0.677148  0.041650  0.050617  1
  O  O21  1  0.342281  0.957335  0.299616  1
  O  O22  1  0.672816  0.290514  0.297678  1
  O  O23  1  0.294638  0.344480  0.639118  1
  O  O24  1  0.958350  0.008967  0.635498  1
  O  O25  1  0.626532  0.677149  0.635498  1
  O  O26  1  0.041650  0.991033  0.364502  1
  O  O27  1  0.705362  0.655520  0.360882  1
  O  O28  1  0.373468  0.322852  0.364502  1
  O  O29  1  0.992837  0.375138  0.702322  1
  O  O30  1  0.327184  0.709486  0.702322  1
  O  O31  1  0.991033  0.626532  0.949383  1
  O  O32  1  0.375138  0.672816  0.382301  1
  O  O33  1  0.042665  0.342281  0.384946  1
  O  O34  1  0.957335  0.657719  0.615054  1
  O  O35  1  0.008967  0.373468  0.050617  1
  O  O36  1  0.344480  0.705362  0.049842  1
  O  O37  1  0.007163  0.624862  0.297678  1
