# generated using pymatgen
data_Tb4HoSc3(Co4P3)4
_symmetry_space_group_name_H-M   'P 1'
_cell_length_a   12.23043209
_cell_length_b   12.23305677
_cell_length_c   3.72086800
_cell_angle_alpha   90.00000000
_cell_angle_beta   90.00000000
_cell_angle_gamma   120.00711072
_symmetry_Int_Tables_number   1
_chemical_formula_structural   Tb4HoSc3(Co4P3)4
_chemical_formula_sum   'Tb4 Ho1 Sc3 Co16 P12'
_cell_volume   482.08160967
_cell_formula_units_Z   1
loop_
 _symmetry_equiv_pos_site_id
 _symmetry_equiv_pos_as_xyz
  1  'x, y, z'
loop_
 _atom_site_type_symbol
 _atom_site_label
 _atom_site_symmetry_multiplicity
 _atom_site_fract_x
 _atom_site_fract_y
 _atom_site_fract_z
 _atom_site_occupancy
  Tb  Tb0  1  0.666605  0.333288  0.000000  1
  Tb  Tb1  1  0.333395  0.666684  0.000000  1
  Tb  Tb2  1  0.815910  0.816001  0.500000  1
  Tb  Tb3  1  0.184090  0.000091  0.500000  1
  Ho  Ho4  1  0.000000  0.184365  0.500000  1
  Sc  Sc5  1  0.439607  0.439617  0.000000  1
  Sc  Sc6  1  0.560393  0.000010  0.000000  1
  Sc  Sc7  1  0.000000  0.560015  0.000000  1
  Co  Co8  1  0.876012  0.355071  0.500000  1
  Co  Co9  1  0.644576  0.520461  0.500000  1
  Co  Co10  1  0.479389  0.124097  0.500000  1
  Co  Co11  1  0.355424  0.875885  0.500000  1
  Co  Co12  1  0.520611  0.644708  0.500000  1
  Co  Co13  1  0.123988  0.479059  0.500000  1
  Co  Co14  1  0.805289  0.179143  0.000000  1
  Co  Co15  1  0.820897  0.625665  0.000000  1
  Co  Co16  1  0.374075  0.195219  0.000000  1
  Co  Co17  1  0.179103  0.804768  0.000000  1
  Co  Co18  1  0.625925  0.821144  0.000000  1
  Co  Co19  1  0.194711  0.373854  0.000000  1
  Co  Co20  1  0.278025  0.278471  0.500000  1
  Co  Co21  1  0.721975  0.000446  0.500000  1
  Co  Co22  1  0.000000  0.721373  0.500000  1
  Co  Co23  1  0.000000  0.000530  0.000000  1
  P  P24  1  0.692633  0.170656  0.500000  1
  P  P25  1  0.829404  0.521977  0.500000  1
  P  P26  1  0.477771  0.307214  0.500000  1
  P  P27  1  0.170596  0.692573  0.500000  1
  P  P28  1  0.522229  0.829443  0.500000  1
  P  P29  1  0.307367  0.478023  0.500000  1
  P  P30  1  0.178997  0.179742  0.000000  1
  P  P31  1  0.821003  0.000744  0.000000  1
  P  P32  1  0.000000  0.820387  0.000000  1
  P  P33  1  0.644540  0.644559  0.000000  1
  P  P34  1  0.355460  0.000020  0.000000  1
  P  P35  1  0.000000  0.354695  0.000000  1
