# generated using pymatgen
data_TaTi(GaRu2)2
_symmetry_space_group_name_H-M   'P 1'
_cell_length_a   4.35331303
_cell_length_b   6.19250002
_cell_length_c   13.01773105
_cell_angle_alpha   90.00171471
_cell_angle_beta   90.01016852
_cell_angle_gamma   89.99165920
_symmetry_Int_Tables_number   1
_chemical_formula_structural   TaTi(GaRu2)2
_chemical_formula_sum   'Ta3 Ti3 Ga6 Ru12'
_cell_volume   350.93056544
_cell_formula_units_Z   3
loop_
 _symmetry_equiv_pos_site_id
 _symmetry_equiv_pos_as_xyz
  1  'x, y, z'
loop_
 _atom_site_type_symbol
 _atom_site_label
 _atom_site_symmetry_multiplicity
 _atom_site_fract_x
 _atom_site_fract_y
 _atom_site_fract_z
 _atom_site_occupancy
  Ta  Ta0  1  0.000161  0.499988  0.996584  1
  Ta  Ta1  1  0.499790  0.000005  0.166650  1
  Ta  Ta2  1  0.999828  0.500002  0.336749  1
  Ti  Ti3  1  0.499718  0.000020  0.503177  1
  Ti  Ti4  1  0.000258  0.499957  0.666633  1
  Ti  Ti5  1  0.500040  0.000024  0.830232  1
  Ga  Ga6  1  0.000199  0.999978  0.996835  1
  Ga  Ga7  1  0.499779  0.500000  0.166674  1
  Ga  Ga8  1  0.999859  0.000036  0.336461  1
  Ga  Ga9  1  0.499764  0.500000  0.503054  1
  Ga  Ga10  1  0.000273  0.000025  0.666668  1
  Ga  Ga11  1  0.500073  0.499965  0.830288  1
  Ru  Ru12  1  0.500362  0.249902  0.999011  1
  Ru  Ru13  1  0.500049  0.750074  0.999012  1
  Ru  Ru14  1  0.999772  0.249310  0.166679  1
  Ru  Ru15  1  0.999934  0.750702  0.166673  1
  Ru  Ru16  1  0.500032  0.249900  0.334296  1
  Ru  Ru17  1  0.499718  0.750113  0.334299  1
  Ru  Ru18  1  0.999337  0.247999  0.501354  1
  Ru  Ru19  1  0.000268  0.752026  0.501351  1
  Ru  Ru20  1  0.501171  0.250501  0.666711  1
  Ru  Ru21  1  0.499400  0.749495  0.666712  1
  Ru  Ru22  1  0.999652  0.248078  0.831958  1
  Ru  Ru23  1  0.000565  0.751899  0.831943  1
