# generated using pymatgen
data_CaYb5(TmAs3)2
_symmetry_space_group_name_H-M   'P 1'
_cell_length_a   7.53349039
_cell_length_b   7.72311774
_cell_length_c   7.72438200
_cell_angle_alpha   109.97168500
_cell_angle_beta   108.97426563
_cell_angle_gamma   108.96922595
_symmetry_Int_Tables_number   1
_chemical_formula_structural   CaYb5(TmAs3)2
_chemical_formula_sum   'Ca1 Yb5 Tm2 As6'
_cell_volume   348.04933019
_cell_formula_units_Z   1
loop_
 _symmetry_equiv_pos_site_id
 _symmetry_equiv_pos_as_xyz
  1  'x, y, z'
loop_
 _atom_site_type_symbol
 _atom_site_label
 _atom_site_symmetry_multiplicity
 _atom_site_fract_x
 _atom_site_fract_y
 _atom_site_fract_z
 _atom_site_occupancy
  Ca  Ca0  1  0.500079  0.997124  0.635472  1
  Yb  Yb1  1  0.364222  0.360914  0.364235  1
  Yb  Yb2  1  0.503196  0.003158  0.138700  1
  Yb  Yb3  1  0.002377  0.638474  0.503019  1
  Yb  Yb4  1  0.864575  0.863827  0.861103  1
  Yb  Yb5  1  0.999920  0.135701  0.496715  1
  Tm  Tm6  1  0.131580  0.499968  0.999979  1
  Tm  Tm7  1  0.631782  0.500458  0.000312  1
  As  As8  1  0.377005  0.621352  0.759762  1
  As  As9  1  0.878622  0.260089  0.123091  1
  As  As10  1  0.618020  0.739961  0.362001  1
  As  As11  1  0.117058  0.861872  0.239268  1
  As  As12  1  0.255480  0.138310  0.878584  1
  As  As13  1  0.756085  0.378793  0.637759  1
