# generated using pymatgen
data_Sr20Cd5Pt7
_symmetry_space_group_name_H-M   'P 1'
_cell_length_a   8.35791400
_cell_length_b   8.35798002
_cell_length_c   15.66141600
_cell_angle_alpha   90.00033591
_cell_angle_beta   90.00086376
_cell_angle_gamma   90.38123522
_symmetry_Int_Tables_number   1
_chemical_formula_structural   Sr20Cd5Pt7
_chemical_formula_sum   'Sr20 Cd5 Pt7'
_cell_volume   1094.00835349
_cell_formula_units_Z   1
loop_
 _symmetry_equiv_pos_site_id
 _symmetry_equiv_pos_as_xyz
  1  'x, y, z'
loop_
 _atom_site_type_symbol
 _atom_site_label
 _atom_site_symmetry_multiplicity
 _atom_site_fract_x
 _atom_site_fract_y
 _atom_site_fract_z
 _atom_site_occupancy
  Sr  Sr0  1  0.670595  0.180308  0.112127  1
  Sr  Sr1  1  0.165512  0.665626  0.621386  1
  Sr  Sr2  1  0.319283  0.829924  0.112218  1
  Sr  Sr3  1  0.833948  0.334847  0.621363  1
  Sr  Sr4  1  0.845374  0.655036  0.112523  1
  Sr  Sr5  1  0.333584  0.166824  0.620135  1
  Sr  Sr6  1  0.167935  0.331557  0.116581  1
  Sr  Sr7  1  0.665472  0.834134  0.619415  1
  Sr  Sr8  1  0.834558  0.334633  0.879078  1
  Sr  Sr9  1  0.319497  0.829188  0.387394  1
  Sr  Sr10  1  0.164998  0.665872  0.879104  1
  Sr  Sr11  1  0.670309  0.180885  0.387300  1
  Sr  Sr12  1  0.665647  0.834721  0.881146  1
  Sr  Sr13  1  0.168721  0.331773  0.382882  1
  Sr  Sr14  1  0.333372  0.166228  0.880395  1
  Sr  Sr15  1  0.844846  0.654771  0.387057  1
  Sr  Sr16  1  0.500132  0.500758  0.750770  1
  Sr  Sr17  1  0.010689  0.004310  0.249969  1
  Sr  Sr18  1  0.999292  0.999865  0.750049  1
  Sr  Sr19  1  0.495696  0.489307  0.249151  1
  Cd  Cd20  1  0.499660  0.502783  0.501215  1
  Cd  Cd21  1  0.499664  0.502864  0.998881  1
  Cd  Cd22  1  0.997210  0.000375  0.501150  1
  Cd  Cd23  1  0.619252  0.880728  0.249731  1
  Cd  Cd24  1  0.997147  0.000323  0.998788  1
  Pt  Pt25  1  0.626236  0.127029  0.750312  1
  Pt  Pt26  1  0.126702  0.625963  0.249732  1
  Pt  Pt27  1  0.874043  0.373296  0.249693  1
  Pt  Pt28  1  0.372958  0.873765  0.750315  1
  Pt  Pt29  1  0.870996  0.629000  0.750275  1
  Pt  Pt30  1  0.378303  0.121678  0.249581  1
  Pt  Pt31  1  0.128368  0.371629  0.750287  1
