# generated using pymatgen
data_Hf6Re5Si6Os
_symmetry_space_group_name_H-M   'P 1'
_cell_length_a   7.75013044
_cell_length_b   7.75033239
_cell_length_c   7.75033207
_cell_angle_alpha   126.61331215
_cell_angle_beta   128.05163121
_cell_angle_gamma   77.71514065
_symmetry_Int_Tables_number   1
_chemical_formula_structural   Hf6Re5Si6Os
_chemical_formula_sum   'Hf6 Re5 Si6 Os1'
_cell_volume   285.28520228
_cell_formula_units_Z   1
loop_
 _symmetry_equiv_pos_site_id
 _symmetry_equiv_pos_as_xyz
  1  'x, y, z'
loop_
 _atom_site_type_symbol
 _atom_site_label
 _atom_site_symmetry_multiplicity
 _atom_site_fract_x
 _atom_site_fract_y
 _atom_site_fract_z
 _atom_site_occupancy
  Hf  Hf0  1  0.546896  0.093698  0.045367  1
  Hf  Hf1  1  0.453104  0.498470  0.546801  1
  Hf  Hf2  1  0.952242  0.498398  0.044727  1
  Hf  Hf3  1  0.047758  0.092486  0.546157  1
  Hf  Hf4  1  0.749489  0.899495  0.648282  1
  Hf  Hf5  1  0.250511  0.898793  0.150006  1
  Re  Re6  1  0.127364  0.750614  0.623934  1
  Re  Re7  1  0.872636  0.496569  0.623249  1
  Re  Re8  1  0.627592  0.752739  0.124524  1
  Re  Re9  1  0.372408  0.496932  0.125148  1
  Re  Re10  1  0.500000  0.241243  0.741243  1
  Si  Si11  1  0.333955  0.830502  0.497558  1
  Si  Si12  1  0.666045  0.163603  0.496546  1
  Si  Si13  1  0.833079  0.830995  0.996870  1
  Si  Si14  1  0.166921  0.163791  0.997915  1
  Si  Si15  1  0.749432  0.497004  0.245828  1
  Si  Si16  1  0.250568  0.496395  0.747572  1
  Os  Os17  1  0.000000  0.242274  0.242274  1
