# generated using pymatgen
data_VIr5F24
_symmetry_space_group_name_H-M   'P 1'
_cell_length_a   7.87512676
_cell_length_b   7.84691751
_cell_length_c   7.89426408
_cell_angle_alpha   94.33239260
_cell_angle_beta   93.64509969
_cell_angle_gamma   93.09485807
_symmetry_Int_Tables_number   1
_chemical_formula_structural   VIr5F24
_chemical_formula_sum   'V1 Ir5 F24'
_cell_volume   484.60380614
_cell_formula_units_Z   1
loop_
 _symmetry_equiv_pos_site_id
 _symmetry_equiv_pos_as_xyz
  1  'x, y, z'
loop_
 _atom_site_type_symbol
 _atom_site_label
 _atom_site_symmetry_multiplicity
 _atom_site_fract_x
 _atom_site_fract_y
 _atom_site_fract_z
 _atom_site_occupancy
  V  V0  1  0.458097  0.079711  0.190126  1
  Ir  Ir1  1  0.552197  0.924434  0.824700  1
  Ir  Ir2  1  0.919349  0.819555  0.551505  1
  Ir  Ir3  1  0.178943  0.443655  0.082863  1
  Ir  Ir4  1  0.822238  0.552449  0.917615  1
  Ir  Ir5  1  0.078245  0.178804  0.446976  1
  F  F6  1  0.539842  0.899399  0.275931  1
  F  F7  1  0.906266  0.980123  0.359543  1
  F  F8  1  0.743976  0.959283  0.667887  1
  F  F9  1  0.363184  0.917664  0.985160  1
  F  F10  1  0.022365  0.642336  0.087256  1
  F  F11  1  0.098840  0.713050  0.446938  1
  F  F12  1  0.455588  0.760719  0.654435  1
  F  F13  1  0.665912  0.745939  0.958347  1
  F  F14  1  0.344993  0.538229  0.250425  1
  F  F15  1  0.752686  0.651946  0.457757  1
  F  F16  1  0.959922  0.664755  0.742130  1
  F  F17  1  0.287828  0.538595  0.903172  1
  F  F18  1  0.718861  0.453462  0.098226  1
  F  F19  1  0.037034  0.335887  0.257635  1
  F  F20  1  0.248908  0.343156  0.536715  1
  F  F21  1  0.653889  0.458521  0.752177  1
  F  F22  1  0.322745  0.238630  0.057354  1
  F  F23  1  0.544363  0.254966  0.323426  1
  F  F24  1  0.900395  0.284503  0.554199  1
  F  F25  1  0.981735  0.356157  0.908480  1
  F  F26  1  0.642862  0.089226  0.029181  1
  F  F27  1  0.253365  0.048443  0.318315  1
  F  F28  1  0.092517  0.018297  0.638266  1
  F  F29  1  0.452855  0.108106  0.723261  1
