# generated using pymatgen
data_La3Cd3SiAgGe
_symmetry_space_group_name_H-M   'P 1'
_cell_length_a   7.62379700
_cell_length_b   7.62379736
_cell_length_c   4.50011800
_cell_angle_alpha   90.00000000
_cell_angle_beta   90.00000000
_cell_angle_gamma   120.00000279
_symmetry_Int_Tables_number   1
_chemical_formula_structural   La3Cd3SiAgGe
_chemical_formula_sum   'La3 Cd3 Si1 Ag1 Ge1'
_cell_volume   226.51511610
_cell_formula_units_Z   1
loop_
 _symmetry_equiv_pos_site_id
 _symmetry_equiv_pos_as_xyz
  1  'x, y, z'
loop_
 _atom_site_type_symbol
 _atom_site_label
 _atom_site_symmetry_multiplicity
 _atom_site_fract_x
 _atom_site_fract_y
 _atom_site_fract_z
 _atom_site_occupancy
  La  La0  1  0.415413  0.998312  0.000000  1
  La  La1  1  0.582899  0.584587  0.000000  1
  La  La2  1  0.001688  0.417101  0.000000  1
  Cd  Cd3  1  0.750060  0.997633  0.500000  1
  Cd  Cd4  1  0.247574  0.249940  0.500000  1
  Cd  Cd5  1  0.002367  0.752426  0.500000  1
  Si  Si6  1  0.333333  0.666667  0.500000  1
  Ag  Ag7  1  0.000000  0.000000  0.000000  1
  Ge  Ge8  1  0.666667  0.333333  0.500000  1
