# generated using pymatgen
data_Th7TiPbSe17
_symmetry_space_group_name_H-M   'P 1'
_cell_length_a   8.46002873
_cell_length_b   8.46558514
_cell_length_c   11.22365000
_cell_angle_alpha   80.86236476
_cell_angle_beta   80.49895274
_cell_angle_gamma   65.53014050
_symmetry_Int_Tables_number   1
_chemical_formula_structural   Th7TiPbSe17
_chemical_formula_sum   'Th7 Ti1 Pb1 Se17'
_cell_volume   717.92031996
_cell_formula_units_Z   1
loop_
 _symmetry_equiv_pos_site_id
 _symmetry_equiv_pos_as_xyz
  1  'x, y, z'
loop_
 _atom_site_type_symbol
 _atom_site_label
 _atom_site_symmetry_multiplicity
 _atom_site_fract_x
 _atom_site_fract_y
 _atom_site_fract_z
 _atom_site_occupancy
  Th  Th0  1  0.301214  0.817620  0.296617  1
  Th  Th1  1  0.184128  0.695233  0.701685  1
  Th  Th2  1  0.699939  0.184977  0.701731  1
  Th  Th3  1  0.205017  0.201547  0.541055  1
  Th  Th4  1  0.795432  0.791771  0.458958  1
  Th  Th5  1  0.679635  0.681695  0.982360  1
  Th  Th6  1  0.317215  0.323020  0.019777  1
  Ti  Ti7  1  0.000962  0.007266  0.005789  1
  Pb  Pb8  1  0.807243  0.314219  0.291551  1
  Se  Se9  1  0.827525  0.430287  0.545656  1
  Se  Se10  1  0.432474  0.817264  0.534434  1
  Se  Se11  1  0.178999  0.564398  0.466134  1
  Se  Se12  1  0.570597  0.166163  0.476400  1
  Se  Se13  1  0.943123  0.322566  0.016834  1
  Se  Se14  1  0.321121  0.946629  0.022735  1
  Se  Se15  1  0.053782  0.679977  0.970777  1
  Se  Se16  1  0.679630  0.059902  0.973105  1
  Se  Se17  1  0.229424  0.197748  0.275483  1
  Se  Se18  1  0.788220  0.790266  0.725823  1
  Se  Se19  1  0.062429  0.051956  0.775902  1
  Se  Se20  1  0.946988  0.929414  0.223256  1
  Se  Se21  1  0.303537  0.302442  0.755021  1
  Se  Se22  1  0.684861  0.717231  0.242026  1
  Se  Se23  1  0.517869  0.520610  0.832724  1
  Se  Se24  1  0.462866  0.498598  0.157647  1
  Se  Se25  1  0.005771  0.987203  0.506520  1
