# generated using pymatgen
data_TbNd7(Si3Pt)4
_symmetry_space_group_name_H-M   'P 1'
_cell_length_a   8.21857600
_cell_length_b   8.23149613
_cell_length_c   8.53513300
_cell_angle_alpha   90.00000000
_cell_angle_beta   90.00000000
_cell_angle_gamma   120.05200678
_symmetry_Int_Tables_number   1
_chemical_formula_structural   TbNd7(Si3Pt)4
_chemical_formula_sum   'Tb1 Nd7 Si12 Pt4'
_cell_volume   499.79101660
_cell_formula_units_Z   1
loop_
 _symmetry_equiv_pos_site_id
 _symmetry_equiv_pos_as_xyz
  1  'x, y, z'
loop_
 _atom_site_type_symbol
 _atom_site_label
 _atom_site_symmetry_multiplicity
 _atom_site_fract_x
 _atom_site_fract_y
 _atom_site_fract_z
 _atom_site_occupancy
  Tb  Tb0  1  0.000218  0.500110  0.750000  1
  Nd  Nd1  1  0.499903  0.500075  0.750000  1
  Nd  Nd2  1  0.500068  0.499926  0.250000  1
  Nd  Nd3  1  0.999818  0.499909  0.250000  1
  Nd  Nd4  1  0.499903  0.999828  0.750000  1
  Nd  Nd5  1  0.500068  0.000142  0.250000  1
  Nd  Nd6  1  0.999969  0.999985  0.750000  1
  Nd  Nd7  1  0.000018  0.000009  0.250000  1
  Si  Si8  1  0.834677  0.166212  0.997831  1
  Si  Si9  1  0.165319  0.833789  0.998750  1
  Si  Si10  1  0.332558  0.166280  0.999889  1
  Si  Si11  1  0.165319  0.833789  0.501250  1
  Si  Si12  1  0.667450  0.833725  0.000656  1
  Si  Si13  1  0.834677  0.166212  0.502169  1
  Si  Si14  1  0.834677  0.668466  0.997831  1
  Si  Si15  1  0.667450  0.833725  0.499344  1
  Si  Si16  1  0.165319  0.331532  0.998750  1
  Si  Si17  1  0.332558  0.166280  0.500111  1
  Si  Si18  1  0.165319  0.331532  0.501250  1
  Si  Si19  1  0.834677  0.668466  0.502169  1
  Pt  Pt20  1  0.668885  0.334442  0.995562  1
  Pt  Pt21  1  0.331130  0.665565  0.995703  1
  Pt  Pt22  1  0.331130  0.665565  0.504297  1
  Pt  Pt23  1  0.668885  0.334442  0.504438  1
