# generated using pymatgen
data_CaGdLu2(B6Os)2
_symmetry_space_group_name_H-M   'P 1'
_cell_length_a   3.61922500
_cell_length_b   9.11040107
_cell_length_c   11.52715420
_cell_angle_alpha   89.86842840
_cell_angle_beta   90.00000000
_cell_angle_gamma   90.00000000
_symmetry_Int_Tables_number   1
_chemical_formula_structural   CaGdLu2(B6Os)2
_chemical_formula_sum   'Ca2 Gd2 Lu4 B24 Os4'
_cell_volume   380.07914235
_cell_formula_units_Z   2
loop_
 _symmetry_equiv_pos_site_id
 _symmetry_equiv_pos_as_xyz
  1  'x, y, z'
loop_
 _atom_site_type_symbol
 _atom_site_label
 _atom_site_symmetry_multiplicity
 _atom_site_fract_x
 _atom_site_fract_y
 _atom_site_fract_z
 _atom_site_occupancy
  Ca  Ca0  1  0.000000  0.323412  0.414923  1
  Ca  Ca1  1  0.000000  0.676588  0.585077  1
  Gd  Gd2  1  0.000000  0.821384  0.086067  1
  Gd  Gd3  1  0.000000  0.178616  0.913933  1
  Lu  Lu4  1  0.000000  0.942304  0.370431  1
  Lu  Lu5  1  0.000000  0.057696  0.629569  1
  Lu  Lu6  1  0.000000  0.443588  0.129671  1
  Lu  Lu7  1  0.000000  0.556412  0.870329  1
  B  B8  1  0.500000  0.554568  0.432131  1
  B  B9  1  0.500000  0.445432  0.567869  1
  B  B10  1  0.500000  0.054417  0.067921  1
  B  B11  1  0.500000  0.945583  0.932079  1
  B  B12  1  0.500000  0.749597  0.417373  1
  B  B13  1  0.500000  0.250403  0.582627  1
  B  B14  1  0.500000  0.249995  0.082440  1
  B  B15  1  0.500000  0.750005  0.917560  1
  B  B16  1  0.500000  0.791832  0.264936  1
  B  B17  1  0.500000  0.208168  0.735063  1
  B  B18  1  0.500000  0.291510  0.234774  1
  B  B19  1  0.500000  0.708490  0.765227  1
  B  B20  1  0.500000  0.630558  0.184670  1
  B  B21  1  0.500000  0.369442  0.815330  1
  B  B22  1  0.500000  0.129956  0.314865  1
  B  B23  1  0.500000  0.870044  0.685135  1
  B  B24  1  0.500000  0.983066  0.212847  1
  B  B25  1  0.500000  0.016934  0.787153  1
  B  B26  1  0.500000  0.483417  0.287336  1
  B  B27  1  0.500000  0.516583  0.712664  1
  B  B28  1  0.500000  0.600584  0.027378  1
  B  B29  1  0.500000  0.399416  0.972622  1
  B  B30  1  0.500000  0.097131  0.473434  1
  B  B31  1  0.500000  0.902869  0.526566  1
  Os  Os32  1  0.000000  0.640634  0.317807  1
  Os  Os33  1  0.000000  0.359366  0.682193  1
  Os  Os34  1  0.000000  0.138175  0.179614  1
  Os  Os35  1  0.000000  0.861825  0.820386  1
