# generated using pymatgen
data_CaTb2Lu(ReN3)4
_symmetry_space_group_name_H-M   'P 1'
_cell_length_a   7.36096204
_cell_length_b   7.36096225
_cell_length_c   6.25753318
_cell_angle_alpha   73.59194096
_cell_angle_beta   73.59193994
_cell_angle_gamma   82.78597967
_symmetry_Int_Tables_number   1
_chemical_formula_structural   CaTb2Lu(ReN3)4
_chemical_formula_sum   'Ca1 Tb2 Lu1 Re4 N12'
_cell_volume   311.61597804
_cell_formula_units_Z   1
loop_
 _symmetry_equiv_pos_site_id
 _symmetry_equiv_pos_as_xyz
  1  'x, y, z'
loop_
 _atom_site_type_symbol
 _atom_site_label
 _atom_site_symmetry_multiplicity
 _atom_site_fract_x
 _atom_site_fract_y
 _atom_site_fract_z
 _atom_site_occupancy
  Ca  Ca0  1  0.705565  0.294435  0.250000  1
  Tb  Tb1  1  0.910070  0.089930  0.750000  1
  Tb  Tb2  1  0.292265  0.707735  0.750000  1
  Lu  Lu3  1  0.093071  0.906929  0.250000  1
  Re  Re4  1  0.621610  0.796135  0.272515  1
  Re  Re5  1  0.203865  0.378390  0.227485  1
  Re  Re6  1  0.377437  0.201499  0.730507  1
  Re  Re7  1  0.798501  0.622563  0.769493  1
  N  N8  1  0.340616  0.363967  0.928583  1
  N  N9  1  0.013755  0.213898  0.339801  1
  N  N10  1  0.786102  0.986245  0.160199  1
  N  N11  1  0.218027  0.001872  0.849654  1
  N  N12  1  0.657178  0.650270  0.060010  1
  N  N13  1  0.878852  0.379280  0.829452  1
  N  N14  1  0.126347  0.627874  0.163682  1
  N  N15  1  0.998128  0.781973  0.650346  1
  N  N16  1  0.372126  0.873653  0.336318  1
  N  N17  1  0.636033  0.659384  0.571417  1
  N  N18  1  0.620720  0.121148  0.670548  1
  N  N19  1  0.349730  0.342822  0.439990  1
