# generated using pymatgen
data_Li3MgAs6IrRh6
_symmetry_space_group_name_H-M   'P 1'
_cell_length_a   6.99680159
_cell_length_b   6.99680187
_cell_length_c   6.98022500
_cell_angle_alpha   109.42322864
_cell_angle_beta   109.42322946
_cell_angle_gamma   109.51916422
_symmetry_Int_Tables_number   1
_chemical_formula_structural   Li3MgAs6IrRh6
_chemical_formula_sum   'Li3 Mg1 As6 Ir1 Rh6'
_cell_volume   263.21072153
_cell_formula_units_Z   1
loop_
 _symmetry_equiv_pos_site_id
 _symmetry_equiv_pos_as_xyz
  1  'x, y, z'
loop_
 _atom_site_type_symbol
 _atom_site_label
 _atom_site_symmetry_multiplicity
 _atom_site_fract_x
 _atom_site_fract_y
 _atom_site_fract_z
 _atom_site_occupancy
  Li  Li0  1  0.500000  0.000000  0.000000  1
  Li  Li1  1  0.000000  0.500000  0.000000  1
  Li  Li2  1  0.500000  0.500000  0.500000  1
  Mg  Mg3  1  0.000000  0.000000  0.500000  1
  As  As4  1  0.683869  0.683869  0.992627  1
  As  As5  1  0.316131  0.316131  0.007373  1
  As  As6  1  0.000000  0.683869  0.691243  1
  As  As7  1  0.000000  0.316131  0.308757  1
  As  As8  1  0.683869  0.000000  0.691243  1
  As  As9  1  0.316131  0.000000  0.308757  1
  Ir  Ir10  1  0.000000  0.000000  0.000000  1
  Rh  Rh11  1  0.248603  0.497205  0.748603  1
  Rh  Rh12  1  0.751397  0.248603  0.500000  1
  Rh  Rh13  1  0.497205  0.248603  0.748603  1
  Rh  Rh14  1  0.502795  0.751397  0.251397  1
  Rh  Rh15  1  0.751397  0.502795  0.251397  1
  Rh  Rh16  1  0.248603  0.751397  0.500000  1
