# generated using pymatgen
data_SeBr37
_symmetry_space_group_name_H-M   'P 1'
_cell_length_a   14.20848141
_cell_length_b   15.29732181
_cell_length_c   14.42416200
_cell_angle_alpha   103.00376457
_cell_angle_beta   48.80056783
_cell_angle_gamma   81.50743146
_symmetry_Int_Tables_number   1
_chemical_formula_structural   SeBr37
_chemical_formula_sum   'Se1 Br37'
_cell_volume   2102.91272627
_cell_formula_units_Z   1
loop_
 _symmetry_equiv_pos_site_id
 _symmetry_equiv_pos_as_xyz
  1  'x, y, z'
loop_
 _atom_site_type_symbol
 _atom_site_label
 _atom_site_symmetry_multiplicity
 _atom_site_fract_x
 _atom_site_fract_y
 _atom_site_fract_z
 _atom_site_occupancy
  Se  Se0  1  0.500000  0.000000  0.000000  1
  Br  Br1  1  0.803167  0.301710  0.128662  1
  Br  Br2  1  0.196833  0.698290  0.871338  1
  Br  Br3  1  0.748521  0.085785  0.359215  1
  Br  Br4  1  0.251479  0.914215  0.640785  1
  Br  Br5  1  0.115780  0.345008  0.166856  1
  Br  Br6  1  0.884220  0.654992  0.833144  1
  Br  Br7  1  0.870090  0.537783  0.247722  1
  Br  Br8  1  0.129910  0.462217  0.752278  1
  Br  Br9  1  0.686400  0.277999  0.521702  1
  Br  Br10  1  0.313600  0.722001  0.478298  1
  Br  Br11  1  0.993936  0.163237  0.575504  1
  Br  Br12  1  0.006064  0.836763  0.424496  1
  Br  Br13  1  0.988603  0.016237  0.272030  1
  Br  Br14  1  0.011397  0.983763  0.727970  1
  Br  Br15  1  0.929163  0.352360  0.638123  1
  Br  Br16  1  0.070837  0.647640  0.361877  1
  Br  Br17  1  0.589449  0.425311  0.230623  1
  Br  Br18  1  0.410551  0.574689  0.769377  1
  Br  Br19  1  0.162764  0.467626  0.290084  1
  Br  Br20  1  0.837236  0.532374  0.709916  1
  Br  Br21  1  0.000000  0.500000  0.000000  1
  Br  Br22  1  0.512026  0.970678  0.165889  1
  Br  Br23  1  0.487974  0.029322  0.834111  1
  Br  Br24  1  0.248282  0.068917  0.376975  1
  Br  Br25  1  0.751718  0.931083  0.623025  1
  Br  Br26  1  0.531580  0.128282  0.417040  1
  Br  Br27  1  0.468420  0.871718  0.582960  1
  Br  Br28  1  0.092574  0.219232  0.054650  1
  Br  Br29  1  0.907426  0.780768  0.945350  1
  Br  Br30  1  0.665887  0.695886  0.401627  1
  Br  Br31  1  0.334113  0.304114  0.598373  1
  Br  Br32  1  0.901964  0.143082  0.926239  1
  Br  Br33  1  0.098036  0.856918  0.073761  1
  Br  Br34  1  0.491316  0.168881  0.069934  1
  Br  Br35  1  0.508684  0.831119  0.930066  1
  Br  Br36  1  0.646761  0.433935  0.651367  1
  Br  Br37  1  0.353239  0.566065  0.348633  1
