# generated using pymatgen
data_Hf3MgPd11Pt
_symmetry_space_group_name_H-M   'P 1'
_cell_length_a   5.67745047
_cell_length_b   5.67745064
_cell_length_c   9.23764900
_cell_angle_alpha   90.00000000
_cell_angle_beta   90.00000000
_cell_angle_gamma   120.04658532
_symmetry_Int_Tables_number   1
_chemical_formula_structural   Hf3MgPd11Pt
_chemical_formula_sum   'Hf3 Mg1 Pd11 Pt1'
_cell_volume   257.74767070
_cell_formula_units_Z   1
loop_
 _symmetry_equiv_pos_site_id
 _symmetry_equiv_pos_as_xyz
  1  'x, y, z'
loop_
 _atom_site_type_symbol
 _atom_site_label
 _atom_site_symmetry_multiplicity
 _atom_site_fract_x
 _atom_site_fract_y
 _atom_site_fract_z
 _atom_site_occupancy
  Hf  Hf0  1  0.999206  0.000794  0.501775  1
  Hf  Hf1  1  0.334096  0.665904  0.250000  1
  Hf  Hf2  1  0.999206  0.000794  0.998225  1
  Mg  Mg3  1  0.666737  0.333263  0.750000  1
  Pd  Pd4  1  0.168533  0.337012  0.750000  1
  Pd  Pd5  1  0.001175  0.501185  0.000841  1
  Pd  Pd6  1  0.831786  0.662574  0.250000  1
  Pd  Pd7  1  0.337426  0.168214  0.250000  1
  Pd  Pd8  1  0.499255  0.500745  0.000512  1
  Pd  Pd9  1  0.499255  0.500745  0.499488  1
  Pd  Pd10  1  0.498815  0.998825  0.499159  1
  Pd  Pd11  1  0.169316  0.830684  0.750000  1
  Pd  Pd12  1  0.662988  0.831467  0.750000  1
  Pd  Pd13  1  0.498815  0.998825  0.000841  1
  Pd  Pd14  1  0.001175  0.501185  0.499159  1
  Pt  Pt15  1  0.832210  0.167790  0.250000  1
