# generated using pymatgen
data_Na8SnP4
_symmetry_space_group_name_H-M   'P 1'
_cell_length_a   9.70477912
_cell_length_b   9.70477924
_cell_length_c   9.70477900
_cell_angle_alpha   59.99999742
_cell_angle_beta   59.99999699
_cell_angle_gamma   60.00000039
_symmetry_Int_Tables_number   1
_chemical_formula_structural   Na8SnP4
_chemical_formula_sum   'Na16 Sn2 P8'
_cell_volume   646.31160072
_cell_formula_units_Z   2
loop_
 _symmetry_equiv_pos_site_id
 _symmetry_equiv_pos_as_xyz
  1  'x, y, z'
loop_
 _atom_site_type_symbol
 _atom_site_label
 _atom_site_symmetry_multiplicity
 _atom_site_fract_x
 _atom_site_fract_y
 _atom_site_fract_z
 _atom_site_occupancy
  Na  Na0  1  0.473454  0.026546  0.026546  1
  Na  Na1  1  0.026546  0.473454  0.026546  1
  Na  Na2  1  0.473454  0.473454  0.026547  1
  Na  Na3  1  0.625000  0.625000  0.125000  1
  Na  Na4  1  0.776546  0.223454  0.223454  1
  Na  Na5  1  0.223454  0.776546  0.223454  1
  Na  Na6  1  0.776546  0.776546  0.223453  1
  Na  Na7  1  0.026546  0.026546  0.473454  1
  Na  Na8  1  0.473454  0.026547  0.473454  1
  Na  Na9  1  0.026547  0.473454  0.473454  1
  Na  Na10  1  0.625000  0.125000  0.625000  1
  Na  Na11  1  0.125000  0.625000  0.625000  1
  Na  Na12  1  0.625000  0.625000  0.625000  1
  Na  Na13  1  0.223454  0.223454  0.776546  1
  Na  Na14  1  0.776546  0.223453  0.776546  1
  Na  Na15  1  0.223453  0.776546  0.776546  1
  Sn  Sn16  1  0.500000  0.500000  0.500000  1
  Sn  Sn17  1  0.750000  0.750000  0.750000  1
  P  P18  1  0.825947  0.391350  0.391350  1
  P  P19  1  0.391350  0.825947  0.391350  1
  P  P20  1  0.391350  0.391350  0.391350  1
  P  P21  1  0.858650  0.858650  0.424053  1
  P  P22  1  0.391350  0.391350  0.825947  1
  P  P23  1  0.858650  0.424053  0.858650  1
  P  P24  1  0.858650  0.858650  0.858650  1
  P  P25  1  0.424053  0.858650  0.858650  1
