# generated using pymatgen
data_CsMn2Cl9
_symmetry_space_group_name_H-M   'P 1'
_cell_length_a   6.63202300
_cell_length_b   9.71860353
_cell_length_c   12.61527175
_cell_angle_alpha   64.91121033
_cell_angle_beta   90.00000000
_cell_angle_gamma   90.00000000
_symmetry_Int_Tables_number   1
_chemical_formula_structural   CsMn2Cl9
_chemical_formula_sum   'Cs2 Mn4 Cl18'
_cell_volume   736.38976542
_cell_formula_units_Z   2
loop_
 _symmetry_equiv_pos_site_id
 _symmetry_equiv_pos_as_xyz
  1  'x, y, z'
loop_
 _atom_site_type_symbol
 _atom_site_label
 _atom_site_symmetry_multiplicity
 _atom_site_fract_x
 _atom_site_fract_y
 _atom_site_fract_z
 _atom_site_occupancy
  Cs  Cs0  1  0.594880  0.500000  0.750000  1
  Cs  Cs1  1  0.405120  0.500000  0.250000  1
  Mn  Mn2  1  0.254789  0.838667  0.856781  1
  Mn  Mn3  1  0.745211  0.161333  0.143219  1
  Mn  Mn4  1  0.254789  0.161333  0.643219  1
  Mn  Mn5  1  0.745211  0.838667  0.356781  1
  Cl  Cl6  1  0.110964  0.799808  0.023244  1
  Cl  Cl7  1  0.889036  0.200192  0.976756  1
  Cl  Cl8  1  0.110964  0.200192  0.476756  1
  Cl  Cl9  1  0.889036  0.799808  0.523244  1
  Cl  Cl10  1  0.120342  0.637409  0.845911  1
  Cl  Cl11  1  0.879658  0.362591  0.154089  1
  Cl  Cl12  1  0.120342  0.362591  0.654089  1
  Cl  Cl13  1  0.879658  0.637409  0.345911  1
  Cl  Cl14  1  0.987914  0.000000  0.750000  1
  Cl  Cl15  1  0.012086  0.000000  0.250000  1
  Cl  Cl16  1  0.389072  0.075993  0.835543  1
  Cl  Cl17  1  0.610928  0.924007  0.164457  1
  Cl  Cl18  1  0.389072  0.924007  0.664457  1
  Cl  Cl19  1  0.610928  0.075993  0.335543  1
  Cl  Cl20  1  0.541366  0.723837  0.934387  1
  Cl  Cl21  1  0.458634  0.276163  0.065613  1
  Cl  Cl22  1  0.541366  0.276163  0.565613  1
  Cl  Cl23  1  0.458634  0.723837  0.434387  1
