# generated using pymatgen
data_Li4DyP12Ir13Ru6
_symmetry_space_group_name_H-M   'P 1'
_cell_length_a   12.49084683
_cell_length_b   12.44315152
_cell_length_c   3.94450200
_cell_angle_alpha   90.00000000
_cell_angle_beta   90.00000000
_cell_angle_gamma   119.46158584
_symmetry_Int_Tables_number   1
_chemical_formula_structural   Li4DyP12Ir13Ru6
_chemical_formula_sum   'Li4 Dy1 P12 Ir13 Ru6'
_cell_volume   533.79664362
_cell_formula_units_Z   1
loop_
 _symmetry_equiv_pos_site_id
 _symmetry_equiv_pos_as_xyz
  1  'x, y, z'
loop_
 _atom_site_type_symbol
 _atom_site_label
 _atom_site_symmetry_multiplicity
 _atom_site_fract_x
 _atom_site_fract_y
 _atom_site_fract_z
 _atom_site_occupancy
  Li  Li0  1  0.672488  0.336162  0.000000  1
  Li  Li1  1  0.332051  0.663368  0.000000  1
  Li  Li2  1  0.821919  0.001737  0.500000  1
  Li  Li3  1  0.176427  0.179482  0.500000  1
  Dy  Dy4  1  0.999830  0.826339  0.500000  1
  P  P5  1  0.641735  0.003793  0.000000  1
  P  P6  1  0.365952  0.365364  0.000000  1
  P  P7  1  0.999599  0.633999  0.000000  1
  P  P8  1  0.687104  0.518434  0.500000  1
  P  P9  1  0.830357  0.308996  0.500000  1
  P  P10  1  0.310051  0.826083  0.500000  1
  P  P11  1  0.516192  0.683951  0.500000  1
  P  P12  1  0.184591  0.007698  0.000000  1
  P  P13  1  0.816420  0.824407  0.000000  1
  P  P14  1  0.996116  0.182110  0.000000  1
  P  P15  1  0.484388  0.171158  0.500000  1
  P  P16  1  0.167045  0.478741  0.500000  1
  Ir  Ir17  1  0.621092  0.807338  0.000000  1
  Ir  Ir18  1  0.184706  0.377442  0.000000  1
  Ir  Ir19  1  0.379703  0.184382  0.000000  1
  Ir  Ir20  1  0.191070  0.818870  0.000000  1
  Ir  Ir21  1  0.809314  0.628619  0.000000  1
  Ir  Ir22  1  0.867248  0.507455  0.500000  1
  Ir  Ir23  1  0.492599  0.360159  0.500000  1
  Ir  Ir24  1  0.638048  0.125782  0.500000  1
  Ir  Ir25  1  0.129401  0.639459  0.500000  1
  Ir  Ir26  1  0.359365  0.488746  0.500000  1
  Ir  Ir27  1  0.504097  0.862349  0.500000  1
  Ir  Ir28  1  0.000387  0.001808  0.000000  1
  Ir  Ir29  1  0.451604  0.992088  0.000000  1
  Ru  Ru30  1  0.713120  0.714489  0.500000  1
  Ru  Ru31  1  0.001532  0.282477  0.500000  1
  Ru  Ru32  1  0.548459  0.546638  0.000000  1
  Ru  Ru33  1  0.000689  0.452923  0.000000  1
  Ru  Ru34  1  0.815668  0.197090  0.000000  1
  Ru  Ru35  1  0.289636  0.000062  0.500000  1
