# generated using pymatgen
data_Y3Ho2Tm7Os4
_symmetry_space_group_name_H-M   'P 1'
_cell_length_a   7.37504421
_cell_length_b   8.93895151
_cell_length_c   6.26596157
_cell_angle_alpha   89.86956595
_cell_angle_beta   90.07468251
_cell_angle_gamma   89.98803067
_symmetry_Int_Tables_number   1
_chemical_formula_structural   Y3Ho2Tm7Os4
_chemical_formula_sum   'Y3 Ho2 Tm7 Os4'
_cell_volume   413.08310464
_cell_formula_units_Z   1
loop_
 _symmetry_equiv_pos_site_id
 _symmetry_equiv_pos_as_xyz
  1  'x, y, z'
loop_
 _atom_site_type_symbol
 _atom_site_label
 _atom_site_symmetry_multiplicity
 _atom_site_fract_x
 _atom_site_fract_y
 _atom_site_fract_z
 _atom_site_occupancy
  Y  Y0  1  0.038278  0.250670  0.629218  1
  Y  Y1  1  0.961375  0.749476  0.371689  1
  Y  Y2  1  0.461572  0.749435  0.128446  1
  Ho  Ho3  1  0.539900  0.250167  0.869726  1
  Ho  Ho4  1  0.175119  0.063032  0.166790  1
  Tm  Tm5  1  0.824658  0.937001  0.832967  1
  Tm  Tm6  1  0.325926  0.937130  0.667026  1
  Tm  Tm7  1  0.824888  0.562699  0.833202  1
  Tm  Tm8  1  0.674290  0.062915  0.333282  1
  Tm  Tm9  1  0.174593  0.437501  0.166547  1
  Tm  Tm10  1  0.674525  0.436989  0.333048  1
  Tm  Tm11  1  0.325815  0.562467  0.666859  1
  Os  Os12  1  0.384195  0.250752  0.458976  1
  Os  Os13  1  0.616764  0.750427  0.543987  1
  Os  Os14  1  0.116516  0.748955  0.955361  1
  Os  Os15  1  0.881584  0.250383  0.042876  1
