# generated using pymatgen
data_Y2Th2SiI6
_symmetry_space_group_name_H-M   'P 1'
_cell_length_a   4.28050200
_cell_length_b   14.23530000
_cell_length_c   15.00283700
_cell_angle_alpha   90.00000000
_cell_angle_beta   90.00000000
_cell_angle_gamma   90.00000000
_symmetry_Int_Tables_number   1
_chemical_formula_structural   Y2Th2SiI6
_chemical_formula_sum   'Y4 Th4 Si2 I12'
_cell_volume   914.18632222
_cell_formula_units_Z   2
loop_
 _symmetry_equiv_pos_site_id
 _symmetry_equiv_pos_as_xyz
  1  'x, y, z'
loop_
 _atom_site_type_symbol
 _atom_site_label
 _atom_site_symmetry_multiplicity
 _atom_site_fract_x
 _atom_site_fract_y
 _atom_site_fract_z
 _atom_site_occupancy
  Y  Y0  1  0.500000  0.110942  0.351722  1
  Y  Y1  1  0.500000  0.889058  0.648278  1
  Y  Y2  1  0.500000  0.610942  0.148278  1
  Y  Y3  1  0.500000  0.389058  0.851722  1
  Th  Th4  1  0.000000  0.109473  0.573369  1
  Th  Th5  1  0.000000  0.890527  0.426631  1
  Th  Th6  1  0.000000  0.609473  0.926631  1
  Th  Th7  1  0.000000  0.390527  0.073369  1
  Si  Si8  1  0.500000  0.000000  0.500000  1
  Si  Si9  1  0.500000  0.500000  0.000000  1
  I  I10  1  0.500000  0.242245  0.164895  1
  I  I11  1  0.500000  0.757755  0.835105  1
  I  I12  1  0.500000  0.742245  0.335105  1
  I  I13  1  0.500000  0.257755  0.664895  1
  I  I14  1  0.000000  0.257270  0.410462  1
  I  I15  1  0.000000  0.742730  0.589538  1
  I  I16  1  0.000000  0.757270  0.089538  1
  I  I17  1  0.000000  0.242730  0.910462  1
  I  I18  1  0.000000  0.003556  0.240067  1
  I  I19  1  0.000000  0.996444  0.759933  1
  I  I20  1  0.000000  0.503556  0.259933  1
  I  I21  1  0.000000  0.496444  0.740067  1
