# generated using pymatgen
data_BaCd3Au
_symmetry_space_group_name_H-M   'P 1'
_cell_length_a   7.22118354
_cell_length_b   7.22118411
_cell_length_c   7.22118308
_cell_angle_alpha   142.11702869
_cell_angle_beta   142.11702729
_cell_angle_gamma   54.65255434
_symmetry_Int_Tables_number   1
_chemical_formula_structural   BaCd3Au
_chemical_formula_sum   'Ba1 Cd3 Au1'
_cell_volume   140.99391579
_cell_formula_units_Z   1
loop_
 _symmetry_equiv_pos_site_id
 _symmetry_equiv_pos_as_xyz
  1  'x, y, z'
loop_
 _atom_site_type_symbol
 _atom_site_label
 _atom_site_symmetry_multiplicity
 _atom_site_fract_x
 _atom_site_fract_y
 _atom_site_fract_z
 _atom_site_occupancy
  Ba  Ba0  1  0.010216  0.010216  0.000000  1
  Cd  Cd1  1  0.747544  0.247544  0.500000  1
  Cd  Cd2  1  0.247544  0.747544  0.500000  1
  Cd  Cd3  1  0.386859  0.386859  0.000000  1
  Au  Au4  1  0.607835  0.607835  0.000000  1
