# generated using pymatgen
data_Dy3Ho7AlSb5
_symmetry_space_group_name_H-M   'P 1'
_cell_length_a   8.90247300
_cell_length_b   8.89667777
_cell_length_c   6.35161600
_cell_angle_alpha   90.00000000
_cell_angle_beta   90.00000000
_cell_angle_gamma   120.02155396
_symmetry_Int_Tables_number   1
_chemical_formula_structural   Dy3Ho7AlSb5
_chemical_formula_sum   'Dy3 Ho7 Al1 Sb5'
_cell_volume   435.57106874
_cell_formula_units_Z   1
loop_
 _symmetry_equiv_pos_site_id
 _symmetry_equiv_pos_as_xyz
  1  'x, y, z'
loop_
 _atom_site_type_symbol
 _atom_site_label
 _atom_site_symmetry_multiplicity
 _atom_site_fract_x
 _atom_site_fract_y
 _atom_site_fract_z
 _atom_site_occupancy
  Dy  Dy0  1  0.752458  0.000000  0.750000  1
  Dy  Dy1  1  0.755123  0.755809  0.250000  1
  Dy  Dy2  1  0.999313  0.244191  0.250000  1
  Ho  Ho3  1  0.334839  0.673536  0.998861  1
  Ho  Ho4  1  0.661304  0.326464  0.501139  1
  Ho  Ho5  1  0.661304  0.326464  0.998861  1
  Ho  Ho6  1  0.334839  0.673536  0.501139  1
  Ho  Ho7  1  0.009448  0.763558  0.750000  1
  Ho  Ho8  1  0.245890  0.236442  0.750000  1
  Ho  Ho9  1  0.242001  0.000000  0.250000  1
  Al  Al10  1  0.396578  0.000000  0.750000  1
  Sb  Sb11  1  0.389520  0.392311  0.250000  1
  Sb  Sb12  1  0.997209  0.607689  0.250000  1
  Sb  Sb13  1  0.002168  0.390895  0.750000  1
  Sb  Sb14  1  0.611273  0.609105  0.750000  1
  Sb  Sb15  1  0.606731  0.000000  0.250000  1
