# generated using pymatgen
data_Er2Tm6Sc12Si15Au
_symmetry_space_group_name_H-M   'P 1'
_cell_length_a   7.08472355
_cell_length_b   7.34618137
_cell_length_c   13.99738119
_cell_angle_alpha   89.94796980
_cell_angle_beta   89.66594952
_cell_angle_gamma   90.16379528
_symmetry_Int_Tables_number   1
_chemical_formula_structural   Er2Tm6Sc12Si15Au
_chemical_formula_sum   'Er2 Tm6 Sc12 Si15 Au1'
_cell_volume   728.48733123
_cell_formula_units_Z   1
loop_
 _symmetry_equiv_pos_site_id
 _symmetry_equiv_pos_as_xyz
  1  'x, y, z'
loop_
 _atom_site_type_symbol
 _atom_site_label
 _atom_site_symmetry_multiplicity
 _atom_site_fract_x
 _atom_site_fract_y
 _atom_site_fract_z
 _atom_site_occupancy
  Er  Er0  1  0.012504  0.176076  0.097273  1
  Er  Er1  1  0.987290  0.824434  0.903683  1
  Tm  Tm2  1  0.487211  0.677536  0.903536  1
  Tm  Tm3  1  0.988114  0.826821  0.597557  1
  Tm  Tm4  1  0.512120  0.322979  0.096498  1
  Tm  Tm5  1  0.010918  0.174932  0.400161  1
  Tm  Tm6  1  0.509579  0.324024  0.401319  1
  Tm  Tm7  1  0.490776  0.676385  0.598644  1
  Sc  Sc8  1  0.162748  0.502295  0.751057  1
  Sc  Sc9  1  0.837507  0.497613  0.250777  1
  Sc  Sc10  1  0.338215  0.001696  0.249421  1
  Sc  Sc11  1  0.663468  0.995347  0.750680  1
  Sc  Sc12  1  0.337740  0.175956  0.625712  1
  Sc  Sc13  1  0.666815  0.823445  0.373691  1
  Sc  Sc14  1  0.169115  0.673788  0.373366  1
  Sc  Sc15  1  0.670018  0.824044  0.125318  1
  Sc  Sc16  1  0.828450  0.325469  0.625454  1
  Sc  Sc17  1  0.328927  0.175491  0.875808  1
  Sc  Sc18  1  0.830244  0.322704  0.875730  1
  Sc  Sc19  1  0.169386  0.676773  0.125175  1
  Si  Si20  1  0.034384  0.116756  0.750647  1
  Si  Si21  1  0.967051  0.886216  0.249295  1
  Si  Si22  1  0.467078  0.613474  0.248454  1
  Si  Si23  1  0.534293  0.386718  0.752204  1
  Si  Si24  1  0.284684  0.871800  0.750742  1
  Si  Si25  1  0.713648  0.130054  0.249122  1
  Si  Si26  1  0.214816  0.369025  0.248038  1
  Si  Si27  1  0.786640  0.629312  0.752518  1
  Si  Si28  1  0.834038  0.536210  0.459555  1
  Si  Si29  1  0.339686  0.964006  0.460000  1
  Si  Si30  1  0.842247  0.535005  0.038970  1
  Si  Si31  1  0.659183  0.035333  0.537994  1
  Si  Si32  1  0.157384  0.464846  0.961636  1
  Si  Si33  1  0.658013  0.034470  0.961124  1
  Si  Si34  1  0.342232  0.964851  0.039279  1
  Au  Au35  1  0.163476  0.464118  0.539559  1
