# generated using pymatgen
data_Tb4Th2Co17P12W
_symmetry_space_group_name_H-M   'P 1'
_cell_length_a   3.74879200
_cell_length_b   10.58308700
_cell_length_c   12.28153900
_cell_angle_alpha   90.00000000
_cell_angle_beta   90.00000000
_cell_angle_gamma   90.00000000
_symmetry_Int_Tables_number   1
_chemical_formula_structural   Tb4Th2Co17P12W
_chemical_formula_sum   'Tb4 Th2 Co17 P12 W1'
_cell_volume   487.25522226
_cell_formula_units_Z   1
loop_
 _symmetry_equiv_pos_site_id
 _symmetry_equiv_pos_as_xyz
  1  'x, y, z'
loop_
 _atom_site_type_symbol
 _atom_site_label
 _atom_site_symmetry_multiplicity
 _atom_site_fract_x
 _atom_site_fract_y
 _atom_site_fract_z
 _atom_site_occupancy
  Tb  Tb0  1  0.500000  0.817494  0.204841  1
  Tb  Tb1  1  0.500000  0.182506  0.204841  1
  Tb  Tb2  1  0.000000  0.683851  0.797660  1
  Tb  Tb3  1  0.000000  0.316149  0.797660  1
  Th  Th4  1  0.000000  0.500000  0.527766  1
  Th  Th5  1  0.500000  0.000000  0.475500  1
  Co  Co6  1  0.000000  0.000000  0.843097  1
  Co  Co7  1  0.500000  0.500000  0.701114  1
  Co  Co8  1  0.000000  0.000000  0.297068  1
  Co  Co9  1  0.000000  0.500000  0.986184  1
  Co  Co10  1  0.500000  0.000000  0.014310  1
  Co  Co11  1  0.500000  0.331900  0.990939  1
  Co  Co12  1  0.500000  0.668100  0.990939  1
  Co  Co13  1  0.000000  0.165721  0.005808  1
  Co  Co14  1  0.000000  0.834279  0.005808  1
  Co  Co15  1  0.500000  0.297705  0.430329  1
  Co  Co16  1  0.500000  0.702295  0.430329  1
  Co  Co17  1  0.000000  0.201160  0.569873  1
  Co  Co18  1  0.000000  0.798840  0.569873  1
  Co  Co19  1  0.500000  0.880497  0.712221  1
  Co  Co20  1  0.500000  0.119503  0.712221  1
  Co  Co21  1  0.000000  0.620245  0.288598  1
  Co  Co22  1  0.000000  0.379755  0.288598  1
  P  P23  1  0.500000  0.500000  0.880484  1
  P  P24  1  0.000000  0.000000  0.116901  1
  P  P25  1  0.500000  0.500000  0.345242  1
  P  P26  1  0.000000  0.000000  0.661647  1
  P  P27  1  0.500000  0.305329  0.618661  1
  P  P28  1  0.500000  0.694671  0.618661  1
  P  P29  1  0.000000  0.194068  0.382288  1
  P  P30  1  0.000000  0.805932  0.382288  1
  P  P31  1  0.500000  0.848822  0.893485  1
  P  P32  1  0.500000  0.151178  0.893485  1
  P  P33  1  0.000000  0.657125  0.104048  1
  P  P34  1  0.000000  0.342875  0.104048  1
  W  W35  1  0.500000  0.500000  0.153186  1
