# generated using pymatgen
data_Ce2HoTc2Sn3
_symmetry_space_group_name_H-M   'P 1'
_cell_length_a   8.38706195
_cell_length_b   8.38706109
_cell_length_c   4.92253600
_cell_angle_alpha   82.33462050
_cell_angle_beta   82.33462129
_cell_angle_gamma   34.30163377
_symmetry_Int_Tables_number   1
_chemical_formula_structural   Ce2HoTc2Sn3
_chemical_formula_sum   'Ce2 Ho1 Tc2 Sn3'
_cell_volume   193.22683694
_cell_formula_units_Z   1
loop_
 _symmetry_equiv_pos_site_id
 _symmetry_equiv_pos_as_xyz
  1  'x, y, z'
loop_
 _atom_site_type_symbol
 _atom_site_label
 _atom_site_symmetry_multiplicity
 _atom_site_fract_x
 _atom_site_fract_y
 _atom_site_fract_z
 _atom_site_occupancy
  Ce  Ce0  1  0.831025  0.831025  0.575476  1
  Ce  Ce1  1  0.168975  0.168975  0.424524  1
  Ho  Ho2  1  0.000000  0.000000  0.000000  1
  Tc  Tc3  1  0.795700  0.795700  0.096450  1
  Tc  Tc4  1  0.204300  0.204300  0.903550  1
  Sn  Sn5  1  0.368617  0.368617  0.059905  1
  Sn  Sn6  1  0.500000  0.500000  0.500000  1
  Sn  Sn7  1  0.631383  0.631383  0.940095  1
