# generated using pymatgen
data_LiCe8Si12Os2Ru
_symmetry_space_group_name_H-M   'P 1'
_cell_length_a   8.24524800
_cell_length_b   8.24524953
_cell_length_c   8.17065100
_cell_angle_alpha   90.00000000
_cell_angle_beta   90.00000000
_cell_angle_gamma   119.99999384
_symmetry_Int_Tables_number   1
_chemical_formula_structural   LiCe8Si12Os2Ru
_chemical_formula_sum   'Li1 Ce8 Si12 Os2 Ru1'
_cell_volume   481.05512480
_cell_formula_units_Z   1
loop_
 _symmetry_equiv_pos_site_id
 _symmetry_equiv_pos_as_xyz
  1  'x, y, z'
loop_
 _atom_site_type_symbol
 _atom_site_label
 _atom_site_symmetry_multiplicity
 _atom_site_fract_x
 _atom_site_fract_y
 _atom_site_fract_z
 _atom_site_occupancy
  Li  Li0  1  0.666667  0.333333  0.503285  1
  Ce  Ce1  1  0.000000  0.000000  0.250835  1
  Ce  Ce2  1  0.000000  0.000000  0.748714  1
  Ce  Ce3  1  0.495313  0.504687  0.246072  1
  Ce  Ce4  1  0.495313  0.990627  0.246072  1
  Ce  Ce5  1  0.009373  0.504687  0.246072  1
  Ce  Ce6  1  0.494906  0.505094  0.754409  1
  Ce  Ce7  1  0.494906  0.989810  0.754409  1
  Ce  Ce8  1  0.010190  0.505094  0.754409  1
  Si  Si9  1  0.165566  0.834434  0.501319  1
  Si  Si10  1  0.165566  0.331133  0.501319  1
  Si  Si11  1  0.668867  0.834434  0.501319  1
  Si  Si12  1  0.835361  0.164639  0.499030  1
  Si  Si13  1  0.835361  0.670721  0.499030  1
  Si  Si14  1  0.329279  0.164639  0.499030  1
  Si  Si15  1  0.833725  0.166275  0.001057  1
  Si  Si16  1  0.833725  0.667451  0.001057  1
  Si  Si17  1  0.332549  0.166275  0.001057  1
  Si  Si18  1  0.164382  0.835618  0.999224  1
  Si  Si19  1  0.164382  0.328765  0.999224  1
  Si  Si20  1  0.671235  0.835618  0.999224  1
  Os  Os21  1  0.666667  0.333333  0.998374  1
  Os  Os22  1  0.333333  0.666667  0.002794  1
  Ru  Ru23  1  0.333333  0.666667  0.492670  1
