# generated using pymatgen
data_Nd8DyTmPb6
_symmetry_space_group_name_H-M   'P 1'
_cell_length_a   9.31072100
_cell_length_b   9.31072082
_cell_length_c   6.83011800
_cell_angle_alpha   90.00000000
_cell_angle_beta   90.00000000
_cell_angle_gamma   119.99999707
_symmetry_Int_Tables_number   1
_chemical_formula_structural   Nd8DyTmPb6
_chemical_formula_sum   'Nd8 Dy1 Tm1 Pb6'
_cell_volume   512.77337757
_cell_formula_units_Z   1
loop_
 _symmetry_equiv_pos_site_id
 _symmetry_equiv_pos_as_xyz
  1  'x, y, z'
loop_
 _atom_site_type_symbol
 _atom_site_label
 _atom_site_symmetry_multiplicity
 _atom_site_fract_x
 _atom_site_fract_y
 _atom_site_fract_z
 _atom_site_occupancy
  Nd  Nd0  1  0.333333  0.666667  0.500000  1
  Nd  Nd1  1  0.666667  0.333333  0.500000  1
  Nd  Nd2  1  0.759856  0.759966  0.751746  1
  Nd  Nd3  1  0.240034  0.999891  0.751746  1
  Nd  Nd4  1  0.000109  0.240144  0.751746  1
  Nd  Nd5  1  0.240034  0.240144  0.248254  1
  Nd  Nd6  1  0.759856  0.999891  0.248254  1
  Nd  Nd7  1  0.000109  0.759966  0.248254  1
  Dy  Dy8  1  0.666667  0.333333  0.000000  1
  Tm  Tm9  1  0.333333  0.666667  0.000000  1
  Pb  Pb10  1  0.396052  0.396840  0.757498  1
  Pb  Pb11  1  0.603160  0.999212  0.757498  1
  Pb  Pb12  1  0.000788  0.603948  0.757498  1
  Pb  Pb13  1  0.603160  0.603948  0.242502  1
  Pb  Pb14  1  0.396052  0.999212  0.242502  1
  Pb  Pb15  1  0.000788  0.396840  0.242502  1
