# generated using pymatgen
data_Dy17(HoRu4)3
_symmetry_space_group_name_H-M   'P 1'
_cell_length_a   10.80518900
_cell_length_b   10.80518900
_cell_length_c   6.37621600
_cell_angle_alpha   90.00000000
_cell_angle_beta   90.00000000
_cell_angle_gamma   90.00000000
_symmetry_Int_Tables_number   1
_chemical_formula_structural   Dy17(HoRu4)3
_chemical_formula_sum   'Dy17 Ho3 Ru12'
_cell_volume   744.43666752
_cell_formula_units_Z   1
loop_
 _symmetry_equiv_pos_site_id
 _symmetry_equiv_pos_as_xyz
  1  'x, y, z'
loop_
 _atom_site_type_symbol
 _atom_site_label
 _atom_site_symmetry_multiplicity
 _atom_site_fract_x
 _atom_site_fract_y
 _atom_site_fract_z
 _atom_site_occupancy
  Dy  Dy0  1  0.291764  0.087148  0.378742  1
  Dy  Dy1  1  0.291876  0.913441  0.878849  1
  Dy  Dy2  1  0.708124  0.086559  0.878849  1
  Dy  Dy3  1  0.708236  0.912852  0.378742  1
  Dy  Dy4  1  0.586521  0.791357  0.879100  1
  Dy  Dy5  1  0.587029  0.207826  0.379060  1
  Dy  Dy6  1  0.412971  0.792174  0.379060  1
  Dy  Dy7  1  0.413479  0.208643  0.879100  1
  Dy  Dy8  1  0.207826  0.412971  0.620940  1
  Dy  Dy9  1  0.208643  0.586521  0.120900  1
  Dy  Dy10  1  0.791357  0.413479  0.120900  1
  Dy  Dy11  1  0.792174  0.587029  0.620940  1
  Dy  Dy12  1  0.913441  0.708124  0.121151  1
  Dy  Dy13  1  0.912852  0.291764  0.621258  1
  Dy  Dy14  1  0.087148  0.708236  0.621258  1
  Dy  Dy15  1  0.086559  0.291876  0.121151  1
  Dy  Dy16  1  0.500000  0.500000  0.500000  1
  Ho  Ho17  1  0.000000  0.000000  0.500000  1
  Ho  Ho18  1  0.000000  0.000000  0.000000  1
  Ho  Ho19  1  0.500000  0.500000  0.000000  1
  Ru  Ru20  1  0.847139  0.153193  0.249799  1
  Ru  Ru21  1  0.846807  0.847139  0.750201  1
  Ru  Ru22  1  0.153193  0.152861  0.750201  1
  Ru  Ru23  1  0.152861  0.846807  0.249799  1
  Ru  Ru24  1  0.653292  0.347092  0.749672  1
  Ru  Ru25  1  0.652908  0.653292  0.250328  1
  Ru  Ru26  1  0.347092  0.346708  0.250328  1
  Ru  Ru27  1  0.346708  0.652908  0.749672  1
  Ru  Ru28  1  0.500000  0.000000  0.127166  1
  Ru  Ru29  1  0.500000  0.000000  0.627171  1
  Ru  Ru30  1  0.000000  0.500000  0.872834  1
  Ru  Ru31  1  0.000000  0.500000  0.372829  1
