# generated using pymatgen
data_Y3Mn(Ni4As3)2
_symmetry_space_group_name_H-M   'P 1'
_cell_length_a   3.90837400
_cell_length_b   10.98575200
_cell_length_c   12.76396800
_cell_angle_alpha   90.00000000
_cell_angle_beta   90.00000000
_cell_angle_gamma   90.00000000
_symmetry_Int_Tables_number   1
_chemical_formula_structural   Y3Mn(Ni4As3)2
_chemical_formula_sum   'Y6 Mn2 Ni16 As12'
_cell_volume   548.03918648
_cell_formula_units_Z   2
loop_
 _symmetry_equiv_pos_site_id
 _symmetry_equiv_pos_as_xyz
  1  'x, y, z'
loop_
 _atom_site_type_symbol
 _atom_site_label
 _atom_site_symmetry_multiplicity
 _atom_site_fract_x
 _atom_site_fract_y
 _atom_site_fract_z
 _atom_site_occupancy
  Y  Y0  1  0.000000  0.500000  0.523875  1
  Y  Y1  1  0.500000  0.000000  0.476125  1
  Y  Y2  1  0.500000  0.817818  0.206028  1
  Y  Y3  1  0.500000  0.182182  0.206028  1
  Y  Y4  1  0.000000  0.682182  0.793972  1
  Y  Y5  1  0.000000  0.317818  0.793972  1
  Mn  Mn6  1  0.500000  0.500000  0.151331  1
  Mn  Mn7  1  0.000000  0.000000  0.848669  1
  Ni  Ni8  1  0.500000  0.500000  0.698864  1
  Ni  Ni9  1  0.000000  0.000000  0.301136  1
  Ni  Ni10  1  0.000000  0.500000  0.983249  1
  Ni  Ni11  1  0.500000  0.000000  0.016751  1
  Ni  Ni12  1  0.500000  0.334062  0.995191  1
  Ni  Ni13  1  0.500000  0.665938  0.995191  1
  Ni  Ni14  1  0.000000  0.165938  0.004809  1
  Ni  Ni15  1  0.000000  0.834062  0.004809  1
  Ni  Ni16  1  0.500000  0.302777  0.426432  1
  Ni  Ni17  1  0.500000  0.697223  0.426432  1
  Ni  Ni18  1  0.000000  0.197223  0.573568  1
  Ni  Ni19  1  0.000000  0.802777  0.573568  1
  Ni  Ni20  1  0.500000  0.879836  0.707607  1
  Ni  Ni21  1  0.500000  0.120164  0.707607  1
  Ni  Ni22  1  0.000000  0.620164  0.292393  1
  Ni  Ni23  1  0.000000  0.379836  0.292393  1
  As  As24  1  0.500000  0.500000  0.876924  1
  As  As25  1  0.000000  0.000000  0.123076  1
  As  As26  1  0.500000  0.500000  0.347844  1
  As  As27  1  0.000000  0.000000  0.652156  1
  As  As28  1  0.500000  0.314017  0.613615  1
  As  As29  1  0.500000  0.685983  0.613615  1
  As  As30  1  0.000000  0.185983  0.386385  1
  As  As31  1  0.000000  0.814017  0.386385  1
  As  As32  1  0.500000  0.844276  0.891090  1
  As  As33  1  0.500000  0.155724  0.891090  1
  As  As34  1  0.000000  0.655724  0.108910  1
  As  As35  1  0.000000  0.344276  0.108910  1
