# generated using pymatgen
data_YbDy(SnPt)2
_symmetry_space_group_name_H-M   'P 1'
_cell_length_a   7.62929627
_cell_length_b   7.63446038
_cell_length_c   7.79767600
_cell_angle_alpha   90.00000000
_cell_angle_beta   90.00000000
_cell_angle_gamma   120.00348993
_symmetry_Int_Tables_number   1
_chemical_formula_structural   YbDy(SnPt)2
_chemical_formula_sum   'Yb3 Dy3 Sn6 Pt6'
_cell_volume   393.31759020
_cell_formula_units_Z   3
loop_
 _symmetry_equiv_pos_site_id
 _symmetry_equiv_pos_as_xyz
  1  'x, y, z'
loop_
 _atom_site_type_symbol
 _atom_site_label
 _atom_site_symmetry_multiplicity
 _atom_site_fract_x
 _atom_site_fract_y
 _atom_site_fract_z
 _atom_site_occupancy
  Yb  Yb0  1  0.404696  0.003287  0.250000  1
  Yb  Yb1  1  0.595039  0.593202  0.250000  1
  Yb  Yb2  1  0.401308  0.994917  0.750000  1
  Dy  Dy3  1  0.001744  0.405716  0.250000  1
  Dy  Dy4  1  0.597451  0.597506  0.750000  1
  Dy  Dy5  1  0.999603  0.403783  0.750000  1
  Sn  Sn6  1  0.266681  0.260868  0.996097  1
  Sn  Sn7  1  0.002328  0.741028  0.002878  1
  Sn  Sn8  1  0.002328  0.741028  0.497122  1
  Sn  Sn9  1  0.730716  0.997043  0.497490  1
  Sn  Sn10  1  0.266681  0.260868  0.503903  1
  Sn  Sn11  1  0.730716  0.997043  0.002510  1
  Pt  Pt12  1  0.992244  0.998927  0.750000  1
  Pt  Pt13  1  0.002104  0.010345  0.250000  1
  Pt  Pt14  1  0.673903  0.337445  0.994443  1
  Pt  Pt15  1  0.329277  0.659776  0.502154  1
  Pt  Pt16  1  0.329277  0.659776  0.997846  1
  Pt  Pt17  1  0.673903  0.337445  0.505557  1
