# generated using pymatgen
data_NdSmMn2F14
_symmetry_space_group_name_H-M   'P 1'
_cell_length_a   5.52704500
_cell_length_b   8.93114861
_cell_length_c   11.94977923
_cell_angle_alpha   62.10825010
_cell_angle_beta   90.00000000
_cell_angle_gamma   90.00000000
_symmetry_Int_Tables_number   1
_chemical_formula_structural   NdSmMn2F14
_chemical_formula_sum   'Nd2 Sm2 Mn4 F28'
_cell_volume   521.35123984
_cell_formula_units_Z   2
loop_
 _symmetry_equiv_pos_site_id
 _symmetry_equiv_pos_as_xyz
  1  'x, y, z'
loop_
 _atom_site_type_symbol
 _atom_site_label
 _atom_site_symmetry_multiplicity
 _atom_site_fract_x
 _atom_site_fract_y
 _atom_site_fract_z
 _atom_site_occupancy
  Nd  Nd0  1  0.760026  0.807334  0.764644  1
  Nd  Nd1  1  0.260026  0.192666  0.735356  1
  Sm  Sm2  1  0.239187  0.190762  0.235782  1
  Sm  Sm3  1  0.739187  0.809238  0.264218  1
  Mn  Mn4  1  0.756984  0.272601  0.959159  1
  Mn  Mn5  1  0.256984  0.727399  0.540841  1
  Mn  Mn6  1  0.242520  0.724967  0.044554  1
  Mn  Mn7  1  0.742520  0.275033  0.455446  1
  F  F8  1  0.424817  0.706539  0.923073  1
  F  F9  1  0.924817  0.293461  0.576927  1
  F  F10  1  0.572474  0.291959  0.079549  1
  F  F11  1  0.072474  0.708041  0.420451  1
  F  F12  1  0.460233  0.282083  0.535818  1
  F  F13  1  0.960233  0.717917  0.964182  1
  F  F14  1  0.540779  0.720028  0.460866  1
  F  F15  1  0.040779  0.279972  0.039134  1
  F  F16  1  0.770026  0.505397  0.865525  1
  F  F17  1  0.270026  0.494603  0.634475  1
  F  F18  1  0.230854  0.491298  0.136766  1
  F  F19  1  0.730854  0.508702  0.363234  1
  F  F20  1  0.757644  0.040441  0.047426  1
  F  F21  1  0.257644  0.959559  0.452574  1
  F  F22  1  0.242229  0.956947  0.955257  1
  F  F23  1  0.742229  0.043053  0.544743  1
  F  F24  1  0.979998  0.727223  0.626559  1
  F  F25  1  0.479998  0.272777  0.873441  1
  F  F26  1  0.020282  0.272405  0.370591  1
  F  F27  1  0.520282  0.727595  0.129409  1
  F  F28  1  0.060204  0.740993  0.168842  1
  F  F29  1  0.560204  0.259007  0.331158  1
  F  F30  1  0.936161  0.259049  0.833330  1
  F  F31  1  0.436161  0.740951  0.666670  1
  F  F32  1  0.403683  0.967855  0.228037  1
  F  F33  1  0.903683  0.032145  0.271963  1
  F  F34  1  0.601900  0.034651  0.773204  1
  F  F35  1  0.101900  0.965349  0.726796  1
