# generated using pymatgen
data_Tb2SmEr(Mo2O7)2
_symmetry_space_group_name_H-M   'P 1'
_cell_length_a   7.38697078
_cell_length_b   7.30606986
_cell_length_c   7.30606906
_cell_angle_alpha   60.65179724
_cell_angle_beta   61.18696020
_cell_angle_gamma   61.18695129
_symmetry_Int_Tables_number   1
_chemical_formula_structural   Tb2SmEr(Mo2O7)2
_chemical_formula_sum   'Tb2 Sm1 Er1 Mo4 O14'
_cell_volume   285.13455546
_cell_formula_units_Z   1
loop_
 _symmetry_equiv_pos_site_id
 _symmetry_equiv_pos_as_xyz
  1  'x, y, z'
loop_
 _atom_site_type_symbol
 _atom_site_label
 _atom_site_symmetry_multiplicity
 _atom_site_fract_x
 _atom_site_fract_y
 _atom_site_fract_z
 _atom_site_occupancy
  Tb  Tb0  1  0.125000  0.125000  0.625000  1
  Tb  Tb1  1  0.125000  0.625000  0.125000  1
  Sm  Sm2  1  0.625000  0.125000  0.125000  1
  Er  Er3  1  0.125000  0.125000  0.125000  1
  Mo  Mo4  1  0.625000  0.625000  0.625000  1
  Mo  Mo5  1  0.125000  0.625000  0.625000  1
  Mo  Mo6  1  0.625000  0.625000  0.125000  1
  Mo  Mo7  1  0.625000  0.125000  0.625000  1
  O  O8  1  0.007519  0.999723  0.999723  1
  O  O9  1  0.242481  0.250277  0.250277  1
  O  O10  1  0.288710  0.299264  0.713653  1
  O  O11  1  0.520899  0.535749  0.978213  1
  O  O12  1  0.729101  0.271787  0.714251  1
  O  O13  1  0.732603  0.287189  0.287189  1
  O  O14  1  0.277214  0.714731  0.714731  1
  O  O15  1  0.288710  0.713653  0.299264  1
  O  O16  1  0.729101  0.714251  0.271787  1
  O  O17  1  0.972786  0.535269  0.535269  1
  O  O18  1  0.517397  0.962811  0.962811  1
  O  O19  1  0.961290  0.950736  0.536347  1
  O  O20  1  0.961290  0.536347  0.950736  1
  O  O21  1  0.520899  0.978213  0.535749  1
