# generated using pymatgen
data_SmEr3(CuPt)2
_symmetry_space_group_name_H-M   'P 1'
_cell_length_a   4.47281600
_cell_length_b   5.48186094
_cell_length_c   7.13675408
_cell_angle_alpha   90.46548538
_cell_angle_beta   90.00000000
_cell_angle_gamma   90.00000000
_symmetry_Int_Tables_number   1
_chemical_formula_structural   SmEr3(CuPt)2
_chemical_formula_sum   'Sm1 Er3 Cu2 Pt2'
_cell_volume   174.98283416
_cell_formula_units_Z   1
loop_
 _symmetry_equiv_pos_site_id
 _symmetry_equiv_pos_as_xyz
  1  'x, y, z'
loop_
 _atom_site_type_symbol
 _atom_site_label
 _atom_site_symmetry_multiplicity
 _atom_site_fract_x
 _atom_site_fract_y
 _atom_site_fract_z
 _atom_site_occupancy
  Sm  Sm0  1  0.500000  0.606737  0.816271  1
  Er  Er1  1  0.000000  0.116357  0.683167  1
  Er  Er2  1  0.000000  0.884836  0.185534  1
  Er  Er3  1  0.500000  0.393958  0.316034  1
  Cu  Cu4  1  0.500000  0.894408  0.461962  1
  Cu  Cu5  1  0.500000  0.107384  0.965583  1
  Pt  Pt6  1  0.000000  0.614937  0.530959  1
  Pt  Pt7  1  0.000000  0.381384  0.040493  1
