# generated using pymatgen
data_SmY5C2Br7
_symmetry_space_group_name_H-M   'P 1'
_cell_length_a   10.57264235
_cell_length_b   10.57264097
_cell_length_c   12.05537467
_cell_angle_alpha   57.53311817
_cell_angle_beta   57.53312352
_cell_angle_gamma   20.89514034
_symmetry_Int_Tables_number   1
_chemical_formula_structural   SmY5C2Br7
_chemical_formula_sum   'Sm1 Y5 C2 Br7'
_cell_volume   402.69851207
_cell_formula_units_Z   1
loop_
 _symmetry_equiv_pos_site_id
 _symmetry_equiv_pos_as_xyz
  1  'x, y, z'
loop_
 _atom_site_type_symbol
 _atom_site_label
 _atom_site_symmetry_multiplicity
 _atom_site_fract_x
 _atom_site_fract_y
 _atom_site_fract_z
 _atom_site_occupancy
  Sm  Sm0  1  0.230315  0.230315  0.836853  1
  Y  Y1  1  0.313193  0.313193  0.366384  1
  Y  Y2  1  0.131665  0.131665  0.442588  1
  Y  Y3  1  0.867548  0.867548  0.557882  1
  Y  Y4  1  0.687557  0.687557  0.633495  1
  Y  Y5  1  0.769118  0.769118  0.166793  1
  C  C6  1  0.280607  0.280607  0.602434  1
  C  C7  1  0.719925  0.719925  0.394412  1
  Br  Br8  1  0.164461  0.164461  0.167164  1
  Br  Br9  1  0.839854  0.839854  0.832492  1
  Br  Br10  1  0.059800  0.059800  0.717069  1
  Br  Br11  1  0.940464  0.940464  0.281437  1
  Br  Br12  1  0.500414  0.500414  0.499483  1
  Br  Br13  1  0.387694  0.387694  0.070575  1
  Br  Br14  1  0.607384  0.607384  0.930940  1
