# generated using pymatgen
data_YZn6Ag5Au
_symmetry_space_group_name_H-M   'P 1'
_cell_length_a   7.07322590
_cell_length_b   7.07322044
_cell_length_c   7.07322610
_cell_angle_alpha   97.87478784
_cell_angle_beta   97.69127505
_cell_angle_gamma   136.81574547
_symmetry_Int_Tables_number   1
_chemical_formula_structural   YZn6Ag5Au
_chemical_formula_sum   'Y1 Zn6 Ag5 Au1'
_cell_volume   225.17996799
_cell_formula_units_Z   1
loop_
 _symmetry_equiv_pos_site_id
 _symmetry_equiv_pos_as_xyz
  1  'x, y, z'
loop_
 _atom_site_type_symbol
 _atom_site_label
 _atom_site_symmetry_multiplicity
 _atom_site_fract_x
 _atom_site_fract_y
 _atom_site_fract_z
 _atom_site_occupancy
  Y  Y0  1  0.994903  0.000000  0.994903  1
  Zn  Zn1  1  0.498704  0.998815  0.998866  1
  Zn  Zn2  1  0.000050  0.001185  0.499889  1
  Zn  Zn3  1  0.498704  0.499838  0.499889  1
  Zn  Zn4  1  0.000050  0.500162  0.998866  1
  Zn  Zn5  1  0.500965  0.273244  0.774210  1
  Zn  Zn6  1  0.500965  0.726756  0.227721  1
  Ag  Ag7  1  0.650224  0.000000  0.650224  1
  Ag  Ag8  1  0.999335  0.345700  0.345035  1
  Ag  Ag9  1  0.999335  0.654300  0.653635  1
  Ag  Ag10  1  0.345405  0.000000  0.345405  1
  Ag  Ag11  1  0.698687  0.500000  0.198687  1
  Au  Au12  1  0.312672  0.500000  0.812672  1
