# generated using pymatgen
data_Hf8In4Cu5Pd3
_symmetry_space_group_name_H-M   'P 1'
_cell_length_a   7.32432627
_cell_length_b   7.29928354
_cell_length_c   6.84869623
_cell_angle_alpha   89.97588331
_cell_angle_beta   89.98373118
_cell_angle_gamma   90.21012406
_symmetry_Int_Tables_number   1
_chemical_formula_structural   Hf8In4Cu5Pd3
_chemical_formula_sum   'Hf8 In4 Cu5 Pd3'
_cell_volume   366.14477718
_cell_formula_units_Z   1
loop_
 _symmetry_equiv_pos_site_id
 _symmetry_equiv_pos_as_xyz
  1  'x, y, z'
loop_
 _atom_site_type_symbol
 _atom_site_label
 _atom_site_symmetry_multiplicity
 _atom_site_fract_x
 _atom_site_fract_y
 _atom_site_fract_z
 _atom_site_occupancy
  Hf  Hf0  1  0.149219  0.150135  0.000806  1
  Hf  Hf1  1  0.848030  0.849782  0.001449  1
  Hf  Hf2  1  0.648876  0.350823  0.499773  1
  Hf  Hf3  1  0.352371  0.647914  0.500400  1
  Hf  Hf4  1  0.692817  0.308777  0.998852  1
  Hf  Hf5  1  0.312064  0.689225  0.999933  1
  Hf  Hf6  1  0.807003  0.809143  0.499449  1
  Hf  Hf7  1  0.190196  0.191432  0.499747  1
  In  In8  1  0.504011  0.002238  0.249295  1
  In  In9  1  0.505248  0.998690  0.750214  1
  In  In10  1  0.997532  0.496384  0.250234  1
  In  In11  1  0.994846  0.498374  0.749816  1
  Cu  Cu12  1  0.377366  0.375585  0.207212  1
  Cu  Cu13  1  0.629340  0.628319  0.795295  1
  Cu  Cu14  1  0.623732  0.621929  0.206616  1
  Cu  Cu15  1  0.871273  0.128435  0.704943  1
  Cu  Cu16  1  0.871277  0.128467  0.294737  1
  Pd  Pd17  1  0.375130  0.374988  0.791328  1
  Pd  Pd18  1  0.125014  0.874482  0.287310  1
  Pd  Pd19  1  0.124654  0.874878  0.712593  1
