# generated using pymatgen
data_Y4LuSn3
_symmetry_space_group_name_H-M   'P 1'
_cell_length_a   8.94746700
_cell_length_b   8.94746749
_cell_length_c   6.52196300
_cell_angle_alpha   90.00000000
_cell_angle_beta   90.00000000
_cell_angle_gamma   120.00000188
_symmetry_Int_Tables_number   1
_chemical_formula_structural   Y4LuSn3
_chemical_formula_sum   'Y8 Lu2 Sn6'
_cell_volume   452.17775007
_cell_formula_units_Z   2
loop_
 _symmetry_equiv_pos_site_id
 _symmetry_equiv_pos_as_xyz
  1  'x, y, z'
loop_
 _atom_site_type_symbol
 _atom_site_label
 _atom_site_symmetry_multiplicity
 _atom_site_fract_x
 _atom_site_fract_y
 _atom_site_fract_z
 _atom_site_occupancy
  Y  Y0  1  0.666667  0.333333  0.000000  1
  Y  Y1  1  0.333333  0.666667  0.000000  1
  Y  Y2  1  0.760026  0.760026  0.749101  1
  Y  Y3  1  0.239974  0.000000  0.749101  1
  Y  Y4  1  0.000000  0.239974  0.749101  1
  Y  Y5  1  0.239974  0.239974  0.250899  1
  Y  Y6  1  0.760026  0.000000  0.250899  1
  Y  Y7  1  0.000000  0.760026  0.250899  1
  Lu  Lu8  1  0.333333  0.666667  0.500000  1
  Lu  Lu9  1  0.666667  0.333333  0.500000  1
  Sn  Sn10  1  0.395452  0.395452  0.746534  1
  Sn  Sn11  1  0.604548  0.000000  0.746534  1
  Sn  Sn12  1  0.000000  0.604548  0.746534  1
  Sn  Sn13  1  0.604548  0.604548  0.253466  1
  Sn  Sn14  1  0.395452  0.000000  0.253466  1
  Sn  Sn15  1  0.000000  0.395452  0.253466  1
