# generated using pymatgen
data_Tb2Lu3P12Ru16Pt3
_symmetry_space_group_name_H-M   'P 1'
_cell_length_a   3.97530500
_cell_length_b   12.57630154
_cell_length_c   12.57064100
_cell_angle_alpha   119.98200515
_cell_angle_beta   90.00000000
_cell_angle_gamma   90.00000000
_symmetry_Int_Tables_number   1
_chemical_formula_structural   Tb2Lu3P12Ru16Pt3
_chemical_formula_sum   'Tb2 Lu3 P12 Ru16 Pt3'
_cell_volume   544.36497362
_cell_formula_units_Z   1
loop_
 _symmetry_equiv_pos_site_id
 _symmetry_equiv_pos_as_xyz
  1  'x, y, z'
loop_
 _atom_site_type_symbol
 _atom_site_label
 _atom_site_symmetry_multiplicity
 _atom_site_fract_x
 _atom_site_fract_y
 _atom_site_fract_z
 _atom_site_occupancy
  Tb  Tb0  1  0.500000  0.181990  0.000176  1
  Tb  Tb1  1  0.500000  0.818013  0.818176  1
  Lu  Lu2  1  0.500000  0.000009  0.181571  1
  Lu  Lu3  1  0.000000  0.333350  0.666585  1
  Lu  Lu4  1  0.000000  0.666644  0.333218  1
  P  P5  1  0.000000  0.999979  0.814998  1
  P  P6  1  0.000000  0.815279  0.000585  1
  P  P7  1  0.000000  0.184701  0.185313  1
  P  P8  1  0.500000  0.300430  0.481535  1
  P  P9  1  0.500000  0.181204  0.699538  1
  P  P10  1  0.500000  0.518707  0.819108  1
  P  P11  1  0.500000  0.818801  0.518326  1
  P  P12  1  0.500000  0.481293  0.300398  1
  P  P13  1  0.500000  0.699582  0.181113  1
  P  P14  1  0.000000  0.999987  0.364645  1
  P  P15  1  0.000000  0.365405  0.999998  1
  P  P16  1  0.000000  0.634570  0.634581  1
  Ru  Ru17  1  0.500000  0.999995  0.710586  1
  Ru  Ru18  1  0.500000  0.711516  0.000640  1
  Ru  Ru19  1  0.500000  0.288499  0.289144  1
  Ru  Ru20  1  0.000000  0.192611  0.378210  1
  Ru  Ru21  1  0.000000  0.185405  0.805795  1
  Ru  Ru22  1  0.000000  0.620448  0.814739  1
  Ru  Ru23  1  0.000000  0.814570  0.620378  1
  Ru  Ru24  1  0.000000  0.379525  0.194270  1
  Ru  Ru25  1  0.000000  0.807369  0.185586  1
  Ru  Ru26  1  0.500000  0.125760  0.495058  1
  Ru  Ru27  1  0.500000  0.369552  0.874283  1
  Ru  Ru28  1  0.500000  0.504800  0.630495  1
  Ru  Ru29  1  0.500000  0.630444  0.504717  1
  Ru  Ru30  1  0.500000  0.495206  0.125707  1
  Ru  Ru31  1  0.500000  0.874270  0.369303  1
  Ru  Ru32  1  0.000000  0.999996  0.001577  1
  Pt  Pt33  1  0.000000  0.999993  0.551235  1
  Pt  Pt34  1  0.000000  0.551555  0.999979  1
  Pt  Pt35  1  0.000000  0.448442  0.448433  1
