# generated using pymatgen
data_NdGdEr2(MoN3)4
_symmetry_space_group_name_H-M   'P 1'
_cell_length_a   7.28770227
_cell_length_b   7.28770262
_cell_length_c   6.23963903
_cell_angle_alpha   74.89138521
_cell_angle_beta   74.89138727
_cell_angle_gamma   82.61488417
_symmetry_Int_Tables_number   1
_chemical_formula_structural   NdGdEr2(MoN3)4
_chemical_formula_sum   'Nd1 Gd1 Er2 Mo4 N12'
_cell_volume   308.22336029
_cell_formula_units_Z   1
loop_
 _symmetry_equiv_pos_site_id
 _symmetry_equiv_pos_as_xyz
  1  'x, y, z'
loop_
 _atom_site_type_symbol
 _atom_site_label
 _atom_site_symmetry_multiplicity
 _atom_site_fract_x
 _atom_site_fract_y
 _atom_site_fract_z
 _atom_site_occupancy
  Nd  Nd0  1  0.697552  0.302448  0.250000  1
  Gd  Gd1  1  0.298915  0.701085  0.750000  1
  Er  Er2  1  0.915604  0.084396  0.750000  1
  Er  Er3  1  0.087651  0.912349  0.250000  1
  Mo  Mo4  1  0.802084  0.620189  0.755025  1
  Mo  Mo5  1  0.197675  0.381089  0.242427  1
  Mo  Mo6  1  0.618911  0.802325  0.257573  1
  Mo  Mo7  1  0.379811  0.197916  0.744975  1
  N  N8  1  0.216422  0.998785  0.853266  1
  N  N9  1  0.352389  0.359122  0.461354  1
  N  N10  1  0.642561  0.640170  0.541937  1
  N  N11  1  0.621536  0.109010  0.669104  1
  N  N12  1  0.001215  0.783578  0.646734  1
  N  N13  1  0.787480  0.996013  0.146400  1
  N  N14  1  0.106652  0.622143  0.162813  1
  N  N15  1  0.890990  0.378464  0.830896  1
  N  N16  1  0.003987  0.212520  0.353600  1
  N  N17  1  0.359830  0.357439  0.958063  1
  N  N18  1  0.640878  0.647611  0.038646  1
  N  N19  1  0.377857  0.893348  0.337187  1
