# generated using pymatgen
data_Y2Tm(SnRh)3
_symmetry_space_group_name_H-M   'P 1'
_cell_length_a   7.68906800
_cell_length_b   7.65813259
_cell_length_c   3.73810700
_cell_angle_alpha   90.00000000
_cell_angle_beta   90.00000000
_cell_angle_gamma   120.13371746
_symmetry_Int_Tables_number   1
_chemical_formula_structural   Y2Tm(SnRh)3
_chemical_formula_sum   'Y2 Tm1 Sn3 Rh3'
_cell_volume   190.36722758
_cell_formula_units_Z   1
loop_
 _symmetry_equiv_pos_site_id
 _symmetry_equiv_pos_as_xyz
  1  'x, y, z'
loop_
 _atom_site_type_symbol
 _atom_site_label
 _atom_site_symmetry_multiplicity
 _atom_site_fract_x
 _atom_site_fract_y
 _atom_site_fract_z
 _atom_site_occupancy
  Y  Y0  1  0.000091  0.402736  0.000000  1
  Y  Y1  1  0.597354  0.597264  0.000000  1
  Tm  Tm2  1  0.402564  0.000000  0.000000  1
  Sn  Sn3  1  0.266609  0.265136  0.500000  1
  Sn  Sn4  1  0.001473  0.734864  0.500000  1
  Sn  Sn5  1  0.733172  0.000000  0.500000  1
  Rh  Rh6  1  0.663109  0.328879  0.500000  1
  Rh  Rh7  1  0.334229  0.671121  0.500000  1
  Rh  Rh8  1  0.001400  0.000000  0.000000  1
