# generated using pymatgen
data_Zn4SbRhO8
_symmetry_space_group_name_H-M   'P 1'
_cell_length_a   6.11516192
_cell_length_b   10.49997333
_cell_length_c   6.20539751
_cell_angle_alpha   73.97032807
_cell_angle_beta   60.48208317
_cell_angle_gamma   89.99201245
_symmetry_Int_Tables_number   1
_chemical_formula_structural   Zn4SbRhO8
_chemical_formula_sum   'Zn8 Sb2 Rh2 O16'
_cell_volume   328.81492013
_cell_formula_units_Z   2
loop_
 _symmetry_equiv_pos_site_id
 _symmetry_equiv_pos_as_xyz
  1  'x, y, z'
loop_
 _atom_site_type_symbol
 _atom_site_label
 _atom_site_symmetry_multiplicity
 _atom_site_fract_x
 _atom_site_fract_y
 _atom_site_fract_z
 _atom_site_occupancy
  Zn  Zn0  1  0.707812  0.572036  0.093036  1
  Zn  Zn1  1  0.792790  0.927973  0.907116  1
  Zn  Zn2  1  0.749672  0.250023  0.499872  1
  Zn  Zn3  1  0.990774  0.500021  0.500313  1
  Zn  Zn4  1  0.199516  0.072054  0.092447  1
  Zn  Zn5  1  0.299877  0.427976  0.907421  1
  Zn  Zn6  1  0.509155  0.999966  0.499780  1
  Zn  Zn7  1  0.750418  0.750042  0.500047  1
  Sb  Sb8  1  0.749522  0.249999  0.999931  1
  Sb  Sb9  1  0.250467  0.750001  0.000064  1
  Rh  Rh10  1  0.249585  0.249888  0.500004  1
  Rh  Rh11  1  0.250408  0.749892  0.500118  1
  O  O12  1  0.396362  0.130960  0.708566  1
  O  O13  1  0.894942  0.631015  0.709088  1
  O  O14  1  0.102940  0.369057  0.291305  1
  O  O15  1  0.605745  0.868960  0.291064  1
  O  O16  1  0.394292  0.137829  0.243634  1
  O  O17  1  0.903003  0.634438  0.236197  1
  O  O18  1  0.861033  0.134365  0.235854  1
  O  O19  1  0.361844  0.637771  0.243927  1
  O  O20  1  0.615237  0.363523  0.245936  1
  O  O21  1  0.138832  0.863556  0.245950  1
  O  O22  1  0.638346  0.365662  0.763871  1
  O  O23  1  0.138730  0.862222  0.756329  1
  O  O24  1  0.884111  0.136504  0.753891  1
  O  O25  1  0.361867  0.636488  0.754087  1
  O  O26  1  0.104994  0.362169  0.756345  1
  O  O27  1  0.597730  0.865608  0.763807  1
