# generated using pymatgen
data_LaMnSb12Os2Rh
_symmetry_space_group_name_H-M   'P 1'
_cell_length_a   8.15559704
_cell_length_b   8.12961314
_cell_length_c   8.15412620
_cell_angle_alpha   109.37908954
_cell_angle_beta   109.48918126
_cell_angle_gamma   109.52970258
_symmetry_Int_Tables_number   1
_chemical_formula_structural   LaMnSb12Os2Rh
_chemical_formula_sum   'La1 Mn1 Sb12 Os2 Rh1'
_cell_volume   416.25995501
_cell_formula_units_Z   1
loop_
 _symmetry_equiv_pos_site_id
 _symmetry_equiv_pos_as_xyz
  1  'x, y, z'
loop_
 _atom_site_type_symbol
 _atom_site_label
 _atom_site_symmetry_multiplicity
 _atom_site_fract_x
 _atom_site_fract_y
 _atom_site_fract_z
 _atom_site_occupancy
  La  La0  1  0.000000  0.000000  0.000000  1
  Mn  Mn1  1  0.500000  0.000000  0.000000  1
  Sb  Sb2  1  0.341777  0.179003  0.846288  1
  Sb  Sb3  1  0.658223  0.820997  0.153712  1
  Sb  Sb4  1  0.660301  0.503254  0.842813  1
  Sb  Sb5  1  0.339699  0.496746  0.157187  1
  Sb  Sb6  1  0.183291  0.842678  0.339131  1
  Sb  Sb7  1  0.816709  0.157322  0.660869  1
  Sb  Sb8  1  0.503406  0.843650  0.665787  1
  Sb  Sb9  1  0.496594  0.156350  0.334213  1
  Sb  Sb10  1  0.837987  0.333931  0.178512  1
  Sb  Sb11  1  0.162013  0.666069  0.821488  1
  Sb  Sb12  1  0.842796  0.659311  0.503703  1
  Sb  Sb13  1  0.157204  0.340689  0.496297  1
  Os  Os14  1  0.000000  0.500000  0.000000  1
  Os  Os15  1  0.500000  0.500000  0.500000  1
  Rh  Rh16  1  0.000000  0.000000  0.500000  1
