# generated using pymatgen
data_Tm4ScCu2Sb
_symmetry_space_group_name_H-M   'P 1'
_cell_length_a   8.30944325
_cell_length_b   8.30944417
_cell_length_c   8.30944383
_cell_angle_alpha   124.37712346
_cell_angle_beta   124.37713832
_cell_angle_gamma   82.57229109
_symmetry_Int_Tables_number   1
_chemical_formula_structural   Tm4ScCu2Sb
_chemical_formula_sum   'Tm8 Sc2 Cu4 Sb2'
_cell_volume   375.38908477
_cell_formula_units_Z   2
loop_
 _symmetry_equiv_pos_site_id
 _symmetry_equiv_pos_as_xyz
  1  'x, y, z'
loop_
 _atom_site_type_symbol
 _atom_site_label
 _atom_site_symmetry_multiplicity
 _atom_site_fract_x
 _atom_site_fract_y
 _atom_site_fract_z
 _atom_site_occupancy
  Tm  Tm0  1  0.796501  0.296501  0.814931  1
  Tm  Tm1  1  0.203499  0.703499  0.185069  1
  Tm  Tm2  1  0.481570  0.981570  0.185069  1
  Tm  Tm3  1  0.296501  0.481570  0.500000  1
  Tm  Tm4  1  0.018430  0.203499  0.500000  1
  Tm  Tm5  1  0.518430  0.018430  0.814931  1
  Tm  Tm6  1  0.703499  0.518430  0.500000  1
  Tm  Tm7  1  0.981570  0.796501  0.500000  1
  Sc  Sc8  1  0.000000  0.000000  0.000000  1
  Sc  Sc9  1  0.500000  0.500000  0.000000  1
  Cu  Cu10  1  0.133154  0.633154  0.766310  1
  Cu  Cu11  1  0.866846  0.366846  0.233690  1
  Cu  Cu12  1  0.633154  0.866846  0.500000  1
  Cu  Cu13  1  0.366846  0.133154  0.500000  1
  Sb  Sb14  1  0.250000  0.250000  0.000000  1
  Sb  Sb15  1  0.750000  0.750000  0.000000  1
