# generated using pymatgen
data_AcPr(CuAs2)2
_symmetry_space_group_name_H-M   'P 1'
_cell_length_a   4.05139700
_cell_length_b   4.05139700
_cell_length_c   10.47751100
_cell_angle_alpha   90.00000000
_cell_angle_beta   90.00000000
_cell_angle_gamma   90.00000000
_symmetry_Int_Tables_number   1
_chemical_formula_structural   AcPr(CuAs2)2
_chemical_formula_sum   'Ac1 Pr1 Cu2 As4'
_cell_volume   171.97595500
_cell_formula_units_Z   1
loop_
 _symmetry_equiv_pos_site_id
 _symmetry_equiv_pos_as_xyz
  1  'x, y, z'
loop_
 _atom_site_type_symbol
 _atom_site_label
 _atom_site_symmetry_multiplicity
 _atom_site_fract_x
 _atom_site_fract_y
 _atom_site_fract_z
 _atom_site_occupancy
  Ac  Ac0  1  0.500001  0.000000  0.237523  1
  Pr  Pr1  1  0.000000  0.500001  0.757248  1
  Cu  Cu2  1  0.000000  0.000000  0.505745  1
  Cu  Cu3  1  0.500001  0.500001  0.505745  1
  As  As4  1  0.000000  0.000000  0.989696  1
  As  As5  1  0.500001  0.500001  0.989696  1
  As  As6  1  0.000000  0.500001  0.364771  1
  As  As7  1  0.500001  0.000000  0.649576  1
