# generated using pymatgen
data_Ta8V2SiGeB4
_symmetry_space_group_name_H-M   'P 1'
_cell_length_a   7.23961398
_cell_length_b   7.23961449
_cell_length_c   7.23961483
_cell_angle_alpha   129.78194810
_cell_angle_beta   129.78195245
_cell_angle_gamma   73.75558857
_symmetry_Int_Tables_number   1
_chemical_formula_structural   Ta8V2SiGeB4
_chemical_formula_sum   'Ta8 V2 Si1 Ge1 B4'
_cell_volume   218.61680621
_cell_formula_units_Z   1
loop_
 _symmetry_equiv_pos_site_id
 _symmetry_equiv_pos_as_xyz
  1  'x, y, z'
loop_
 _atom_site_type_symbol
 _atom_site_label
 _atom_site_symmetry_multiplicity
 _atom_site_fract_x
 _atom_site_fract_y
 _atom_site_fract_z
 _atom_site_occupancy
  Ta  Ta0  1  0.535748  0.698074  0.504748  1
  Ta  Ta1  1  0.031001  0.535748  0.837674  1
  Ta  Ta2  1  0.698074  0.193326  0.162326  1
  Ta  Ta3  1  0.964252  0.468999  0.162326  1
  Ta  Ta4  1  0.193326  0.031001  0.495252  1
  Ta  Ta5  1  0.468999  0.306674  0.504748  1
  Ta  Ta6  1  0.801926  0.964252  0.495252  1
  Ta  Ta7  1  0.306674  0.801926  0.837674  1
  V  V8  1  0.999631  0.999631  0.000000  1
  V  V9  1  0.500369  0.500369  0.000000  1
  Si  Si10  1  0.750000  0.750000  0.000000  1
  Ge  Ge11  1  0.250000  0.250000  0.000000  1
  B  B12  1  0.621021  0.121021  0.742042  1
  B  B13  1  0.121021  0.378979  0.500000  1
  B  B14  1  0.878979  0.621021  0.500000  1
  B  B15  1  0.378979  0.878979  0.257958  1
