# generated using pymatgen
data_Sr6Sn8HgBi
_symmetry_space_group_name_H-M   'P 1'
_cell_length_a   9.03220367
_cell_length_b   9.03220309
_cell_length_c   9.03220386
_cell_angle_alpha   120.35803585
_cell_angle_beta   120.35803375
_cell_angle_gamma   89.38097635
_symmetry_Int_Tables_number   1
_chemical_formula_structural   Sr6Sn8HgBi
_chemical_formula_sum   'Sr6 Sn8 Hg1 Bi1'
_cell_volume   518.18164210
_cell_formula_units_Z   1
loop_
 _symmetry_equiv_pos_site_id
 _symmetry_equiv_pos_as_xyz
  1  'x, y, z'
loop_
 _atom_site_type_symbol
 _atom_site_label
 _atom_site_symmetry_multiplicity
 _atom_site_fract_x
 _atom_site_fract_y
 _atom_site_fract_z
 _atom_site_occupancy
  Sr  Sr0  1  0.248533  0.248533  0.000000  1
  Sr  Sr1  1  0.751467  0.751467  0.000000  1
  Sr  Sr2  1  0.158164  0.663168  0.821333  1
  Sr  Sr3  1  0.841836  0.336832  0.178667  1
  Sr  Sr4  1  0.663168  0.841836  0.505004  1
  Sr  Sr5  1  0.336832  0.158164  0.494996  1
  Sn  Sn6  1  0.829317  0.335418  0.787581  1
  Sn  Sn7  1  0.170683  0.664582  0.212419  1
  Sn  Sn8  1  0.547837  0.041735  0.212419  1
  Sn  Sn9  1  0.335418  0.547837  0.506101  1
  Sn  Sn10  1  0.958265  0.170683  0.506101  1
  Sn  Sn11  1  0.452163  0.958265  0.787581  1
  Sn  Sn12  1  0.664582  0.452163  0.493899  1
  Sn  Sn13  1  0.041735  0.829317  0.493899  1
  Hg  Hg14  1  0.500000  0.500000  0.000000  1
  Bi  Bi15  1  0.000000  0.000000  0.000000  1
