# generated using pymatgen
data_Er8Ti9Nb3Si15Se
_symmetry_space_group_name_H-M   'P 1'
_cell_length_a   7.03846279
_cell_length_b   7.03035742
_cell_length_c   12.93086337
_cell_angle_alpha   89.90751793
_cell_angle_beta   89.80674879
_cell_angle_gamma   89.91607925
_symmetry_Int_Tables_number   1
_chemical_formula_structural   Er8Ti9Nb3Si15Se
_chemical_formula_sum   'Er8 Ti9 Nb3 Si15 Se1'
_cell_volume   639.85158200
_cell_formula_units_Z   1
loop_
 _symmetry_equiv_pos_site_id
 _symmetry_equiv_pos_as_xyz
  1  'x, y, z'
loop_
 _atom_site_type_symbol
 _atom_site_label
 _atom_site_symmetry_multiplicity
 _atom_site_fract_x
 _atom_site_fract_y
 _atom_site_fract_z
 _atom_site_occupancy
  Er  Er0  1  0.341653  0.998815  0.464537  1
  Er  Er1  1  0.499501  0.843929  0.718636  1
  Er  Er2  1  0.500157  0.157851  0.216828  1
  Er  Er3  1  0.840454  0.498483  0.282818  1
  Er  Er4  1  0.159075  0.499015  0.782421  1
  Er  Er5  1  0.662637  0.995858  0.968463  1
  Er  Er6  1  0.995248  0.344850  0.531474  1
  Er  Er7  1  0.000755  0.659238  0.033526  1
  Ti  Ti8  1  0.671879  0.671574  0.500092  1
  Ti  Ti9  1  0.155952  0.010891  0.873360  1
  Ti  Ti10  1  0.490968  0.652386  0.124485  1
  Ti  Ti11  1  0.508869  0.345811  0.627006  1
  Ti  Ti12  1  0.656511  0.497422  0.876704  1
  Ti  Ti13  1  0.344865  0.507243  0.375343  1
  Ti  Ti14  1  0.847132  0.992363  0.374013  1
  Ti  Ti15  1  0.008419  0.151665  0.125793  1
  Ti  Ti16  1  0.987929  0.842229  0.623832  1
  Nb  Nb17  1  0.326538  0.328202  0.000068  1
  Nb  Nb18  1  0.172095  0.827817  0.250020  1
  Nb  Nb19  1  0.823424  0.173386  0.749564  1
  Si  Si20  1  0.368528  0.704993  0.932142  1
  Si  Si21  1  0.628087  0.297473  0.433577  1
  Si  Si22  1  0.705001  0.369292  0.067927  1
  Si  Si23  1  0.296584  0.630500  0.567586  1
  Si  Si24  1  0.795797  0.868581  0.183632  1
  Si  Si25  1  0.129851  0.204987  0.317744  1
  Si  Si26  1  0.871168  0.796091  0.816273  1
  Si  Si27  1  0.293335  0.953940  0.062933  1
  Si  Si28  1  0.547373  0.789860  0.314375  1
  Si  Si29  1  0.468777  0.212026  0.822363  1
  Si  Si30  1  0.790133  0.547878  0.685300  1
  Si  Si31  1  0.207533  0.452789  0.187102  1
  Si  Si32  1  0.706390  0.044797  0.562455  1
  Si  Si33  1  0.954223  0.292933  0.936624  1
  Si  Si34  1  0.044355  0.707422  0.435707  1
  Se  Se35  1  0.198808  0.127413  0.675278  1
