# generated using pymatgen
data_Ce4Ir3PdPb2
_symmetry_space_group_name_H-M   'P 1'
_cell_length_a   7.87741300
_cell_length_b   7.87741300
_cell_length_c   3.68751400
_cell_angle_alpha   90.00000000
_cell_angle_beta   90.00000000
_cell_angle_gamma   89.42549878
_symmetry_Int_Tables_number   1
_chemical_formula_structural   Ce4Ir3PdPb2
_chemical_formula_sum   'Ce4 Ir3 Pd1 Pb2'
_cell_volume   228.81214704
_cell_formula_units_Z   1
loop_
 _symmetry_equiv_pos_site_id
 _symmetry_equiv_pos_as_xyz
  1  'x, y, z'
loop_
 _atom_site_type_symbol
 _atom_site_label
 _atom_site_symmetry_multiplicity
 _atom_site_fract_x
 _atom_site_fract_y
 _atom_site_fract_z
 _atom_site_occupancy
  Ce  Ce0  1  0.658565  0.158565  0.500000  1
  Ce  Ce1  1  0.182258  0.334096  0.500000  1
  Ce  Ce2  1  0.834096  0.682258  0.500000  1
  Ce  Ce3  1  0.326385  0.826385  0.500000  1
  Ir  Ir4  1  0.367366  0.131358  0.000000  1
  Ir  Ir5  1  0.126166  0.626166  0.000000  1
  Ir  Ir6  1  0.631358  0.867366  0.000000  1
  Pd  Pd7  1  0.867562  0.367562  0.000000  1
  Pb  Pb8  1  0.000634  0.005609  0.000000  1
  Pb  Pb9  1  0.505609  0.500634  0.000000  1
