# generated using pymatgen
data_Ce(HoCo)2
_symmetry_space_group_name_H-M   'P 1'
_cell_length_a   3.68103983
_cell_length_b   5.93206087
_cell_length_c   5.93205936
_cell_angle_alpha   61.14098560
_cell_angle_beta   71.92470314
_cell_angle_gamma   71.92469912
_symmetry_Int_Tables_number   1
_chemical_formula_structural   Ce(HoCo)2
_chemical_formula_sum   'Ce1 Ho2 Co2'
_cell_volume   105.82474915
_cell_formula_units_Z   1
loop_
 _symmetry_equiv_pos_site_id
 _symmetry_equiv_pos_as_xyz
  1  'x, y, z'
loop_
 _atom_site_type_symbol
 _atom_site_label
 _atom_site_symmetry_multiplicity
 _atom_site_fract_x
 _atom_site_fract_y
 _atom_site_fract_z
 _atom_site_occupancy
  Ce  Ce0  1  0.000000  0.000000  0.000000  1
  Ho  Ho1  1  0.189474  0.310526  0.310526  1
  Ho  Ho2  1  0.810526  0.689474  0.689474  1
  Co  Co3  1  0.500000  0.292550  0.707450  1
  Co  Co4  1  0.500000  0.707450  0.292550  1
