# generated using pymatgen
data_Lu8Be(Si5W4)3
_symmetry_space_group_name_H-M   'P 1'
_cell_length_a   6.67964864
_cell_length_b   6.85294962
_cell_length_c   12.80957500
_cell_angle_alpha   90.00000000
_cell_angle_beta   90.00000000
_cell_angle_gamma   89.64686304
_symmetry_Int_Tables_number   1
_chemical_formula_structural   Lu8Be(Si5W4)3
_chemical_formula_sum   'Lu8 Be1 Si15 W12'
_cell_volume   586.35094513
_cell_formula_units_Z   1
loop_
 _symmetry_equiv_pos_site_id
 _symmetry_equiv_pos_as_xyz
  1  'x, y, z'
loop_
 _atom_site_type_symbol
 _atom_site_label
 _atom_site_symmetry_multiplicity
 _atom_site_fract_x
 _atom_site_fract_y
 _atom_site_fract_z
 _atom_site_occupancy
  Lu  Lu0  1  0.497571  0.665429  0.594931  1
  Lu  Lu1  1  0.997100  0.828441  0.904709  1
  Lu  Lu2  1  0.504125  0.331916  0.091975  1
  Lu  Lu3  1  0.005872  0.168782  0.408004  1
  Lu  Lu4  1  0.504125  0.331916  0.408025  1
  Lu  Lu5  1  0.005872  0.168782  0.091996  1
  Lu  Lu6  1  0.497571  0.665429  0.905069  1
  Lu  Lu7  1  0.997100  0.828441  0.595291  1
  Be  Be8  1  0.459552  0.374598  0.750000  1
  Si  Si9  1  0.664293  0.961338  0.456264  1
  Si  Si10  1  0.164177  0.542136  0.044940  1
  Si  Si11  1  0.335115  0.039973  0.954572  1
  Si  Si12  1  0.837061  0.456725  0.545133  1
  Si  Si13  1  0.335115  0.039973  0.545428  1
  Si  Si14  1  0.837061  0.456725  0.954867  1
  Si  Si15  1  0.664293  0.961338  0.043736  1
  Si  Si16  1  0.164177  0.542136  0.455060  1
  Si  Si17  1  0.963876  0.124627  0.750000  1
  Si  Si18  1  0.534116  0.625158  0.250000  1
  Si  Si19  1  0.033924  0.874375  0.250000  1
  Si  Si20  1  0.699163  0.864172  0.750000  1
  Si  Si21  1  0.207622  0.627350  0.750000  1
  Si  Si22  1  0.301088  0.138419  0.250000  1
  Si  Si23  1  0.801872  0.361919  0.250000  1
  W  W24  1  0.660073  0.171680  0.627552  1
  W  W25  1  0.171574  0.337058  0.874601  1
  W  W26  1  0.332154  0.837085  0.125158  1
  W  W27  1  0.829052  0.662829  0.375665  1
  W  W28  1  0.332154  0.837085  0.374842  1
  W  W29  1  0.829052  0.662829  0.124335  1
  W  W30  1  0.660073  0.171680  0.872448  1
  W  W31  1  0.171574  0.337058  0.625399  1
  W  W32  1  0.836324  0.494114  0.750000  1
  W  W33  1  0.336563  0.006858  0.750000  1
  W  W34  1  0.164104  0.500435  0.250000  1
  W  W35  1  0.665460  0.001191  0.250000  1
