# generated using pymatgen
data_CeNdNi7P4
_symmetry_space_group_name_H-M   'P 1'
_cell_length_a   3.76527500
_cell_length_b   9.21717126
_cell_length_c   10.39910595
_cell_angle_alpha   89.88901911
_cell_angle_beta   90.00000000
_cell_angle_gamma   90.00000000
_symmetry_Int_Tables_number   1
_chemical_formula_structural   CeNdNi7P4
_chemical_formula_sum   'Ce2 Nd2 Ni14 P8'
_cell_volume   360.90221371
_cell_formula_units_Z   2
loop_
 _symmetry_equiv_pos_site_id
 _symmetry_equiv_pos_as_xyz
  1  'x, y, z'
loop_
 _atom_site_type_symbol
 _atom_site_label
 _atom_site_symmetry_multiplicity
 _atom_site_fract_x
 _atom_site_fract_y
 _atom_site_fract_z
 _atom_site_occupancy
  Ce  Ce0  1  0.500000  0.437505  0.501305  1
  Ce  Ce1  1  0.500000  0.059064  0.282481  1
  Nd  Nd2  1  0.000000  0.941416  0.781471  1
  Nd  Nd3  1  0.000000  0.562720  0.001541  1
  Ni  Ni4  1  0.500000  0.303766  0.076753  1
  Ni  Ni5  1  0.500000  0.744380  0.402598  1
  Ni  Ni6  1  0.500000  0.418097  0.804501  1
  Ni  Ni7  1  0.500000  0.060038  0.980050  1
  Ni  Ni8  1  0.500000  0.683230  0.760987  1
  Ni  Ni9  1  0.000000  0.278898  0.669938  1
  Ni  Ni10  1  0.000000  0.253669  0.902595  1
  Ni  Ni11  1  0.000000  0.693673  0.570180  1
  Ni  Ni12  1  0.500000  0.099261  0.582893  1
  Ni  Ni13  1  0.000000  0.313561  0.266180  1
  Ni  Ni14  1  0.000000  0.580693  0.310256  1
  Ni  Ni15  1  0.000000  0.900712  0.083067  1
  Ni  Ni16  1  0.000000  0.940712  0.477203  1
  Ni  Ni17  1  0.500000  0.725658  0.171378  1
  P  P18  1  0.000000  0.816794  0.286795  1
  P  P19  1  0.000000  0.188266  0.468776  1
  P  P20  1  0.500000  0.183853  0.787894  1
  P  P21  1  0.000000  0.154297  0.090574  1
  P  P22  1  0.500000  0.476381  0.220207  1
  P  P23  1  0.500000  0.813360  0.969516  1
  P  P24  1  0.500000  0.845007  0.589083  1
  P  P25  1  0.000000  0.524990  0.717176  1
