# generated using pymatgen
data_CeFeH6
_symmetry_space_group_name_H-M   'P 1'
_cell_length_a   4.39187032
_cell_length_b   4.39187133
_cell_length_c   4.39432507
_cell_angle_alpha   59.82759917
_cell_angle_beta   59.82758736
_cell_angle_gamma   59.84839370
_symmetry_Int_Tables_number   1
_chemical_formula_structural   CeFeH6
_chemical_formula_sum   'Ce1 Fe1 H6'
_cell_volume   59.70932515
_cell_formula_units_Z   1
loop_
 _symmetry_equiv_pos_site_id
 _symmetry_equiv_pos_as_xyz
  1  'x, y, z'
loop_
 _atom_site_type_symbol
 _atom_site_label
 _atom_site_symmetry_multiplicity
 _atom_site_fract_x
 _atom_site_fract_y
 _atom_site_fract_z
 _atom_site_occupancy
  Ce  Ce0  1  0.500000  0.500000  0.500000  1
  Fe  Fe1  1  0.000000  0.000000  0.000000  1
  H  H2  1  0.571507  0.098935  0.098837  1
  H  H3  1  0.098935  0.571507  0.098837  1
  H  H4  1  0.901318  0.901318  0.427967  1
  H  H5  1  0.098682  0.098682  0.572032  1
  H  H6  1  0.901065  0.428492  0.901163  1
  H  H7  1  0.428492  0.901065  0.901163  1
