# generated using pymatgen
data_Dy5YP13Rh20
_symmetry_space_group_name_H-M   'P 1'
_cell_length_a   13.34661402
_cell_length_b   13.34218429
_cell_length_c   3.92561001
_cell_angle_alpha   89.99782254
_cell_angle_beta   90.00602028
_cell_angle_gamma   120.00881548
_symmetry_Int_Tables_number   1
_chemical_formula_structural   Dy5YP13Rh20
_chemical_formula_sum   'Dy5 Y1 P13 Rh20'
_cell_volume   605.33701634
_cell_formula_units_Z   1
loop_
 _symmetry_equiv_pos_site_id
 _symmetry_equiv_pos_as_xyz
  1  'x, y, z'
loop_
 _atom_site_type_symbol
 _atom_site_label
 _atom_site_symmetry_multiplicity
 _atom_site_fract_x
 _atom_site_fract_y
 _atom_site_fract_z
 _atom_site_occupancy
  Dy  Dy0  1  0.282700  0.812263  0.248207  1
  Dy  Dy1  1  0.187673  0.470408  0.248209  1
  Dy  Dy2  1  0.470446  0.282702  0.751803  1
  Dy  Dy3  1  0.717321  0.187747  0.751801  1
  Dy  Dy4  1  0.812322  0.529588  0.751806  1
  Y  Y5  1  0.529522  0.717201  0.248226  1
  P  P6  1  0.525974  0.139223  0.250347  1
  P  P7  1  0.860736  0.386741  0.250338  1
  P  P8  1  0.613237  0.474015  0.250352  1
  P  P9  1  0.945307  0.714827  0.254656  1
  P  P10  1  0.285138  0.230441  0.254650  1
  P  P11  1  0.769475  0.054603  0.254657  1
  P  P12  1  0.386553  0.525830  0.749642  1
  P  P13  1  0.473960  0.860846  0.749630  1
  P  P14  1  0.139259  0.613271  0.749639  1
  P  P15  1  0.715072  0.769683  0.745365  1
  P  P16  1  0.230488  0.945321  0.745328  1
  P  P17  1  0.054719  0.285158  0.745332  1
  P  P18  1  0.999990  0.000002  0.000049  1
  Rh  Rh19  1  0.333041  0.666577  0.752034  1
  Rh  Rh20  1  0.921076  0.250125  0.254304  1
  Rh  Rh21  1  0.749912  0.670914  0.254343  1
  Rh  Rh22  1  0.329029  0.078904  0.254316  1
  Rh  Rh23  1  0.438739  0.022841  0.751609  1
  Rh  Rh24  1  0.977200  0.415935  0.751603  1
  Rh  Rh25  1  0.584109  0.561168  0.751559  1
  Rh  Rh26  1  0.666655  0.333347  0.247949  1
  Rh  Rh27  1  0.094307  0.186913  0.246960  1
  Rh  Rh28  1  0.813132  0.907372  0.246868  1
  Rh  Rh29  1  0.092704  0.905791  0.247001  1
  Rh  Rh30  1  0.022790  0.584092  0.248379  1
  Rh  Rh31  1  0.415895  0.438616  0.248418  1
  Rh  Rh32  1  0.561298  0.977290  0.248428  1
  Rh  Rh33  1  0.671095  0.921338  0.745707  1
  Rh  Rh34  1  0.078930  0.749876  0.745685  1
  Rh  Rh35  1  0.250138  0.329007  0.745709  1
  Rh  Rh36  1  0.905758  0.813122  0.752980  1
  Rh  Rh37  1  0.186962  0.092690  0.753116  1
  Rh  Rh38  1  0.907338  0.094212  0.752991  1
