# generated using pymatgen
data_PrEr3(Ir2O7)2
_symmetry_space_group_name_H-M   'P 1'
_cell_length_a   7.28671710
_cell_length_b   7.23622550
_cell_length_c   7.23622600
_cell_angle_alpha   59.99999770
_cell_angle_beta   60.22895252
_cell_angle_gamma   60.22894399
_symmetry_Int_Tables_number   1
_chemical_formula_structural   PrEr3(Ir2O7)2
_chemical_formula_sum   'Pr1 Er3 Ir4 O14'
_cell_volume   270.72937453
_cell_formula_units_Z   1
loop_
 _symmetry_equiv_pos_site_id
 _symmetry_equiv_pos_as_xyz
  1  'x, y, z'
loop_
 _atom_site_type_symbol
 _atom_site_label
 _atom_site_symmetry_multiplicity
 _atom_site_fract_x
 _atom_site_fract_y
 _atom_site_fract_z
 _atom_site_occupancy
  Pr  Pr0  1  0.625000  0.125000  0.125000  1
  Er  Er1  1  0.125000  0.125000  0.625000  1
  Er  Er2  1  0.125000  0.125000  0.125000  1
  Er  Er3  1  0.125000  0.625000  0.125000  1
  Ir  Ir4  1  0.625000  0.625000  0.625000  1
  Ir  Ir5  1  0.125000  0.625000  0.625000  1
  Ir  Ir6  1  0.625000  0.125000  0.625000  1
  Ir  Ir7  1  0.625000  0.625000  0.125000  1
  O  O8  1  0.963194  0.537412  0.537412  1
  O  O9  1  0.286806  0.288018  0.712588  1
  O  O10  1  0.963194  0.537412  0.961982  1
  O  O11  1  0.721968  0.288518  0.288518  1
  O  O12  1  0.528032  0.549004  0.961482  1
  O  O13  1  0.528032  0.961482  0.549004  1
  O  O14  1  0.528032  0.961482  0.961482  1
  O  O15  1  0.235408  0.254864  0.254864  1
  O  O16  1  0.286806  0.712588  0.712588  1
  O  O17  1  0.721968  0.288518  0.700996  1
  O  O18  1  0.014592  0.995136  0.995136  1
  O  O19  1  0.963194  0.961982  0.537412  1
  O  O20  1  0.286806  0.712588  0.288018  1
  O  O21  1  0.721968  0.700996  0.288518  1
