# generated using pymatgen
data_La7TbTm4(Si2Ni)4
_symmetry_space_group_name_H-M   'P 1'
_cell_length_a   4.19298000
_cell_length_b   11.60030483
_cell_length_c   11.73694049
_cell_angle_alpha   89.60978463
_cell_angle_beta   90.00000000
_cell_angle_gamma   90.00000000
_symmetry_Int_Tables_number   1
_chemical_formula_structural   La7TbTm4(Si2Ni)4
_chemical_formula_sum   'La7 Tb1 Tm4 Si8 Ni4'
_cell_volume   570.86973965
_cell_formula_units_Z   1
loop_
 _symmetry_equiv_pos_site_id
 _symmetry_equiv_pos_as_xyz
  1  'x, y, z'
loop_
 _atom_site_type_symbol
 _atom_site_label
 _atom_site_symmetry_multiplicity
 _atom_site_fract_x
 _atom_site_fract_y
 _atom_site_fract_z
 _atom_site_occupancy
  La  La0  1  0.250000  0.131817  0.555379  1
  La  La1  1  0.250000  0.368575  0.052421  1
  La  La2  1  0.750000  0.866892  0.442455  1
  La  La3  1  0.750000  0.631988  0.944391  1
  La  La4  1  0.250000  0.806689  0.718922  1
  La  La5  1  0.250000  0.694621  0.220012  1
  La  La6  1  0.750000  0.197623  0.278179  1
  Tb  Tb7  1  0.750000  0.305858  0.778852  1
  Tm  Tm8  1  0.250000  0.060056  0.879328  1
  Tm  Tm9  1  0.250000  0.443030  0.386501  1
  Tm  Tm10  1  0.750000  0.946349  0.114532  1
  Tm  Tm11  1  0.750000  0.554622  0.620261  1
  Si  Si12  1  0.250000  0.828464  0.977853  1
  Si  Si13  1  0.250000  0.672427  0.480187  1
  Si  Si14  1  0.750000  0.176782  0.015878  1
  Si  Si15  1  0.750000  0.326166  0.526198  1
  Si  Si16  1  0.250000  0.494258  0.797206  1
  Si  Si17  1  0.250000  0.997126  0.290184  1
  Si  Si18  1  0.750000  0.494286  0.209189  1
  Si  Si19  1  0.750000  0.006828  0.707741  1
  Ni  Ni20  1  0.250000  0.377773  0.625046  1
  Ni  Ni21  1  0.250000  0.118234  0.115240  1
  Ni  Ni22  1  0.750000  0.614476  0.383169  1
  Ni  Ni23  1  0.750000  0.885059  0.880876  1
