# generated using pymatgen
data_Dy2ErZn3RuAu2
_symmetry_space_group_name_H-M   'P 1'
_cell_length_a   7.43136220
_cell_length_b   7.42832237
_cell_length_c   3.84078600
_cell_angle_alpha   90.00000000
_cell_angle_beta   90.00000000
_cell_angle_gamma   120.03988207
_symmetry_Int_Tables_number   1
_chemical_formula_structural   Dy2ErZn3RuAu2
_chemical_formula_sum   'Dy2 Er1 Zn3 Ru1 Au2'
_cell_volume   183.54190680
_cell_formula_units_Z   1
loop_
 _symmetry_equiv_pos_site_id
 _symmetry_equiv_pos_as_xyz
  1  'x, y, z'
loop_
 _atom_site_type_symbol
 _atom_site_label
 _atom_site_symmetry_multiplicity
 _atom_site_fract_x
 _atom_site_fract_y
 _atom_site_fract_z
 _atom_site_occupancy
  Dy  Dy0  1  0.022796  0.604077  0.000000  1
  Dy  Dy1  1  0.396104  0.418864  0.000000  1
  Er  Er2  1  0.581466  0.976807  0.000000  1
  Zn  Zn3  1  0.258357  0.987346  0.500000  1
  Zn  Zn4  1  0.012432  0.270394  0.500000  1
  Zn  Zn5  1  0.729312  0.742496  0.500000  1
  Ru  Ru6  1  0.333926  0.667516  0.500000  1
  Au  Au7  1  0.666404  0.332415  0.500000  1
  Au  Au8  1  0.999203  0.000085  0.000000  1
