# generated using pymatgen
data_Y20Ir6PtRh5
_symmetry_space_group_name_H-M   'P 1'
_cell_length_a   10.95447466
_cell_length_b   10.95447485
_cell_length_c   6.40416212
_cell_angle_alpha   89.99882779
_cell_angle_beta   89.99883049
_cell_angle_gamma   89.73684345
_symmetry_Int_Tables_number   1
_chemical_formula_structural   Y20Ir6PtRh5
_chemical_formula_sum   'Y20 Ir6 Pt1 Rh5'
_cell_volume   768.49465983
_cell_formula_units_Z   1
loop_
 _symmetry_equiv_pos_site_id
 _symmetry_equiv_pos_as_xyz
  1  'x, y, z'
loop_
 _atom_site_type_symbol
 _atom_site_label
 _atom_site_symmetry_multiplicity
 _atom_site_fract_x
 _atom_site_fract_y
 _atom_site_fract_z
 _atom_site_occupancy
  Y  Y0  1  0.290154  0.089107  0.383534  1
  Y  Y1  1  0.290606  0.910451  0.882581  1
  Y  Y2  1  0.708915  0.085681  0.882274  1
  Y  Y3  1  0.708293  0.908020  0.383014  1
  Y  Y4  1  0.589357  0.790066  0.883414  1
  Y  Y5  1  0.586366  0.207519  0.378736  1
  Y  Y6  1  0.409577  0.790649  0.382259  1
  Y  Y7  1  0.407813  0.207736  0.883248  1
  Y  Y8  1  0.209934  0.410643  0.616586  1
  Y  Y9  1  0.209351  0.590423  0.117741  1
  Y  Y10  1  0.792481  0.413634  0.121264  1
  Y  Y11  1  0.792264  0.592187  0.616752  1
  Y  Y12  1  0.910893  0.709846  0.116466  1
  Y  Y13  1  0.914319  0.291085  0.617726  1
  Y  Y14  1  0.089549  0.709394  0.617419  1
  Y  Y15  1  0.091980  0.291707  0.116986  1
  Y  Y16  1  0.999321  0.999698  0.499628  1
  Y  Y17  1  0.000302  0.000679  0.000372  1
  Y  Y18  1  0.498483  0.500757  0.000588  1
  Y  Y19  1  0.499243  0.501517  0.499412  1
  Ir  Ir20  1  0.845516  0.847460  0.750797  1
  Ir  Ir21  1  0.152540  0.154484  0.749203  1
  Ir  Ir22  1  0.153792  0.846208  0.250000  1
  Ir  Ir23  1  0.654624  0.652074  0.249437  1
  Ir  Ir24  1  0.347926  0.345376  0.250563  1
  Ir  Ir25  1  0.346087  0.653913  0.750000  1
  Pt  Pt26  1  0.655231  0.344769  0.750000  1
  Rh  Rh27  1  0.844621  0.155379  0.250000  1
  Rh  Rh28  1  0.500831  0.000458  0.130582  1
  Rh  Rh29  1  0.500355  0.000268  0.630709  1
  Rh  Rh30  1  0.999732  0.499645  0.869291  1
  Rh  Rh31  1  0.999542  0.499169  0.369418  1
