# generated using pymatgen
data_Ca2SnBiPd2
_symmetry_space_group_name_H-M   'P 1'
_cell_length_a   4.68964400
_cell_length_b   7.48917003
_cell_length_c   8.22343634
_cell_angle_alpha   88.94633788
_cell_angle_beta   90.00000000
_cell_angle_gamma   90.00000000
_symmetry_Int_Tables_number   1
_chemical_formula_structural   Ca2SnBiPd2
_chemical_formula_sum   'Ca4 Sn2 Bi2 Pd4'
_cell_volume   288.77092307
_cell_formula_units_Z   2
loop_
 _symmetry_equiv_pos_site_id
 _symmetry_equiv_pos_as_xyz
  1  'x, y, z'
loop_
 _atom_site_type_symbol
 _atom_site_label
 _atom_site_symmetry_multiplicity
 _atom_site_fract_x
 _atom_site_fract_y
 _atom_site_fract_z
 _atom_site_occupancy
  Ca  Ca0  1  0.750000  0.480604  0.803135  1
  Ca  Ca1  1  0.250000  0.519396  0.196865  1
  Ca  Ca2  1  0.250000  0.009524  0.303696  1
  Ca  Ca3  1  0.750000  0.990476  0.696304  1
  Sn  Sn4  1  0.750000  0.819988  0.077911  1
  Sn  Sn5  1  0.250000  0.180012  0.922089  1
  Bi  Bi6  1  0.750000  0.314561  0.411093  1
  Bi  Bi7  1  0.250000  0.685439  0.588907  1
  Pd  Pd8  1  0.750000  0.197250  0.086605  1
  Pd  Pd9  1  0.750000  0.712716  0.394932  1
  Pd  Pd10  1  0.250000  0.802750  0.913395  1
  Pd  Pd11  1  0.250000  0.287284  0.605068  1
