# generated using pymatgen
data_TbYLu14(In3Pd)2
_symmetry_space_group_name_H-M   'P 1'
_cell_length_a   10.34026400
_cell_length_b   10.34026510
_cell_length_c   6.85585600
_cell_angle_alpha   90.00000000
_cell_angle_beta   90.00000000
_cell_angle_gamma   120.00000288
_symmetry_Int_Tables_number   1
_chemical_formula_structural   TbYLu14(In3Pd)2
_chemical_formula_sum   'Tb1 Y1 Lu14 In6 Pd2'
_cell_volume   634.82731702
_cell_formula_units_Z   1
loop_
 _symmetry_equiv_pos_site_id
 _symmetry_equiv_pos_as_xyz
  1  'x, y, z'
loop_
 _atom_site_type_symbol
 _atom_site_label
 _atom_site_symmetry_multiplicity
 _atom_site_fract_x
 _atom_site_fract_y
 _atom_site_fract_z
 _atom_site_occupancy
  Tb  Tb0  1  0.000000  0.000000  0.498656  1
  Y  Y1  1  0.000000  0.000000  0.998412  1
  Lu  Lu2  1  0.470935  0.529065  0.476718  1
  Lu  Lu3  1  0.058132  0.529065  0.476718  1
  Lu  Lu4  1  0.470935  0.941868  0.476718  1
  Lu  Lu5  1  0.529081  0.470919  0.977126  1
  Lu  Lu6  1  0.941837  0.470919  0.977126  1
  Lu  Lu7  1  0.529081  0.058163  0.977126  1
  Lu  Lu8  1  0.823767  0.176233  0.271994  1
  Lu  Lu9  1  0.352466  0.176233  0.271994  1
  Lu  Lu10  1  0.823767  0.647534  0.271994  1
  Lu  Lu11  1  0.176241  0.823759  0.771687  1
  Lu  Lu12  1  0.647517  0.823759  0.771687  1
  Lu  Lu13  1  0.176241  0.352483  0.771687  1
  Lu  Lu14  1  0.333333  0.666667  0.106091  1
  Lu  Lu15  1  0.666667  0.333333  0.606509  1
  In  In16  1  0.163443  0.836557  0.237840  1
  In  In17  1  0.673113  0.836557  0.237840  1
  In  In18  1  0.163443  0.326887  0.237840  1
  In  In19  1  0.836789  0.163211  0.737828  1
  In  In20  1  0.326422  0.163211  0.737828  1
  In  In21  1  0.836789  0.673578  0.737828  1
  Pd  Pd22  1  0.333333  0.666667  0.707548  1
  Pd  Pd23  1  0.666667  0.333333  0.207754  1
