# generated using pymatgen
data_Th4Al5Tc3
_symmetry_space_group_name_H-M   'P 1'
_cell_length_a   5.52167508
_cell_length_b   5.60606910
_cell_length_c   9.11445000
_cell_angle_alpha   90.00000000
_cell_angle_beta   90.00000000
_cell_angle_gamma   120.50689460
_symmetry_Int_Tables_number   1
_chemical_formula_structural   Th4Al5Tc3
_chemical_formula_sum   'Th4 Al5 Tc3'
_cell_volume   243.08007505
_cell_formula_units_Z   1
loop_
 _symmetry_equiv_pos_site_id
 _symmetry_equiv_pos_as_xyz
  1  'x, y, z'
loop_
 _atom_site_type_symbol
 _atom_site_label
 _atom_site_symmetry_multiplicity
 _atom_site_fract_x
 _atom_site_fract_y
 _atom_site_fract_z
 _atom_site_occupancy
  Th  Th0  1  0.352356  0.676178  0.454264  1
  Th  Th1  1  0.658741  0.329370  0.556417  1
  Th  Th2  1  0.658741  0.329370  0.943583  1
  Th  Th3  1  0.352356  0.676178  0.045736  1
  Al  Al4  1  0.846284  0.168778  0.250000  1
  Al  Al5  1  0.846284  0.677506  0.250000  1
  Al  Al6  1  0.330946  0.165473  0.250000  1
  Al  Al7  1  0.155614  0.837868  0.750000  1
  Al  Al8  1  0.155614  0.317745  0.750000  1
  Tc  Tc9  1  0.998216  0.999108  0.498461  1
  Tc  Tc10  1  0.998216  0.999108  0.001539  1
  Tc  Tc11  1  0.646631  0.823316  0.750000  1
