# generated using pymatgen
data_DyYMo2F14
_symmetry_space_group_name_H-M   'P 1'
_cell_length_a   5.67250546
_cell_length_b   9.12753820
_cell_length_c   12.23827100
_cell_angle_alpha   62.51272418
_cell_angle_beta   90.04103879
_cell_angle_gamma   90.01392600
_symmetry_Int_Tables_number   1
_chemical_formula_structural   DyYMo2F14
_chemical_formula_sum   'Dy2 Y2 Mo4 F28'
_cell_volume   562.11820569
_cell_formula_units_Z   2
loop_
 _symmetry_equiv_pos_site_id
 _symmetry_equiv_pos_as_xyz
  1  'x, y, z'
loop_
 _atom_site_type_symbol
 _atom_site_label
 _atom_site_symmetry_multiplicity
 _atom_site_fract_x
 _atom_site_fract_y
 _atom_site_fract_z
 _atom_site_occupancy
  Dy  Dy0  1  0.263154  0.813523  0.266118  1
  Dy  Dy1  1  0.736846  0.186477  0.733882  1
  Y  Y2  1  0.763158  0.186148  0.234110  1
  Y  Y3  1  0.236842  0.813852  0.765890  1
  Mo  Mo4  1  0.756751  0.725948  0.044635  1
  Mo  Mo5  1  0.243249  0.274052  0.955365  1
  Mo  Mo6  1  0.256583  0.274805  0.455561  1
  Mo  Mo7  1  0.743417  0.725195  0.544439  1
  F  F8  1  0.954482  0.708846  0.421611  1
  F  F9  1  0.045518  0.291154  0.578389  1
  F  F10  1  0.454041  0.291339  0.077887  1
  F  F11  1  0.545959  0.708661  0.922113  1
  F  F12  1  0.478822  0.733549  0.148937  1
  F  F13  1  0.521178  0.266451  0.851063  1
  F  F14  1  0.978374  0.267345  0.351222  1
  F  F15  1  0.021626  0.732655  0.648778  1
  F  F16  1  0.966224  0.748143  0.167315  1
  F  F17  1  0.033776  0.251857  0.832685  1
  F  F18  1  0.465822  0.252742  0.332774  1
  F  F19  1  0.534178  0.747258  0.667226  1
  F  F20  1  0.760153  0.482493  0.142374  1
  F  F21  1  0.239847  0.517507  0.857626  1
  F  F22  1  0.260045  0.518367  0.357780  1
  F  F23  1  0.739955  0.481633  0.642220  1
  F  F24  1  0.952970  0.283205  0.052423  1
  F  F25  1  0.047030  0.716795  0.947577  1
  F  F26  1  0.452860  0.716894  0.446884  1
  F  F27  1  0.547140  0.283106  0.553116  1
  F  F28  1  0.744358  0.968075  0.446904  1
  F  F29  1  0.255642  0.031925  0.553096  1
  F  F30  1  0.244574  0.031324  0.053579  1
  F  F31  1  0.755426  0.968676  0.946421  1
  F  F32  1  0.569344  0.978273  0.234172  1
  F  F33  1  0.430656  0.021727  0.765828  1
  F  F34  1  0.070366  0.021114  0.265822  1
  F  F35  1  0.929634  0.978886  0.734178  1
