# generated using pymatgen
data_La3Th(Ga8Pt3)3
_symmetry_space_group_name_H-M   'P 1'
_cell_length_a   7.64373004
_cell_length_b   7.69898305
_cell_length_c   13.46293805
_cell_angle_alpha   84.64647580
_cell_angle_beta   79.28014504
_cell_angle_gamma   60.15725055
_symmetry_Int_Tables_number   1
_chemical_formula_structural   La3Th(Ga8Pt3)3
_chemical_formula_sum   'La3 Th1 Ga24 Pt9'
_cell_volume   675.22569155
_cell_formula_units_Z   1
loop_
 _symmetry_equiv_pos_site_id
 _symmetry_equiv_pos_as_xyz
  1  'x, y, z'
loop_
 _atom_site_type_symbol
 _atom_site_label
 _atom_site_symmetry_multiplicity
 _atom_site_fract_x
 _atom_site_fract_y
 _atom_site_fract_z
 _atom_site_occupancy
  La  La0  1  0.605397  0.831650  0.190388  1
  La  La1  1  0.732235  0.497811  0.809771  1
  La  La2  1  0.267919  0.502178  0.190178  1
  Th  Th3  1  0.395620  0.168644  0.807791  1
  Ga  Ga4  1  0.687839  0.832903  0.940945  1
  Ga  Ga5  1  0.312412  0.166827  0.058288  1
  Ga  Ga6  1  0.145556  0.833107  0.559315  1
  Ga  Ga7  1  0.854065  0.167017  0.441193  1
  Ga  Ga8  1  0.479938  0.166532  0.555803  1
  Ga  Ga9  1  0.519864  0.833154  0.444264  1
  Ga  Ga10  1  0.217482  0.165514  0.330303  1
  Ga  Ga11  1  0.784707  0.832134  0.670311  1
  Ga  Ga12  1  0.438313  0.507512  0.669427  1
  Ga  Ga13  1  0.561294  0.495331  0.330931  1
  Ga  Ga14  1  0.106586  0.161783  0.668462  1
  Ga  Ga15  1  0.891243  0.837675  0.331927  1
  Ga  Ga16  1  0.352204  0.501444  0.941444  1
  Ga  Ga17  1  0.648112  0.498797  0.058133  1
  Ga  Ga18  1  0.017001  0.166428  0.948638  1
  Ga  Ga19  1  0.982961  0.833669  0.050975  1
  Ga  Ga20  1  0.185809  0.499752  0.443379  1
  Ga  Ga21  1  0.813952  0.500299  0.557086  1
  Ga  Ga22  1  0.737684  0.163976  0.182423  1
  Ga  Ga23  1  0.260942  0.838098  0.817498  1
  Ga  Ga24  1  0.063835  0.632892  0.816448  1
  Ga  Ga25  1  0.938040  0.366343  0.183560  1
  Ga  Ga26  1  0.860241  0.035210  0.816709  1
  Ga  Ga27  1  0.138939  0.963598  0.183476  1
  Pt  Pt28  1  0.121276  0.495436  0.637864  1
  Pt  Pt29  1  0.880936  0.501313  0.363529  1
  Pt  Pt30  1  0.659394  0.169672  0.998376  1
  Pt  Pt31  1  0.340545  0.830909  0.999519  1
  Pt  Pt32  1  0.542878  0.166091  0.362349  1
  Pt  Pt33  1  0.457129  0.836319  0.638680  1
  Pt  Pt34  1  0.780531  0.169361  0.637078  1
  Pt  Pt35  1  0.216058  0.831382  0.364637  1
  Pt  Pt36  1  0.001063  0.499239  0.998901  1
