# generated using pymatgen
data_Sm3Dy2Bi3O14
_symmetry_space_group_name_H-M   'P 1'
_cell_length_a   6.64310907
_cell_length_b   6.68982490
_cell_length_c   7.81119746
_cell_angle_alpha   106.71689819
_cell_angle_beta   89.67708408
_cell_angle_gamma   98.58192453
_symmetry_Int_Tables_number   1
_chemical_formula_structural   Sm3Dy2Bi3O14
_chemical_formula_sum   'Sm3 Dy2 Bi3 O14'
_cell_volume   328.49096978
_cell_formula_units_Z   1
loop_
 _symmetry_equiv_pos_site_id
 _symmetry_equiv_pos_as_xyz
  1  'x, y, z'
loop_
 _atom_site_type_symbol
 _atom_site_label
 _atom_site_symmetry_multiplicity
 _atom_site_fract_x
 _atom_site_fract_y
 _atom_site_fract_z
 _atom_site_occupancy
  Sm  Sm0  1  0.270643  0.536118  0.882752  1
  Sm  Sm1  1  0.739420  0.458508  0.113683  1
  Sm  Sm2  1  0.746791  0.480586  0.618432  1
  Dy  Dy3  1  0.459706  0.008353  0.254961  1
  Dy  Dy4  1  0.537735  0.999451  0.749565  1
  Bi  Bi5  1  0.993997  0.999359  0.500236  1
  Bi  Bi6  1  0.998967  0.995790  0.997594  1
  Bi  Bi7  1  0.284303  0.536243  0.389146  1
  O  O8  1  0.449731  0.656353  0.171500  1
  O  O9  1  0.556667  0.350268  0.833743  1
  O  O10  1  0.302655  0.925995  0.952062  1
  O  O11  1  0.697429  0.070222  0.049826  1
  O  O12  1  0.297319  0.933151  0.516769  1
  O  O13  1  0.697769  0.080700  0.490475  1
  O  O14  1  0.545619  0.358995  0.343569  1
  O  O15  1  0.460094  0.645124  0.655353  1
  O  O16  1  0.927252  0.663449  0.947731  1
  O  O17  1  0.068532  0.321663  0.028831  1
  O  O18  1  0.068243  0.335485  0.625996  1
  O  O19  1  0.907191  0.666843  0.383149  1
  O  O20  1  0.871524  0.905390  0.726855  1
  O  O21  1  0.118412  0.071956  0.267770  1
