# generated using pymatgen
data_SrB16Pb7F64
_symmetry_space_group_name_H-M   'P 1'
_cell_length_a   9.78519300
_cell_length_b   10.25289500
_cell_length_c   14.69782300
_cell_angle_alpha   90.00000000
_cell_angle_beta   90.00000000
_cell_angle_gamma   90.00000000
_symmetry_Int_Tables_number   1
_chemical_formula_structural   SrB16Pb7F64
_chemical_formula_sum   'Sr1 B16 Pb7 F64'
_cell_volume   1474.58196793
_cell_formula_units_Z   1
loop_
 _symmetry_equiv_pos_site_id
 _symmetry_equiv_pos_as_xyz
  1  'x, y, z'
loop_
 _atom_site_type_symbol
 _atom_site_label
 _atom_site_symmetry_multiplicity
 _atom_site_fract_x
 _atom_site_fract_y
 _atom_site_fract_z
 _atom_site_occupancy
  Sr  Sr0  1  0.722098  0.532778  0.600373  1
  B  B1  1  0.002532  0.774784  0.947907  1
  B  B2  1  0.498851  0.773693  0.449138  1
  B  B3  1  0.502666  0.725010  0.947875  1
  B  B4  1  0.822898  0.894649  0.655162  1
  B  B5  1  0.502949  0.226798  0.552132  1
  B  B6  1  0.326269  0.602986  0.655098  1
  B  B7  1  0.995881  0.724027  0.448605  1
  B  B8  1  0.323465  0.103534  0.844471  1
  B  B9  1  0.001290  0.275952  0.552026  1
  B  B10  1  0.176431  0.603537  0.155455  1
  B  B11  1  0.176515  0.103476  0.344474  1
  B  B12  1  0.676557  0.896430  0.155450  1
  B  B13  1  0.497481  0.275002  0.052261  1
  B  B14  1  0.997347  0.225166  0.052211  1
  B  B15  1  0.823157  0.396969  0.842970  1
  B  B16  1  0.676273  0.397550  0.345702  1
  Pb  Pb17  1  0.276824  0.466619  0.400527  1
  Pb  Pb18  1  0.776526  0.533911  0.099899  1
  Pb  Pb19  1  0.223226  0.966081  0.598889  1
  Pb  Pb20  1  0.723281  0.033560  0.900605  1
  Pb  Pb21  1  0.276773  0.966186  0.099419  1
  Pb  Pb22  1  0.777272  0.033559  0.400999  1
  Pb  Pb23  1  0.223361  0.466167  0.900797  1
  F  F24  1  0.088385  0.200927  0.608367  1
  F  F25  1  0.911311  0.189165  0.505039  1
  F  F26  1  0.532573  0.912173  0.159670  1
  F  F27  1  0.589119  0.189753  0.005487  1
  F  F28  1  0.916679  0.651631  0.511520  1
  F  F29  1  0.239239  0.527967  0.224988  1
  F  F30  1  0.590920  0.801194  0.893001  1
  F  F31  1  0.080069  0.347467  0.487814  1
  F  F32  1  0.724432  0.938359  0.068409  1
  F  F33  1  0.090722  0.698562  0.893010  1
  F  F34  1  0.089008  0.310487  0.005488  1
  F  F35  1  0.908987  0.301587  0.106890  1
  F  F36  1  0.920001  0.152560  0.987897  1
  F  F37  1  0.411012  0.810380  0.994505  1
  F  F38  1  0.224395  0.561626  0.068432  1
  F  F39  1  0.420035  0.347617  0.987951  1
  F  F40  1  0.967232  0.412608  0.839944  1
  F  F41  1  0.212200  0.737235  0.168090  1
  F  F42  1  0.712348  0.762637  0.168019  1
  F  F43  1  0.713412  0.264033  0.333653  1
  F  F44  1  0.291778  0.736882  0.668191  1
  F  F45  1  0.762550  0.470177  0.771043  1
  F  F46  1  0.759764  0.968745  0.725467  1
  F  F47  1  0.032467  0.587692  0.159672  1
  F  F48  1  0.786736  0.760937  0.665532  1
  F  F49  1  0.409808  0.309749  0.504669  1
  F  F50  1  0.074024  0.636642  0.394438  1
  F  F51  1  0.212299  0.237012  0.331844  1
  F  F52  1  0.773163  0.441415  0.928617  1
  F  F53  1  0.287722  0.237277  0.831929  1
  F  F54  1  0.080009  0.847428  0.012155  1
  F  F55  1  0.921621  0.364609  0.603845  1
  F  F56  1  0.580513  0.153155  0.488547  1
  F  F57  1  0.419797  0.847972  0.511960  1
  F  F58  1  0.574834  0.362823  0.106443  1
  F  F59  1  0.909521  0.801681  0.393177  1
  F  F60  1  0.787628  0.262956  0.831589  1
  F  F61  1  0.087597  0.808705  0.496257  1
  F  F62  1  0.775681  0.939279  0.568591  1
  F  F63  1  0.427179  0.139952  0.607871  1
  F  F64  1  0.275477  0.061506  0.931447  1
  F  F65  1  0.579985  0.652497  0.012266  1
  F  F66  1  0.239454  0.027781  0.274994  1
  F  F67  1  0.470299  0.585790  0.657679  1
  F  F68  1  0.425424  0.637193  0.893632  1
  F  F69  1  0.411019  0.696983  0.394033  1
  F  F70  1  0.966866  0.910474  0.660096  1
  F  F71  1  0.925157  0.862568  0.893683  1
  F  F72  1  0.224305  0.061430  0.431619  1
  F  F73  1  0.739317  0.971926  0.224985  1
  F  F74  1  0.467442  0.087759  0.840293  1
  F  F75  1  0.409307  0.198721  0.107073  1
  F  F76  1  0.721067  0.440650  0.432912  1
  F  F77  1  0.588717  0.689341  0.497340  1
  F  F78  1  0.532149  0.412153  0.339788  1
  F  F79  1  0.074631  0.137463  0.106473  1
  F  F80  1  0.032631  0.087485  0.340147  1
  F  F81  1  0.576965  0.860741  0.394724  1
  F  F82  1  0.276041  0.561546  0.568600  1
  F  F83  1  0.739815  0.472865  0.276113  1
  F  F84  1  0.260756  0.028057  0.774815  1
  F  F85  1  0.590990  0.306408  0.604936  1
  F  F86  1  0.910981  0.689507  0.994670  1
  F  F87  1  0.264510  0.527675  0.725226  1
