# generated using pymatgen
data_Nd16Cd4Ir3Pt
_symmetry_space_group_name_H-M   'P 1'
_cell_length_a   9.98301272
_cell_length_b   9.98301277
_cell_length_c   9.98301331
_cell_angle_alpha   60.11322738
_cell_angle_beta   60.11322893
_cell_angle_gamma   60.11323041
_symmetry_Int_Tables_number   1
_chemical_formula_structural   Nd16Cd4Ir3Pt
_chemical_formula_sum   'Nd16 Cd4 Ir3 Pt1'
_cell_volume   705.31414151
_cell_formula_units_Z   1
loop_
 _symmetry_equiv_pos_site_id
 _symmetry_equiv_pos_as_xyz
  1  'x, y, z'
loop_
 _atom_site_type_symbol
 _atom_site_label
 _atom_site_symmetry_multiplicity
 _atom_site_fract_x
 _atom_site_fract_y
 _atom_site_fract_z
 _atom_site_occupancy
  Nd  Nd0  1  0.347463  0.347463  0.347463  1
  Nd  Nd1  1  0.351872  0.351872  0.950782  1
  Nd  Nd2  1  0.351872  0.950782  0.351872  1
  Nd  Nd3  1  0.950782  0.351872  0.351872  1
  Nd  Nd4  1  0.805224  0.190833  0.190833  1
  Nd  Nd5  1  0.188274  0.809348  0.809348  1
  Nd  Nd6  1  0.190833  0.805224  0.190833  1
  Nd  Nd7  1  0.809348  0.188274  0.809348  1
  Nd  Nd8  1  0.190833  0.190833  0.805224  1
  Nd  Nd9  1  0.809348  0.809348  0.188274  1
  Nd  Nd10  1  0.939980  0.561990  0.561990  1
  Nd  Nd11  1  0.561818  0.938549  0.938549  1
  Nd  Nd12  1  0.561990  0.939980  0.561990  1
  Nd  Nd13  1  0.938549  0.561818  0.938549  1
  Nd  Nd14  1  0.561990  0.561990  0.939980  1
  Nd  Nd15  1  0.938549  0.938549  0.561818  1
  Cd  Cd16  1  0.580212  0.580212  0.580212  1
  Cd  Cd17  1  0.580388  0.580388  0.258711  1
  Cd  Cd18  1  0.580388  0.258711  0.580388  1
  Cd  Cd19  1  0.258711  0.580388  0.580388  1
  Ir  Ir20  1  0.142242  0.142242  0.574189  1
  Ir  Ir21  1  0.142242  0.574189  0.142242  1
  Ir  Ir22  1  0.574189  0.142242  0.142242  1
  Pt  Pt23  1  0.142901  0.142901  0.142901  1
