# generated using pymatgen
data_SmGdCl3
_symmetry_space_group_name_H-M   'P 1'
_cell_length_a   3.94588210
_cell_length_b   8.12661219
_cell_length_c   9.79125473
_cell_angle_alpha   70.62693215
_cell_angle_beta   78.41232259
_cell_angle_gamma   75.90081000
_symmetry_Int_Tables_number   1
_chemical_formula_structural   SmGdCl3
_chemical_formula_sum   'Sm2 Gd2 Cl6'
_cell_volume   284.78853877
_cell_formula_units_Z   2
loop_
 _symmetry_equiv_pos_site_id
 _symmetry_equiv_pos_as_xyz
  1  'x, y, z'
loop_
 _atom_site_type_symbol
 _atom_site_label
 _atom_site_symmetry_multiplicity
 _atom_site_fract_x
 _atom_site_fract_y
 _atom_site_fract_z
 _atom_site_occupancy
  Sm  Sm0  1  0.451014  0.752600  0.343509  1
  Sm  Sm1  1  0.728257  0.782019  0.759410  1
  Gd  Gd2  1  0.000534  0.996377  0.999433  1
  Gd  Gd3  1  0.178329  0.538188  0.103052  1
  Cl  Cl4  1  0.542784  0.120702  0.788480  1
  Cl  Cl5  1  0.634826  0.413323  0.314365  1
  Cl  Cl6  1  0.930692  0.579126  0.559705  1
  Cl  Cl7  1  0.247558  0.956169  0.542797  1
  Cl  Cl8  1  0.363807  0.103117  0.167639  1
  Cl  Cl9  1  0.816825  0.430609  0.934275  1
