# generated using pymatgen
data_Lu4In2(TeO6)3
_symmetry_space_group_name_H-M   'P 1'
_cell_length_a   9.03766900
_cell_length_b   9.02689500
_cell_length_c   5.03062097
_cell_angle_alpha   90.24609439
_cell_angle_beta   90.00000000
_cell_angle_gamma   120.03950100
_symmetry_Int_Tables_number   1
_chemical_formula_structural   Lu4In2(TeO6)3
_chemical_formula_sum   'Lu4 In2 Te3 O18'
_cell_volume   355.27831581
_cell_formula_units_Z   1
loop_
 _symmetry_equiv_pos_site_id
 _symmetry_equiv_pos_as_xyz
  1  'x, y, z'
loop_
 _atom_site_type_symbol
 _atom_site_label
 _atom_site_symmetry_multiplicity
 _atom_site_fract_x
 _atom_site_fract_y
 _atom_site_fract_z
 _atom_site_occupancy
  Lu  Lu0  1  0.624684  0.000000  0.000000  1
  Lu  Lu1  1  0.000665  0.626899  0.001773  1
  Lu  Lu2  1  0.373766  0.373101  0.998227  1
  Lu  Lu3  1  0.286508  0.000000  0.500000  1
  In  In4  1  0.000341  0.292734  0.500106  1
  In  In5  1  0.707608  0.707266  0.499894  1
  Te  Te6  1  0.997885  0.000000  0.000000  1
  Te  Te7  1  0.334179  0.666146  0.506178  1
  Te  Te8  1  0.668034  0.333854  0.493822  1
  O  O9  1  0.085963  0.879996  0.793191  1
  O  O10  1  0.118341  0.203112  0.777402  1
  O  O11  1  0.790820  0.910200  0.788279  1
  O  O12  1  0.205967  0.120004  0.206809  1
  O  O13  1  0.915229  0.796888  0.222598  1
  O  O14  1  0.880619  0.089800  0.211721  1
  O  O15  1  0.458576  0.587659  0.726694  1
  O  O16  1  0.411481  0.870784  0.724153  1
  O  O17  1  0.130727  0.542064  0.727021  1
  O  O18  1  0.870916  0.412341  0.273306  1
  O  O19  1  0.540696  0.129216  0.275847  1
  O  O20  1  0.588662  0.457936  0.272979  1
  O  O21  1  0.222848  0.760327  0.287060  1
  O  O22  1  0.239698  0.458498  0.287996  1
  O  O23  1  0.540161  0.778258  0.287110  1
  O  O24  1  0.462521  0.239673  0.712940  1
  O  O25  1  0.781201  0.541502  0.712004  1
  O  O26  1  0.761903  0.221742  0.712890  1
