# generated using pymatgen
data_Mg2GaSnPd3
_symmetry_space_group_name_H-M   'P 1'
_cell_length_a   7.70822726
_cell_length_b   7.70822731
_cell_length_c   7.70822723
_cell_angle_alpha   33.54185244
_cell_angle_beta   33.54185414
_cell_angle_gamma   33.54185280
_symmetry_Int_Tables_number   1
_chemical_formula_structural   Mg2GaSnPd3
_chemical_formula_sum   'Mg2 Ga1 Sn1 Pd3'
_cell_volume   124.54670984
_cell_formula_units_Z   1
loop_
 _symmetry_equiv_pos_site_id
 _symmetry_equiv_pos_as_xyz
  1  'x, y, z'
loop_
 _atom_site_type_symbol
 _atom_site_label
 _atom_site_symmetry_multiplicity
 _atom_site_fract_x
 _atom_site_fract_y
 _atom_site_fract_z
 _atom_site_occupancy
  Mg  Mg0  1  0.245549  0.245549  0.245549  1
  Mg  Mg1  1  0.753251  0.753251  0.753251  1
  Ga  Ga2  1  0.001769  0.001769  0.001769  1
  Sn  Sn3  1  0.496704  0.496704  0.496704  1
  Pd  Pd4  1  0.369094  0.369094  0.369094  1
  Pd  Pd5  1  0.628340  0.628340  0.628340  1
  Pd  Pd6  1  0.880296  0.880296  0.880296  1
