# generated using pymatgen
data_Sm6Zn4Pd8Pt5
_symmetry_space_group_name_H-M   'P 1'
_cell_length_a   8.34633198
_cell_length_b   8.34617022
_cell_length_c   8.33576634
_cell_angle_alpha   109.42239005
_cell_angle_beta   109.38594391
_cell_angle_gamma   109.52469698
_symmetry_Int_Tables_number   1
_chemical_formula_structural   Sm6Zn4Pd8Pt5
_chemical_formula_sum   'Sm6 Zn4 Pd8 Pt5'
_cell_volume   447.44270653
_cell_formula_units_Z   1
loop_
 _symmetry_equiv_pos_site_id
 _symmetry_equiv_pos_as_xyz
  1  'x, y, z'
loop_
 _atom_site_type_symbol
 _atom_site_label
 _atom_site_symmetry_multiplicity
 _atom_site_fract_x
 _atom_site_fract_y
 _atom_site_fract_z
 _atom_site_occupancy
  Sm  Sm0  1  0.700183  0.699729  0.001467  1
  Sm  Sm1  1  0.299273  0.999948  0.300924  1
  Sm  Sm2  1  0.998934  0.298988  0.299690  1
  Sm  Sm3  1  0.301173  0.300435  0.999218  1
  Sm  Sm4  1  0.700044  0.001188  0.700493  1
  Sm  Sm5  1  0.000056  0.699943  0.699145  1
  Zn  Zn6  1  0.999925  0.999980  0.499738  1
  Zn  Zn7  1  0.000265  0.500040  0.999878  1
  Zn  Zn8  1  0.500194  0.000015  0.000132  1
  Zn  Zn9  1  0.499810  0.499918  0.499968  1
  Pd  Pd10  1  0.332541  0.664329  0.332473  1
  Pd  Pd11  1  0.999999  0.332779  0.668424  1
  Pd  Pd12  1  0.331598  0.667954  0.999898  1
  Pd  Pd13  1  0.332329  0.999651  0.668157  1
  Pd  Pd14  1  0.664345  0.332687  0.333058  1
  Pd  Pd15  1  0.667216  0.667586  0.336468  1
  Pd  Pd16  1  0.667957  0.335705  0.667507  1
  Pd  Pd17  1  0.335545  0.667909  0.667736  1
  Pt  Pt18  1  0.331536  0.331982  0.662701  1
  Pt  Pt19  1  0.667868  0.000036  0.331752  1
  Pt  Pt20  1  0.000362  0.668220  0.332027  1
  Pt  Pt21  1  0.668627  0.331252  0.000128  1
  Pt  Pt22  1  0.000221  0.999725  0.999019  1
