# generated using pymatgen
data_Pr5ThUO12
_symmetry_space_group_name_H-M   'P 1'
_cell_length_a   6.86159710
_cell_length_b   6.89553343
_cell_length_c   6.85641529
_cell_angle_alpha   99.19550198
_cell_angle_beta   98.83923251
_cell_angle_gamma   98.91600744
_symmetry_Int_Tables_number   1
_chemical_formula_structural   Pr5ThUO12
_chemical_formula_sum   'Pr5 Th1 U1 O12'
_cell_volume   311.02801145
_cell_formula_units_Z   1
loop_
 _symmetry_equiv_pos_site_id
 _symmetry_equiv_pos_as_xyz
  1  'x, y, z'
loop_
 _atom_site_type_symbol
 _atom_site_label
 _atom_site_symmetry_multiplicity
 _atom_site_fract_x
 _atom_site_fract_y
 _atom_site_fract_z
 _atom_site_occupancy
  Pr  Pr0  1  0.609814  0.144464  0.309064  1
  Pr  Pr1  1  0.391865  0.861950  0.692004  1
  Pr  Pr2  1  0.692847  0.390150  0.856587  1
  Pr  Pr3  1  0.857135  0.692296  0.393236  1
  Pr  Pr4  1  0.141316  0.305417  0.608151  1
  Th  Th5  1  0.307135  0.606505  0.140939  1
  U  U6  1  0.000163  0.998811  0.001163  1
  O  O7  1  0.438520  0.179280  0.590418  1
  O  O8  1  0.936658  0.692020  0.053476  1
  O  O9  1  0.182654  0.586742  0.428454  1
  O  O10  1  0.823833  0.414131  0.562489  1
  O  O11  1  0.556228  0.818964  0.400696  1
  O  O12  1  0.577174  0.438391  0.177353  1
  O  O13  1  0.406827  0.567509  0.830817  1
  O  O14  1  0.950265  0.068410  0.305069  1
  O  O15  1  0.050018  0.931407  0.695389  1
  O  O16  1  0.696645  0.051296  0.929803  1
  O  O17  1  0.076138  0.308968  0.955391  1
  O  O18  1  0.304763  0.943290  0.069501  1
