# generated using pymatgen
data_Yb5Cd2Sb5Cl
_symmetry_space_group_name_H-M   'P 1'
_cell_length_a   4.51747500
_cell_length_b   11.10769749
_cell_length_c   14.21059400
_cell_angle_alpha   89.99990199
_cell_angle_beta   90.00000000
_cell_angle_gamma   78.26437222
_symmetry_Int_Tables_number   1
_chemical_formula_structural   Yb5Cd2Sb5Cl
_chemical_formula_sum   'Yb10 Cd4 Sb10 Cl2'
_cell_volume   698.16414561
_cell_formula_units_Z   2
loop_
 _symmetry_equiv_pos_site_id
 _symmetry_equiv_pos_as_xyz
  1  'x, y, z'
loop_
 _atom_site_type_symbol
 _atom_site_label
 _atom_site_symmetry_multiplicity
 _atom_site_fract_x
 _atom_site_fract_y
 _atom_site_fract_z
 _atom_site_occupancy
  Yb  Yb0  1  0.000000  0.000000  0.000000  1
  Yb  Yb1  1  0.738797  0.522103  0.112584  1
  Yb  Yb2  1  0.901438  0.197176  0.250000  1
  Yb  Yb3  1  0.084818  0.830584  0.250000  1
  Yb  Yb4  1  0.738798  0.522103  0.387416  1
  Yb  Yb5  1  0.000000  0.000000  0.500000  1
  Yb  Yb6  1  0.261202  0.477897  0.612584  1
  Yb  Yb7  1  0.915181  0.169416  0.750000  1
  Yb  Yb8  1  0.098561  0.802824  0.750000  1
  Yb  Yb9  1  0.261202  0.477897  0.887416  1
  Cd  Cd10  1  0.368742  0.262843  0.084048  1
  Cd  Cd11  1  0.368742  0.262843  0.415952  1
  Cd  Cd12  1  0.631257  0.737156  0.584048  1
  Cd  Cd13  1  0.631257  0.737156  0.915952  1
  Sb  Sb14  1  0.147786  0.703838  0.033869  1
  Sb  Sb15  1  0.494390  0.011178  0.149156  1
  Sb  Sb16  1  0.292607  0.414538  0.250000  1
  Sb  Sb17  1  0.494390  0.011178  0.350844  1
  Sb  Sb18  1  0.147786  0.703839  0.466127  1
  Sb  Sb19  1  0.852213  0.296161  0.533873  1
  Sb  Sb20  1  0.505609  0.988822  0.649156  1
  Sb  Sb21  1  0.707392  0.585461  0.750000  1
  Sb  Sb22  1  0.505609  0.988822  0.850844  1
  Sb  Sb23  1  0.852212  0.296162  0.966131  1
  Cl  Cl24  1  0.652400  0.695567  0.250000  1
  Cl  Cl25  1  0.347598  0.304433  0.750000  1
