# generated using pymatgen
data_Sc12Ni(RhI8)2
_symmetry_space_group_name_H-M   'P 1'
_cell_length_a   9.00092028
_cell_length_b   12.16494693
_cell_length_c   12.82251718
_cell_angle_alpha   117.00211473
_cell_angle_beta   100.87383756
_cell_angle_gamma   100.28457835
_symmetry_Int_Tables_number   1
_chemical_formula_structural   Sc12Ni(RhI8)2
_chemical_formula_sum   'Sc12 Ni1 Rh2 I16'
_cell_volume   1171.16372483
_cell_formula_units_Z   1
loop_
 _symmetry_equiv_pos_site_id
 _symmetry_equiv_pos_as_xyz
  1  'x, y, z'
loop_
 _atom_site_type_symbol
 _atom_site_label
 _atom_site_symmetry_multiplicity
 _atom_site_fract_x
 _atom_site_fract_y
 _atom_site_fract_z
 _atom_site_occupancy
  Sc  Sc0  1  0.091875  0.279705  0.365124  1
  Sc  Sc1  1  0.908645  0.721669  0.635710  1
  Sc  Sc2  1  0.783179  0.535011  0.335273  1
  Sc  Sc3  1  0.216618  0.465236  0.663635  1
  Sc  Sc4  1  0.271012  0.720732  0.634604  1
  Sc  Sc5  1  0.728368  0.277856  0.364511  1
  Sc  Sc6  1  0.146057  0.535170  0.336047  1
  Sc  Sc7  1  0.854186  0.464607  0.665064  1
  Sc  Sc8  1  0.411126  0.366789  0.285129  1
  Sc  Sc9  1  0.590561  0.633207  0.714874  1
  Sc  Sc10  1  0.461765  0.317143  0.521120  1
  Sc  Sc11  1  0.539480  0.682854  0.478890  1
  Ni  Ni12  1  0.340730  0.500057  0.499826  1
  Rh  Rh13  1  0.003121  0.500019  0.499990  1
  Rh  Rh14  1  0.657378  0.499834  0.500099  1
  I  I15  1  0.389862  0.732368  0.874239  1
  I  I16  1  0.609422  0.266691  0.124227  1
  I  I17  1  0.184243  0.953282  0.776664  1
  I  I18  1  0.817297  0.046735  0.223325  1
  I  I19  1  0.339335  0.106980  0.260479  1
  I  I20  1  0.657232  0.892996  0.739502  1
  I  I21  1  0.560851  0.436650  0.791924  1
  I  I22  1  0.435915  0.563383  0.208115  1
  I  I23  1  0.300977  0.820053  0.462915  1
  I  I24  1  0.698570  0.178765  0.537264  1
  I  I25  1  0.165580  0.180605  0.536758  1
  I  I26  1  0.834423  0.820599  0.463120  1
  I  I27  1  0.927546  0.572754  0.164070  1
  I  I28  1  0.074104  0.427279  0.835935  1
  I  I29  1  0.923304  0.732846  0.875918  1
  I  I30  1  0.077239  0.268126  0.125648  1
