# generated using pymatgen
data_Y6Th2Mg2IrRu
_symmetry_space_group_name_H-M   'P 1'
_cell_length_a   9.82363228
_cell_length_b   9.82363204
_cell_length_c   9.84892200
_cell_angle_alpha   59.91480293
_cell_angle_beta   59.91480374
_cell_angle_gamma   59.87807973
_symmetry_Int_Tables_number   1
_chemical_formula_structural   Y6Th2Mg2IrRu
_chemical_formula_sum   'Y12 Th4 Mg4 Ir2 Ru2'
_cell_volume   670.58940923
_cell_formula_units_Z   2
loop_
 _symmetry_equiv_pos_site_id
 _symmetry_equiv_pos_as_xyz
  1  'x, y, z'
loop_
 _atom_site_type_symbol
 _atom_site_label
 _atom_site_symmetry_multiplicity
 _atom_site_fract_x
 _atom_site_fract_y
 _atom_site_fract_z
 _atom_site_occupancy
  Y  Y0  1  0.063525  0.436971  0.438031  1
  Y  Y1  1  0.436971  0.063525  0.061474  1
  Y  Y2  1  0.436971  0.063525  0.438031  1
  Y  Y3  1  0.063525  0.436971  0.061474  1
  Y  Y4  1  0.437462  0.437462  0.062538  1
  Y  Y5  1  0.062611  0.062611  0.437389  1
  Y  Y6  1  0.185756  0.813310  0.815489  1
  Y  Y7  1  0.813310  0.185756  0.185445  1
  Y  Y8  1  0.813310  0.185756  0.815489  1
  Y  Y9  1  0.185756  0.813310  0.185445  1
  Y  Y10  1  0.813541  0.813541  0.186459  1
  Y  Y11  1  0.184976  0.184976  0.815024  1
  Th  Th12  1  0.595814  0.595814  0.599100  1
  Th  Th13  1  0.595814  0.595814  0.209270  1
  Th  Th14  1  0.594773  0.210867  0.597180  1
  Th  Th15  1  0.210867  0.594773  0.597180  1
  Mg  Mg16  1  0.828695  0.828695  0.831661  1
  Mg  Mg17  1  0.828695  0.828695  0.510948  1
  Mg  Mg18  1  0.828684  0.508670  0.831323  1
  Mg  Mg19  1  0.508670  0.828684  0.831323  1
  Ir  Ir20  1  0.394728  0.822049  0.391611  1
  Ir  Ir21  1  0.822049  0.394728  0.391611  1
  Ru  Ru22  1  0.396748  0.396748  0.392934  1
  Ru  Ru23  1  0.396748  0.396748  0.813569  1
