# generated using pymatgen
data_Ho12Tc2PdRu
_symmetry_space_group_name_H-M   'P 1'
_cell_length_a   6.29087614
_cell_length_b   7.34689273
_cell_length_c   9.16243200
_cell_angle_alpha   90.00000000
_cell_angle_beta   90.00000000
_cell_angle_gamma   90.24801463
_symmetry_Int_Tables_number   1
_chemical_formula_structural   Ho12Tc2PdRu
_chemical_formula_sum   'Ho12 Tc2 Pd1 Ru1'
_cell_volume   423.46890843
_cell_formula_units_Z   1
loop_
 _symmetry_equiv_pos_site_id
 _symmetry_equiv_pos_as_xyz
  1  'x, y, z'
loop_
 _atom_site_type_symbol
 _atom_site_label
 _atom_site_symmetry_multiplicity
 _atom_site_fract_x
 _atom_site_fract_y
 _atom_site_fract_z
 _atom_site_occupancy
  Ho  Ho0  1  0.337910  0.672653  0.060105  1
  Ho  Ho1  1  0.166498  0.184144  0.442325  1
  Ho  Ho2  1  0.667499  0.321749  0.564118  1
  Ho  Ho3  1  0.827496  0.822001  0.931374  1
  Ho  Ho4  1  0.667499  0.321749  0.935882  1
  Ho  Ho5  1  0.827496  0.822001  0.568626  1
  Ho  Ho6  1  0.337910  0.672653  0.439895  1
  Ho  Ho7  1  0.166498  0.184144  0.057675  1
  Ho  Ho8  1  0.869529  0.531595  0.250000  1
  Ho  Ho9  1  0.625410  0.043107  0.250000  1
  Ho  Ho10  1  0.131219  0.461807  0.750000  1
  Ho  Ho11  1  0.369513  0.959820  0.750000  1
  Tc  Tc12  1  0.457862  0.386934  0.250000  1
  Tc  Tc13  1  0.964820  0.112486  0.750000  1
  Pd  Pd14  1  0.044926  0.886688  0.250000  1
  Ru  Ru15  1  0.537914  0.616468  0.750000  1
