# generated using pymatgen
data_ErTm7Tc3B24Os
_symmetry_space_group_name_H-M   'P 1'
_cell_length_a   3.63729400
_cell_length_b   9.09325660
_cell_length_c   11.46376800
_cell_angle_alpha   89.95036010
_cell_angle_beta   90.00000000
_cell_angle_gamma   90.00000000
_symmetry_Int_Tables_number   1
_chemical_formula_structural   ErTm7Tc3B24Os
_chemical_formula_sum   'Er1 Tm7 Tc3 B24 Os1'
_cell_volume   379.16223809
_cell_formula_units_Z   1
loop_
 _symmetry_equiv_pos_site_id
 _symmetry_equiv_pos_as_xyz
  1  'x, y, z'
loop_
 _atom_site_type_symbol
 _atom_site_label
 _atom_site_symmetry_multiplicity
 _atom_site_fract_x
 _atom_site_fract_y
 _atom_site_fract_z
 _atom_site_occupancy
  Er  Er0  1  0.000000  0.323392  0.413633  1
  Tm  Tm1  1  0.000000  0.675679  0.584191  1
  Tm  Tm2  1  0.000000  0.822486  0.087439  1
  Tm  Tm3  1  0.000000  0.178502  0.914562  1
  Tm  Tm4  1  0.000000  0.942544  0.370354  1
  Tm  Tm5  1  0.000000  0.058046  0.629705  1
  Tm  Tm6  1  0.000000  0.443059  0.129812  1
  Tm  Tm7  1  0.000000  0.556835  0.869864  1
  Tc  Tc8  1  0.000000  0.638799  0.320366  1
  Tc  Tc9  1  0.000000  0.361436  0.680200  1
  Tc  Tc10  1  0.000000  0.138062  0.178346  1
  B  B11  1  0.500000  0.553116  0.433285  1
  B  B12  1  0.500000  0.447054  0.566608  1
  B  B13  1  0.500000  0.052940  0.066534  1
  B  B14  1  0.500000  0.946443  0.933350  1
  B  B15  1  0.500000  0.749276  0.419242  1
  B  B16  1  0.500000  0.250395  0.581009  1
  B  B17  1  0.500000  0.249790  0.080808  1
  B  B18  1  0.500000  0.750679  0.918954  1
  B  B19  1  0.500000  0.792302  0.265297  1
  B  B20  1  0.500000  0.207899  0.735331  1
  B  B21  1  0.500000  0.292131  0.234781  1
  B  B22  1  0.500000  0.708521  0.765022  1
  B  B23  1  0.500000  0.630855  0.184993  1
  B  B24  1  0.500000  0.369111  0.815503  1
  B  B25  1  0.500000  0.130194  0.314592  1
  B  B26  1  0.500000  0.869145  0.685147  1
  B  B27  1  0.500000  0.981015  0.211872  1
  B  B28  1  0.500000  0.017818  0.788136  1
  B  B29  1  0.500000  0.481490  0.287836  1
  B  B30  1  0.500000  0.518548  0.711908  1
  B  B31  1  0.500000  0.601532  0.028001  1
  B  B32  1  0.500000  0.399566  0.971883  1
  B  B33  1  0.500000  0.100911  0.472002  1
  B  B34  1  0.500000  0.898807  0.528479  1
  Os  Os35  1  0.000000  0.861622  0.820957  1
