# generated using pymatgen
data_Ca2Nd3Sn15Ir8
_symmetry_space_group_name_H-M   'P 1'
_cell_length_a   4.46452200
_cell_length_b   7.40015386
_cell_length_c   18.80479654
_cell_angle_alpha   89.95514984
_cell_angle_beta   90.00000000
_cell_angle_gamma   90.00000000
_symmetry_Int_Tables_number   1
_chemical_formula_structural   Ca2Nd3Sn15Ir8
_chemical_formula_sum   'Ca2 Nd3 Sn15 Ir8'
_cell_volume   621.27549326
_cell_formula_units_Z   1
loop_
 _symmetry_equiv_pos_site_id
 _symmetry_equiv_pos_as_xyz
  1  'x, y, z'
loop_
 _atom_site_type_symbol
 _atom_site_label
 _atom_site_symmetry_multiplicity
 _atom_site_fract_x
 _atom_site_fract_y
 _atom_site_fract_z
 _atom_site_occupancy
  Ca  Ca0  1  0.500000  0.005739  0.855920  1
  Ca  Ca1  1  0.500000  0.494729  0.356977  1
  Nd  Nd2  1  0.000000  0.997217  0.145415  1
  Nd  Nd3  1  0.000000  0.502129  0.641637  1
  Nd  Nd4  1  0.500000  0.492772  0.930152  1
  Sn  Sn5  1  0.000000  0.722245  0.805501  1
  Sn  Sn6  1  0.000000  0.774829  0.308017  1
  Sn  Sn7  1  0.500000  0.276919  0.194010  1
  Sn  Sn8  1  0.500000  0.218244  0.692757  1
  Sn  Sn9  1  0.000000  0.857486  0.968785  1
  Sn  Sn10  1  0.000000  0.629951  0.465488  1
  Sn  Sn11  1  0.500000  0.131455  0.032994  1
  Sn  Sn12  1  0.500000  0.369284  0.531164  1
  Sn  Sn13  1  0.000000  0.302590  0.818682  1
  Sn  Sn14  1  0.000000  0.202000  0.318597  1
  Sn  Sn15  1  0.500000  0.697784  0.187592  1
  Sn  Sn16  1  0.500000  0.806851  0.679298  1
  Sn  Sn17  1  0.500000  0.020300  0.432789  1
  Sn  Sn18  1  0.000000  0.514960  0.067181  1
  Sn  Sn19  1  0.000000  0.980036  0.567346  1
  Ir  Ir20  1  0.000000  0.230199  0.964344  1
  Ir  Ir21  1  0.000000  0.247789  0.464059  1
  Ir  Ir22  1  0.500000  0.763895  0.046916  1
  Ir  Ir23  1  0.500000  0.751944  0.534507  1
  Ir  Ir24  1  0.000000  0.018963  0.715632  1
  Ir  Ir25  1  0.000000  0.483209  0.214518  1
  Ir  Ir26  1  0.500000  0.986817  0.287199  1
  Ir  Ir27  1  0.500000  0.519661  0.772523  1
