# generated using pymatgen
data_Ho15Er5Ir7Ru5
_symmetry_space_group_name_H-M   'P 1'
_cell_length_a   10.78481646
_cell_length_b   10.78448445
_cell_length_c   6.38526803
_cell_angle_alpha   89.97786486
_cell_angle_beta   89.97284097
_cell_angle_gamma   90.08621706
_symmetry_Int_Tables_number   1
_chemical_formula_structural   Ho15Er5Ir7Ru5
_chemical_formula_sum   'Ho15 Er5 Ir7 Ru5'
_cell_volume   742.66115083
_cell_formula_units_Z   1
loop_
 _symmetry_equiv_pos_site_id
 _symmetry_equiv_pos_as_xyz
  1  'x, y, z'
loop_
 _atom_site_type_symbol
 _atom_site_label
 _atom_site_symmetry_multiplicity
 _atom_site_fract_x
 _atom_site_fract_y
 _atom_site_fract_z
 _atom_site_occupancy
  Ho  Ho0  1  0.293263  0.086103  0.377381  1
  Ho  Ho1  1  0.292662  0.913618  0.877429  1
  Ho  Ho2  1  0.707384  0.086447  0.877643  1
  Ho  Ho3  1  0.707200  0.913949  0.376174  1
  Ho  Ho4  1  0.586145  0.793340  0.877435  1
  Ho  Ho5  1  0.586942  0.206782  0.377541  1
  Ho  Ho6  1  0.413651  0.793141  0.377261  1
  Ho  Ho7  1  0.413551  0.206588  0.876464  1
  Ho  Ho8  1  0.206610  0.413757  0.622583  1
  Ho  Ho9  1  0.206793  0.586236  0.122738  1
  Ho  Ho10  1  0.793355  0.412993  0.122489  1
  Ho  Ho11  1  0.793443  0.586404  0.623560  1
  Ho  Ho12  1  0.913970  0.706639  0.122566  1
  Ho  Ho13  1  0.913630  0.292638  0.622328  1
  Ho  Ho14  1  0.086406  0.707343  0.622545  1
  Er  Er15  1  0.085991  0.292916  0.123603  1
  Er  Er16  1  0.999576  0.001084  0.499633  1
  Er  Er17  1  0.999020  0.000557  0.000320  1
  Er  Er18  1  0.500145  0.500173  0.000418  1
  Er  Er19  1  0.499794  0.499774  0.499561  1
  Ir  Ir20  1  0.847135  0.846842  0.749800  1
  Ir  Ir21  1  0.153058  0.153049  0.750585  1
  Ir  Ir22  1  0.152786  0.847227  0.249990  1
  Ir  Ir23  1  0.651704  0.348331  0.750010  1
  Ir  Ir24  1  0.652772  0.652359  0.249798  1
  Ir  Ir25  1  0.347426  0.347175  0.250101  1
  Ir  Ir26  1  0.347704  0.652283  0.750035  1
  Ru  Ru27  1  0.847955  0.152258  0.249952  1
  Ru  Ru28  1  0.500265  0.000316  0.122390  1
  Ru  Ru29  1  0.499906  0.000077  0.622374  1
  Ru  Ru30  1  0.000047  0.499984  0.877823  1
  Ru  Ru31  1  0.999711  0.499615  0.377472  1
