# generated using pymatgen
data_Mn24Al4Os
_symmetry_space_group_name_H-M   'P 1'
_cell_length_a   7.55184629
_cell_length_b   7.55184677
_cell_length_c   7.55184600
_cell_angle_alpha   109.47121858
_cell_angle_beta   109.47121985
_cell_angle_gamma   109.47122394
_symmetry_Int_Tables_number   1
_chemical_formula_structural   Mn24Al4Os
_chemical_formula_sum   'Mn24 Al4 Os1'
_cell_volume   331.54122896
_cell_formula_units_Z   1
loop_
 _symmetry_equiv_pos_site_id
 _symmetry_equiv_pos_as_xyz
  1  'x, y, z'
loop_
 _atom_site_type_symbol
 _atom_site_label
 _atom_site_symmetry_multiplicity
 _atom_site_fract_x
 _atom_site_fract_y
 _atom_site_fract_z
 _atom_site_occupancy
  Mn  Mn0  1  0.385243  0.673128  0.000000  1
  Mn  Mn1  1  0.712114  0.326872  0.326872  1
  Mn  Mn2  1  0.385243  0.000000  0.673128  1
  Mn  Mn3  1  0.673128  0.385243  0.000000  1
  Mn  Mn4  1  0.000000  0.385243  0.673128  1
  Mn  Mn5  1  0.326872  0.712114  0.326872  1
  Mn  Mn6  1  0.326872  0.326872  0.712114  1
  Mn  Mn7  1  0.000000  0.673128  0.385243  1
  Mn  Mn8  1  0.673128  0.000000  0.385243  1
  Mn  Mn9  1  0.614757  0.614757  0.287886  1
  Mn  Mn10  1  0.287886  0.614757  0.614757  1
  Mn  Mn11  1  0.614757  0.287886  0.614757  1
  Mn  Mn12  1  0.374465  0.193454  0.000000  1
  Mn  Mn13  1  0.181012  0.806546  0.806546  1
  Mn  Mn14  1  0.374465  0.000000  0.193454  1
  Mn  Mn15  1  0.193454  0.374465  0.000000  1
  Mn  Mn16  1  0.000000  0.374465  0.193454  1
  Mn  Mn17  1  0.806546  0.181012  0.806546  1
  Mn  Mn18  1  0.806546  0.806546  0.181012  1
  Mn  Mn19  1  0.000000  0.193454  0.374465  1
  Mn  Mn20  1  0.193454  0.000000  0.374465  1
  Mn  Mn21  1  0.625535  0.625535  0.818988  1
  Mn  Mn22  1  0.818988  0.625535  0.625535  1
  Mn  Mn23  1  0.625535  0.818988  0.625535  1
  Al  Al24  1  0.632007  0.000000  0.000000  1
  Al  Al25  1  0.000000  0.632007  0.000000  1
  Al  Al26  1  0.000000  0.000000  0.632007  1
  Al  Al27  1  0.367993  0.367993  0.367993  1
  Os  Os28  1  0.000000  0.000000  0.000000  1
