# generated using pymatgen
data_Y5(Tl2Pd)2
_symmetry_space_group_name_H-M   'P 1'
_cell_length_a   18.41570600
_cell_length_b   8.24401800
_cell_length_c   3.66698000
_cell_angle_alpha   90.00000000
_cell_angle_beta   90.00000000
_cell_angle_gamma   90.00000000
_symmetry_Int_Tables_number   1
_chemical_formula_structural   Y5(Tl2Pd)2
_chemical_formula_sum   'Y10 Tl8 Pd4'
_cell_volume   556.71874649
_cell_formula_units_Z   2
loop_
 _symmetry_equiv_pos_site_id
 _symmetry_equiv_pos_as_xyz
  1  'x, y, z'
loop_
 _atom_site_type_symbol
 _atom_site_label
 _atom_site_symmetry_multiplicity
 _atom_site_fract_x
 _atom_site_fract_y
 _atom_site_fract_z
 _atom_site_occupancy
  Y  Y0  1  0.000000  0.000000  0.000000  1
  Y  Y1  1  0.414938  0.114782  0.000000  1
  Y  Y2  1  0.217203  0.237476  0.000000  1
  Y  Y3  1  0.717203  0.262524  0.000000  1
  Y  Y4  1  0.914938  0.385218  0.000000  1
  Y  Y5  1  0.500000  0.500000  0.000000  1
  Y  Y6  1  0.085062  0.614782  0.000000  1
  Y  Y7  1  0.282797  0.737476  0.000000  1
  Y  Y8  1  0.782796  0.762523  0.000000  1
  Y  Y9  1  0.585062  0.885219  0.000000  1
  Tl  Tl10  1  0.850105  0.087105  0.500000  1
  Tl  Tl11  1  0.565093  0.206720  0.500000  1
  Tl  Tl12  1  0.065093  0.293281  0.500000  1
  Tl  Tl13  1  0.350105  0.412896  0.500000  1
  Tl  Tl14  1  0.649895  0.587105  0.500000  1
  Tl  Tl15  1  0.934907  0.706719  0.500000  1
  Tl  Tl16  1  0.434907  0.793282  0.500000  1
  Tl  Tl17  1  0.149896  0.912896  0.500000  1
  Pd  Pd18  1  0.303071  0.022752  0.500000  1
  Pd  Pd19  1  0.803071  0.477248  0.500000  1
  Pd  Pd20  1  0.196929  0.522753  0.500000  1
  Pd  Pd21  1  0.696929  0.977247  0.500000  1
