# generated using pymatgen
data_Er4MgUIr6
_symmetry_space_group_name_H-M   'P 1'
_cell_length_a   5.60361700
_cell_length_b   5.60361580
_cell_length_c   8.19693700
_cell_angle_alpha   90.00000000
_cell_angle_beta   90.00000000
_cell_angle_gamma   120.00001299
_symmetry_Int_Tables_number   1
_chemical_formula_structural   Er4MgUIr6
_chemical_formula_sum   'Er4 Mg1 U1 Ir6'
_cell_volume   222.90456734
_cell_formula_units_Z   1
loop_
 _symmetry_equiv_pos_site_id
 _symmetry_equiv_pos_as_xyz
  1  'x, y, z'
loop_
 _atom_site_type_symbol
 _atom_site_label
 _atom_site_symmetry_multiplicity
 _atom_site_fract_x
 _atom_site_fract_y
 _atom_site_fract_z
 _atom_site_occupancy
  Er  Er0  1  0.333333  0.666667  0.052358  1
  Er  Er1  1  0.666667  0.333333  0.947642  1
  Er  Er2  1  0.333333  0.666667  0.425283  1
  Er  Er3  1  0.666667  0.333333  0.574717  1
  Mg  Mg4  1  0.000000  0.000000  0.000000  1
  U  U5  1  0.000000  0.000000  0.500000  1
  Ir  Ir6  1  0.828247  0.656496  0.256017  1
  Ir  Ir7  1  0.171753  0.343504  0.743983  1
  Ir  Ir8  1  0.343504  0.171753  0.256017  1
  Ir  Ir9  1  0.171753  0.828247  0.743983  1
  Ir  Ir10  1  0.656496  0.828247  0.743983  1
  Ir  Ir11  1  0.828247  0.171753  0.256017  1
