# generated using pymatgen
data_SbPdI18
_symmetry_space_group_name_H-M   'P 1'
_cell_length_a   10.27164918
_cell_length_b   10.27165045
_cell_length_c   10.27164944
_cell_angle_alpha   94.02534151
_cell_angle_beta   94.02533260
_cell_angle_gamma   94.02534199
_symmetry_Int_Tables_number   1
_chemical_formula_structural   SbPdI18
_chemical_formula_sum   'Sb1 Pd1 I18'
_cell_volume   1075.31074163
_cell_formula_units_Z   1
loop_
 _symmetry_equiv_pos_site_id
 _symmetry_equiv_pos_as_xyz
  1  'x, y, z'
loop_
 _atom_site_type_symbol
 _atom_site_label
 _atom_site_symmetry_multiplicity
 _atom_site_fract_x
 _atom_site_fract_y
 _atom_site_fract_z
 _atom_site_occupancy
  Sb  Sb0  1  0.000000  0.000000  0.000000  1
  Pd  Pd1  1  0.500000  0.500000  0.500000  1
  I  I2  1  0.702903  0.967376  0.023674  1
  I  I3  1  0.725748  0.135049  0.597766  1
  I  I4  1  0.023674  0.702903  0.967376  1
  I  I5  1  0.274252  0.864951  0.402234  1
  I  I6  1  0.135049  0.597766  0.725748  1
  I  I7  1  0.032624  0.976326  0.297097  1
  I  I8  1  0.597766  0.725748  0.135049  1
  I  I9  1  0.976326  0.297097  0.032624  1
  I  I10  1  0.864951  0.402234  0.274252  1
  I  I11  1  0.402234  0.274252  0.864951  1
  I  I12  1  0.967376  0.023674  0.702903  1
  I  I13  1  0.297097  0.032624  0.976326  1
  I  I14  1  0.771784  0.530881  0.506057  1
  I  I15  1  0.493943  0.228216  0.469119  1
  I  I16  1  0.469119  0.493943  0.228216  1
  I  I17  1  0.506057  0.771784  0.530881  1
  I  I18  1  0.530881  0.506057  0.771784  1
  I  I19  1  0.228216  0.469119  0.493943  1
