# generated using pymatgen
data_Yb3SmHo4(B6Ru)4
_symmetry_space_group_name_H-M   'P 1'
_cell_length_a   3.66330900
_cell_length_b   9.14732645
_cell_length_c   11.54528100
_cell_angle_alpha   89.92271440
_cell_angle_beta   90.00000000
_cell_angle_gamma   90.00000000
_symmetry_Int_Tables_number   1
_chemical_formula_structural   Yb3SmHo4(B6Ru)4
_chemical_formula_sum   'Yb3 Sm1 Ho4 B24 Ru4'
_cell_volume   386.87604902
_cell_formula_units_Z   1
loop_
 _symmetry_equiv_pos_site_id
 _symmetry_equiv_pos_as_xyz
  1  'x, y, z'
loop_
 _atom_site_type_symbol
 _atom_site_label
 _atom_site_symmetry_multiplicity
 _atom_site_fract_x
 _atom_site_fract_y
 _atom_site_fract_z
 _atom_site_occupancy
  Yb  Yb0  1  0.000000  0.325156  0.414722  1
  Yb  Yb1  1  0.000000  0.674956  0.584376  1
  Yb  Yb2  1  0.000000  0.823520  0.086185  1
  Sm  Sm3  1  0.000000  0.175858  0.915155  1
  Ho  Ho4  1  0.000000  0.940434  0.366426  1
  Ho  Ho5  1  0.000000  0.058290  0.631295  1
  Ho  Ho6  1  0.000000  0.442975  0.134046  1
  Ho  Ho7  1  0.000000  0.559300  0.867222  1
  B  B8  1  0.500000  0.553625  0.432828  1
  B  B9  1  0.500000  0.446269  0.567552  1
  B  B10  1  0.500000  0.053445  0.068430  1
  B  B11  1  0.500000  0.944500  0.932750  1
  B  B12  1  0.500000  0.748003  0.417311  1
  B  B13  1  0.500000  0.251929  0.582287  1
  B  B14  1  0.500000  0.248855  0.083951  1
  B  B15  1  0.500000  0.751601  0.917605  1
  B  B16  1  0.500000  0.790137  0.264542  1
  B  B17  1  0.500000  0.209987  0.734518  1
  B  B18  1  0.500000  0.290533  0.235932  1
  B  B19  1  0.500000  0.710225  0.764428  1
  B  B20  1  0.500000  0.630802  0.186253  1
  B  B21  1  0.500000  0.370306  0.813826  1
  B  B22  1  0.500000  0.130540  0.313910  1
  B  B23  1  0.500000  0.869178  0.685012  1
  B  B24  1  0.500000  0.983136  0.210924  1
  B  B25  1  0.500000  0.015136  0.788089  1
  B  B26  1  0.500000  0.484055  0.289849  1
  B  B27  1  0.500000  0.516500  0.710765  1
  B  B28  1  0.500000  0.598629  0.027380  1
  B  B29  1  0.500000  0.402908  0.973420  1
  B  B30  1  0.500000  0.096548  0.472583  1
  B  B31  1  0.500000  0.902746  0.526132  1
  Ru  Ru32  1  0.000000  0.639074  0.320146  1
  Ru  Ru33  1  0.000000  0.360484  0.680410  1
  Ru  Ru34  1  0.000000  0.138634  0.180250  1
  Ru  Ru35  1  0.000000  0.861725  0.819485  1
