# generated using pymatgen
data_Rb2Np(AgS2)2
_symmetry_space_group_name_H-M   'P 1'
_cell_length_a   7.73727192
_cell_length_b   7.73727256
_cell_length_c   7.91461000
_cell_angle_alpha   71.08517745
_cell_angle_beta   71.08517583
_cell_angle_gamma   30.98193487
_symmetry_Int_Tables_number   1
_chemical_formula_structural   Rb2Np(AgS2)2
_chemical_formula_sum   'Rb2 Np1 Ag2 S4'
_cell_volume   229.68943214
_cell_formula_units_Z   1
loop_
 _symmetry_equiv_pos_site_id
 _symmetry_equiv_pos_as_xyz
  1  'x, y, z'
loop_
 _atom_site_type_symbol
 _atom_site_label
 _atom_site_symmetry_multiplicity
 _atom_site_fract_x
 _atom_site_fract_y
 _atom_site_fract_z
 _atom_site_occupancy
  Rb  Rb0  1  0.864407  0.864407  0.566226  1
  Rb  Rb1  1  0.135593  0.135593  0.433774  1
  Np  Np2  1  0.000000  0.000000  0.000000  1
  Ag  Ag3  1  0.320547  0.320547  0.984236  1
  Ag  Ag4  1  0.679453  0.679453  0.015764  1
  S  S5  1  0.809771  0.809770  0.187008  1
  S  S6  1  0.190229  0.190230  0.812992  1
  S  S7  1  0.490379  0.490379  0.774772  1
  S  S8  1  0.509621  0.509621  0.225228  1
