# generated using pymatgen
data_Tb2DyAl3GaCu2
_symmetry_space_group_name_H-M   'P 1'
_cell_length_a   6.98586803
_cell_length_b   6.98388985
_cell_length_c   4.18146000
_cell_angle_alpha   90.00000000
_cell_angle_beta   90.00000000
_cell_angle_gamma   120.01946393
_symmetry_Int_Tables_number   1
_chemical_formula_structural   Tb2DyAl3GaCu2
_chemical_formula_sum   'Tb2 Dy1 Al3 Ga1 Cu2'
_cell_volume   176.64084111
_cell_formula_units_Z   1
loop_
 _symmetry_equiv_pos_site_id
 _symmetry_equiv_pos_as_xyz
  1  'x, y, z'
loop_
 _atom_site_type_symbol
 _atom_site_label
 _atom_site_symmetry_multiplicity
 _atom_site_fract_x
 _atom_site_fract_y
 _atom_site_fract_z
 _atom_site_occupancy
  Tb  Tb0  1  0.996105  0.412050  0.500000  1
  Tb  Tb1  1  0.588061  0.584148  0.500000  1
  Dy  Dy2  1  0.415661  0.003821  0.500000  1
  Al  Al3  1  0.992428  0.759996  0.000000  1
  Al  Al4  1  0.240079  0.232325  0.000000  1
  Al  Al5  1  0.767476  0.007642  0.000000  1
  Ga  Ga6  1  0.333483  0.666983  0.000000  1
  Cu  Cu7  1  0.666442  0.332998  0.000000  1
  Cu  Cu8  1  0.000264  0.000036  0.500000  1
