# generated using pymatgen
data_PrGd(NbSe2)6
_symmetry_space_group_name_H-M   'P 1'
_cell_length_a   6.10823500
_cell_length_b   6.10823553
_cell_length_c   14.99851400
_cell_angle_alpha   90.00000000
_cell_angle_beta   90.00000000
_cell_angle_gamma   120.00000257
_symmetry_Int_Tables_number   1
_chemical_formula_structural   PrGd(NbSe2)6
_chemical_formula_sum   'Pr1 Gd1 Nb6 Se12'
_cell_volume   484.63007835
_cell_formula_units_Z   1
loop_
 _symmetry_equiv_pos_site_id
 _symmetry_equiv_pos_as_xyz
  1  'x, y, z'
loop_
 _atom_site_type_symbol
 _atom_site_label
 _atom_site_symmetry_multiplicity
 _atom_site_fract_x
 _atom_site_fract_y
 _atom_site_fract_z
 _atom_site_occupancy
  Pr  Pr0  1  0.333333  0.666667  0.250000  1
  Gd  Gd1  1  0.666667  0.333333  0.750000  1
  Nb  Nb2  1  0.333333  0.666667  0.999740  1
  Nb  Nb3  1  0.000000  0.000000  0.997570  1
  Nb  Nb4  1  0.666667  0.333333  0.996583  1
  Nb  Nb5  1  0.333333  0.666667  0.500260  1
  Nb  Nb6  1  0.000000  0.000000  0.502430  1
  Nb  Nb7  1  0.666667  0.333333  0.503417  1
  Se  Se8  1  0.674024  0.666361  0.390669  1
  Se  Se9  1  0.665040  0.670791  0.613825  1
  Se  Se10  1  0.005751  0.670791  0.886175  1
  Se  Se11  1  0.665040  0.994249  0.886175  1
  Se  Se12  1  0.674024  0.007663  0.109331  1
  Se  Se13  1  0.333639  0.007663  0.390669  1
  Se  Se14  1  0.005751  0.334960  0.613825  1
  Se  Se15  1  0.329209  0.994249  0.613825  1
  Se  Se16  1  0.992337  0.666361  0.109331  1
  Se  Se17  1  0.329209  0.334960  0.886175  1
  Se  Se18  1  0.992337  0.325976  0.390669  1
  Se  Se19  1  0.333639  0.325976  0.109331  1
