# generated using pymatgen
data_ErFe3P3Ir2
_symmetry_space_group_name_H-M   'P 1'
_cell_length_a   3.78883500
_cell_length_b   10.23564700
_cell_length_c   12.17863500
_cell_angle_alpha   90.00000000
_cell_angle_beta   90.00000000
_cell_angle_gamma   90.00000000
_symmetry_Int_Tables_number   1
_chemical_formula_structural   ErFe3P3Ir2
_chemical_formula_sum   'Er4 Fe12 P12 Ir8'
_cell_volume   472.30180688
_cell_formula_units_Z   4
loop_
 _symmetry_equiv_pos_site_id
 _symmetry_equiv_pos_as_xyz
  1  'x, y, z'
loop_
 _atom_site_type_symbol
 _atom_site_label
 _atom_site_symmetry_multiplicity
 _atom_site_fract_x
 _atom_site_fract_y
 _atom_site_fract_z
 _atom_site_occupancy
  Er  Er0  1  0.250000  0.581038  0.713189  1
  Er  Er1  1  0.250000  0.918962  0.213189  1
  Er  Er2  1  0.750000  0.418962  0.286811  1
  Er  Er3  1  0.750000  0.081038  0.786811  1
  Fe  Fe4  1  0.250000  0.222992  0.170528  1
  Fe  Fe5  1  0.250000  0.277008  0.670528  1
  Fe  Fe6  1  0.750000  0.777008  0.829472  1
  Fe  Fe7  1  0.750000  0.722992  0.329472  1
  Fe  Fe8  1  0.250000  0.877503  0.695676  1
  Fe  Fe9  1  0.250000  0.622497  0.195676  1
  Fe  Fe10  1  0.750000  0.122497  0.304324  1
  Fe  Fe11  1  0.750000  0.377503  0.804324  1
  Fe  Fe12  1  0.250000  0.458056  0.937111  1
  Fe  Fe13  1  0.250000  0.041944  0.437111  1
  Fe  Fe14  1  0.750000  0.541944  0.062889  1
  Fe  Fe15  1  0.750000  0.958056  0.562889  1
  P  P16  1  0.250000  0.428388  0.113709  1
  P  P17  1  0.250000  0.071612  0.613709  1
  P  P18  1  0.750000  0.571612  0.886291  1
  P  P19  1  0.750000  0.928388  0.386291  1
  P  P20  1  0.250000  0.272733  0.851806  1
  P  P21  1  0.250000  0.227267  0.351806  1
  P  P22  1  0.750000  0.727267  0.148194  1
  P  P23  1  0.750000  0.772733  0.648194  1
  P  P24  1  0.250000  0.603796  0.374881  1
  P  P25  1  0.250000  0.896204  0.874881  1
  P  P26  1  0.750000  0.396204  0.625119  1
  P  P27  1  0.750000  0.103796  0.125119  1
  Ir  Ir28  1  0.250000  0.709555  0.983951  1
  Ir  Ir29  1  0.250000  0.790445  0.483951  1
  Ir  Ir30  1  0.750000  0.290445  0.016049  1
  Ir  Ir31  1  0.750000  0.209555  0.516049  1
  Ir  Ir32  1  0.250000  0.405263  0.475495  1
  Ir  Ir33  1  0.250000  0.094738  0.975495  1
  Ir  Ir34  1  0.750000  0.594737  0.524505  1
  Ir  Ir35  1  0.750000  0.905263  0.024505  1
