# generated using pymatgen
data_Ce2Er10Tc3Os
_symmetry_space_group_name_H-M   'P 1'
_cell_length_a   6.28696877
_cell_length_b   7.30560783
_cell_length_c   9.17660200
_cell_angle_alpha   90.00000000
_cell_angle_beta   90.00000000
_cell_angle_gamma   91.92967705
_symmetry_Int_Tables_number   1
_chemical_formula_structural   Ce2Er10Tc3Os
_chemical_formula_sum   'Ce2 Er10 Tc3 Os1'
_cell_volume   421.24348785
_cell_formula_units_Z   1
loop_
 _symmetry_equiv_pos_site_id
 _symmetry_equiv_pos_as_xyz
  1  'x, y, z'
loop_
 _atom_site_type_symbol
 _atom_site_label
 _atom_site_symmetry_multiplicity
 _atom_site_fract_x
 _atom_site_fract_y
 _atom_site_fract_z
 _atom_site_occupancy
  Ce  Ce0  1  0.856441  0.559181  0.250000  1
  Ce  Ce1  1  0.136804  0.437912  0.750000  1
  Er  Er2  1  0.334522  0.675171  0.061177  1
  Er  Er3  1  0.162559  0.175544  0.432971  1
  Er  Er4  1  0.662936  0.325658  0.562269  1
  Er  Er5  1  0.833332  0.821290  0.932822  1
  Er  Er6  1  0.662936  0.325658  0.937731  1
  Er  Er7  1  0.833332  0.821290  0.567178  1
  Er  Er8  1  0.334522  0.675171  0.438823  1
  Er  Er9  1  0.162559  0.175544  0.067029  1
  Er  Er10  1  0.625239  0.037115  0.250000  1
  Er  Er11  1  0.373255  0.961932  0.750000  1
  Tc  Tc12  1  0.019431  0.861208  0.250000  1
  Tc  Tc13  1  0.499963  0.389459  0.250000  1
  Tc  Tc14  1  0.978874  0.141873  0.750000  1
  Os  Os15  1  0.523296  0.615992  0.750000  1
