# generated using pymatgen
data_HoEr7(Lu3Pt4)4
_symmetry_space_group_name_H-M   'P 1'
_cell_length_a   7.37790503
_cell_length_b   7.46452903
_cell_length_c   14.48237900
_cell_angle_alpha   90.00077138
_cell_angle_beta   90.00259056
_cell_angle_gamma   90.01014476
_symmetry_Int_Tables_number   1
_chemical_formula_structural   HoEr7(Lu3Pt4)4
_chemical_formula_sum   'Ho1 Er7 Lu12 Pt16'
_cell_volume   797.58205383
_cell_formula_units_Z   1
loop_
 _symmetry_equiv_pos_site_id
 _symmetry_equiv_pos_as_xyz
  1  'x, y, z'
loop_
 _atom_site_type_symbol
 _atom_site_label
 _atom_site_symmetry_multiplicity
 _atom_site_fract_x
 _atom_site_fract_y
 _atom_site_fract_z
 _atom_site_occupancy
  Ho  Ho0  1  0.500523  0.679304  0.592365  1
  Er  Er1  1  0.000638  0.820584  0.907601  1
  Er  Er2  1  0.499357  0.320584  0.092429  1
  Er  Er3  1  0.999374  0.179385  0.407572  1
  Er  Er4  1  0.499324  0.320475  0.407521  1
  Er  Er5  1  0.999358  0.179419  0.092425  1
  Er  Er6  1  0.500668  0.679398  0.907579  1
  Er  Er7  1  0.000652  0.820633  0.592413  1
  Lu  Lu8  1  0.656682  0.167303  0.622774  1
  Lu  Lu9  1  0.156639  0.332658  0.877259  1
  Lu  Lu10  1  0.343347  0.832668  0.122749  1
  Lu  Lu11  1  0.843380  0.667333  0.377205  1
  Lu  Lu12  1  0.343251  0.832756  0.377161  1
  Lu  Lu13  1  0.843308  0.667286  0.122768  1
  Lu  Lu14  1  0.656664  0.167310  0.877259  1
  Lu  Lu15  1  0.156549  0.332613  0.622799  1
  Lu  Lu16  1  0.819251  0.509899  0.750059  1
  Lu  Lu17  1  0.319166  0.990105  0.750064  1
  Lu  Lu18  1  0.180790  0.490045  0.249991  1
  Lu  Lu19  1  0.680785  0.009924  0.249985  1
  Pt  Pt20  1  0.683578  0.965717  0.458371  1
  Pt  Pt21  1  0.183538  0.534376  0.041502  1
  Pt  Pt22  1  0.316328  0.034602  0.958474  1
  Pt  Pt23  1  0.817171  0.465119  0.541397  1
  Pt  Pt24  1  0.316321  0.035165  0.541402  1
  Pt  Pt25  1  0.816550  0.465616  0.958479  1
  Pt  Pt26  1  0.683559  0.965434  0.041509  1
  Pt  Pt27  1  0.183256  0.534231  0.458331  1
  Pt  Pt28  1  0.454148  0.384946  0.750119  1
  Pt  Pt29  1  0.954267  0.114898  0.749960  1
  Pt  Pt30  1  0.545730  0.614776  0.250065  1
  Pt  Pt31  1  0.045738  0.885153  0.250016  1
  Pt  Pt32  1  0.681872  0.856870  0.750266  1
  Pt  Pt33  1  0.181153  0.643395  0.750104  1
  Pt  Pt34  1  0.318560  0.143440  0.250038  1
  Pt  Pt35  1  0.818526  0.356578  0.249986  1
