# generated using pymatgen
data_Y12AlZnNi4
_symmetry_space_group_name_H-M   'P 1'
_cell_length_a   8.41157435
_cell_length_b   8.41157329
_cell_length_c   8.41157300
_cell_angle_alpha   112.07313980
_cell_angle_beta   109.87898703
_cell_angle_gamma   106.50956303
_symmetry_Int_Tables_number   1
_chemical_formula_structural   Y12AlZnNi4
_chemical_formula_sum   'Y12 Al1 Zn1 Ni4'
_cell_volume   457.06295121
_cell_formula_units_Z   1
loop_
 _symmetry_equiv_pos_site_id
 _symmetry_equiv_pos_as_xyz
  1  'x, y, z'
loop_
 _atom_site_type_symbol
 _atom_site_label
 _atom_site_symmetry_multiplicity
 _atom_site_fract_x
 _atom_site_fract_y
 _atom_site_fract_z
 _atom_site_occupancy
  Y  Y0  1  0.956318  0.264052  0.692266  1
  Y  Y1  1  0.043682  0.735948  0.307734  1
  Y  Y2  1  0.673008  0.863833  0.190825  1
  Y  Y3  1  0.326992  0.517819  0.190825  1
  Y  Y4  1  0.326992  0.136167  0.809175  1
  Y  Y5  1  0.673008  0.482181  0.809175  1
  Y  Y6  1  0.571786  0.264052  0.307734  1
  Y  Y7  1  0.428214  0.735948  0.692266  1
  Y  Y8  1  0.179422  0.784885  0.964308  1
  Y  Y9  1  0.820578  0.784885  0.605464  1
  Y  Y10  1  0.179422  0.215115  0.394536  1
  Y  Y11  1  0.820578  0.215115  0.035692  1
  Al  Al12  1  0.500000  0.000000  0.500000  1
  Zn  Zn13  1  0.000000  0.500000  0.500000  1
  Ni  Ni14  1  0.121748  0.121748  0.000000  1
  Ni  Ni15  1  0.878252  0.878252  0.000000  1
  Ni  Ni16  1  0.656779  0.500000  0.156779  1
  Ni  Ni17  1  0.343221  0.500000  0.843221  1
