# generated using pymatgen
data_Tb2ErGa3(Ni3Sn)3
_symmetry_space_group_name_H-M   'P 1'
_cell_length_a   9.14864600
_cell_length_b   9.14864563
_cell_length_c   4.06680900
_cell_angle_alpha   90.00000000
_cell_angle_beta   90.00000000
_cell_angle_gamma   119.99999409
_symmetry_Int_Tables_number   1
_chemical_formula_structural   Tb2ErGa3(Ni3Sn)3
_chemical_formula_sum   'Tb2 Er1 Ga3 Ni9 Sn3'
_cell_volume   294.78003261
_cell_formula_units_Z   1
loop_
 _symmetry_equiv_pos_site_id
 _symmetry_equiv_pos_as_xyz
  1  'x, y, z'
loop_
 _atom_site_type_symbol
 _atom_site_label
 _atom_site_symmetry_multiplicity
 _atom_site_fract_x
 _atom_site_fract_y
 _atom_site_fract_z
 _atom_site_occupancy
  Tb  Tb0  1  0.666667  0.333333  0.500000  1
  Tb  Tb1  1  0.333333  0.666667  0.500000  1
  Er  Er2  1  0.000000  0.000000  0.000000  1
  Ga  Ga3  1  0.743489  0.743489  0.500000  1
  Ga  Ga4  1  0.256511  0.000000  0.500000  1
  Ga  Ga5  1  0.000000  0.256511  0.500000  1
  Ni  Ni6  1  0.839526  0.204899  0.000000  1
  Ni  Ni7  1  0.795101  0.634627  0.000000  1
  Ni  Ni8  1  0.365373  0.160474  0.000000  1
  Ni  Ni9  1  0.204899  0.839526  0.000000  1
  Ni  Ni10  1  0.634627  0.795101  0.000000  1
  Ni  Ni11  1  0.160474  0.365373  0.000000  1
  Ni  Ni12  1  0.279051  0.279051  0.500000  1
  Ni  Ni13  1  0.720949  0.000000  0.500000  1
  Ni  Ni14  1  0.000000  0.720949  0.500000  1
  Sn  Sn15  1  0.470358  0.470358  0.000000  1
  Sn  Sn16  1  0.529642  0.000000  0.000000  1
  Sn  Sn17  1  0.000000  0.529642  0.000000  1
