# generated using pymatgen
data_Er3Co8Si2TcP4
_symmetry_space_group_name_H-M   'P 1'
_cell_length_a   3.73079600
_cell_length_b   10.54136700
_cell_length_c   12.25296700
_cell_angle_alpha   90.00000000
_cell_angle_beta   90.00000000
_cell_angle_gamma   90.00000000
_symmetry_Int_Tables_number   1
_chemical_formula_structural   Er3Co8Si2TcP4
_chemical_formula_sum   'Er6 Co16 Si4 Tc2 P8'
_cell_volume   481.88088577
_cell_formula_units_Z   2
loop_
 _symmetry_equiv_pos_site_id
 _symmetry_equiv_pos_as_xyz
  1  'x, y, z'
loop_
 _atom_site_type_symbol
 _atom_site_label
 _atom_site_symmetry_multiplicity
 _atom_site_fract_x
 _atom_site_fract_y
 _atom_site_fract_z
 _atom_site_occupancy
  Er  Er0  1  0.750000  0.250000  0.473432  1
  Er  Er1  1  0.250000  0.750000  0.526568  1
  Er  Er2  1  0.250000  0.934244  0.793258  1
  Er  Er3  1  0.250000  0.565756  0.793258  1
  Er  Er4  1  0.750000  0.065756  0.206742  1
  Er  Er5  1  0.750000  0.434244  0.206742  1
  Co  Co6  1  0.250000  0.250000  0.304208  1
  Co  Co7  1  0.750000  0.750000  0.695792  1
  Co  Co8  1  0.750000  0.250000  0.012300  1
  Co  Co9  1  0.250000  0.750000  0.987700  1
  Co  Co10  1  0.250000  0.420586  0.008503  1
  Co  Co11  1  0.250000  0.079414  0.008503  1
  Co  Co12  1  0.750000  0.579414  0.991497  1
  Co  Co13  1  0.750000  0.920586  0.991497  1
  Co  Co14  1  0.250000  0.456428  0.567565  1
  Co  Co15  1  0.250000  0.043572  0.567565  1
  Co  Co16  1  0.750000  0.543572  0.432435  1
  Co  Co17  1  0.750000  0.956428  0.432435  1
  Co  Co18  1  0.250000  0.872580  0.292047  1
  Co  Co19  1  0.250000  0.627420  0.292047  1
  Co  Co20  1  0.750000  0.127420  0.707953  1
  Co  Co21  1  0.750000  0.372580  0.707953  1
  Si  Si22  1  0.250000  0.250000  0.119806  1
  Si  Si23  1  0.750000  0.750000  0.880194  1
  Si  Si24  1  0.250000  0.250000  0.652485  1
  Si  Si25  1  0.750000  0.750000  0.347515  1
  Tc  Tc26  1  0.250000  0.250000  0.847139  1
  Tc  Tc27  1  0.750000  0.750000  0.152861  1
  P  P28  1  0.250000  0.440618  0.383587  1
  P  P29  1  0.250000  0.059382  0.383587  1
  P  P30  1  0.750000  0.559382  0.616413  1
  P  P31  1  0.750000  0.940618  0.616413  1
  P  P32  1  0.250000  0.903173  0.106728  1
  P  P33  1  0.250000  0.596827  0.106728  1
  P  P34  1  0.750000  0.096827  0.893272  1
  P  P35  1  0.750000  0.403173  0.893272  1
