# generated using pymatgen
data_Sb12Ru3Au
_symmetry_space_group_name_H-M   'P 1'
_cell_length_a   8.18240517
_cell_length_b   8.18244309
_cell_length_c   9.45287961
_cell_angle_alpha   54.71572475
_cell_angle_beta   54.75011502
_cell_angle_gamma   70.48470348
_symmetry_Int_Tables_number   1
_chemical_formula_structural   Sb12Ru3Au
_chemical_formula_sum   'Sb12 Ru3 Au1'
_cell_volume   421.89824112
_cell_formula_units_Z   1
loop_
 _symmetry_equiv_pos_site_id
 _symmetry_equiv_pos_as_xyz
  1  'x, y, z'
loop_
 _atom_site_type_symbol
 _atom_site_label
 _atom_site_symmetry_multiplicity
 _atom_site_fract_x
 _atom_site_fract_y
 _atom_site_fract_z
 _atom_site_occupancy
  Sb  Sb0  1  0.156577  0.157106  0.176808  1
  Sb  Sb1  1  0.843423  0.842894  0.823192  1
  Sb  Sb2  1  0.837762  0.857826  0.500475  1
  Sb  Sb3  1  0.162238  0.142174  0.499525  1
  Sb  Sb4  1  0.804424  0.501087  0.337333  1
  Sb  Sb5  1  0.195576  0.498913  0.662667  1
  Sb  Sb6  1  0.507791  0.822650  0.334616  1
  Sb  Sb7  1  0.492209  0.177350  0.665384  1
  Sb  Sb8  1  0.642607  0.337500  0.858400  1
  Sb  Sb9  1  0.357393  0.662500  0.141600  1
  Sb  Sb10  1  0.664908  0.334216  0.157780  1
  Sb  Sb11  1  0.335092  0.665784  0.842220  1
  Ru  Ru12  1  0.500000  0.000000  0.500000  1
  Ru  Ru13  1  0.000000  0.500000  0.000000  1
  Ru  Ru14  1  0.500000  0.000000  0.000000  1
  Au  Au15  1  0.000000  0.500000  0.500000  1
