# generated using pymatgen
data_Ca3Si2PdRh
_symmetry_space_group_name_H-M   'P 1'
_cell_length_a   5.76031900
_cell_length_b   7.80718100
_cell_length_c   13.40707700
_cell_angle_alpha   90.00000000
_cell_angle_beta   90.00000000
_cell_angle_gamma   90.00000000
_symmetry_Int_Tables_number   1
_chemical_formula_structural   Ca3Si2PdRh
_chemical_formula_sum   'Ca12 Si8 Pd4 Rh4'
_cell_volume   602.94109668
_cell_formula_units_Z   4
loop_
 _symmetry_equiv_pos_site_id
 _symmetry_equiv_pos_as_xyz
  1  'x, y, z'
loop_
 _atom_site_type_symbol
 _atom_site_label
 _atom_site_symmetry_multiplicity
 _atom_site_fract_x
 _atom_site_fract_y
 _atom_site_fract_z
 _atom_site_occupancy
  Ca  Ca0  1  0.129288  0.612393  0.101914  1
  Ca  Ca1  1  0.129288  0.887607  0.898086  1
  Ca  Ca2  1  0.870712  0.112393  0.398086  1
  Ca  Ca3  1  0.870712  0.387607  0.601914  1
  Ca  Ca4  1  0.864480  0.389846  0.895264  1
  Ca  Ca5  1  0.864480  0.110154  0.104736  1
  Ca  Ca6  1  0.135520  0.889846  0.604736  1
  Ca  Ca7  1  0.135520  0.610154  0.395264  1
  Ca  Ca8  1  0.356936  0.261381  0.250511  1
  Ca  Ca9  1  0.356936  0.238619  0.749489  1
  Ca  Ca10  1  0.643064  0.761381  0.249489  1
  Ca  Ca11  1  0.643064  0.738619  0.750511  1
  Si  Si12  1  0.839443  0.409620  0.254030  1
  Si  Si13  1  0.839443  0.090380  0.745970  1
  Si  Si14  1  0.160557  0.909620  0.245970  1
  Si  Si15  1  0.160557  0.590380  0.754030  1
  Si  Si16  1  0.379412  0.250000  0.000000  1
  Si  Si17  1  0.620588  0.750000  0.500000  1
  Si  Si18  1  0.593907  0.750000  0.000000  1
  Si  Si19  1  0.406093  0.250000  0.500000  1
  Pd  Pd20  1  0.629434  0.469263  0.091472  1
  Pd  Pd21  1  0.629434  0.030737  0.908528  1
  Pd  Pd22  1  0.370566  0.969263  0.408528  1
  Pd  Pd23  1  0.370566  0.530737  0.591472  1
  Rh  Rh24  1  0.372736  0.526388  0.913113  1
  Rh  Rh25  1  0.372736  0.973612  0.086887  1
  Rh  Rh26  1  0.627264  0.026388  0.586887  1
  Rh  Rh27  1  0.627264  0.473612  0.413113  1
