# generated using pymatgen
data_Lu10Si16Pd
_symmetry_space_group_name_H-M   'P 1'
_cell_length_a   10.90238162
_cell_length_b   10.90973378
_cell_length_c   10.90238122
_cell_angle_alpha   144.77618421
_cell_angle_beta   136.33608983
_cell_angle_gamma   57.28274015
_symmetry_Int_Tables_number   1
_chemical_formula_structural   Lu10Si16Pd
_chemical_formula_sum   'Lu10 Si16 Pd1'
_cell_volume   512.22901292
_cell_formula_units_Z   1
loop_
 _symmetry_equiv_pos_site_id
 _symmetry_equiv_pos_as_xyz
  1  'x, y, z'
loop_
 _atom_site_type_symbol
 _atom_site_label
 _atom_site_symmetry_multiplicity
 _atom_site_fract_x
 _atom_site_fract_y
 _atom_site_fract_z
 _atom_site_occupancy
  Lu  Lu0  1  0.051871  0.563802  0.015861  1
  Lu  Lu1  1  0.352243  0.372378  0.522439  1
  Lu  Lu2  1  0.151716  0.166826  0.521521  1
  Lu  Lu3  1  0.451378  0.962332  0.013909  1
  Lu  Lu4  1  0.645306  0.166826  0.015111  1
  Lu  Lu5  1  0.948422  0.962332  0.510953  1
  Lu  Lu6  1  0.849938  0.372378  0.020135  1
  Lu  Lu7  1  0.547941  0.563802  0.511931  1
  Lu  Lu8  1  0.248230  0.761762  0.009009  1
  Lu  Lu9  1  0.752753  0.761762  0.513532  1
  Si  Si10  1  0.121755  0.088220  0.966462  1
  Si  Si11  1  0.797729  0.173662  0.375933  1
  Si  Si12  1  0.300732  0.899276  0.598545  1
  Si  Si13  1  0.399982  0.501534  0.101552  1
  Si  Si14  1  0.882183  0.849540  0.967357  1
  Si  Si15  1  0.105218  0.710985  0.605767  1
  Si  Si16  1  0.200830  0.574840  0.374009  1
  Si  Si17  1  0.697320  0.292556  0.595238  1
  Si  Si18  1  0.999852  0.433091  0.433240  1
  Si  Si19  1  0.716839  0.675260  0.958421  1
  Si  Si20  1  0.600418  0.703037  0.102618  1
  Si  Si21  1  0.000930  0.082662  0.081732  1
  Si  Si22  1  0.500978  0.381047  0.880070  1
  Si  Si23  1  0.282362  0.242413  0.960050  1
  Si  Si24  1  0.578924  0.043035  0.464109  1
  Si  Si25  1  0.418901  0.881108  0.462207  1
  Pd  Pd26  1  0.895246  0.502451  0.607206  1
