# generated using pymatgen
data_Tb6Lu4SnPb5
_symmetry_space_group_name_H-M   'P 1'
_cell_length_a   9.01982400
_cell_length_b   9.02008719
_cell_length_c   6.53354500
_cell_angle_alpha   90.00000000
_cell_angle_beta   90.00000000
_cell_angle_gamma   120.00096115
_symmetry_Int_Tables_number   1
_chemical_formula_structural   Tb6Lu4SnPb5
_chemical_formula_sum   'Tb6 Lu4 Sn1 Pb5'
_cell_volume   460.34572168
_cell_formula_units_Z   1
loop_
 _symmetry_equiv_pos_site_id
 _symmetry_equiv_pos_as_xyz
  1  'x, y, z'
loop_
 _atom_site_type_symbol
 _atom_site_label
 _atom_site_symmetry_multiplicity
 _atom_site_fract_x
 _atom_site_fract_y
 _atom_site_fract_z
 _atom_site_occupancy
  Tb  Tb0  1  0.760829  0.760965  0.750000  1
  Tb  Tb1  1  0.239171  0.000136  0.750000  1
  Tb  Tb2  1  0.000000  0.239966  0.750000  1
  Tb  Tb3  1  0.237780  0.239555  0.250000  1
  Tb  Tb4  1  0.762220  0.001774  0.250000  1
  Tb  Tb5  1  0.000000  0.759551  0.250000  1
  Lu  Lu6  1  0.668323  0.333605  0.001192  1
  Lu  Lu7  1  0.331677  0.665284  0.001192  1
  Lu  Lu8  1  0.331677  0.665284  0.498808  1
  Lu  Lu9  1  0.668323  0.333605  0.498808  1
  Sn  Sn10  1  0.000000  0.396561  0.250000  1
  Pb  Pb11  1  0.396571  0.396441  0.750000  1
  Pb  Pb12  1  0.603429  0.999870  0.750000  1
  Pb  Pb13  1  0.000000  0.603529  0.750000  1
  Pb  Pb14  1  0.603652  0.603763  0.250000  1
  Pb  Pb15  1  0.396348  0.000111  0.250000  1
