# generated using pymatgen
data_Y6Zn22RhSe
_symmetry_space_group_name_H-M   'P 1'
_cell_length_a   8.95593275
_cell_length_b   8.95629388
_cell_length_c   8.95628800
_cell_angle_alpha   59.99660888
_cell_angle_beta   60.00081536
_cell_angle_gamma   59.99964043
_symmetry_Int_Tables_number   1
_chemical_formula_structural   Y6Zn22RhSe
_chemical_formula_sum   'Y6 Zn22 Rh1 Se1'
_cell_volume   507.97527715
_cell_formula_units_Z   1
loop_
 _symmetry_equiv_pos_site_id
 _symmetry_equiv_pos_as_xyz
  1  'x, y, z'
loop_
 _atom_site_type_symbol
 _atom_site_label
 _atom_site_symmetry_multiplicity
 _atom_site_fract_x
 _atom_site_fract_y
 _atom_site_fract_z
 _atom_site_occupancy
  Y  Y0  1  0.717391  0.282603  0.282606  1
  Y  Y1  1  0.282605  0.717396  0.717396  1
  Y  Y2  1  0.282604  0.717397  0.282601  1
  Y  Y3  1  0.717389  0.282607  0.717397  1
  Y  Y4  1  0.282607  0.282605  0.717393  1
  Y  Y5  1  0.717395  0.717397  0.282605  1
  Zn  Zn6  1  0.121023  0.121027  0.121017  1
  Zn  Zn7  1  0.878976  0.878979  0.878983  1
  Zn  Zn8  1  0.121022  0.121026  0.636935  1
  Zn  Zn9  1  0.121022  0.636929  0.121024  1
  Zn  Zn10  1  0.878974  0.878975  0.363070  1
  Zn  Zn11  1  0.878980  0.363065  0.878977  1
  Zn  Zn12  1  0.636935  0.121023  0.121023  1
  Zn  Zn13  1  0.363070  0.878978  0.878973  1
  Zn  Zn14  1  0.499999  0.999999  0.000002  1
  Zn  Zn15  1  0.999999  0.500000  0.500002  1
  Zn  Zn16  1  0.999998  0.500001  0.000002  1
  Zn  Zn17  1  0.499999  0.000000  0.500001  1
  Zn  Zn18  1  0.999999  0.000001  0.500001  1
  Zn  Zn19  1  0.499999  0.500000  0.000001  1
  Zn  Zn20  1  0.329463  0.329461  0.329460  1
  Zn  Zn21  1  0.670534  0.670539  0.670543  1
  Zn  Zn22  1  0.329463  0.329468  0.011609  1
  Zn  Zn23  1  0.329457  0.011616  0.329465  1
  Zn  Zn24  1  0.670537  0.670536  0.988386  1
  Zn  Zn25  1  0.670539  0.988388  0.670536  1
  Zn  Zn26  1  0.011615  0.329459  0.329462  1
  Zn  Zn27  1  0.988384  0.670541  0.670541  1
  Rh  Rh28  1  0.000026  0.999985  0.999992  1
  Se  Se29  1  0.499999  0.500003  0.499997  1
