# generated using pymatgen
data_GdHo3B10
_symmetry_space_group_name_H-M   'P 1'
_cell_length_a   7.09027900
_cell_length_b   7.08698993
_cell_length_c   7.11573117
_cell_angle_alpha   76.78481123
_cell_angle_beta   90.00000000
_cell_angle_gamma   90.00000000
_symmetry_Int_Tables_number   1
_chemical_formula_structural   GdHo3B10
_chemical_formula_sum   'Gd2 Ho6 B20'
_cell_volume   348.08780461
_cell_formula_units_Z   2
loop_
 _symmetry_equiv_pos_site_id
 _symmetry_equiv_pos_as_xyz
  1  'x, y, z'
loop_
 _atom_site_type_symbol
 _atom_site_label
 _atom_site_symmetry_multiplicity
 _atom_site_fract_x
 _atom_site_fract_y
 _atom_site_fract_z
 _atom_site_occupancy
  Gd  Gd0  1  0.308327  0.227691  0.374357  1
  Gd  Gd1  1  0.808327  0.772309  0.125643  1
  Ho  Ho2  1  0.315072  0.756165  0.252588  1
  Ho  Ho3  1  0.815072  0.243835  0.247412  1
  Ho  Ho4  1  0.685126  0.243081  0.746928  1
  Ho  Ho5  1  0.185126  0.756919  0.753072  1
  Ho  Ho6  1  0.693292  0.765980  0.628109  1
  Ho  Ho7  1  0.193292  0.234020  0.871891  1
  B  B8  1  0.502213  0.314013  0.040511  1
  B  B9  1  0.002213  0.685987  0.459489  1
  B  B10  1  0.497706  0.686549  0.958093  1
  B  B11  1  0.997706  0.313451  0.541907  1
  B  B12  1  0.488346  0.926846  0.922282  1
  B  B13  1  0.988346  0.073154  0.577718  1
  B  B14  1  0.508758  0.074433  0.073419  1
  B  B15  1  0.008758  0.925567  0.426581  1
  B  B16  1  0.326157  0.496803  0.039527  1
  B  B17  1  0.826157  0.503197  0.460473  1
  B  B18  1  0.674178  0.503632  0.960109  1
  B  B19  1  0.174178  0.496368  0.539891  1
  B  B20  1  0.911131  0.498133  0.911045  1
  B  B21  1  0.411131  0.501867  0.588955  1
  B  B22  1  0.089347  0.501038  0.089055  1
  B  B23  1  0.589347  0.498962  0.410945  1
  B  B24  1  0.961793  0.496298  0.674820  1
  B  B25  1  0.461793  0.503702  0.825180  1
  B  B26  1  0.038553  0.503255  0.325786  1
  B  B27  1  0.538553  0.496745  0.174214  1
