# generated using pymatgen
data_Fe7TcW5
_symmetry_space_group_name_H-M   'P 1'
_cell_length_a   9.03873120
_cell_length_b   9.03873082
_cell_length_c   9.03873074
_cell_angle_alpha   30.39870942
_cell_angle_beta   30.39871665
_cell_angle_gamma   30.39871372
_symmetry_Int_Tables_number   1
_chemical_formula_structural   Fe7TcW5
_chemical_formula_sum   'Fe7 Tc1 W5'
_cell_volume   167.58426516
_cell_formula_units_Z   1
loop_
 _symmetry_equiv_pos_site_id
 _symmetry_equiv_pos_as_xyz
  1  'x, y, z'
loop_
 _atom_site_type_symbol
 _atom_site_label
 _atom_site_symmetry_multiplicity
 _atom_site_fract_x
 _atom_site_fract_y
 _atom_site_fract_z
 _atom_site_occupancy
  Fe  Fe0  1  0.091632  0.091632  0.589043  1
  Fe  Fe1  1  0.589041  0.091633  0.091634  1
  Fe  Fe2  1  0.091633  0.589041  0.091634  1
  Fe  Fe3  1  0.907975  0.907975  0.412118  1
  Fe  Fe4  1  0.907974  0.412119  0.907974  1
  Fe  Fe5  1  0.412119  0.907974  0.907974  1
  Fe  Fe6  1  0.999876  0.999876  0.999876  1
  Tc  Tc7  1  0.451453  0.451453  0.451453  1
  W  W8  1  0.548087  0.548087  0.548087  1
  W  W9  1  0.348863  0.348863  0.348863  1
  W  W10  1  0.652224  0.652224  0.652224  1
  W  W11  1  0.164568  0.164568  0.164568  1
  W  W12  1  0.834553  0.834553  0.834553  1
