# generated using pymatgen
data_Nb4GaSiH2
_symmetry_space_group_name_H-M   'P 1'
_cell_length_a   5.19368829
_cell_length_b   5.19368738
_cell_length_c   5.19368787
_cell_angle_alpha   105.26545113
_cell_angle_beta   105.26545945
_cell_angle_gamma   118.25634235
_symmetry_Int_Tables_number   1
_chemical_formula_structural   Nb4GaSiH2
_chemical_formula_sum   'Nb4 Ga1 Si1 H2'
_cell_volume   105.91844183
_cell_formula_units_Z   1
loop_
 _symmetry_equiv_pos_site_id
 _symmetry_equiv_pos_as_xyz
  1  'x, y, z'
loop_
 _atom_site_type_symbol
 _atom_site_label
 _atom_site_symmetry_multiplicity
 _atom_site_fract_x
 _atom_site_fract_y
 _atom_site_fract_z
 _atom_site_occupancy
  Nb  Nb0  1  0.165509  0.665509  0.831021  1
  Nb  Nb1  1  0.834491  0.334491  0.168979  1
  Nb  Nb2  1  0.334491  0.165509  0.500000  1
  Nb  Nb3  1  0.665509  0.834491  0.500000  1
  Ga  Ga4  1  0.250000  0.250000  0.000000  1
  Si  Si5  1  0.750000  0.750000  0.000000  1
  H  H6  1  0.750000  0.250000  0.500000  1
  H  H7  1  0.250000  0.750000  0.500000  1
