# generated using pymatgen
data_BaNa3Ti6BBr18
_symmetry_space_group_name_H-M   'P 1'
_cell_length_a   10.05083242
_cell_length_b   10.05992516
_cell_length_c   10.16731200
_cell_angle_alpha   119.31260658
_cell_angle_beta   100.66779173
_cell_angle_gamma   101.29053927
_symmetry_Int_Tables_number   1
_chemical_formula_structural   BaNa3Ti6BBr18
_chemical_formula_sum   'Ba1 Na3 Ti6 B1 Br18'
_cell_volume   830.24032104
_cell_formula_units_Z   1
loop_
 _symmetry_equiv_pos_site_id
 _symmetry_equiv_pos_as_xyz
  1  'x, y, z'
loop_
 _atom_site_type_symbol
 _atom_site_label
 _atom_site_symmetry_multiplicity
 _atom_site_fract_x
 _atom_site_fract_y
 _atom_site_fract_z
 _atom_site_occupancy
  Ba  Ba0  1  0.190465  0.732010  0.562232  1
  Na  Na1  1  0.865489  0.974515  0.790487  1
  Na  Na2  1  0.117220  0.027766  0.206332  1
  Na  Na3  1  0.842548  0.271393  0.453722  1
  Ti  Ti4  1  0.357305  0.442798  0.774846  1
  Ti  Ti5  1  0.371889  0.636620  0.129305  1
  Ti  Ti6  1  0.638027  0.723077  0.037475  1
  Ti  Ti7  1  0.642303  0.553301  0.223211  1
  Ti  Ti8  1  0.362779  0.279961  0.965733  1
  Ti  Ti9  1  0.629807  0.365002  0.867368  1
  B  B10  1  0.501081  0.500172  0.999651  1
  Br  Br11  1  0.811584  0.407382  0.107825  1
  Br  Br12  1  0.516761  0.721340  0.412563  1
  Br  Br13  1  0.171598  0.988602  0.912963  1
  Br  Br14  1  0.186239  0.588650  0.887254  1
  Br  Br15  1  0.820596  0.820904  0.304632  1
  Br  Br16  1  0.504669  0.309236  0.219979  1
  Br  Br17  1  0.793984  0.194650  0.697211  1
  Br  Br18  1  0.177167  0.176353  0.697150  1
  Br  Br19  1  0.509221  0.912364  0.188645  1
  Br  Br20  1  0.806084  0.602403  0.893494  1
  Br  Br21  1  0.204085  0.813065  0.294767  1
  Br  Br22  1  0.155434  0.365223  0.476539  1
  Br  Br23  1  0.492961  0.690227  0.776264  1
  Br  Br24  1  0.821585  0.014045  0.092308  1
  Br  Br25  1  0.481225  0.279072  0.588651  1
  Br  Br26  1  0.192051  0.401535  0.107495  1
  Br  Br27  1  0.844892  0.623451  0.521029  1
  Br  Br28  1  0.490951  0.084881  0.810870  1
