# generated using pymatgen
data_Tm7Lu13Pb16
_symmetry_space_group_name_H-M   'P 1'
_cell_length_a   8.11036899
_cell_length_b   8.15073678
_cell_length_c   15.38242628
_cell_angle_alpha   90.00403753
_cell_angle_beta   90.08523984
_cell_angle_gamma   89.95032507
_symmetry_Int_Tables_number   1
_chemical_formula_structural   Tm7Lu13Pb16
_chemical_formula_sum   'Tm7 Lu13 Pb16'
_cell_volume   1016.86120621
_cell_formula_units_Z   1
loop_
 _symmetry_equiv_pos_site_id
 _symmetry_equiv_pos_as_xyz
  1  'x, y, z'
loop_
 _atom_site_type_symbol
 _atom_site_label
 _atom_site_symmetry_multiplicity
 _atom_site_fract_x
 _atom_site_fract_y
 _atom_site_fract_z
 _atom_site_occupancy
  Tm  Tm0  1  0.041104  0.175930  0.599488  1
  Tm  Tm1  1  0.458649  0.675710  0.400389  1
  Tm  Tm2  1  0.958005  0.824598  0.099698  1
  Tm  Tm3  1  0.458844  0.675235  0.099793  1
  Tm  Tm4  1  0.959067  0.824097  0.400544  1
  Tm  Tm5  1  0.540883  0.324079  0.599558  1
  Tm  Tm6  1  0.041489  0.175617  0.900540  1
  Lu  Lu7  1  0.377937  0.842772  0.878035  1
  Lu  Lu8  1  0.877804  0.656652  0.622023  1
  Lu  Lu9  1  0.622527  0.156682  0.377949  1
  Lu  Lu10  1  0.121981  0.342714  0.122005  1
  Lu  Lu11  1  0.621419  0.157064  0.121753  1
  Lu  Lu12  1  0.121933  0.343251  0.377837  1
  Lu  Lu13  1  0.377508  0.843735  0.622118  1
  Lu  Lu14  1  0.878553  0.656683  0.877968  1
  Lu  Lu15  1  0.542991  0.324939  0.899840  1
  Lu  Lu16  1  0.209706  0.505600  0.750096  1
  Lu  Lu17  1  0.708912  0.994731  0.750231  1
  Lu  Lu18  1  0.790268  0.494645  0.249672  1
  Lu  Lu19  1  0.290518  0.005033  0.249874  1
  Pb  Pb20  1  0.279927  0.032613  0.043057  1
  Pb  Pb21  1  0.780849  0.466398  0.457373  1
  Pb  Pb22  1  0.719030  0.966555  0.543325  1
  Pb  Pb23  1  0.220736  0.532537  0.957128  1
  Pb  Pb24  1  0.719053  0.966606  0.957016  1
  Pb  Pb25  1  0.219325  0.534545  0.543028  1
  Pb  Pb26  1  0.280743  0.034019  0.457332  1
  Pb  Pb27  1  0.781099  0.466400  0.042389  1
  Pb  Pb28  1  0.571429  0.626778  0.750009  1
  Pb  Pb29  1  0.071568  0.873389  0.749899  1
  Pb  Pb30  1  0.428310  0.372962  0.249807  1
  Pb  Pb31  1  0.928114  0.127260  0.249973  1
  Pb  Pb32  1  0.352965  0.157693  0.750405  1
  Pb  Pb33  1  0.852520  0.342620  0.750146  1
  Pb  Pb34  1  0.647280  0.842965  0.249972  1
  Pb  Pb35  1  0.146953  0.656894  0.249727  1
