# generated using pymatgen
data_Y20Cd6TcIr
_symmetry_space_group_name_H-M   'P 1'
_cell_length_a   9.64236500
_cell_length_b   9.64236521
_cell_length_c   9.91680900
_cell_angle_alpha   90.00000000
_cell_angle_beta   90.00000000
_cell_angle_gamma   120.00000270
_symmetry_Int_Tables_number   1
_chemical_formula_structural   Y20Cd6TcIr
_chemical_formula_sum   'Y20 Cd6 Tc1 Ir1'
_cell_volume   798.49042457
_cell_formula_units_Z   1
loop_
 _symmetry_equiv_pos_site_id
 _symmetry_equiv_pos_as_xyz
  1  'x, y, z'
loop_
 _atom_site_type_symbol
 _atom_site_label
 _atom_site_symmetry_multiplicity
 _atom_site_fract_x
 _atom_site_fract_y
 _atom_site_fract_z
 _atom_site_occupancy
  Y  Y0  1  0.000000  0.000000  0.499201  1
  Y  Y1  1  0.000000  0.000000  0.000799  1
  Y  Y2  1  0.209563  0.790437  0.440714  1
  Y  Y3  1  0.209563  0.419126  0.440714  1
  Y  Y4  1  0.580874  0.790437  0.440714  1
  Y  Y5  1  0.790386  0.209614  0.559605  1
  Y  Y6  1  0.790386  0.580770  0.559605  1
  Y  Y7  1  0.419230  0.209614  0.559605  1
  Y  Y8  1  0.790386  0.209614  0.940395  1
  Y  Y9  1  0.790386  0.580770  0.940395  1
  Y  Y10  1  0.419230  0.209614  0.940395  1
  Y  Y11  1  0.209563  0.790437  0.059286  1
  Y  Y12  1  0.209563  0.419126  0.059286  1
  Y  Y13  1  0.580874  0.790437  0.059286  1
  Y  Y14  1  0.541292  0.458708  0.250000  1
  Y  Y15  1  0.541292  0.082585  0.250000  1
  Y  Y16  1  0.917415  0.458708  0.250000  1
  Y  Y17  1  0.459468  0.540532  0.750000  1
  Y  Y18  1  0.459468  0.918936  0.750000  1
  Y  Y19  1  0.081064  0.540532  0.750000  1
  Cd  Cd20  1  0.885416  0.114584  0.250000  1
  Cd  Cd21  1  0.885416  0.770832  0.250000  1
  Cd  Cd22  1  0.229168  0.114584  0.250000  1
  Cd  Cd23  1  0.114857  0.885143  0.750000  1
  Cd  Cd24  1  0.114857  0.229712  0.750000  1
  Cd  Cd25  1  0.770288  0.885143  0.750000  1
  Tc  Tc26  1  0.666667  0.333333  0.750000  1
  Ir  Ir27  1  0.333333  0.666667  0.250000  1
