# generated using pymatgen
data_Nd17Er3SnPb15
_symmetry_space_group_name_H-M   'P 1'
_cell_length_a   8.36153442
_cell_length_b   8.50771734
_cell_length_c   16.12083600
_cell_angle_alpha   90.00000000
_cell_angle_beta   90.00000000
_cell_angle_gamma   90.13206128
_symmetry_Int_Tables_number   1
_chemical_formula_structural   Nd17Er3SnPb15
_chemical_formula_sum   'Nd17 Er3 Sn1 Pb15'
_cell_volume   1146.79407504
_cell_formula_units_Z   1
loop_
 _symmetry_equiv_pos_site_id
 _symmetry_equiv_pos_as_xyz
  1  'x, y, z'
loop_
 _atom_site_type_symbol
 _atom_site_label
 _atom_site_symmetry_multiplicity
 _atom_site_fract_x
 _atom_site_fract_y
 _atom_site_fract_z
 _atom_site_occupancy
  Nd  Nd0  1  0.022181  0.179946  0.402107  1
  Nd  Nd1  1  0.365474  0.841173  0.120738  1
  Nd  Nd2  1  0.132716  0.337989  0.622100  1
  Nd  Nd3  1  0.477642  0.680317  0.901918  1
  Nd  Nd4  1  0.865981  0.658834  0.122077  1
  Nd  Nd5  1  0.132716  0.337989  0.877900  1
  Nd  Nd6  1  0.477642  0.680317  0.598082  1
  Nd  Nd7  1  0.634923  0.158390  0.620608  1
  Nd  Nd8  1  0.804454  0.495585  0.750000  1
  Nd  Nd9  1  0.865981  0.658834  0.377923  1
  Nd  Nd10  1  0.022181  0.179946  0.097893  1
  Nd  Nd11  1  0.978616  0.823086  0.901124  1
  Nd  Nd12  1  0.634923  0.158390  0.879392  1
  Nd  Nd13  1  0.522101  0.320439  0.098896  1
  Nd  Nd14  1  0.365474  0.841173  0.379262  1
  Nd  Nd15  1  0.978616  0.823086  0.598876  1
  Nd  Nd16  1  0.522101  0.320439  0.401104  1
  Er  Er17  1  0.198262  0.503224  0.250000  1
  Er  Er18  1  0.697731  0.997053  0.250000  1
  Er  Er19  1  0.298866  0.005251  0.750000  1
  Sn  Sn20  1  0.938922  0.118108  0.750000  1
  Pb  Pb21  1  0.790434  0.463474  0.542083  1
  Pb  Pb22  1  0.710359  0.964665  0.454764  1
  Pb  Pb23  1  0.669330  0.851873  0.750000  1
  Pb  Pb24  1  0.209551  0.534283  0.455668  1
  Pb  Pb25  1  0.290583  0.035402  0.955367  1
  Pb  Pb26  1  0.832382  0.344723  0.250000  1
  Pb  Pb27  1  0.790434  0.463474  0.957917  1
  Pb  Pb28  1  0.559046  0.622246  0.250000  1
  Pb  Pb29  1  0.209551  0.534283  0.044332  1
  Pb  Pb30  1  0.436878  0.377048  0.750000  1
  Pb  Pb31  1  0.172049  0.655202  0.750000  1
  Pb  Pb32  1  0.290583  0.035402  0.544633  1
  Pb  Pb33  1  0.710359  0.964665  0.045236  1
  Pb  Pb34  1  0.330989  0.153991  0.250000  1
  Pb  Pb35  1  0.059972  0.879702  0.250000  1
