# generated using pymatgen
data_TbYbVSbO7
_symmetry_space_group_name_H-M   'P 1'
_cell_length_a   7.27000200
_cell_length_b   7.27000200
_cell_length_c   10.24655800
_cell_angle_alpha   90.00000000
_cell_angle_beta   90.00000000
_cell_angle_gamma   90.00000000
_symmetry_Int_Tables_number   1
_chemical_formula_structural   TbYbVSbO7
_chemical_formula_sum   'Tb4 Yb4 V4 Sb4 O28'
_cell_volume   541.56060329
_cell_formula_units_Z   4
loop_
 _symmetry_equiv_pos_site_id
 _symmetry_equiv_pos_as_xyz
  1  'x, y, z'
loop_
 _atom_site_type_symbol
 _atom_site_label
 _atom_site_symmetry_multiplicity
 _atom_site_fract_x
 _atom_site_fract_y
 _atom_site_fract_z
 _atom_site_occupancy
  Tb  Tb0  1  0.500000  0.237535  0.500000  1
  Tb  Tb1  1  0.500000  0.762465  0.000000  1
  Tb  Tb2  1  0.762465  0.500000  0.750000  1
  Tb  Tb3  1  0.237535  0.500000  0.250000  1
  Yb  Yb4  1  0.000000  0.759509  0.000000  1
  Yb  Yb5  1  0.759509  0.000000  0.750000  1
  Yb  Yb6  1  0.000000  0.240491  0.500000  1
  Yb  Yb7  1  0.240491  0.000000  0.250000  1
  V  V8  1  0.759522  0.000000  0.250000  1
  V  V9  1  0.000000  0.759522  0.500000  1
  V  V10  1  0.000000  0.240478  0.000000  1
  V  V11  1  0.240478  0.000000  0.750000  1
  Sb  Sb12  1  0.244590  0.500000  0.750000  1
  Sb  Sb13  1  0.500000  0.755410  0.500000  1
  Sb  Sb14  1  0.500000  0.244590  0.000000  1
  Sb  Sb15  1  0.755410  0.500000  0.250000  1
  O  O16  1  0.253641  0.746359  0.125000  1
  O  O17  1  0.551268  0.956917  0.374453  1
  O  O18  1  0.751748  0.745311  0.578193  1
  O  O19  1  0.746359  0.253641  0.625000  1
  O  O20  1  0.745311  0.751748  0.171807  1
  O  O21  1  0.948491  0.948491  0.375000  1
  O  O22  1  0.051509  0.051509  0.875000  1
  O  O23  1  0.051509  0.948491  0.625000  1
  O  O24  1  0.043083  0.448732  0.875547  1
  O  O25  1  0.248252  0.254689  0.078193  1
  O  O26  1  0.248252  0.745311  0.421807  1
  O  O27  1  0.254689  0.751748  0.828193  1
  O  O28  1  0.254689  0.248252  0.671807  1
  O  O29  1  0.448732  0.043083  0.874453  1
  O  O30  1  0.448732  0.956917  0.625547  1
  O  O31  1  0.455787  0.455787  0.875000  1
  O  O32  1  0.544213  0.544213  0.375000  1
  O  O33  1  0.551268  0.043083  0.125547  1
  O  O34  1  0.544213  0.455787  0.125000  1
  O  O35  1  0.745311  0.248252  0.328193  1
  O  O36  1  0.751748  0.254689  0.921807  1
  O  O37  1  0.948491  0.051509  0.125000  1
  O  O38  1  0.956917  0.551268  0.375547  1
  O  O39  1  0.956917  0.448732  0.124453  1
  O  O40  1  0.043083  0.551268  0.624453  1
  O  O41  1  0.253641  0.253641  0.375000  1
  O  O42  1  0.455787  0.544213  0.625000  1
  O  O43  1  0.746359  0.746359  0.875000  1
