# generated using pymatgen
data_CsTbY9(C2I9)2
_symmetry_space_group_name_H-M   'P 1'
_cell_length_a   11.48812966
_cell_length_b   11.49992709
_cell_length_c   11.51158040
_cell_angle_alpha   113.18174738
_cell_angle_beta   86.74037047
_cell_angle_gamma   120.01151630
_symmetry_Int_Tables_number   1
_chemical_formula_structural   CsTbY9(C2I9)2
_chemical_formula_sum   'Cs1 Tb1 Y9 C4 I18'
_cell_volume   1191.71408704
_cell_formula_units_Z   1
loop_
 _symmetry_equiv_pos_site_id
 _symmetry_equiv_pos_as_xyz
  1  'x, y, z'
loop_
 _atom_site_type_symbol
 _atom_site_label
 _atom_site_symmetry_multiplicity
 _atom_site_fract_x
 _atom_site_fract_y
 _atom_site_fract_z
 _atom_site_occupancy
  Cs  Cs0  1  0.499997  0.000004  0.500038  1
  Tb  Tb1  1  0.895321  0.055280  0.999415  1
  Y  Y2  1  0.678374  0.724793  0.711672  1
  Y  Y3  1  0.276537  0.352109  0.015251  1
  Y  Y4  1  0.093404  0.390255  0.291534  1
  Y  Y5  1  0.964415  0.037551  0.323400  1
  Y  Y6  1  0.906662  0.609881  0.708585  1
  Y  Y7  1  0.104684  0.944656  0.000670  1
  Y  Y8  1  0.035634  0.962419  0.676586  1
  Y  Y9  1  0.321525  0.275079  0.288197  1
  Y  Y10  1  0.723516  0.647882  0.984737  1
  C  C11  1  0.151446  0.219277  0.120617  1
  C  C12  1  0.848534  0.780672  0.879323  1
  C  C13  1  0.924051  0.856443  0.803618  1
  C  C14  1  0.075931  0.143501  0.196320  1
  I  I15  1  0.449649  0.529882  0.832188  1
  I  I16  1  0.382710  0.040065  0.157670  1
  I  I17  1  0.778181  0.855868  0.501062  1
  I  I18  1  0.838349  0.310112  0.153545  1
  I  I19  1  0.550357  0.470117  0.167833  1
  I  I20  1  0.221860  0.144156  0.498932  1
  I  I21  1  0.317275  0.096464  0.829855  1
  I  I22  1  0.682967  0.903650  0.169988  1
  I  I23  1  0.974650  0.756221  0.169678  1
  I  I24  1  0.933650  0.298362  0.501196  1
  I  I25  1  0.025297  0.243591  0.830460  1
  I  I26  1  0.066377  0.701620  0.498823  1
  I  I27  1  0.260813  0.621496  0.182866  1
  I  I28  1  0.739228  0.378519  0.817131  1
  I  I29  1  0.642626  0.435318  0.500877  1
  I  I30  1  0.161654  0.690385  0.846807  1
  I  I31  1  0.616917  0.959714  0.842008  1
  I  I32  1  0.357409  0.564659  0.499120  1
