# generated using pymatgen
data_DyHo3Hf3AlPt4
_symmetry_space_group_name_H-M   'P 1'
_cell_length_a   4.56724000
_cell_length_b   7.07508136
_cell_length_c   8.14518611
_cell_angle_alpha   87.05723026
_cell_angle_beta   90.00000000
_cell_angle_gamma   90.00000000
_symmetry_Int_Tables_number   1
_chemical_formula_structural   DyHo3Hf3AlPt4
_chemical_formula_sum   'Dy1 Ho3 Hf3 Al1 Pt4'
_cell_volume   262.85316290
_cell_formula_units_Z   1
loop_
 _symmetry_equiv_pos_site_id
 _symmetry_equiv_pos_as_xyz
  1  'x, y, z'
loop_
 _atom_site_type_symbol
 _atom_site_label
 _atom_site_symmetry_multiplicity
 _atom_site_fract_x
 _atom_site_fract_y
 _atom_site_fract_z
 _atom_site_occupancy
  Dy  Dy0  1  0.750000  0.039336  0.671106  1
  Ho  Ho1  1  0.250000  0.472092  0.186845  1
  Ho  Ho2  1  0.750000  0.517297  0.815248  1
  Ho  Ho3  1  0.250000  0.988195  0.337292  1
  Hf  Hf4  1  0.250000  0.855282  0.923773  1
  Hf  Hf5  1  0.750000  0.138021  0.070783  1
  Hf  Hf6  1  0.750000  0.640638  0.435493  1
  Al  Al7  1  0.250000  0.358525  0.572201  1
  Pt  Pt8  1  0.250000  0.725882  0.609969  1
  Pt  Pt9  1  0.750000  0.270128  0.381048  1
  Pt  Pt10  1  0.750000  0.764606  0.102309  1
  Pt  Pt11  1  0.250000  0.230000  0.893932  1
