# generated using pymatgen
data_DyHo2B7W
_symmetry_space_group_name_H-M   'P 1'
_cell_length_a   8.15009442
_cell_length_b   8.15009412
_cell_length_c   9.48974300
_cell_angle_alpha   90.00000000
_cell_angle_beta   90.00000000
_cell_angle_gamma   155.56035127
_symmetry_Int_Tables_number   1
_chemical_formula_structural   DyHo2B7W
_chemical_formula_sum   'Dy2 Ho4 B14 W2'
_cell_volume   260.79633141
_cell_formula_units_Z   2
loop_
 _symmetry_equiv_pos_site_id
 _symmetry_equiv_pos_as_xyz
  1  'x, y, z'
loop_
 _atom_site_type_symbol
 _atom_site_label
 _atom_site_symmetry_multiplicity
 _atom_site_fract_x
 _atom_site_fract_y
 _atom_site_fract_z
 _atom_site_occupancy
  Dy  Dy0  1  0.245358  0.754642  0.250000  1
  Dy  Dy1  1  0.754642  0.245358  0.750000  1
  Ho  Ho2  1  0.892827  0.107173  0.440082  1
  Ho  Ho3  1  0.107173  0.892827  0.559918  1
  Ho  Ho4  1  0.892827  0.107173  0.059918  1
  Ho  Ho5  1  0.107173  0.892827  0.940082  1
  B  B6  1  0.727575  0.272425  0.467401  1
  B  B7  1  0.272425  0.727575  0.532599  1
  B  B8  1  0.727575  0.272425  0.032599  1
  B  B9  1  0.272425  0.727575  0.967401  1
  B  B10  1  0.635117  0.364883  0.146858  1
  B  B11  1  0.364883  0.635117  0.853142  1
  B  B12  1  0.635117  0.364883  0.353142  1
  B  B13  1  0.364883  0.635117  0.646858  1
  B  B14  1  0.519566  0.480434  0.091557  1
  B  B15  1  0.480434  0.519566  0.908443  1
  B  B16  1  0.519566  0.480434  0.408443  1
  B  B17  1  0.480434  0.519566  0.591557  1
  B  B18  1  0.454868  0.545132  0.250000  1
  B  B19  1  0.545132  0.454868  0.750000  1
  W  W20  1  0.053089  0.946911  0.250000  1
  W  W21  1  0.946911  0.053089  0.750000  1
