# generated using pymatgen
data_Nd3SnHg2Pt3
_symmetry_space_group_name_H-M   'P 1'
_cell_length_a   7.81355000
_cell_length_b   7.90518488
_cell_length_c   3.92453600
_cell_angle_alpha   90.00000000
_cell_angle_beta   90.00000000
_cell_angle_gamma   119.61728332
_symmetry_Int_Tables_number   1
_chemical_formula_structural   Nd3SnHg2Pt3
_chemical_formula_sum   'Nd3 Sn1 Hg2 Pt3'
_cell_volume   210.73727033
_cell_formula_units_Z   1
loop_
 _symmetry_equiv_pos_site_id
 _symmetry_equiv_pos_as_xyz
  1  'x, y, z'
loop_
 _atom_site_type_symbol
 _atom_site_label
 _atom_site_symmetry_multiplicity
 _atom_site_fract_x
 _atom_site_fract_y
 _atom_site_fract_z
 _atom_site_occupancy
  Nd  Nd0  1  0.596318  0.590663  0.000000  1
  Nd  Nd1  1  0.395636  0.000000  0.000000  1
  Nd  Nd2  1  0.005655  0.409337  0.000000  1
  Sn  Sn3  1  0.741690  0.000000  0.500000  1
  Hg  Hg4  1  0.998548  0.735131  0.500000  1
  Hg  Hg5  1  0.263417  0.264869  0.500000  1
  Pt  Pt6  1  0.981207  0.000000  0.000000  1
  Pt  Pt7  1  0.347938  0.678347  0.500000  1
  Pt  Pt8  1  0.669592  0.321653  0.500000  1
