# generated using pymatgen
data_PrHo3(Sc3Ge4)2
_symmetry_space_group_name_H-M   'P 1'
_cell_length_a   7.28479663
_cell_length_b   7.51199854
_cell_length_c   14.12775023
_cell_angle_alpha   90.06378976
_cell_angle_beta   89.68357666
_cell_angle_gamma   90.63541201
_symmetry_Int_Tables_number   1
_chemical_formula_structural   PrHo3(Sc3Ge4)2
_chemical_formula_sum   'Pr2 Ho6 Sc12 Ge16'
_cell_volume   773.05850901
_cell_formula_units_Z   2
loop_
 _symmetry_equiv_pos_site_id
 _symmetry_equiv_pos_as_xyz
  1  'x, y, z'
loop_
 _atom_site_type_symbol
 _atom_site_label
 _atom_site_symmetry_multiplicity
 _atom_site_fract_x
 _atom_site_fract_y
 _atom_site_fract_z
 _atom_site_occupancy
  Pr  Pr0  1  0.002681  0.176031  0.096606  1
  Pr  Pr1  1  0.997319  0.823969  0.903394  1
  Ho  Ho2  1  0.501672  0.673936  0.901695  1
  Ho  Ho3  1  0.001100  0.822145  0.596992  1
  Ho  Ho4  1  0.498328  0.326064  0.098305  1
  Ho  Ho5  1  0.998900  0.177855  0.403008  1
  Ho  Ho6  1  0.499868  0.323956  0.405844  1
  Ho  Ho7  1  0.500132  0.676044  0.594156  1
  Sc  Sc8  1  0.173748  0.501020  0.747784  1
  Sc  Sc9  1  0.826252  0.498980  0.252216  1
  Sc  Sc10  1  0.328319  0.998596  0.252519  1
  Sc  Sc11  1  0.671681  0.001404  0.747481  1
  Sc  Sc12  1  0.340320  0.166997  0.625156  1
  Sc  Sc13  1  0.659680  0.833003  0.374844  1
  Sc  Sc14  1  0.159821  0.667443  0.377755  1
  Sc  Sc15  1  0.660892  0.829213  0.128498  1
  Sc  Sc16  1  0.840179  0.332557  0.622245  1
  Sc  Sc17  1  0.339108  0.170787  0.871502  1
  Sc  Sc18  1  0.835651  0.335114  0.876384  1
  Sc  Sc19  1  0.164349  0.664886  0.123616  1
  Ge  Ge20  1  0.033539  0.131785  0.749777  1
  Ge  Ge21  1  0.966461  0.868215  0.250223  1
  Ge  Ge22  1  0.460509  0.624203  0.251718  1
  Ge  Ge23  1  0.539491  0.375797  0.748282  1
  Ge  Ge24  1  0.308991  0.859341  0.747344  1
  Ge  Ge25  1  0.691009  0.140659  0.252656  1
  Ge  Ge26  1  0.198501  0.363907  0.253173  1
  Ge  Ge27  1  0.801499  0.636093  0.746827  1
  Ge  Ge28  1  0.180832  0.457030  0.542032  1
  Ge  Ge29  1  0.819168  0.542970  0.457968  1
  Ge  Ge30  1  0.320282  0.961682  0.458586  1
  Ge  Ge31  1  0.815549  0.541788  0.043373  1
  Ge  Ge32  1  0.679718  0.038318  0.541414  1
  Ge  Ge33  1  0.184451  0.458212  0.956627  1
  Ge  Ge34  1  0.660513  0.039493  0.958683  1
  Ge  Ge35  1  0.339487  0.960507  0.041317  1
