# generated using pymatgen
data_Sm5Ho2CoI12
_symmetry_space_group_name_H-M   'P 1'
_cell_length_a   9.86262104
_cell_length_b   9.84519454
_cell_length_c   9.86438373
_cell_angle_alpha   107.03960680
_cell_angle_beta   106.75024854
_cell_angle_gamma   106.94008476
_symmetry_Int_Tables_number   1
_chemical_formula_structural   Sm5Ho2CoI12
_chemical_formula_sum   'Sm5 Ho2 Co1 I12'
_cell_volume   799.63330271
_cell_formula_units_Z   1
loop_
 _symmetry_equiv_pos_site_id
 _symmetry_equiv_pos_as_xyz
  1  'x, y, z'
loop_
 _atom_site_type_symbol
 _atom_site_label
 _atom_site_symmetry_multiplicity
 _atom_site_fract_x
 _atom_site_fract_y
 _atom_site_fract_z
 _atom_site_occupancy
  Sm  Sm0  1  0.021101  0.094299  0.292198  1
  Sm  Sm1  1  0.092603  0.292486  0.022099  1
  Sm  Sm2  1  0.292912  0.022319  0.093863  1
  Sm  Sm3  1  0.977591  0.905728  0.707365  1
  Sm  Sm4  1  0.904515  0.707054  0.977177  1
  Ho  Ho5  1  0.499437  0.500010  0.499808  1
  Ho  Ho6  1  0.714908  0.978215  0.908663  1
  Co  Co7  1  0.999796  0.999823  0.999960  1
  I  I8  1  0.165590  0.466381  0.389062  1
  I  I9  1  0.465809  0.388972  0.165729  1
  I  I10  1  0.388644  0.165808  0.465883  1
  I  I11  1  0.833718  0.533566  0.610945  1
  I  I12  1  0.534309  0.615249  0.834405  1
  I  I13  1  0.611236  0.836150  0.538805  1
  I  I14  1  0.676395  0.070047  0.220670  1
  I  I15  1  0.071758  0.226770  0.677517  1
  I  I16  1  0.226010  0.677491  0.071677  1
  I  I17  1  0.325214  0.929022  0.774535  1
  I  I18  1  0.928201  0.773280  0.322506  1
  I  I19  1  0.770254  0.317332  0.927135  1
