# generated using pymatgen
data_Na16VGeAs8
_symmetry_space_group_name_H-M   'P 1'
_cell_length_a   9.79784503
_cell_length_b   9.79784502
_cell_length_c   9.79784500
_cell_angle_alpha   60.00000345
_cell_angle_beta   60.00000349
_cell_angle_gamma   59.99999838
_symmetry_Int_Tables_number   1
_chemical_formula_structural   Na16VGeAs8
_chemical_formula_sum   'Na16 V1 Ge1 As8'
_cell_volume   665.08433095
_cell_formula_units_Z   1
loop_
 _symmetry_equiv_pos_site_id
 _symmetry_equiv_pos_as_xyz
  1  'x, y, z'
loop_
 _atom_site_type_symbol
 _atom_site_label
 _atom_site_symmetry_multiplicity
 _atom_site_fract_x
 _atom_site_fract_y
 _atom_site_fract_z
 _atom_site_occupancy
  Na  Na0  1  0.626718  0.626718  0.119846  1
  Na  Na1  1  0.626718  0.119846  0.626718  1
  Na  Na2  1  0.119846  0.626718  0.626718  1
  Na  Na3  1  0.626718  0.626718  0.626718  1
  Na  Na4  1  0.030760  0.469240  0.469240  1
  Na  Na5  1  0.774562  0.225438  0.225438  1
  Na  Na6  1  0.469240  0.030760  0.469240  1
  Na  Na7  1  0.469240  0.469240  0.030760  1
  Na  Na8  1  0.030760  0.030760  0.469240  1
  Na  Na9  1  0.030760  0.469240  0.030760  1
  Na  Na10  1  0.469240  0.030760  0.030760  1
  Na  Na11  1  0.774562  0.225438  0.774562  1
  Na  Na12  1  0.225438  0.774562  0.225438  1
  Na  Na13  1  0.225438  0.225438  0.774562  1
  Na  Na14  1  0.774562  0.774562  0.225438  1
  Na  Na15  1  0.225438  0.774562  0.774562  1
  V  V16  1  0.500000  0.500000  0.500000  1
  Ge  Ge17  1  0.750000  0.750000  0.750000  1
  As  As18  1  0.856489  0.856489  0.430536  1
  As  As19  1  0.856489  0.430536  0.856489  1
  As  As20  1  0.398382  0.398382  0.804853  1
  As  As21  1  0.398382  0.804853  0.398382  1
  As  As22  1  0.804853  0.398382  0.398382  1
  As  As23  1  0.856489  0.856489  0.856489  1
  As  As24  1  0.430536  0.856489  0.856489  1
  As  As25  1  0.398382  0.398382  0.398382  1
