# generated using pymatgen
data_Yb8HoTmIr4
_symmetry_space_group_name_H-M   'P 1'
_cell_length_a   6.52304759
_cell_length_b   7.30327243
_cell_length_c   8.50086794
_cell_angle_alpha   97.24980080
_cell_angle_beta   112.56116841
_cell_angle_gamma   89.99999572
_symmetry_Int_Tables_number   1
_chemical_formula_structural   Yb8HoTmIr4
_chemical_formula_sum   'Yb8 Ho1 Tm1 Ir4'
_cell_volume   370.47673114
_cell_formula_units_Z   1
loop_
 _symmetry_equiv_pos_site_id
 _symmetry_equiv_pos_as_xyz
  1  'x, y, z'
loop_
 _atom_site_type_symbol
 _atom_site_label
 _atom_site_symmetry_multiplicity
 _atom_site_fract_x
 _atom_site_fract_y
 _atom_site_fract_z
 _atom_site_occupancy
  Yb  Yb0  1  0.971897  0.922462  0.170952  1
  Yb  Yb1  1  0.800944  0.577538  0.829048  1
  Yb  Yb2  1  0.028153  0.078029  0.829084  1
  Yb  Yb3  1  0.199070  0.421971  0.170916  1
  Yb  Yb4  1  0.642875  0.820156  0.437287  1
  Yb  Yb5  1  0.205588  0.679844  0.562713  1
  Yb  Yb6  1  0.357356  0.180020  0.563105  1
  Yb  Yb7  1  0.794251  0.319980  0.436895  1
  Ho  Ho8  1  0.437761  0.750000  0.000000  1
  Tm  Tm9  1  0.561702  0.250000  0.000000  1
  Ir  Ir10  1  0.812063  0.573010  0.209835  1
  Ir  Ir11  1  0.602228  0.926990  0.790165  1
  Ir  Ir12  1  0.188058  0.425637  0.790003  1
  Ir  Ir13  1  0.398054  0.074363  0.209997  1
