# generated using pymatgen
data_Ta3Cu3PtRh5
_symmetry_space_group_name_H-M   'P 1'
_cell_length_a   4.04103400
_cell_length_b   7.14369800
_cell_length_c   12.13664200
_cell_angle_alpha   89.99999528
_cell_angle_beta   90.00029751
_cell_angle_gamma   89.99896209
_symmetry_Int_Tables_number   1
_chemical_formula_structural   Ta3Cu3PtRh5
_chemical_formula_sum   'Ta6 Cu6 Pt2 Rh10'
_cell_volume   350.35968923
_cell_formula_units_Z   2
loop_
 _symmetry_equiv_pos_site_id
 _symmetry_equiv_pos_as_xyz
  1  'x, y, z'
loop_
 _atom_site_type_symbol
 _atom_site_label
 _atom_site_symmetry_multiplicity
 _atom_site_fract_x
 _atom_site_fract_y
 _atom_site_fract_z
 _atom_site_occupancy
  Ta  Ta0  1  0.000000  0.499999  0.000000  1
  Ta  Ta1  1  0.499920  0.000000  0.172604  1
  Ta  Ta2  1  0.999939  0.499999  0.334435  1
  Ta  Ta3  1  0.499999  0.000000  0.500000  1
  Ta  Ta4  1  0.000061  0.499999  0.665564  1
  Ta  Ta5  1  0.500079  0.000000  0.827397  1
  Cu  Cu6  1  0.000000  0.000000  0.000000  1
  Cu  Cu7  1  0.499917  0.499998  0.166501  1
  Cu  Cu8  1  0.999934  0.000000  0.334211  1
  Cu  Cu9  1  0.499999  0.499999  0.500000  1
  Cu  Cu10  1  0.000067  0.000000  0.665789  1
  Cu  Cu11  1  0.500084  0.500000  0.833500  1
  Pt  Pt12  1  0.500104  0.247265  0.000000  1
  Pt  Pt13  1  0.499896  0.752735  0.000000  1
  Rh  Rh14  1  0.999968  0.249835  0.166760  1
  Rh  Rh15  1  0.999897  0.750166  0.166760  1
  Rh  Rh16  1  0.499941  0.250896  0.333557  1
  Rh  Rh17  1  0.499946  0.749104  0.333557  1
  Rh  Rh18  1  0.000017  0.250371  0.500000  1
  Rh  Rh19  1  0.999983  0.749629  0.500000  1
  Rh  Rh20  1  0.500053  0.250896  0.666443  1
  Rh  Rh21  1  0.500058  0.749104  0.666443  1
  Rh  Rh22  1  0.000101  0.249834  0.833240  1
  Rh  Rh23  1  0.000030  0.750165  0.833240  1
