# generated using pymatgen
data_SmY5Co16(ReP6)2
_symmetry_space_group_name_H-M   'P 1'
_cell_length_a   3.72647500
_cell_length_b   10.52528500
_cell_length_c   12.23455500
_cell_angle_alpha   90.00000000
_cell_angle_beta   90.00000000
_cell_angle_gamma   90.00000000
_symmetry_Int_Tables_number   1
_chemical_formula_structural   SmY5Co16(ReP6)2
_chemical_formula_sum   'Sm1 Y5 Co16 Re2 P12'
_cell_volume   479.86630284
_cell_formula_units_Z   1
loop_
 _symmetry_equiv_pos_site_id
 _symmetry_equiv_pos_as_xyz
  1  'x, y, z'
loop_
 _atom_site_type_symbol
 _atom_site_label
 _atom_site_symmetry_multiplicity
 _atom_site_fract_x
 _atom_site_fract_y
 _atom_site_fract_z
 _atom_site_occupancy
  Sm  Sm0  1  0.500000  0.000000  0.475493  1
  Y  Y1  1  0.000000  0.500000  0.524076  1
  Y  Y2  1  0.500000  0.817700  0.205197  1
  Y  Y3  1  0.500000  0.182300  0.205197  1
  Y  Y4  1  0.000000  0.681768  0.794447  1
  Y  Y5  1  0.000000  0.318232  0.794447  1
  Co  Co6  1  0.500000  0.500000  0.702427  1
  Co  Co7  1  0.000000  0.000000  0.296600  1
  Co  Co8  1  0.000000  0.500000  0.987925  1
  Co  Co9  1  0.500000  0.000000  0.012009  1
  Co  Co10  1  0.500000  0.332647  0.989951  1
  Co  Co11  1  0.500000  0.667353  0.989951  1
  Co  Co12  1  0.000000  0.167694  0.010072  1
  Co  Co13  1  0.000000  0.832306  0.010072  1
  Co  Co14  1  0.500000  0.297710  0.430667  1
  Co  Co15  1  0.500000  0.702290  0.430667  1
  Co  Co16  1  0.000000  0.204772  0.569424  1
  Co  Co17  1  0.000000  0.795228  0.569424  1
  Co  Co18  1  0.500000  0.879191  0.709712  1
  Co  Co19  1  0.500000  0.120809  0.709712  1
  Co  Co20  1  0.000000  0.620233  0.290719  1
  Co  Co21  1  0.000000  0.379767  0.290719  1
  Re  Re22  1  0.500000  0.500000  0.155940  1
  Re  Re23  1  0.000000  0.000000  0.844856  1
  P  P24  1  0.500000  0.500000  0.880398  1
  P  P25  1  0.000000  0.000000  0.119207  1
  P  P26  1  0.500000  0.500000  0.348529  1
  P  P27  1  0.000000  0.000000  0.653090  1
  P  P28  1  0.500000  0.311593  0.616090  1
  P  P29  1  0.500000  0.688407  0.616090  1
  P  P30  1  0.000000  0.190354  0.383289  1
  P  P31  1  0.000000  0.809646  0.383289  1
  P  P32  1  0.500000  0.845676  0.892947  1
  P  P33  1  0.500000  0.154324  0.892947  1
  P  P34  1  0.000000  0.653908  0.107212  1
  P  P35  1  0.000000  0.346092  0.107212  1
