# generated using pymatgen
data_Dy7ErSc12Ga7Si9
_symmetry_space_group_name_H-M   'P 1'
_cell_length_a   7.16992038
_cell_length_b   7.41239688
_cell_length_c   14.26609502
_cell_angle_alpha   89.97700489
_cell_angle_beta   89.92815095
_cell_angle_gamma   90.07162682
_symmetry_Int_Tables_number   1
_chemical_formula_structural   Dy7ErSc12Ga7Si9
_chemical_formula_sum   'Dy7 Er1 Sc12 Ga7 Si9'
_cell_volume   758.18885044
_cell_formula_units_Z   1
loop_
 _symmetry_equiv_pos_site_id
 _symmetry_equiv_pos_as_xyz
  1  'x, y, z'
loop_
 _atom_site_type_symbol
 _atom_site_label
 _atom_site_symmetry_multiplicity
 _atom_site_fract_x
 _atom_site_fract_y
 _atom_site_fract_z
 _atom_site_occupancy
  Dy  Dy0  1  0.012394  0.173715  0.098774  1
  Dy  Dy1  1  0.989951  0.823247  0.901344  1
  Dy  Dy2  1  0.488480  0.676755  0.901877  1
  Dy  Dy3  1  0.989566  0.823337  0.599814  1
  Dy  Dy4  1  0.510225  0.322741  0.099117  1
  Dy  Dy5  1  0.010216  0.175950  0.400082  1
  Dy  Dy6  1  0.510416  0.323307  0.400057  1
  Er  Er7  1  0.489945  0.676918  0.600111  1
  Sc  Sc8  1  0.164639  0.501903  0.749742  1
  Sc  Sc9  1  0.836436  0.499581  0.249719  1
  Sc  Sc10  1  0.335445  0.001224  0.248945  1
  Sc  Sc11  1  0.663658  0.998855  0.749571  1
  Sc  Sc12  1  0.330864  0.173301  0.626056  1
  Sc  Sc13  1  0.668608  0.826864  0.373658  1
  Sc  Sc14  1  0.168937  0.673449  0.373532  1
  Sc  Sc15  1  0.667606  0.825274  0.126446  1
  Sc  Sc16  1  0.830243  0.327036  0.626211  1
  Sc  Sc17  1  0.330156  0.174008  0.874750  1
  Sc  Sc18  1  0.829429  0.327019  0.874103  1
  Sc  Sc19  1  0.171745  0.675654  0.125253  1
  Ga  Ga20  1  0.161923  0.463799  0.539561  1
  Ga  Ga21  1  0.838586  0.536814  0.460408  1
  Ga  Ga22  1  0.338806  0.962042  0.460757  1
  Ga  Ga23  1  0.839256  0.538229  0.040287  1
  Ga  Ga24  1  0.660913  0.036216  0.539467  1
  Ga  Ga25  1  0.160171  0.462049  0.960867  1
  Ga  Ga26  1  0.660030  0.037924  0.961146  1
  Si  Si27  1  0.032307  0.113419  0.750940  1
  Si  Si28  1  0.967102  0.885133  0.249411  1
  Si  Si29  1  0.466853  0.613209  0.249409  1
  Si  Si30  1  0.532467  0.386886  0.750052  1
  Si  Si31  1  0.285456  0.873772  0.750379  1
  Si  Si32  1  0.715512  0.126243  0.249032  1
  Si  Si33  1  0.214346  0.373560  0.249380  1
  Si  Si34  1  0.784010  0.626766  0.750264  1
  Si  Si35  1  0.343301  0.963799  0.039481  1
