# generated using pymatgen
data_Sm3Y4Pa(ReB6)4
_symmetry_space_group_name_H-M   'P 1'
_cell_length_a   3.71738100
_cell_length_b   9.22562164
_cell_length_c   11.62384106
_cell_angle_alpha   89.81221140
_cell_angle_beta   90.00000000
_cell_angle_gamma   90.00000000
_symmetry_Int_Tables_number   1
_chemical_formula_structural   Sm3Y4Pa(ReB6)4
_chemical_formula_sum   'Sm3 Y4 Pa1 Re4 B24'
_cell_volume   398.63923846
_cell_formula_units_Z   1
loop_
 _symmetry_equiv_pos_site_id
 _symmetry_equiv_pos_as_xyz
  1  'x, y, z'
loop_
 _atom_site_type_symbol
 _atom_site_label
 _atom_site_symmetry_multiplicity
 _atom_site_fract_x
 _atom_site_fract_y
 _atom_site_fract_z
 _atom_site_occupancy
  Sm  Sm0  1  0.000000  0.178287  0.913506  1
  Sm  Sm1  1  0.000000  0.323598  0.413982  1
  Sm  Sm2  1  0.000000  0.676229  0.586557  1
  Y  Y3  1  0.000000  0.442614  0.128109  1
  Y  Y4  1  0.000000  0.555805  0.871293  1
  Y  Y5  1  0.000000  0.943085  0.372029  1
  Y  Y6  1  0.000000  0.057231  0.630394  1
  Pa  Pa7  1  0.000000  0.823874  0.086094  1
  Re  Re8  1  0.000000  0.134220  0.178120  1
  Re  Re9  1  0.000000  0.861940  0.824561  1
  Re  Re10  1  0.000000  0.642114  0.316509  1
  Re  Re11  1  0.000000  0.361659  0.679437  1
  B  B12  1  0.500000  0.051616  0.068999  1
  B  B13  1  0.500000  0.944526  0.933279  1
  B  B14  1  0.500000  0.554957  0.430433  1
  B  B15  1  0.500000  0.446500  0.567708  1
  B  B16  1  0.500000  0.247520  0.082580  1
  B  B17  1  0.500000  0.751511  0.919675  1
  B  B18  1  0.500000  0.748480  0.416928  1
  B  B19  1  0.500000  0.251482  0.582353  1
  B  B20  1  0.500000  0.289950  0.232907  1
  B  B21  1  0.500000  0.709276  0.767173  1
  B  B22  1  0.500000  0.791726  0.264651  1
  B  B23  1  0.500000  0.209215  0.733723  1
  B  B24  1  0.500000  0.129943  0.313698  1
  B  B25  1  0.500000  0.869840  0.687518  1
  B  B26  1  0.500000  0.632805  0.184600  1
  B  B27  1  0.500000  0.369327  0.813339  1
  B  B28  1  0.500000  0.484551  0.286321  1
  B  B29  1  0.500000  0.516638  0.712626  1
  B  B30  1  0.500000  0.982141  0.212191  1
  B  B31  1  0.500000  0.016178  0.787578  1
  B  B32  1  0.500000  0.099997  0.472446  1
  B  B33  1  0.500000  0.899966  0.528741  1
  B  B34  1  0.500000  0.606808  0.029465  1
  B  B35  1  0.500000  0.394395  0.970483  1
