# generated using pymatgen
data_Dy3HoGa4(WO6)4
_symmetry_space_group_name_H-M   'P 1'
_cell_length_a   5.21871814
_cell_length_b   7.38185948
_cell_length_c   11.04153518
_cell_angle_alpha   89.98154507
_cell_angle_beta   89.97646122
_cell_angle_gamma   90.00708552
_symmetry_Int_Tables_number   1
_chemical_formula_structural   Dy3HoGa4(WO6)4
_chemical_formula_sum   'Dy3 Ho1 Ga4 W4 O24'
_cell_volume   425.36231764
_cell_formula_units_Z   1
loop_
 _symmetry_equiv_pos_site_id
 _symmetry_equiv_pos_as_xyz
  1  'x, y, z'
loop_
 _atom_site_type_symbol
 _atom_site_label
 _atom_site_symmetry_multiplicity
 _atom_site_fract_x
 _atom_site_fract_y
 _atom_site_fract_z
 _atom_site_occupancy
  Dy  Dy0  1  0.544384  0.251236  0.044781  1
  Dy  Dy1  1  0.044703  0.751288  0.455135  1
  Dy  Dy2  1  0.955316  0.251261  0.544938  1
  Ho  Ho3  1  0.454685  0.751210  0.955092  1
  Ga  Ga4  1  0.042255  0.994581  0.139233  1
  Ga  Ga5  1  0.542075  0.495024  0.360485  1
  Ga  Ga6  1  0.457780  0.994893  0.639672  1
  Ga  Ga7  1  0.957496  0.495311  0.860620  1
  W  W8  1  0.051608  0.507228  0.142913  1
  W  W9  1  0.551655  0.007179  0.356883  1
  W  W10  1  0.448330  0.507144  0.643296  1
  W  W11  1  0.948145  0.006705  0.856970  1
  O  O12  1  0.757074  0.960618  0.021062  1
  O  O13  1  0.762661  0.546368  0.029286  1
  O  O14  1  0.178612  0.751411  0.117490  1
  O  O15  1  0.937956  0.255828  0.143269  1
  O  O16  1  0.377027  0.435667  0.207679  1
  O  O17  1  0.385797  0.067033  0.211895  1
  O  O18  1  0.886025  0.567095  0.287905  1
  O  O19  1  0.877456  0.935756  0.292217  1
  O  O20  1  0.438008  0.755770  0.356262  1
  O  O21  1  0.677319  0.251553  0.381965  1
  O  O22  1  0.263114  0.045547  0.470548  1
  O  O23  1  0.257913  0.461618  0.478938  1
  O  O24  1  0.742112  0.961616  0.521213  1
  O  O25  1  0.736911  0.545505  0.529579  1
  O  O26  1  0.322852  0.751441  0.617996  1
  O  O27  1  0.562058  0.255716  0.643998  1
  O  O28  1  0.122466  0.435695  0.707741  1
  O  O29  1  0.113769  0.066733  0.711910  1
  O  O30  1  0.613549  0.567311  0.788520  1
  O  O31  1  0.622367  0.934975  0.792710  1
  O  O32  1  0.063826  0.755704  0.856317  1
  O  O33  1  0.823158  0.251258  0.882149  1
  O  O34  1  0.236941  0.045045  0.970641  1
  O  O35  1  0.242597  0.462072  0.978686  1
