# generated using pymatgen
data_Ba8Tm3Sc(CoO5)4
_symmetry_space_group_name_H-M   'P 1'
_cell_length_a   6.07538309
_cell_length_b   7.88941857
_cell_length_c   12.35239447
_cell_angle_alpha   91.54759985
_cell_angle_beta   90.01187583
_cell_angle_gamma   90.01541034
_symmetry_Int_Tables_number   1
_chemical_formula_structural   Ba8Tm3Sc(CoO5)4
_chemical_formula_sum   'Ba8 Tm3 Sc1 Co4 O20'
_cell_volume   591.84958502
_cell_formula_units_Z   1
loop_
 _symmetry_equiv_pos_site_id
 _symmetry_equiv_pos_as_xyz
  1  'x, y, z'
loop_
 _atom_site_type_symbol
 _atom_site_label
 _atom_site_symmetry_multiplicity
 _atom_site_fract_x
 _atom_site_fract_y
 _atom_site_fract_z
 _atom_site_occupancy
  Ba  Ba0  1  0.755559  0.492320  0.366254  1
  Ba  Ba1  1  0.742791  0.994436  0.859895  1
  Ba  Ba2  1  0.242659  0.503847  0.636509  1
  Ba  Ba3  1  0.257028  0.007728  0.137949  1
  Ba  Ba4  1  0.753226  0.995200  0.386634  1
  Ba  Ba5  1  0.745441  0.492197  0.880189  1
  Ba  Ba6  1  0.245982  0.008318  0.616309  1
  Ba  Ba7  1  0.253988  0.506569  0.116546  1
  Tm  Tm8  1  0.752043  0.761602  0.130172  1
  Tm  Tm9  1  0.251962  0.738778  0.370665  1
  Tm  Tm10  1  0.248498  0.238933  0.867948  1
  Sc  Sc11  1  0.747426  0.257830  0.632367  1
  Co  Co12  1  0.741830  0.746086  0.593643  1
  Co  Co13  1  0.757457  0.246234  0.091402  1
  Co  Co14  1  0.256888  0.254540  0.412168  1
  Co  Co15  1  0.241669  0.754242  0.907180  1
  O  O16  1  0.754109  0.975775  0.632929  1
  O  O17  1  0.745240  0.471695  0.133991  1
  O  O18  1  0.245806  0.029223  0.367933  1
  O  O19  1  0.254870  0.527319  0.864947  1
  O  O20  1  0.739745  0.052250  0.168304  1
  O  O21  1  0.759421  0.547217  0.665620  1
  O  O22  1  0.260265  0.949909  0.831060  1
  O  O23  1  0.240358  0.447621  0.334471  1
  O  O24  1  0.535532  0.746883  0.267608  1
  O  O25  1  0.966065  0.247959  0.759381  1
  O  O26  1  0.479813  0.252846  0.732086  1
  O  O27  1  0.037381  0.752986  0.231928  1
  O  O28  1  0.524788  0.231279  0.986221  1
  O  O29  1  0.974145  0.732169  0.488603  1
  O  O30  1  0.473848  0.768756  0.011445  1
  O  O31  1  0.015739  0.267391  0.514705  1
  O  O32  1  0.026845  0.233927  0.011595  1
  O  O33  1  0.472041  0.735042  0.515478  1
  O  O34  1  0.971000  0.765516  0.983636  1
  O  O35  1  0.528541  0.265377  0.492231  1
