# generated using pymatgen
data_TbHoGa3Cu
_symmetry_space_group_name_H-M   'P 1'
_cell_length_a   4.36615405
_cell_length_b   4.36617545
_cell_length_c   7.23115700
_cell_angle_alpha   89.99980088
_cell_angle_beta   90.00018001
_cell_angle_gamma   119.99771235
_symmetry_Int_Tables_number   1
_chemical_formula_structural   TbHoGa3Cu
_chemical_formula_sum   'Tb1 Ho1 Ga3 Cu1'
_cell_volume   119.38469973
_cell_formula_units_Z   1
loop_
 _symmetry_equiv_pos_site_id
 _symmetry_equiv_pos_as_xyz
  1  'x, y, z'
loop_
 _atom_site_type_symbol
 _atom_site_label
 _atom_site_symmetry_multiplicity
 _atom_site_fract_x
 _atom_site_fract_y
 _atom_site_fract_z
 _atom_site_occupancy
  Tb  Tb0  1  0.000002  0.999996  0.260375  1
  Ho  Ho1  1  0.999998  0.999995  0.730389  1
  Ga  Ga2  1  0.333324  0.666680  0.483380  1
  Ga  Ga3  1  0.333340  0.666666  0.040697  1
  Ga  Ga4  1  0.666670  0.333337  0.949137  1
  Cu  Cu5  1  0.666666  0.333326  0.536021  1
