# generated using pymatgen
data_Tb5Nd2Ho(Si3Pd)4
_symmetry_space_group_name_H-M   'P 1'
_cell_length_a   8.19058300
_cell_length_b   8.19135963
_cell_length_c   8.23756800
_cell_angle_alpha   90.00000000
_cell_angle_beta   90.00000000
_cell_angle_gamma   119.99685969
_symmetry_Int_Tables_number   1
_chemical_formula_structural   Tb5Nd2Ho(Si3Pd)4
_chemical_formula_sum   'Tb5 Nd2 Ho1 Si12 Pd4'
_cell_volume   478.64573706
_cell_formula_units_Z   1
loop_
 _symmetry_equiv_pos_site_id
 _symmetry_equiv_pos_as_xyz
  1  'x, y, z'
loop_
 _atom_site_type_symbol
 _atom_site_label
 _atom_site_symmetry_multiplicity
 _atom_site_fract_x
 _atom_site_fract_y
 _atom_site_fract_z
 _atom_site_occupancy
  Tb  Tb0  1  0.499910  0.500152  0.750000  1
  Tb  Tb1  1  0.500127  0.499908  0.250000  1
  Tb  Tb2  1  0.000241  0.500152  0.750000  1
  Tb  Tb3  1  0.999781  0.499908  0.250000  1
  Tb  Tb4  1  0.499842  0.999685  0.750000  1
  Nd  Nd5  1  0.999977  0.999954  0.750000  1
  Nd  Nd6  1  0.000006  0.000012  0.250000  1
  Ho  Ho7  1  0.500157  0.000315  0.250000  1
  Si  Si8  1  0.833358  0.166371  0.999544  1
  Si  Si9  1  0.166646  0.833632  0.000302  1
  Si  Si10  1  0.333014  0.166371  0.999544  1
  Si  Si11  1  0.166646  0.833632  0.499698  1
  Si  Si12  1  0.666986  0.833632  0.000302  1
  Si  Si13  1  0.833358  0.166371  0.500456  1
  Si  Si14  1  0.833640  0.667281  0.000084  1
  Si  Si15  1  0.666986  0.833632  0.499698  1
  Si  Si16  1  0.166348  0.332696  0.000671  1
  Si  Si17  1  0.333014  0.166371  0.500456  1
  Si  Si18  1  0.166348  0.332696  0.499329  1
  Si  Si19  1  0.833640  0.667281  0.499916  1
  Pd  Pd20  1  0.666486  0.332970  0.999432  1
  Pd  Pd21  1  0.333501  0.667003  0.999508  1
  Pd  Pd22  1  0.333501  0.667003  0.500492  1
  Pd  Pd23  1  0.666486  0.332970  0.500568  1
