# generated using pymatgen
data_HoTm(Zr4Sn3)2
_symmetry_space_group_name_H-M   'P 1'
_cell_length_a   5.89022100
_cell_length_b   8.59852268
_cell_length_c   8.61626454
_cell_angle_alpha   119.42166466
_cell_angle_beta   89.99985645
_cell_angle_gamma   90.00019016
_symmetry_Int_Tables_number   1
_chemical_formula_structural   HoTm(Zr4Sn3)2
_chemical_formula_sum   'Ho1 Tm1 Zr8 Sn6'
_cell_volume   380.10767188
_cell_formula_units_Z   1
loop_
 _symmetry_equiv_pos_site_id
 _symmetry_equiv_pos_as_xyz
  1  'x, y, z'
loop_
 _atom_site_type_symbol
 _atom_site_label
 _atom_site_symmetry_multiplicity
 _atom_site_fract_x
 _atom_site_fract_y
 _atom_site_fract_z
 _atom_site_occupancy
  Ho  Ho0  1  0.750001  0.235073  0.999695  1
  Tm  Tm1  1  0.250000  0.999471  0.762149  1
  Zr  Zr2  1  0.499752  0.334814  0.665794  1
  Zr  Zr3  1  0.499635  0.667916  0.331305  1
  Zr  Zr4  1  0.000363  0.667915  0.331304  1
  Zr  Zr5  1  0.000246  0.334815  0.665794  1
  Zr  Zr6  1  0.750000  0.748151  0.749035  1
  Zr  Zr7  1  0.750000  0.999778  0.245178  1
  Zr  Zr8  1  0.250001  0.756615  0.001114  1
  Zr  Zr9  1  0.250001  0.250507  0.253120  1
  Sn  Sn10  1  0.750001  0.610594  0.999400  1
  Sn  Sn11  1  0.750001  0.393871  0.394925  1
  Sn  Sn12  1  0.749999  0.997294  0.601287  1
  Sn  Sn13  1  0.249999  0.396996  0.002484  1
  Sn  Sn14  1  0.250000  0.605958  0.606735  1
  Sn  Sn15  1  0.249999  0.000230  0.390682  1
