# generated using pymatgen
data_Pr2Nd5Ho13Si16
_symmetry_space_group_name_H-M   'P 1'
_cell_length_a   7.72149989
_cell_length_b   7.72634230
_cell_length_c   14.27979200
_cell_angle_alpha   89.98859474
_cell_angle_beta   89.85452503
_cell_angle_gamma   90.03112405
_symmetry_Int_Tables_number   1
_chemical_formula_structural   Pr2Nd5Ho13Si16
_chemical_formula_sum   'Pr2 Nd5 Ho13 Si16'
_cell_volume   851.91452489
_cell_formula_units_Z   1
loop_
 _symmetry_equiv_pos_site_id
 _symmetry_equiv_pos_as_xyz
  1  'x, y, z'
loop_
 _atom_site_type_symbol
 _atom_site_label
 _atom_site_symmetry_multiplicity
 _atom_site_fract_x
 _atom_site_fract_y
 _atom_site_fract_z
 _atom_site_occupancy
  Pr  Pr0  1  0.357749  0.007600  0.958358  1
  Pr  Pr1  1  0.992265  0.643583  0.540649  1
  Nd  Nd2  1  0.490424  0.858206  0.209599  1
  Nd  Nd3  1  0.509565  0.140045  0.707016  1
  Nd  Nd4  1  0.859203  0.490264  0.791552  1
  Nd  Nd5  1  0.140164  0.508729  0.292881  1
  Nd  Nd6  1  0.007407  0.357879  0.042635  1
  Ho  Ho7  1  0.491226  0.360976  0.125015  1
  Ho  Ho8  1  0.991671  0.136844  0.624278  1
  Ho  Ho9  1  0.861839  0.008448  0.874610  1
  Ho  Ho10  1  0.137362  0.993132  0.375089  1
  Ho  Ho11  1  0.511031  0.639526  0.622945  1
  Ho  Ho12  1  0.361382  0.491241  0.875162  1
  Ho  Ho13  1  0.639553  0.509874  0.376171  1
  Ho  Ho14  1  0.006682  0.861300  0.126681  1
  Ho  Ho15  1  0.636584  0.996019  0.456036  1
  Ho  Ho16  1  0.318365  0.316831  0.499834  1
  Ho  Ho17  1  0.184105  0.816543  0.749131  1
  Ho  Ho18  1  0.815294  0.182764  0.250575  1
  Ho  Ho19  1  0.682719  0.681513  0.000291  1
  Si  Si20  1  0.294363  0.938902  0.560106  1
  Si  Si21  1  0.709993  0.063465  0.061949  1
  Si  Si22  1  0.933489  0.287551  0.438063  1
  Si  Si23  1  0.438093  0.209128  0.312896  1
  Si  Si24  1  0.564994  0.788211  0.811366  1
  Si  Si25  1  0.211915  0.435782  0.687944  1
  Si  Si26  1  0.788403  0.564933  0.189092  1
  Si  Si27  1  0.063946  0.709827  0.938727  1
  Si  Si28  1  0.798595  0.845309  0.690938  1
  Si  Si29  1  0.202517  0.153070  0.189880  1
  Si  Si30  1  0.843260  0.801508  0.314067  1
  Si  Si31  1  0.351046  0.707151  0.437739  1
  Si  Si32  1  0.653636  0.296391  0.939765  1
  Si  Si33  1  0.701432  0.342183  0.558837  1
  Si  Si34  1  0.295876  0.652595  0.060998  1
  Si  Si35  1  0.153847  0.202682  0.809122  1
