# generated using pymatgen
data_Hf5Zr15Si15As
_symmetry_space_group_name_H-M   'P 1'
_cell_length_a   7.14832958
_cell_length_b   7.14196694
_cell_length_c   13.01999505
_cell_angle_alpha   89.97649927
_cell_angle_beta   89.83171063
_cell_angle_gamma   89.97874106
_symmetry_Int_Tables_number   1
_chemical_formula_structural   Hf5Zr15Si15As
_chemical_formula_sum   'Hf5 Zr15 Si15 As1'
_cell_volume   664.70857664
_cell_formula_units_Z   1
loop_
 _symmetry_equiv_pos_site_id
 _symmetry_equiv_pos_as_xyz
  1  'x, y, z'
loop_
 _atom_site_type_symbol
 _atom_site_label
 _atom_site_symmetry_multiplicity
 _atom_site_fract_x
 _atom_site_fract_y
 _atom_site_fract_z
 _atom_site_occupancy
  Hf  Hf0  1  0.146658  0.999124  0.377133  1
  Hf  Hf1  1  0.647817  0.501835  0.373100  1
  Hf  Hf2  1  0.351708  0.499407  0.872585  1
  Hf  Hf3  1  0.004384  0.851043  0.124418  1
  Hf  Hf4  1  0.998126  0.146160  0.622673  1
  Zr  Zr5  1  0.676435  0.324322  0.749677  1
  Zr  Zr6  1  0.324518  0.675397  0.250309  1
  Zr  Zr7  1  0.823767  0.824235  0.499831  1
  Zr  Zr8  1  0.177028  0.176499  0.000165  1
  Zr  Zr9  1  0.498039  0.150065  0.534760  1
  Zr  Zr10  1  0.499892  0.847736  0.033877  1
  Zr  Zr11  1  0.651392  0.000150  0.286266  1
  Zr  Zr12  1  0.346681  0.995903  0.783643  1
  Zr  Zr13  1  0.849091  0.502867  0.964937  1
  Zr  Zr14  1  0.151798  0.497980  0.465215  1
  Zr  Zr15  1  0.000561  0.651944  0.714834  1
  Zr  Zr16  1  0.003816  0.351372  0.217998  1
  Zr  Zr17  1  0.498845  0.353555  0.126061  1
  Zr  Zr18  1  0.500907  0.646059  0.626705  1
  Zr  Zr19  1  0.852038  0.002164  0.877190  1
  Si  Si20  1  0.204991  0.856105  0.572515  1
  Si  Si21  1  0.643900  0.705317  0.823088  1
  Si  Si22  1  0.357471  0.293794  0.323763  1
  Si  Si23  1  0.855698  0.205926  0.426904  1
  Si  Si24  1  0.143964  0.794225  0.927385  1
  Si  Si25  1  0.705803  0.646505  0.178027  1
  Si  Si26  1  0.293148  0.354351  0.676515  1
  Si  Si27  1  0.542128  0.199881  0.932183  1
  Si  Si28  1  0.448124  0.798773  0.437248  1
  Si  Si29  1  0.699875  0.949793  0.687252  1
  Si  Si30  1  0.299755  0.050415  0.188243  1
  Si  Si31  1  0.800692  0.448479  0.561796  1
  Si  Si32  1  0.200944  0.552123  0.062128  1
  Si  Si33  1  0.949284  0.701543  0.313234  1
  Si  Si34  1  0.051177  0.300097  0.811661  1
  As  As35  1  0.799545  0.144858  0.076686  1
