# generated using pymatgen
data_Th3Sc(Ga3Ir)6
_symmetry_space_group_name_H-M   'P 1'
_cell_length_a   7.67384273
_cell_length_b   7.68710694
_cell_length_c   9.45428800
_cell_angle_alpha   90.00000000
_cell_angle_beta   90.00000000
_cell_angle_gamma   119.78864602
_symmetry_Int_Tables_number   1
_chemical_formula_structural   Th3Sc(Ga3Ir)6
_chemical_formula_sum   'Th3 Sc1 Ga18 Ir6'
_cell_volume   484.01216611
_cell_formula_units_Z   1
loop_
 _symmetry_equiv_pos_site_id
 _symmetry_equiv_pos_as_xyz
  1  'x, y, z'
loop_
 _atom_site_type_symbol
 _atom_site_label
 _atom_site_symmetry_multiplicity
 _atom_site_fract_x
 _atom_site_fract_y
 _atom_site_fract_z
 _atom_site_occupancy
  Th  Th0  1  0.997217  0.670759  0.250000  1
  Th  Th1  1  0.001814  0.329493  0.750000  1
  Th  Th2  1  0.670083  0.996159  0.250000  1
  Sc  Sc3  1  0.327612  0.005022  0.750000  1
  Ga  Ga4  1  0.137864  0.133021  0.250000  1
  Ga  Ga5  1  0.871426  0.869694  0.750000  1
  Ga  Ga6  1  0.004973  0.335324  0.080137  1
  Ga  Ga7  1  0.006636  0.675048  0.914438  1
  Ga  Ga8  1  0.006636  0.675048  0.585562  1
  Ga  Ga9  1  0.335069  0.002925  0.430391  1
  Ga  Ga10  1  0.004973  0.335324  0.419863  1
  Ga  Ga11  1  0.654252  0.997087  0.585436  1
  Ga  Ga12  1  0.654252  0.997087  0.914564  1
  Ga  Ga13  1  0.335069  0.002925  0.069609  1
  Ga  Ga14  1  0.335167  0.327287  0.567071  1
  Ga  Ga15  1  0.663558  0.663255  0.442507  1
  Ga  Ga16  1  0.663558  0.663255  0.057493  1
  Ga  Ga17  1  0.335167  0.327287  0.932929  1
  Ga  Ga18  1  0.343381  0.543020  0.250000  1
  Ga  Ga19  1  0.654268  0.447201  0.750000  1
  Ga  Ga20  1  0.542604  0.338112  0.250000  1
  Ga  Ga21  1  0.453964  0.662334  0.750000  1
  Ir  Ir22  1  0.676660  0.330830  0.000048  1
  Ir  Ir23  1  0.326768  0.670024  0.999882  1
  Ir  Ir24  1  0.326768  0.670024  0.500118  1
  Ir  Ir25  1  0.676660  0.330830  0.499952  1
  Ir  Ir26  1  0.996800  0.000813  0.000159  1
  Ir  Ir27  1  0.996800  0.000813  0.499841  1
