# generated using pymatgen
data_Dy4Tm2Al24ZnOs7
_symmetry_space_group_name_H-M   'P 1'
_cell_length_a   8.85214371
_cell_length_b   8.85214380
_cell_length_c   9.53211473
_cell_angle_alpha   89.98714702
_cell_angle_beta   90.01285197
_cell_angle_gamma   120.09725684
_symmetry_Int_Tables_number   1
_chemical_formula_structural   Dy4Tm2Al24ZnOs7
_chemical_formula_sum   'Dy4 Tm2 Al24 Zn1 Os7'
_cell_volume   646.23479867
_cell_formula_units_Z   1
loop_
 _symmetry_equiv_pos_site_id
 _symmetry_equiv_pos_as_xyz
  1  'x, y, z'
loop_
 _atom_site_type_symbol
 _atom_site_label
 _atom_site_symmetry_multiplicity
 _atom_site_fract_x
 _atom_site_fract_y
 _atom_site_fract_z
 _atom_site_occupancy
  Dy  Dy0  1  0.191413  0.386214  0.248317  1
  Dy  Dy1  1  0.808587  0.613786  0.751683  1
  Dy  Dy2  1  0.613786  0.808587  0.248317  1
  Dy  Dy3  1  0.386214  0.191413  0.751683  1
  Tm  Tm4  1  0.195644  0.804356  0.253522  1
  Tm  Tm5  1  0.804356  0.195644  0.746478  1
  Al  Al6  1  0.329404  0.670596  0.022314  1
  Al  Al7  1  0.670596  0.329404  0.977686  1
  Al  Al8  1  0.666012  0.333988  0.518004  1
  Al  Al9  1  0.333988  0.666012  0.481996  1
  Al  Al10  1  0.162493  0.325980  0.574280  1
  Al  Al11  1  0.837507  0.674020  0.425720  1
  Al  Al12  1  0.674020  0.837507  0.574280  1
  Al  Al13  1  0.849423  0.677474  0.081532  1
  Al  Al14  1  0.325980  0.162493  0.425720  1
  Al  Al15  1  0.150577  0.322526  0.918468  1
  Al  Al16  1  0.162904  0.837096  0.575003  1
  Al  Al17  1  0.322526  0.150577  0.081532  1
  Al  Al18  1  0.837096  0.162904  0.424997  1
  Al  Al19  1  0.677474  0.849423  0.918468  1
  Al  Al20  1  0.836525  0.163475  0.076171  1
  Al  Al21  1  0.163475  0.836525  0.923829  1
  Al  Al22  1  0.561075  0.121466  0.249270  1
  Al  Al23  1  0.438925  0.878534  0.750730  1
  Al  Al24  1  0.878534  0.438925  0.249270  1
  Al  Al25  1  0.121466  0.561075  0.750730  1
  Al  Al26  1  0.563642  0.436358  0.254539  1
  Al  Al27  1  0.436358  0.563642  0.745461  1
  Al  Al28  1  0.999638  0.000362  0.250526  1
  Al  Al29  1  0.000362  0.999638  0.749474  1
  Zn  Zn30  1  0.500000  0.500000  0.000000  1
  Os  Os31  1  0.500000  0.000000  0.000000  1
  Os  Os32  1  0.000000  0.500000  0.000000  1
  Os  Os33  1  0.500000  0.000000  0.500000  1
  Os  Os34  1  0.000000  0.500000  0.500000  1
  Os  Os35  1  0.500000  0.500000  0.500000  1
  Os  Os36  1  0.000000  0.000000  0.000000  1
  Os  Os37  1  0.000000  0.000000  0.500000  1
