# generated using pymatgen
data_Lu12Ni3BiRh2
_symmetry_space_group_name_H-M   'P 1'
_cell_length_a   8.14943369
_cell_length_b   8.14930201
_cell_length_c   8.14943400
_cell_angle_alpha   111.76682474
_cell_angle_beta   110.42685788
_cell_angle_gamma   106.27030162
_symmetry_Int_Tables_number   1
_chemical_formula_structural   Lu12Ni3BiRh2
_chemical_formula_sum   'Lu12 Ni3 Bi1 Rh2'
_cell_volume   415.60059303
_cell_formula_units_Z   1
loop_
 _symmetry_equiv_pos_site_id
 _symmetry_equiv_pos_as_xyz
  1  'x, y, z'
loop_
 _atom_site_type_symbol
 _atom_site_label
 _atom_site_symmetry_multiplicity
 _atom_site_fract_x
 _atom_site_fract_y
 _atom_site_fract_z
 _atom_site_occupancy
  Lu  Lu0  1  0.819700  0.716216  0.535899  1
  Lu  Lu1  1  0.178432  0.283307  0.461765  1
  Lu  Lu2  1  0.178458  0.716693  0.895126  1
  Lu  Lu3  1  0.819683  0.283784  0.103482  1
  Lu  Lu4  1  0.680413  0.370671  0.689386  1
  Lu  Lu5  1  0.318716  0.629329  0.309744  1
  Lu  Lu6  1  0.680099  0.990231  0.309280  1
  Lu  Lu7  1  0.319050  0.009769  0.689869  1
  Lu  Lu8  1  0.584258  0.775518  0.808923  1
  Lu  Lu9  1  0.413328  0.219243  0.193961  1
  Lu  Lu10  1  0.974718  0.780757  0.194084  1
  Lu  Lu11  1  0.033407  0.224482  0.808741  1
  Ni  Ni12  1  0.351405  0.000000  0.351405  1
  Ni  Ni13  1  0.120437  0.622005  0.498318  1
  Ni  Ni14  1  0.876313  0.377995  0.498432  1
  Bi  Bi15  1  0.501204  0.500000  0.001204  1
  Rh  Rh16  1  0.651240  0.000000  0.651240  1
  Rh  Rh17  1  0.999139  0.000000  0.999139  1
