# generated using pymatgen
data_Dy3CdCu(HgAu)2
_symmetry_space_group_name_H-M   'P 1'
_cell_length_a   7.77903200
_cell_length_b   7.86678059
_cell_length_c   3.76167200
_cell_angle_alpha   90.00000000
_cell_angle_beta   90.00000000
_cell_angle_gamma   119.63169896
_symmetry_Int_Tables_number   1
_chemical_formula_structural   Dy3CdCu(HgAu)2
_chemical_formula_sum   'Dy3 Cd1 Cu1 Hg2 Au2'
_cell_volume   200.09396544
_cell_formula_units_Z   1
loop_
 _symmetry_equiv_pos_site_id
 _symmetry_equiv_pos_as_xyz
  1  'x, y, z'
loop_
 _atom_site_type_symbol
 _atom_site_label
 _atom_site_symmetry_multiplicity
 _atom_site_fract_x
 _atom_site_fract_y
 _atom_site_fract_z
 _atom_site_occupancy
  Dy  Dy0  1  0.006111  0.412206  0.500000  1
  Dy  Dy1  1  0.593905  0.587794  0.500000  1
  Dy  Dy2  1  0.397239  0.000000  0.500000  1
  Cd  Cd3  1  0.749800  0.000000  0.000000  1
  Cu  Cu4  1  0.998966  0.000000  0.500000  1
  Hg  Hg5  1  0.995072  0.743753  0.000000  1
  Hg  Hg6  1  0.251320  0.256247  0.000000  1
  Au  Au7  1  0.340579  0.673573  0.000000  1
  Au  Au8  1  0.667007  0.326427  0.000000  1
