# generated using pymatgen
data_AcSmPdS3
_symmetry_space_group_name_H-M   'P 1'
_cell_length_a   6.97536333
_cell_length_b   6.97536214
_cell_length_c   10.08790000
_cell_angle_alpha   90.00000000
_cell_angle_beta   90.00000000
_cell_angle_gamma   146.10609649
_symmetry_Int_Tables_number   1
_chemical_formula_structural   AcSmPdS3
_chemical_formula_sum   'Ac2 Sm2 Pd2 S6'
_cell_volume   273.71673846
_cell_formula_units_Z   2
loop_
 _symmetry_equiv_pos_site_id
 _symmetry_equiv_pos_as_xyz
  1  'x, y, z'
loop_
 _atom_site_type_symbol
 _atom_site_label
 _atom_site_symmetry_multiplicity
 _atom_site_fract_x
 _atom_site_fract_y
 _atom_site_fract_z
 _atom_site_occupancy
  Ac  Ac0  1  0.752435  0.247565  0.250000  1
  Ac  Ac1  1  0.247565  0.752435  0.750000  1
  Sm  Sm2  1  0.500000  0.500000  0.000000  1
  Sm  Sm3  1  0.500000  0.500000  0.500000  1
  Pd  Pd4  1  0.025148  0.974852  0.250000  1
  Pd  Pd5  1  0.974852  0.025148  0.750000  1
  S  S6  1  0.146584  0.853416  0.061744  1
  S  S7  1  0.412655  0.587345  0.250000  1
  S  S8  1  0.146584  0.853416  0.438256  1
  S  S9  1  0.853416  0.146584  0.561743  1
  S  S10  1  0.587345  0.412655  0.750000  1
  S  S11  1  0.853416  0.146584  0.938257  1
