# generated using pymatgen
data_Tm4FeBr5
_symmetry_space_group_name_H-M   'P 1'
_cell_length_a   11.72737700
_cell_length_b   11.72737700
_cell_length_c   17.04058800
_cell_angle_alpha   90.00000000
_cell_angle_beta   90.00000000
_cell_angle_gamma   90.00000000
_symmetry_Int_Tables_number   1
_chemical_formula_structural   Tm4FeBr5
_chemical_formula_sum   'Tm32 Fe8 Br40'
_cell_volume   2343.61543540
_cell_formula_units_Z   8
loop_
 _symmetry_equiv_pos_site_id
 _symmetry_equiv_pos_as_xyz
  1  'x, y, z'
loop_
 _atom_site_type_symbol
 _atom_site_label
 _atom_site_symmetry_multiplicity
 _atom_site_fract_x
 _atom_site_fract_y
 _atom_site_fract_z
 _atom_site_occupancy
  Tm  Tm0  1  0.374663  0.625337  0.088704  1
  Tm  Tm1  1  0.874663  0.874663  0.588704  1
  Tm  Tm2  1  0.125337  0.125337  0.588704  1
  Tm  Tm3  1  0.625337  0.374663  0.088704  1
  Tm  Tm4  1  0.125337  0.874663  0.411296  1
  Tm  Tm5  1  0.625337  0.625337  0.911296  1
  Tm  Tm6  1  0.374663  0.374663  0.911296  1
  Tm  Tm7  1  0.874663  0.125337  0.411296  1
  Tm  Tm8  1  0.385500  0.179418  0.075857  1
  Tm  Tm9  1  0.885500  0.320582  0.575857  1
  Tm  Tm10  1  0.114500  0.679418  0.575857  1
  Tm  Tm11  1  0.614500  0.820582  0.075857  1
  Tm  Tm12  1  0.114500  0.320582  0.424143  1
  Tm  Tm13  1  0.614500  0.179418  0.924143  1
  Tm  Tm14  1  0.385500  0.820582  0.924143  1
  Tm  Tm15  1  0.885500  0.679418  0.424143  1
  Tm  Tm16  1  0.179418  0.385500  0.075857  1
  Tm  Tm17  1  0.320582  0.885500  0.575857  1
  Tm  Tm18  1  0.679418  0.114500  0.575857  1
  Tm  Tm19  1  0.820582  0.614500  0.075857  1
  Tm  Tm20  1  0.320582  0.114500  0.424143  1
  Tm  Tm21  1  0.179418  0.614500  0.924143  1
  Tm  Tm22  1  0.820582  0.385500  0.924143  1
  Tm  Tm23  1  0.679418  0.885500  0.424143  1
  Tm  Tm24  1  0.387111  0.387111  0.222092  1
  Tm  Tm25  1  0.887111  0.112889  0.722092  1
  Tm  Tm26  1  0.112889  0.887111  0.722092  1
  Tm  Tm27  1  0.612889  0.612889  0.222092  1
  Tm  Tm28  1  0.112889  0.112889  0.277908  1
  Tm  Tm29  1  0.612889  0.387111  0.777908  1
  Tm  Tm30  1  0.387111  0.612889  0.777908  1
  Tm  Tm31  1  0.887111  0.887111  0.277908  1
  Fe  Fe32  1  0.398497  0.398497  0.069682  1
  Fe  Fe33  1  0.898497  0.101503  0.569682  1
  Fe  Fe34  1  0.101503  0.898497  0.569682  1
  Fe  Fe35  1  0.601503  0.601503  0.069682  1
  Fe  Fe36  1  0.101503  0.101503  0.430318  1
  Fe  Fe37  1  0.601503  0.398497  0.930318  1
  Fe  Fe38  1  0.398497  0.601503  0.930318  1
  Fe  Fe39  1  0.898497  0.898497  0.430318  1
  Br  Br40  1  0.365342  0.134658  0.250000  1
  Br  Br41  1  0.865342  0.365342  0.750000  1
  Br  Br42  1  0.134658  0.634658  0.750000  1
  Br  Br43  1  0.634658  0.865342  0.250000  1
  Br  Br44  1  0.134658  0.365342  0.250000  1
  Br  Br45  1  0.634658  0.134658  0.750000  1
  Br  Br46  1  0.365342  0.865342  0.750000  1
  Br  Br47  1  0.865342  0.634658  0.250000  1
  Br  Br48  1  0.145061  0.145061  0.088801  1
  Br  Br49  1  0.645061  0.354939  0.588801  1
  Br  Br50  1  0.354939  0.645061  0.588801  1
  Br  Br51  1  0.854939  0.854939  0.088801  1
  Br  Br52  1  0.354939  0.354939  0.411199  1
  Br  Br53  1  0.854939  0.145061  0.911199  1
  Br  Br54  1  0.145061  0.854939  0.911199  1
  Br  Br55  1  0.645061  0.645061  0.411199  1
  Br  Br56  1  0.123500  0.876500  0.233680  1
  Br  Br57  1  0.623500  0.623500  0.733680  1
  Br  Br58  1  0.376500  0.376500  0.733680  1
  Br  Br59  1  0.876500  0.123500  0.233680  1
  Br  Br60  1  0.376500  0.623500  0.266320  1
  Br  Br61  1  0.876500  0.876500  0.766320  1
  Br  Br62  1  0.123500  0.123500  0.766320  1
  Br  Br63  1  0.623500  0.376500  0.266320  1
  Br  Br64  1  0.378357  0.894943  0.087065  1
  Br  Br65  1  0.878357  0.605057  0.587065  1
  Br  Br66  1  0.121643  0.394943  0.587065  1
  Br  Br67  1  0.621643  0.105057  0.087065  1
  Br  Br68  1  0.121643  0.605057  0.412935  1
  Br  Br69  1  0.621643  0.894943  0.912935  1
  Br  Br70  1  0.378357  0.105057  0.912935  1
  Br  Br71  1  0.878357  0.394943  0.412935  1
  Br  Br72  1  0.894943  0.378357  0.087065  1
  Br  Br73  1  0.605057  0.878357  0.587065  1
  Br  Br74  1  0.394943  0.121643  0.587065  1
  Br  Br75  1  0.105057  0.621643  0.087065  1
  Br  Br76  1  0.605057  0.121643  0.412935  1
  Br  Br77  1  0.894943  0.621643  0.912935  1
  Br  Br78  1  0.105057  0.378357  0.912935  1
  Br  Br79  1  0.394943  0.878357  0.412935  1
