# generated using pymatgen
data_YbDy6NiI12
_symmetry_space_group_name_H-M   'P 1'
_cell_length_a   9.76772844
_cell_length_b   9.76772848
_cell_length_c   9.76773002
_cell_angle_alpha   106.84425369
_cell_angle_beta   106.84424484
_cell_angle_gamma   106.84425862
_symmetry_Int_Tables_number   1
_chemical_formula_structural   YbDy6NiI12
_chemical_formula_sum   'Yb1 Dy6 Ni1 I12'
_cell_volume   779.38968498
_cell_formula_units_Z   1
loop_
 _symmetry_equiv_pos_site_id
 _symmetry_equiv_pos_as_xyz
  1  'x, y, z'
loop_
 _atom_site_type_symbol
 _atom_site_label
 _atom_site_symmetry_multiplicity
 _atom_site_fract_x
 _atom_site_fract_y
 _atom_site_fract_z
 _atom_site_occupancy
  Yb  Yb0  1  0.500000  0.500000  0.500000  1
  Dy  Dy1  1  0.905034  0.975751  0.707627  1
  Dy  Dy2  1  0.707627  0.905034  0.975751  1
  Dy  Dy3  1  0.975751  0.707627  0.905034  1
  Dy  Dy4  1  0.094966  0.024249  0.292373  1
  Dy  Dy5  1  0.292373  0.094966  0.024249  1
  Dy  Dy6  1  0.024249  0.292373  0.094966  1
  Ni  Ni7  1  0.000000  0.000000  0.000000  1
  I  I8  1  0.927043  0.320940  0.777192  1
  I  I9  1  0.777192  0.927043  0.320940  1
  I  I10  1  0.320940  0.777192  0.927043  1
  I  I11  1  0.072957  0.679060  0.222808  1
  I  I12  1  0.222808  0.072957  0.679060  1
  I  I13  1  0.679060  0.222808  0.072957  1
  I  I14  1  0.543806  0.848194  0.621013  1
  I  I15  1  0.621013  0.543806  0.848194  1
  I  I16  1  0.848194  0.621013  0.543806  1
  I  I17  1  0.456194  0.151806  0.378987  1
  I  I18  1  0.378987  0.456194  0.151806  1
  I  I19  1  0.151806  0.378987  0.456194  1
