# generated using pymatgen
data_PrNi3BIr
_symmetry_space_group_name_H-M   'P 1'
_cell_length_a   5.25736800
_cell_length_b   5.25736798
_cell_length_c   7.13149800
_cell_angle_alpha   90.00000000
_cell_angle_beta   90.00000000
_cell_angle_gamma   121.40904842
_symmetry_Int_Tables_number   1
_chemical_formula_structural   PrNi3BIr
_chemical_formula_sum   'Pr2 Ni6 B2 Ir2'
_cell_volume   168.23060939
_cell_formula_units_Z   2
loop_
 _symmetry_equiv_pos_site_id
 _symmetry_equiv_pos_as_xyz
  1  'x, y, z'
loop_
 _atom_site_type_symbol
 _atom_site_label
 _atom_site_symmetry_multiplicity
 _atom_site_fract_x
 _atom_site_fract_y
 _atom_site_fract_z
 _atom_site_occupancy
  Pr  Pr0  1  0.000000  0.000000  0.500000  1
  Pr  Pr1  1  0.000000  0.000000  0.000000  1
  Ni  Ni2  1  0.334401  0.665599  0.000000  1
  Ni  Ni3  1  0.665599  0.334401  0.000000  1
  Ni  Ni4  1  0.500000  0.000000  0.294488  1
  Ni  Ni5  1  0.000000  0.500000  0.294488  1
  Ni  Ni6  1  0.500000  0.000000  0.705512  1
  Ni  Ni7  1  0.000000  0.500000  0.705512  1
  B  B8  1  0.672214  0.327786  0.500000  1
  B  B9  1  0.327786  0.672214  0.500000  1
  Ir  Ir10  1  0.500000  0.500000  0.290969  1
  Ir  Ir11  1  0.500000  0.500000  0.709031  1
