# generated using pymatgen
data_Ho4Fe16Mo(P4W)3
_symmetry_space_group_name_H-M   'P 1'
_cell_length_a   3.69388200
_cell_length_b   10.37895664
_cell_length_c   12.03496563
_cell_angle_alpha   90.08539872
_cell_angle_beta   90.00000000
_cell_angle_gamma   90.00000000
_symmetry_Int_Tables_number   1
_chemical_formula_structural   Ho4Fe16Mo(P4W)3
_chemical_formula_sum   'Ho4 Fe16 Mo1 P12 W3'
_cell_volume   461.40371574
_cell_formula_units_Z   1
loop_
 _symmetry_equiv_pos_site_id
 _symmetry_equiv_pos_as_xyz
  1  'x, y, z'
loop_
 _atom_site_type_symbol
 _atom_site_label
 _atom_site_symmetry_multiplicity
 _atom_site_fract_x
 _atom_site_fract_y
 _atom_site_fract_z
 _atom_site_occupancy
  Ho  Ho0  1  0.250000  0.582675  0.709075  1
  Ho  Ho1  1  0.250000  0.917300  0.209001  1
  Ho  Ho2  1  0.750000  0.416223  0.291301  1
  Ho  Ho3  1  0.750000  0.083345  0.790965  1
  Fe  Fe4  1  0.250000  0.409006  0.491714  1
  Fe  Fe5  1  0.250000  0.090053  0.992117  1
  Fe  Fe6  1  0.750000  0.590199  0.507811  1
  Fe  Fe7  1  0.750000  0.911975  0.007614  1
  Fe  Fe8  1  0.250000  0.218652  0.175786  1
  Fe  Fe9  1  0.250000  0.281811  0.675878  1
  Fe  Fe10  1  0.750000  0.782637  0.823136  1
  Fe  Fe11  1  0.750000  0.717920  0.323825  1
  Fe  Fe12  1  0.250000  0.878291  0.699488  1
  Fe  Fe13  1  0.250000  0.621291  0.200442  1
  Fe  Fe14  1  0.750000  0.120308  0.300775  1
  Fe  Fe15  1  0.750000  0.379496  0.800062  1
  Fe  Fe16  1  0.250000  0.463559  0.934272  1
  Fe  Fe17  1  0.250000  0.036147  0.434402  1
  Fe  Fe18  1  0.750000  0.535897  0.066669  1
  Fe  Fe19  1  0.750000  0.963235  0.566209  1
  Mo  Mo20  1  0.250000  0.706987  0.989410  1
  P  P21  1  0.250000  0.424281  0.114287  1
  P  P22  1  0.250000  0.075974  0.614358  1
  P  P23  1  0.750000  0.576402  0.886632  1
  P  P24  1  0.750000  0.923999  0.385946  1
  P  P25  1  0.250000  0.267973  0.863559  1
  P  P26  1  0.250000  0.231809  0.363314  1
  P  P27  1  0.750000  0.732712  0.135495  1
  P  P28  1  0.750000  0.766469  0.635343  1
  P  P29  1  0.250000  0.594015  0.386682  1
  P  P30  1  0.250000  0.904390  0.885960  1
  P  P31  1  0.750000  0.405252  0.613678  1
  P  P32  1  0.750000  0.095912  0.115237  1
  W  W33  1  0.250000  0.794256  0.489310  1
  W  W34  1  0.750000  0.294403  0.009987  1
  W  W35  1  0.750000  0.205146  0.510263  1
