# generated using pymatgen
data_TbY7(BBr6)2
_symmetry_space_group_name_H-M   'P 1'
_cell_length_a   3.98151800
_cell_length_b   13.26610958
_cell_length_c   13.72755900
_cell_angle_alpha   90.34218018
_cell_angle_beta   90.00000000
_cell_angle_gamma   90.00000000
_symmetry_Int_Tables_number   1
_chemical_formula_structural   TbY7(BBr6)2
_chemical_formula_sum   'Tb1 Y7 B2 Br12'
_cell_volume   725.06649612
_cell_formula_units_Z   1
loop_
 _symmetry_equiv_pos_site_id
 _symmetry_equiv_pos_as_xyz
  1  'x, y, z'
loop_
 _atom_site_type_symbol
 _atom_site_label
 _atom_site_symmetry_multiplicity
 _atom_site_fract_x
 _atom_site_fract_y
 _atom_site_fract_z
 _atom_site_occupancy
  Tb  Tb0  1  0.500000  0.122653  0.856077  1
  Y  Y1  1  0.000000  0.101408  0.081344  1
  Y  Y2  1  0.000000  0.898124  0.919155  1
  Y  Y3  1  0.000000  0.601916  0.418836  1
  Y  Y4  1  0.000000  0.399121  0.580155  1
  Y  Y5  1  0.500000  0.877630  0.143759  1
  Y  Y6  1  0.500000  0.623039  0.643923  1
  Y  Y7  1  0.500000  0.377476  0.355607  1
  B  B8  1  0.500000  0.000215  0.999753  1
  B  B9  1  0.500000  0.500633  0.499483  1
  Br  Br10  1  0.500000  0.269747  0.680990  1
  Br  Br11  1  0.500000  0.731004  0.317623  1
  Br  Br12  1  0.500000  0.767901  0.817954  1
  Br  Br13  1  0.500000  0.230559  0.183554  1
  Br  Br14  1  0.000000  0.260363  0.933629  1
  Br  Br15  1  0.000000  0.740045  0.068753  1
  Br  Br16  1  0.000000  0.479435  0.240051  1
  Br  Br17  1  0.000000  0.520649  0.759300  1
  Br  Br18  1  0.000000  0.979917  0.260100  1
  Br  Br19  1  0.000000  0.017625  0.740292  1
  Br  Br20  1  0.000000  0.240570  0.430393  1
  Br  Br21  1  0.000000  0.759971  0.569268  1
