# generated using pymatgen
data_Tm5Lu5(In2Cu)4
_symmetry_space_group_name_H-M   'P 1'
_cell_length_a   3.60971100
_cell_length_b   7.93469010
_cell_length_c   17.70313345
_cell_angle_alpha   89.93977334
_cell_angle_beta   90.00000000
_cell_angle_gamma   90.00000000
_symmetry_Int_Tables_number   1
_chemical_formula_structural   Tm5Lu5(In2Cu)4
_chemical_formula_sum   'Tm5 Lu5 In8 Cu4'
_cell_volume   507.05177255
_cell_formula_units_Z   1
loop_
 _symmetry_equiv_pos_site_id
 _symmetry_equiv_pos_as_xyz
  1  'x, y, z'
loop_
 _atom_site_type_symbol
 _atom_site_label
 _atom_site_symmetry_multiplicity
 _atom_site_fract_x
 _atom_site_fract_y
 _atom_site_fract_z
 _atom_site_occupancy
  Tm  Tm0  1  0.000000  0.499991  0.499951  1
  Tm  Tm1  1  0.000000  0.999989  0.999989  1
  Tm  Tm2  1  0.000000  0.736526  0.280075  1
  Tm  Tm3  1  0.000000  0.263484  0.719899  1
  Tm  Tm4  1  0.000000  0.763535  0.780102  1
  Lu  Lu5  1  0.000000  0.236586  0.220071  1
  Lu  Lu6  1  0.000000  0.614598  0.083563  1
  Lu  Lu7  1  0.000000  0.385210  0.916505  1
  Lu  Lu8  1  0.000000  0.885208  0.583427  1
  Lu  Lu9  1  0.000000  0.114848  0.416472  1
  In  In10  1  0.500000  0.709146  0.931767  1
  In  In11  1  0.500000  0.290706  0.068514  1
  In  In12  1  0.500000  0.791035  0.431739  1
  In  In13  1  0.500000  0.209130  0.568246  1
  In  In14  1  0.500000  0.583208  0.649807  1
  In  In15  1  0.500000  0.416457  0.349983  1
  In  In16  1  0.500000  0.917176  0.149831  1
  In  In17  1  0.500000  0.083244  0.850202  1
  Cu  Cu18  1  0.500000  0.521366  0.197138  1
  Cu  Cu19  1  0.500000  0.478058  0.802905  1
  Cu  Cu20  1  0.500000  0.978155  0.697079  1
  Cu  Cu21  1  0.500000  0.022344  0.302734  1
