# generated using pymatgen
data_Cu11(P2O7)4
_symmetry_space_group_name_H-M   'P 1'
_cell_length_a   6.26491716
_cell_length_b   8.37397101
_cell_length_c   10.23645900
_cell_angle_alpha   104.42959397
_cell_angle_beta   90.97826815
_cell_angle_gamma   92.77743068
_symmetry_Int_Tables_number   1
_chemical_formula_structural   Cu11(P2O7)4
_chemical_formula_sum   'Cu11 P8 O28'
_cell_volume   519.23991861
_cell_formula_units_Z   1
loop_
 _symmetry_equiv_pos_site_id
 _symmetry_equiv_pos_as_xyz
  1  'x, y, z'
loop_
 _atom_site_type_symbol
 _atom_site_label
 _atom_site_symmetry_multiplicity
 _atom_site_fract_x
 _atom_site_fract_y
 _atom_site_fract_z
 _atom_site_occupancy
  Cu  Cu0  1  0.005161  0.166993  0.634583  1
  Cu  Cu1  1  0.105079  0.597024  0.098710  1
  Cu  Cu2  1  0.500000  0.500000  0.500000  1
  Cu  Cu3  1  0.894921  0.402976  0.901290  1
  Cu  Cu4  1  0.994839  0.833007  0.365417  1
  Cu  Cu5  1  0.000000  0.500000  0.500000  1
  Cu  Cu6  1  0.311130  0.878039  0.646828  1
  Cu  Cu7  1  0.358565  0.890051  0.056920  1
  Cu  Cu8  1  0.500000  0.500000  0.000000  1
  Cu  Cu9  1  0.641435  0.109949  0.943080  1
  Cu  Cu10  1  0.688870  0.121961  0.353172  1
  P  P11  1  0.154279  0.208026  0.029019  1
  P  P12  1  0.187726  0.183773  0.314750  1
  P  P13  1  0.261033  0.531828  0.741356  1
  P  P14  1  0.479162  0.766130  0.317208  1
  P  P15  1  0.520838  0.233870  0.682792  1
  P  P16  1  0.738967  0.468172  0.258644  1
  P  P17  1  0.812274  0.816227  0.685250  1
  P  P18  1  0.845721  0.791974  0.970981  1
  O  O19  1  0.041633  0.822823  0.067353  1
  O  O20  1  0.017476  0.084432  0.373618  1
  O  O21  1  0.065659  0.412234  0.732740  1
  O  O22  1  0.070175  0.195932  0.173675  1
  O  O23  1  0.244605  0.386863  0.048294  1
  O  O24  1  0.225755  0.359564  0.406204  1
  O  O25  1  0.236604  0.639237  0.639250  1
  O  O26  1  0.297712  0.807957  0.413721  1
  O  O27  1  0.335907  0.625159  0.881468  1
  O  O28  1  0.318888  0.120109  0.642169  1
  O  O29  1  0.321490  0.081224  0.980449  1
  O  O30  1  0.414703  0.732191  0.167408  1
  O  O31  1  0.394393  0.098921  0.275995  1
  O  O32  1  0.455335  0.416762  0.669993  1
  O  O33  1  0.544665  0.583238  0.330007  1
  O  O34  1  0.605607  0.901079  0.724005  1
  O  O35  1  0.585297  0.267809  0.832592  1
  O  O36  1  0.678510  0.918776  0.019551  1
  O  O37  1  0.681112  0.879891  0.357831  1
  O  O38  1  0.664093  0.374841  0.118532  1
  O  O39  1  0.702288  0.192043  0.586279  1
  O  O40  1  0.763396  0.360763  0.360750  1
  O  O41  1  0.774245  0.640436  0.593796  1
  O  O42  1  0.755395  0.613137  0.951706  1
  O  O43  1  0.929825  0.804068  0.826325  1
  O  O44  1  0.934341  0.587766  0.267260  1
  O  O45  1  0.982524  0.915568  0.626382  1
  O  O46  1  0.958367  0.177177  0.932647  1
