# generated using pymatgen
data_La4Ag(AuO4)3
_symmetry_space_group_name_H-M   'P 1'
_cell_length_a   4.06088801
_cell_length_b   13.25197703
_cell_length_c   5.75398700
_cell_angle_alpha   90.00000000
_cell_angle_beta   90.00000000
_cell_angle_gamma   89.99172176
_symmetry_Int_Tables_number   1
_chemical_formula_structural   La4Ag(AuO4)3
_chemical_formula_sum   'La4 Ag1 Au3 O12'
_cell_volume   309.64962563
_cell_formula_units_Z   1
loop_
 _symmetry_equiv_pos_site_id
 _symmetry_equiv_pos_as_xyz
  1  'x, y, z'
loop_
 _atom_site_type_symbol
 _atom_site_label
 _atom_site_symmetry_multiplicity
 _atom_site_fract_x
 _atom_site_fract_y
 _atom_site_fract_z
 _atom_site_occupancy
  La  La0  1  0.735603  0.080511  0.250000  1
  La  La1  1  0.264531  0.579695  0.250000  1
  La  La2  1  0.737294  0.419218  0.750000  1
  La  La3  1  0.264465  0.918953  0.750000  1
  Ag  Ag4  1  0.078426  0.328172  0.250000  1
  Au  Au5  1  0.929121  0.829631  0.250000  1
  Au  Au6  1  0.067889  0.170518  0.750000  1
  Au  Au7  1  0.928863  0.670376  0.750000  1
  O  O8  1  0.823914  0.249656  0.999727  1
  O  O9  1  0.175223  0.750128  0.999798  1
  O  O10  1  0.254615  0.422411  0.004005  1
  O  O11  1  0.743944  0.921759  0.003911  1
  O  O12  1  0.254615  0.422411  0.495994  1
  O  O13  1  0.743944  0.921759  0.496088  1
  O  O14  1  0.823914  0.249656  0.500274  1
  O  O15  1  0.175223  0.750128  0.500203  1
  O  O16  1  0.255596  0.079007  0.504193  1
  O  O17  1  0.743617  0.578502  0.504159  1
  O  O18  1  0.255596  0.079007  0.995807  1
  O  O19  1  0.743617  0.578502  0.995841  1
