# generated using pymatgen
data_LaCo3B4Os
_symmetry_space_group_name_H-M   'P 1'
_cell_length_a   7.38150428
_cell_length_b   7.19856007
_cell_length_c   3.84405400
_cell_angle_alpha   90.00000000
_cell_angle_beta   90.00000000
_cell_angle_gamma   90.63989503
_symmetry_Int_Tables_number   1
_chemical_formula_structural   LaCo3B4Os
_chemical_formula_sum   'La2 Co6 B8 Os2'
_cell_volume   204.24569137
_cell_formula_units_Z   2
loop_
 _symmetry_equiv_pos_site_id
 _symmetry_equiv_pos_as_xyz
  1  'x, y, z'
loop_
 _atom_site_type_symbol
 _atom_site_label
 _atom_site_symmetry_multiplicity
 _atom_site_fract_x
 _atom_site_fract_y
 _atom_site_fract_z
 _atom_site_occupancy
  La  La0  1  0.000000  0.000000  0.970091  1
  La  La1  1  0.500000  0.500000  0.443439  1
  Co  Co2  1  0.337715  0.886547  0.399614  1
  Co  Co3  1  0.662285  0.113453  0.399614  1
  Co  Co4  1  0.111068  0.368523  0.613935  1
  Co  Co5  1  0.888932  0.631477  0.613935  1
  Co  Co6  1  0.131518  0.617695  0.112233  1
  Co  Co7  1  0.868482  0.382305  0.112233  1
  B  B8  1  0.810571  0.656865  0.112280  1
  B  B9  1  0.189429  0.343135  0.112280  1
  B  B10  1  0.838185  0.307889  0.610528  1
  B  B11  1  0.161815  0.692111  0.610528  1
  B  B12  1  0.726640  0.829168  0.400009  1
  B  B13  1  0.273360  0.170832  0.400009  1
  B  B14  1  0.666349  0.214408  0.899114  1
  B  B15  1  0.333651  0.785592  0.899114  1
  Os  Os16  1  0.387373  0.143874  0.895522  1
  Os  Os17  1  0.612627  0.856126  0.895522  1
