# generated using pymatgen
data_LiZn8Ni3Rh4
_symmetry_space_group_name_H-M   'P 1'
_cell_length_a   5.82399600
_cell_length_b   5.83309400
_cell_length_c   6.25460800
_cell_angle_alpha   89.99998102
_cell_angle_beta   89.99975605
_cell_angle_gamma   89.99989188
_symmetry_Int_Tables_number   1
_chemical_formula_structural   LiZn8Ni3Rh4
_chemical_formula_sum   'Li1 Zn8 Ni3 Rh4'
_cell_volume   212.48101836
_cell_formula_units_Z   1
loop_
 _symmetry_equiv_pos_site_id
 _symmetry_equiv_pos_as_xyz
  1  'x, y, z'
loop_
 _atom_site_type_symbol
 _atom_site_label
 _atom_site_symmetry_multiplicity
 _atom_site_fract_x
 _atom_site_fract_y
 _atom_site_fract_z
 _atom_site_occupancy
  Li  Li0  1  0.750605  0.750002  0.500040  1
  Zn  Zn1  1  0.005161  0.005170  0.246191  1
  Zn  Zn2  1  0.005157  0.494833  0.246180  1
  Zn  Zn3  1  0.494776  0.005231  0.247059  1
  Zn  Zn4  1  0.494779  0.494771  0.247049  1
  Zn  Zn5  1  0.494728  0.005263  0.752939  1
  Zn  Zn6  1  0.494732  0.494740  0.752949  1
  Zn  Zn7  1  0.005203  0.005198  0.753810  1
  Zn  Zn8  1  0.005199  0.494804  0.753820  1
  Ni  Ni9  1  0.250186  0.249990  0.000049  1
  Ni  Ni10  1  0.749852  0.750009  0.999975  1
  Ni  Ni11  1  0.249627  0.250005  0.499952  1
  Rh  Rh12  1  0.749481  0.249991  0.999992  1
  Rh  Rh13  1  0.250596  0.750001  0.000002  1
  Rh  Rh14  1  0.750481  0.250009  0.500006  1
  Rh  Rh15  1  0.249436  0.749993  0.499988  1
