# generated using pymatgen
data_Sm5Ta3(Co4P3)4
_symmetry_space_group_name_H-M   'P 1'
_cell_length_a   12.25317800
_cell_length_b   12.25317850
_cell_length_c   3.73190600
_cell_angle_alpha   90.00000000
_cell_angle_beta   90.00000000
_cell_angle_gamma   119.99999866
_symmetry_Int_Tables_number   1
_chemical_formula_structural   Sm5Ta3(Co4P3)4
_chemical_formula_sum   'Sm5 Ta3 Co16 P12'
_cell_volume   485.24250529
_cell_formula_units_Z   1
loop_
 _symmetry_equiv_pos_site_id
 _symmetry_equiv_pos_as_xyz
  1  'x, y, z'
loop_
 _atom_site_type_symbol
 _atom_site_label
 _atom_site_symmetry_multiplicity
 _atom_site_fract_x
 _atom_site_fract_y
 _atom_site_fract_z
 _atom_site_occupancy
  Sm  Sm0  1  0.816095  0.000000  0.500000  1
  Sm  Sm1  1  0.000000  0.816095  0.500000  1
  Sm  Sm2  1  0.183905  0.183905  0.500000  1
  Sm  Sm3  1  0.333333  0.666667  0.000000  1
  Sm  Sm4  1  0.666667  0.333333  0.000000  1
  Ta  Ta5  1  0.442610  0.000000  0.000000  1
  Ta  Ta6  1  0.000000  0.442610  0.000000  1
  Ta  Ta7  1  0.557390  0.557390  0.000000  1
  Co  Co8  1  0.281114  0.000000  0.500000  1
  Co  Co9  1  0.000000  0.281114  0.500000  1
  Co  Co10  1  0.718886  0.718886  0.500000  1
  Co  Co11  1  0.625092  0.801651  0.000000  1
  Co  Co12  1  0.198349  0.823441  0.000000  1
  Co  Co13  1  0.176559  0.374908  0.000000  1
  Co  Co14  1  0.374908  0.176559  0.000000  1
  Co  Co15  1  0.801651  0.625092  0.000000  1
  Co  Co16  1  0.823441  0.198349  0.000000  1
  Co  Co17  1  0.519621  0.874556  0.500000  1
  Co  Co18  1  0.125444  0.645065  0.500000  1
  Co  Co19  1  0.354935  0.480379  0.500000  1
  Co  Co20  1  0.480379  0.354935  0.500000  1
  Co  Co21  1  0.874556  0.519621  0.500000  1
  Co  Co22  1  0.645065  0.125444  0.500000  1
  Co  Co23  1  0.000000  0.000000  0.000000  1
  P  P24  1  0.179522  0.000000  0.000000  1
  P  P25  1  0.000000  0.179522  0.000000  1
  P  P26  1  0.820478  0.820478  0.000000  1
  P  P27  1  0.522139  0.688891  0.500000  1
  P  P28  1  0.311109  0.833248  0.500000  1
  P  P29  1  0.166752  0.477861  0.500000  1
  P  P30  1  0.477861  0.166752  0.500000  1
  P  P31  1  0.688891  0.522139  0.500000  1
  P  P32  1  0.833248  0.311109  0.500000  1
  P  P33  1  0.641838  0.000000  0.000000  1
  P  P34  1  0.000000  0.641838  0.000000  1
  P  P35  1  0.358162  0.358162  0.000000  1
