# generated using pymatgen
data_Ce3YAs3O4
_symmetry_space_group_name_H-M   'P 1'
_cell_length_a   6.73832967
_cell_length_b   6.73832910
_cell_length_c   7.97345100
_cell_angle_alpha   89.99800758
_cell_angle_beta   90.00199078
_cell_angle_gamma   145.47160623
_symmetry_Int_Tables_number   1
_chemical_formula_structural   Ce3YAs3O4
_chemical_formula_sum   'Ce3 Y1 As3 O4'
_cell_volume   205.20682997
_cell_formula_units_Z   1
loop_
 _symmetry_equiv_pos_site_id
 _symmetry_equiv_pos_as_xyz
  1  'x, y, z'
loop_
 _atom_site_type_symbol
 _atom_site_label
 _atom_site_symmetry_multiplicity
 _atom_site_fract_x
 _atom_site_fract_y
 _atom_site_fract_z
 _atom_site_occupancy
  Ce  Ce0  1  0.991347  0.008653  0.497294  1
  Ce  Ce1  1  0.003855  0.996145  0.002679  1
  Ce  Ce2  1  0.311524  0.688476  0.760710  1
  Y  Y3  1  0.315285  0.684715  0.239978  1
  As  As4  1  0.636679  0.363321  0.677917  1
  As  As5  1  0.638092  0.361908  0.321674  1
  As  As6  1  0.686243  0.313757  0.999394  1
  O  O7  1  0.413755  0.586245  0.000903  1
  O  O8  1  0.907139  0.092861  0.753192  1
  O  O9  1  0.906872  0.093128  0.246639  1
  O  O10  1  0.387100  0.612900  0.499621  1
