# generated using pymatgen
data_DyLuAs4O9
_symmetry_space_group_name_H-M   'P 1'
_cell_length_a   6.66140111
_cell_length_b   7.44757304
_cell_length_c   9.76982300
_cell_angle_alpha   94.28227481
_cell_angle_beta   104.00039196
_cell_angle_gamma   105.01872195
_symmetry_Int_Tables_number   1
_chemical_formula_structural   DyLuAs4O9
_chemical_formula_sum   'Dy2 Lu2 As8 O18'
_cell_volume   449.32450516
_cell_formula_units_Z   2
loop_
 _symmetry_equiv_pos_site_id
 _symmetry_equiv_pos_as_xyz
  1  'x, y, z'
loop_
 _atom_site_type_symbol
 _atom_site_label
 _atom_site_symmetry_multiplicity
 _atom_site_fract_x
 _atom_site_fract_y
 _atom_site_fract_z
 _atom_site_occupancy
  Dy  Dy0  1  0.241230  0.938827  0.614249  1
  Dy  Dy1  1  0.758770  0.061173  0.385751  1
  Lu  Lu2  1  0.720810  0.528198  0.410825  1
  Lu  Lu3  1  0.279190  0.471802  0.589175  1
  As  As4  1  0.684359  0.771709  0.080937  1
  As  As5  1  0.315641  0.228291  0.919063  1
  As  As6  1  0.168488  0.749987  0.913263  1
  As  As7  1  0.831512  0.250013  0.086737  1
  As  As8  1  0.741980  0.912680  0.710898  1
  As  As9  1  0.258020  0.087320  0.289102  1
  As  As10  1  0.811081  0.353499  0.701800  1
  As  As11  1  0.188919  0.646501  0.298200  1
  O  O12  1  0.719826  0.743527  0.261782  1
  O  O13  1  0.280174  0.256473  0.738218  1
  O  O14  1  0.315496  0.978831  0.868588  1
  O  O15  1  0.684504  0.021169  0.131412  1
  O  O16  1  0.608539  0.328509  0.985263  1
  O  O17  1  0.391461  0.671491  0.014737  1
  O  O18  1  0.124251  0.641483  0.738450  1
  O  O19  1  0.875749  0.358517  0.261550  1
  O  O20  1  0.847342  0.873599  0.560897  1
  O  O21  1  0.152658  0.126401  0.439103  1
  O  O22  1  0.478477  0.762738  0.666650  1
  O  O23  1  0.521523  0.237262  0.333350  1
  O  O24  1  0.373762  0.531765  0.383184  1
  O  O25  1  0.626238  0.468235  0.616816  1
  O  O26  1  0.085493  0.666594  0.453676  1
  O  O27  1  0.914507  0.333406  0.546324  1
  O  O28  1  0.378968  0.900222  0.359043  1
  O  O29  1  0.621032  0.099778  0.640957  1
