# generated using pymatgen
data_ScFe10B4SbO20
_symmetry_space_group_name_H-M   'P 1'
_cell_length_a   6.46649236
_cell_length_b   6.46649247
_cell_length_c   11.88183499
_cell_angle_alpha   69.08090226
_cell_angle_beta   69.08090463
_cell_angle_gamma   59.06921523
_symmetry_Int_Tables_number   1
_chemical_formula_structural   ScFe10B4SbO20
_chemical_formula_sum   'Sc1 Fe10 B4 Sb1 O20'
_cell_volume   388.64840709
_cell_formula_units_Z   1
loop_
 _symmetry_equiv_pos_site_id
 _symmetry_equiv_pos_as_xyz
  1  'x, y, z'
loop_
 _atom_site_type_symbol
 _atom_site_label
 _atom_site_symmetry_multiplicity
 _atom_site_fract_x
 _atom_site_fract_y
 _atom_site_fract_z
 _atom_site_occupancy
  Sc  Sc0  1  0.500000  0.500000  0.000000  1
  Fe  Fe1  1  0.000000  0.000000  0.000000  1
  Fe  Fe2  1  0.756850  0.756850  0.997454  1
  Fe  Fe3  1  0.243150  0.243150  0.002546  1
  Fe  Fe4  1  0.219088  0.718106  0.778194  1
  Fe  Fe5  1  0.718106  0.219088  0.778194  1
  Fe  Fe6  1  0.281894  0.780912  0.221806  1
  Fe  Fe7  1  0.780912  0.281894  0.221806  1
  Fe  Fe8  1  0.500000  0.000000  0.500000  1
  Fe  Fe9  1  0.000000  0.500000  0.500000  1
  Fe  Fe10  1  0.000000  0.000000  0.500000  1
  B  B11  1  0.236331  0.236331  0.741598  1
  B  B12  1  0.739882  0.739882  0.734521  1
  B  B13  1  0.763669  0.763669  0.258402  1
  B  B14  1  0.260118  0.260118  0.265479  1
  Sb  Sb15  1  0.500000  0.500000  0.500000  1
  O  O16  1  0.148681  0.630659  0.966469  1
  O  O17  1  0.630659  0.148681  0.966469  1
  O  O18  1  0.369341  0.851319  0.033531  1
  O  O19  1  0.851319  0.369341  0.033531  1
  O  O20  1  0.606156  0.606156  0.799257  1
  O  O21  1  0.102564  0.102564  0.796389  1
  O  O22  1  0.393844  0.393844  0.200743  1
  O  O23  1  0.897436  0.897436  0.203611  1
  O  O24  1  0.312644  0.774471  0.590376  1
  O  O25  1  0.774471  0.312644  0.590376  1
  O  O26  1  0.225529  0.687356  0.409624  1
  O  O27  1  0.687356  0.225529  0.409624  1
  O  O28  1  0.317420  0.317420  0.800650  1
  O  O29  1  0.824952  0.824952  0.791652  1
  O  O30  1  0.682580  0.682580  0.199350  1
  O  O31  1  0.175048  0.175048  0.208348  1
  O  O32  1  0.296497  0.296497  0.607781  1
  O  O33  1  0.791937  0.791937  0.602844  1
  O  O34  1  0.703503  0.703503  0.392219  1
  O  O35  1  0.208063  0.208063  0.397156  1
