# generated using pymatgen
data_LaTb2Y2CoSb2
_symmetry_space_group_name_H-M   'P 1'
_cell_length_a   8.10895600
_cell_length_b   8.86096300
_cell_length_c   12.21785000
_cell_angle_alpha   90.00000000
_cell_angle_beta   90.00000000
_cell_angle_gamma   90.00000000
_symmetry_Int_Tables_number   1
_chemical_formula_structural   LaTb2Y2CoSb2
_chemical_formula_sum   'La4 Tb8 Y8 Co4 Sb8'
_cell_volume   877.89111972
_cell_formula_units_Z   4
loop_
 _symmetry_equiv_pos_site_id
 _symmetry_equiv_pos_as_xyz
  1  'x, y, z'
loop_
 _atom_site_type_symbol
 _atom_site_label
 _atom_site_symmetry_multiplicity
 _atom_site_fract_x
 _atom_site_fract_y
 _atom_site_fract_z
 _atom_site_occupancy
  La  La0  1  0.621384  0.750000  0.308494  1
  La  La1  1  0.121384  0.250000  0.191506  1
  La  La2  1  0.378616  0.250000  0.691506  1
  La  La3  1  0.878616  0.750000  0.808494  1
  Tb  Tb4  1  0.820808  0.964303  0.065610  1
  Tb  Tb5  1  0.320808  0.035697  0.434390  1
  Tb  Tb6  1  0.179192  0.464303  0.934390  1
  Tb  Tb7  1  0.679192  0.535697  0.565610  1
  Tb  Tb8  1  0.179192  0.035697  0.934390  1
  Tb  Tb9  1  0.679192  0.964303  0.565610  1
  Tb  Tb10  1  0.820808  0.535697  0.065610  1
  Tb  Tb11  1  0.320808  0.464303  0.434390  1
  Y  Y12  1  0.154264  0.750000  0.201990  1
  Y  Y13  1  0.654264  0.250000  0.298010  1
  Y  Y14  1  0.845736  0.250000  0.798010  1
  Y  Y15  1  0.345736  0.750000  0.701990  1
  Y  Y16  1  0.453578  0.750000  0.998315  1
  Y  Y17  1  0.953578  0.250000  0.501685  1
  Y  Y18  1  0.546422  0.250000  0.001685  1
  Y  Y19  1  0.046422  0.750000  0.498315  1
  Co  Co20  1  0.435515  0.750000  0.489879  1
  Co  Co21  1  0.935515  0.250000  0.010121  1
  Co  Co22  1  0.564485  0.250000  0.510121  1
  Co  Co23  1  0.064485  0.750000  0.989879  1
  Sb  Sb24  1  0.928816  0.991366  0.330149  1
  Sb  Sb25  1  0.428816  0.008634  0.169851  1
  Sb  Sb26  1  0.071184  0.491366  0.669851  1
  Sb  Sb27  1  0.571184  0.508634  0.830149  1
  Sb  Sb28  1  0.071184  0.008634  0.669851  1
  Sb  Sb29  1  0.571184  0.991366  0.830149  1
  Sb  Sb30  1  0.928816  0.508634  0.330149  1
  Sb  Sb31  1  0.428816  0.491366  0.169851  1
