# generated using pymatgen
data_Tb12Si11Ru
_symmetry_space_group_name_H-M   'P 1'
_cell_length_a   3.85744300
_cell_length_b   5.72937486
_cell_length_c   24.11964263
_cell_angle_alpha   82.55146419
_cell_angle_beta   90.00000000
_cell_angle_gamma   90.00000000
_symmetry_Int_Tables_number   1
_chemical_formula_structural   Tb12Si11Ru
_chemical_formula_sum   'Tb12 Si11 Ru1'
_cell_volume   528.56374276
_cell_formula_units_Z   1
loop_
 _symmetry_equiv_pos_site_id
 _symmetry_equiv_pos_as_xyz
  1  'x, y, z'
loop_
 _atom_site_type_symbol
 _atom_site_label
 _atom_site_symmetry_multiplicity
 _atom_site_fract_x
 _atom_site_fract_y
 _atom_site_fract_z
 _atom_site_occupancy
  Tb  Tb0  1  0.750000  0.348480  0.063785  1
  Tb  Tb1  1  0.250000  0.658713  0.939124  1
  Tb  Tb2  1  0.750000  0.522659  0.224874  1
  Tb  Tb3  1  0.250000  0.468474  0.772967  1
  Tb  Tb4  1  0.750000  0.166210  0.394119  1
  Tb  Tb5  1  0.250000  0.826469  0.606490  1
  Tb  Tb6  1  0.750000  0.351318  0.560021  1
  Tb  Tb7  1  0.250000  0.642849  0.440416  1
  Tb  Tb8  1  0.750000  0.993246  0.726463  1
  Tb  Tb9  1  0.250000  0.996295  0.273599  1
  Tb  Tb10  1  0.750000  0.168328  0.892241  1
  Tb  Tb11  1  0.250000  0.831533  0.106973  1
  Si  Si12  1  0.750000  0.876007  0.011466  1
  Si  Si13  1  0.250000  0.143624  0.986780  1
  Si  Si14  1  0.750000  0.060035  0.178032  1
  Si  Si15  1  0.250000  0.954731  0.820604  1
  Si  Si16  1  0.750000  0.702943  0.346286  1
  Si  Si17  1  0.250000  0.289939  0.653925  1
  Si  Si18  1  0.750000  0.863868  0.512287  1
  Si  Si19  1  0.250000  0.132075  0.488076  1
  Si  Si20  1  0.750000  0.530414  0.678877  1
  Si  Si21  1  0.250000  0.463086  0.321916  1
  Si  Si22  1  0.750000  0.683408  0.845021  1
  Ru  Ru23  1  0.250000  0.325296  0.155656  1
