# generated using pymatgen
data_Tm3ScAl2Rh3
_symmetry_space_group_name_H-M   'P 1'
_cell_length_a   7.06852500
_cell_length_b   7.05895678
_cell_length_c   4.10298900
_cell_angle_alpha   90.00000000
_cell_angle_beta   90.00000000
_cell_angle_gamma   120.04485350
_symmetry_Int_Tables_number   1
_chemical_formula_structural   Tm3ScAl2Rh3
_chemical_formula_sum   'Tm3 Sc1 Al2 Rh3'
_cell_volume   177.21637074
_cell_formula_units_Z   1
loop_
 _symmetry_equiv_pos_site_id
 _symmetry_equiv_pos_as_xyz
  1  'x, y, z'
loop_
 _atom_site_type_symbol
 _atom_site_label
 _atom_site_symmetry_multiplicity
 _atom_site_fract_x
 _atom_site_fract_y
 _atom_site_fract_z
 _atom_site_occupancy
  Tm  Tm0  1  0.606989  0.000000  0.500000  1
  Tm  Tm1  1  0.415991  0.432687  0.500000  1
  Tm  Tm2  1  0.983303  0.567313  0.500000  1
  Sc  Sc3  1  0.238843  0.000000  0.000000  1
  Al  Al4  1  0.999598  0.244444  0.000000  1
  Al  Al5  1  0.755154  0.755556  0.000000  1
  Rh  Rh6  1  0.669505  0.332763  0.000000  1
  Rh  Rh7  1  0.336742  0.667237  0.000000  1
  Rh  Rh8  1  0.993876  0.000000  0.500000  1
