# generated using pymatgen
data_LuU3Ge6Ru7
_symmetry_space_group_name_H-M   'P 1'
_cell_length_a   7.21016405
_cell_length_b   7.14065407
_cell_length_c   7.21016383
_cell_angle_alpha   109.27605042
_cell_angle_beta   109.66568260
_cell_angle_gamma   109.27604481
_symmetry_Int_Tables_number   1
_chemical_formula_structural   LuU3Ge6Ru7
_chemical_formula_sum   'Lu1 U3 Ge6 Ru7'
_cell_volume   286.44867803
_cell_formula_units_Z   1
loop_
 _symmetry_equiv_pos_site_id
 _symmetry_equiv_pos_as_xyz
  1  'x, y, z'
loop_
 _atom_site_type_symbol
 _atom_site_label
 _atom_site_symmetry_multiplicity
 _atom_site_fract_x
 _atom_site_fract_y
 _atom_site_fract_z
 _atom_site_occupancy
  Lu  Lu0  1  0.000000  0.500000  0.000000  1
  U  U1  1  0.000000  0.000000  0.500000  1
  U  U2  1  0.500000  0.000000  0.000000  1
  U  U3  1  0.500000  0.500000  0.500000  1
  Ge  Ge4  1  0.692273  0.688743  0.000000  1
  Ge  Ge5  1  0.307727  0.996471  0.307727  1
  Ge  Ge6  1  0.000000  0.311257  0.307727  1
  Ge  Ge7  1  0.307727  0.311257  0.000000  1
  Ge  Ge8  1  0.692273  0.003529  0.692273  1
  Ge  Ge9  1  0.000000  0.688743  0.692273  1
  Ru  Ru10  1  0.746041  0.246041  0.492082  1
  Ru  Ru11  1  0.746041  0.500000  0.253959  1
  Ru  Ru12  1  0.492082  0.246041  0.746041  1
  Ru  Ru13  1  0.253959  0.500000  0.746041  1
  Ru  Ru14  1  0.253959  0.753959  0.507918  1
  Ru  Ru15  1  0.507918  0.753959  0.253959  1
  Ru  Ru16  1  0.000000  0.000000  0.000000  1
