# generated using pymatgen
data_Tm2Lu6Re3B24Ru
_symmetry_space_group_name_H-M   'P 1'
_cell_length_a   3.61716300
_cell_length_b   9.05934411
_cell_length_c   11.42142701
_cell_angle_alpha   90.10255589
_cell_angle_beta   90.00000000
_cell_angle_gamma   90.00000000
_symmetry_Int_Tables_number   1
_chemical_formula_structural   Tm2Lu6Re3B24Ru
_chemical_formula_sum   'Tm2 Lu6 Re3 B24 Ru1'
_cell_volume   374.26956210
_cell_formula_units_Z   1
loop_
 _symmetry_equiv_pos_site_id
 _symmetry_equiv_pos_as_xyz
  1  'x, y, z'
loop_
 _atom_site_type_symbol
 _atom_site_label
 _atom_site_symmetry_multiplicity
 _atom_site_fract_x
 _atom_site_fract_y
 _atom_site_fract_z
 _atom_site_occupancy
  Tm  Tm0  1  0.000000  0.321324  0.414134  1
  Tm  Tm1  1  0.000000  0.677869  0.587744  1
  Lu  Lu2  1  0.000000  0.824355  0.084114  1
  Lu  Lu3  1  0.000000  0.176955  0.913568  1
  Lu  Lu4  1  0.000000  0.942400  0.370138  1
  Lu  Lu5  1  0.000000  0.055914  0.629037  1
  Lu  Lu6  1  0.000000  0.443588  0.129819  1
  Lu  Lu7  1  0.000000  0.556519  0.871382  1
  Re  Re8  1  0.000000  0.361393  0.678668  1
  Re  Re9  1  0.000000  0.138674  0.179612  1
  Re  Re10  1  0.000000  0.861413  0.820907  1
  B  B11  1  0.500000  0.554095  0.433159  1
  B  B12  1  0.500000  0.447001  0.566133  1
  B  B13  1  0.500000  0.053140  0.066131  1
  B  B14  1  0.500000  0.947110  0.933691  1
  B  B15  1  0.500000  0.749875  0.419195  1
  B  B16  1  0.500000  0.248982  0.580360  1
  B  B17  1  0.500000  0.250829  0.080322  1
  B  B18  1  0.500000  0.749776  0.919864  1
  B  B19  1  0.500000  0.792244  0.264899  1
  B  B20  1  0.500000  0.206562  0.734810  1
  B  B21  1  0.500000  0.293317  0.235429  1
  B  B22  1  0.500000  0.706629  0.765490  1
  B  B23  1  0.500000  0.631432  0.184701  1
  B  B24  1  0.500000  0.369462  0.815228  1
  B  B25  1  0.500000  0.130734  0.315841  1
  B  B26  1  0.500000  0.869013  0.684656  1
  B  B27  1  0.500000  0.981089  0.212016  1
  B  B28  1  0.500000  0.018824  0.787622  1
  B  B29  1  0.500000  0.482744  0.287943  1
  B  B30  1  0.500000  0.518990  0.712296  1
  B  B31  1  0.500000  0.601133  0.028607  1
  B  B32  1  0.500000  0.399529  0.972411  1
  B  B33  1  0.500000  0.099408  0.471892  1
  B  B34  1  0.500000  0.898573  0.527724  1
  Ru  Ru35  1  0.000000  0.639108  0.320459  1
