# generated using pymatgen
data_Nb8VCdSe16
_symmetry_space_group_name_H-M   'P 1'
_cell_length_a   7.01515800
_cell_length_b   7.01515933
_cell_length_c   13.59324600
_cell_angle_alpha   90.00000000
_cell_angle_beta   90.00000000
_cell_angle_gamma   120.00000315
_symmetry_Int_Tables_number   1
_chemical_formula_structural   Nb8VCdSe16
_chemical_formula_sum   'Nb8 V1 Cd1 Se16'
_cell_volume   579.33369795
_cell_formula_units_Z   1
loop_
 _symmetry_equiv_pos_site_id
 _symmetry_equiv_pos_as_xyz
  1  'x, y, z'
loop_
 _atom_site_type_symbol
 _atom_site_label
 _atom_site_symmetry_multiplicity
 _atom_site_fract_x
 _atom_site_fract_y
 _atom_site_fract_z
 _atom_site_occupancy
  Nb  Nb0  1  0.000000  0.000000  0.263940  1
  Nb  Nb1  1  0.000000  0.000000  0.736060  1
  Nb  Nb2  1  0.507087  0.014174  0.262979  1
  Nb  Nb3  1  0.492913  0.985826  0.737021  1
  Nb  Nb4  1  0.985826  0.492913  0.262979  1
  Nb  Nb5  1  0.014174  0.507087  0.737021  1
  Nb  Nb6  1  0.507087  0.492913  0.262979  1
  Nb  Nb7  1  0.492913  0.507087  0.737021  1
  V  V8  1  0.000000  0.000000  0.500000  1
  Cd  Cd9  1  0.000000  0.000000  0.000000  1
  Se  Se10  1  0.333333  0.666667  0.610212  1
  Se  Se11  1  0.666667  0.333333  0.389788  1
  Se  Se12  1  0.666667  0.333333  0.136098  1
  Se  Se13  1  0.333333  0.666667  0.863902  1
  Se  Se14  1  0.168571  0.337143  0.141201  1
  Se  Se15  1  0.831429  0.662857  0.858799  1
  Se  Se16  1  0.662857  0.831429  0.141201  1
  Se  Se17  1  0.832988  0.665976  0.615155  1
  Se  Se18  1  0.337143  0.168571  0.858799  1
  Se  Se19  1  0.167012  0.334024  0.384845  1
  Se  Se20  1  0.168571  0.831429  0.141201  1
  Se  Se21  1  0.334024  0.167012  0.615155  1
  Se  Se22  1  0.831429  0.168571  0.858799  1
  Se  Se23  1  0.665976  0.832988  0.384845  1
  Se  Se24  1  0.832988  0.167012  0.615155  1
  Se  Se25  1  0.167012  0.832988  0.384845  1
