# generated using pymatgen
data_Ba7Sr5Tc3MoN16
_symmetry_space_group_name_H-M   'P 1'
_cell_length_a   10.64613200
_cell_length_b   10.07597667
_cell_length_c   12.14712164
_cell_angle_alpha   89.96097847
_cell_angle_beta   90.00000000
_cell_angle_gamma   90.00000000
_symmetry_Int_Tables_number   1
_chemical_formula_structural   Ba7Sr5Tc3MoN16
_chemical_formula_sum   'Ba14 Sr10 Tc6 Mo2 N32'
_cell_volume   1303.02359523
_cell_formula_units_Z   2
loop_
 _symmetry_equiv_pos_site_id
 _symmetry_equiv_pos_as_xyz
  1  'x, y, z'
loop_
 _atom_site_type_symbol
 _atom_site_label
 _atom_site_symmetry_multiplicity
 _atom_site_fract_x
 _atom_site_fract_y
 _atom_site_fract_z
 _atom_site_occupancy
  Ba  Ba0  1  0.774552  0.559361  0.379968  1
  Ba  Ba1  1  0.274552  0.440639  0.620032  1
  Ba  Ba2  1  0.225645  0.051911  0.123322  1
  Ba  Ba3  1  0.725645  0.948089  0.876678  1
  Ba  Ba4  1  0.228926  0.947804  0.619817  1
  Ba  Ba5  1  0.728926  0.052196  0.380183  1
  Ba  Ba6  1  0.771514  0.446955  0.880650  1
  Ba  Ba7  1  0.271514  0.553045  0.119350  1
  Ba  Ba8  1  0.972144  0.372605  0.145518  1
  Ba  Ba9  1  0.472144  0.627395  0.854482  1
  Ba  Ba10  1  0.971532  0.624885  0.645565  1
  Ba  Ba11  1  0.471532  0.375115  0.354435  1
  Ba  Ba12  1  0.028211  0.126917  0.857976  1
  Ba  Ba13  1  0.528211  0.873083  0.142024  1
  Sr  Sr14  1  0.123567  0.219483  0.396643  1
  Sr  Sr15  1  0.623567  0.780517  0.603357  1
  Sr  Sr16  1  0.878691  0.720663  0.104461  1
  Sr  Sr17  1  0.378691  0.279337  0.895539  1
  Sr  Sr18  1  0.877693  0.279581  0.602038  1
  Sr  Sr19  1  0.377693  0.720419  0.397962  1
  Sr  Sr20  1  0.123494  0.783158  0.895609  1
  Sr  Sr21  1  0.623494  0.216842  0.104391  1
  Sr  Sr22  1  0.035549  0.870019  0.365087  1
  Sr  Sr23  1  0.535549  0.129981  0.634913  1
  Tc  Tc24  1  0.095079  0.552190  0.385122  1
  Tc  Tc25  1  0.595079  0.447810  0.614878  1
  Tc  Tc26  1  0.904335  0.045065  0.118148  1
  Tc  Tc27  1  0.404335  0.954935  0.881852  1
  Tc  Tc28  1  0.902899  0.952066  0.611953  1
  Tc  Tc29  1  0.402899  0.047934  0.388047  1
  Mo  Mo30  1  0.096546  0.454132  0.883576  1
  Mo  Mo31  1  0.596546  0.545868  0.116424  1
  N  N32  1  0.221664  0.453182  0.321502  1
  N  N33  1  0.721664  0.546818  0.678498  1
  N  N34  1  0.773794  0.950882  0.178986  1
  N  N35  1  0.273794  0.049118  0.821014  1
  N  N36  1  0.770330  0.046917  0.670941  1
  N  N37  1  0.270330  0.953083  0.329059  1
  N  N38  1  0.224542  0.554995  0.816842  1
  N  N39  1  0.724542  0.445005  0.183158  1
  N  N40  1  0.155617  0.683291  0.478001  1
  N  N41  1  0.655617  0.316709  0.521999  1
  N  N42  1  0.844562  0.177745  0.026031  1
  N  N43  1  0.344562  0.822255  0.973969  1
  N  N44  1  0.844048  0.820555  0.517963  1
  N  N45  1  0.344048  0.179445  0.482037  1
  N  N46  1  0.159743  0.320484  0.977610  1
  N  N47  1  0.659743  0.679516  0.022390  1
  N  N48  1  0.994268  0.434386  0.466057  1
  N  N49  1  0.494268  0.565614  0.533943  1
  N  N50  1  0.004743  0.932081  0.033643  1
  N  N51  1  0.504743  0.067919  0.966357  1
  N  N52  1  0.005085  0.065421  0.527884  1
  N  N53  1  0.505085  0.934579  0.472116  1
  N  N54  1  0.995702  0.569777  0.968422  1
  N  N55  1  0.495702  0.430223  0.031578  1
  N  N56  1  0.997768  0.636281  0.278442  1
  N  N57  1  0.497768  0.363719  0.721558  1
  N  N58  1  0.003895  0.118933  0.228350  1
  N  N59  1  0.503895  0.881067  0.771650  1
  N  N60  1  0.001763  0.876844  0.721827  1
  N  N61  1  0.501763  0.123156  0.278173  1
  N  N62  1  0.992101  0.374489  0.776259  1
  N  N63  1  0.492101  0.625511  0.223741  1
