# generated using pymatgen
data_LuHfTlS4
_symmetry_space_group_name_H-M   'P 1'
_cell_length_a   3.75390500
_cell_length_b   7.97626216
_cell_length_c   6.45834700
_cell_angle_alpha   74.84926870
_cell_angle_beta   90.00000000
_cell_angle_gamma   90.00000718
_symmetry_Int_Tables_number   1
_chemical_formula_structural   LuHfTlS4
_chemical_formula_sum   'Lu1 Hf1 Tl1 S4'
_cell_volume   186.65520329
_cell_formula_units_Z   1
loop_
 _symmetry_equiv_pos_site_id
 _symmetry_equiv_pos_as_xyz
  1  'x, y, z'
loop_
 _atom_site_type_symbol
 _atom_site_label
 _atom_site_symmetry_multiplicity
 _atom_site_fract_x
 _atom_site_fract_y
 _atom_site_fract_z
 _atom_site_occupancy
  Lu  Lu0  1  0.500000  0.002119  0.500647  1
  Hf  Hf1  1  0.000000  0.996098  0.002832  1
  Tl  Tl2  1  0.500000  0.496104  0.659582  1
  S  S3  1  0.000000  0.807439  0.385911  1
  S  S4  1  0.500000  0.810234  0.906780  1
  S  S5  1  0.000000  0.191974  0.619187  1
  S  S6  1  0.500000  0.186031  0.095059  1
