# generated using pymatgen
data_Tb2YbPrS4
_symmetry_space_group_name_H-M   'P 1'
_cell_length_a   13.31996982
_cell_length_b   13.31996956
_cell_length_c   13.31997079
_cell_angle_alpha   17.13490992
_cell_angle_beta   17.13491215
_cell_angle_gamma   17.13491132
_symmetry_Int_Tables_number   1
_chemical_formula_structural   Tb2YbPrS4
_chemical_formula_sum   'Tb2 Yb1 Pr1 S4'
_cell_volume   178.97690802
_cell_formula_units_Z   1
loop_
 _symmetry_equiv_pos_site_id
 _symmetry_equiv_pos_as_xyz
  1  'x, y, z'
loop_
 _atom_site_type_symbol
 _atom_site_label
 _atom_site_symmetry_multiplicity
 _atom_site_fract_x
 _atom_site_fract_y
 _atom_site_fract_z
 _atom_site_occupancy
  Tb  Tb0  1  0.249147  0.249147  0.249147  1
  Tb  Tb1  1  0.750853  0.750853  0.750853  1
  Yb  Yb2  1  0.500000  0.500000  0.500000  1
  Pr  Pr3  1  0.000000  0.000000  0.000000  1
  S  S4  1  0.379028  0.379028  0.379028  1
  S  S5  1  0.125724  0.125724  0.125724  1
  S  S6  1  0.620972  0.620972  0.620972  1
  S  S7  1  0.874276  0.874276  0.874276  1
