# generated using pymatgen
data_Be5Nb4Ga3
_symmetry_space_group_name_H-M   'P 1'
_cell_length_a   4.80733509
_cell_length_b   4.78905619
_cell_length_c   7.88110400
_cell_angle_alpha   90.00000000
_cell_angle_beta   90.00000000
_cell_angle_gamma   119.87431268
_symmetry_Int_Tables_number   1
_chemical_formula_structural   Be5Nb4Ga3
_chemical_formula_sum   'Be5 Nb4 Ga3'
_cell_volume   157.33330457
_cell_formula_units_Z   1
loop_
 _symmetry_equiv_pos_site_id
 _symmetry_equiv_pos_as_xyz
  1  'x, y, z'
loop_
 _atom_site_type_symbol
 _atom_site_label
 _atom_site_symmetry_multiplicity
 _atom_site_fract_x
 _atom_site_fract_y
 _atom_site_fract_z
 _atom_site_occupancy
  Be  Be0  1  0.820719  0.181013  0.250000  1
  Be  Be1  1  0.820719  0.639706  0.250000  1
  Be  Be2  1  0.367858  0.183929  0.250000  1
  Be  Be3  1  0.160871  0.819274  0.750000  1
  Be  Be4  1  0.160871  0.341597  0.750000  1
  Nb  Nb5  1  0.333855  0.666928  0.429110  1
  Nb  Nb6  1  0.668181  0.334090  0.562806  1
  Nb  Nb7  1  0.668181  0.334090  0.937194  1
  Nb  Nb8  1  0.333855  0.666928  0.070890  1
  Ga  Ga9  1  0.012656  0.006328  0.487332  1
  Ga  Ga10  1  0.012656  0.006328  0.012668  1
  Ga  Ga11  1  0.639579  0.819790  0.750000  1
