# generated using pymatgen
data_LaPa2(GaPt)3
_symmetry_space_group_name_H-M   'P 1'
_cell_length_a   7.23584743
_cell_length_b   7.23584660
_cell_length_c   4.12260200
_cell_angle_alpha   90.00000000
_cell_angle_beta   90.00000000
_cell_angle_gamma   120.36252245
_symmetry_Int_Tables_number   1
_chemical_formula_structural   LaPa2(GaPt)3
_chemical_formula_sum   'La1 Pa2 Ga3 Pt3'
_cell_volume   186.24417092
_cell_formula_units_Z   1
loop_
 _symmetry_equiv_pos_site_id
 _symmetry_equiv_pos_as_xyz
  1  'x, y, z'
loop_
 _atom_site_type_symbol
 _atom_site_label
 _atom_site_symmetry_multiplicity
 _atom_site_fract_x
 _atom_site_fract_y
 _atom_site_fract_z
 _atom_site_occupancy
  La  La0  1  0.583950  0.583950  0.500000  1
  Pa  Pa1  1  0.416258  0.997473  0.500000  1
  Pa  Pa2  1  0.997473  0.416258  0.500000  1
  Ga  Ga3  1  0.755939  0.995717  0.000000  1
  Ga  Ga4  1  0.995717  0.755939  0.000000  1
  Ga  Ga5  1  0.246964  0.246964  0.000000  1
  Pt  Pt6  1  0.315010  0.669507  0.000000  1
  Pt  Pt7  1  0.669507  0.315010  0.000000  1
  Pt  Pt8  1  0.019183  0.019183  0.500000  1
