# generated using pymatgen
data_Er6Al18Fe7Si6Ru
_symmetry_space_group_name_H-M   'P 1'
_cell_length_a   8.50189100
_cell_length_b   8.51742790
_cell_length_c   9.30077205
_cell_angle_alpha   90.11286224
_cell_angle_beta   90.00000000
_cell_angle_gamma   119.93968822
_symmetry_Int_Tables_number   1
_chemical_formula_structural   Er6Al18Fe7Si6Ru
_chemical_formula_sum   'Er6 Al18 Fe7 Si6 Ru1'
_cell_volume   583.62800984
_cell_formula_units_Z   1
loop_
 _symmetry_equiv_pos_site_id
 _symmetry_equiv_pos_as_xyz
  1  'x, y, z'
loop_
 _atom_site_type_symbol
 _atom_site_label
 _atom_site_symmetry_multiplicity
 _atom_site_fract_x
 _atom_site_fract_y
 _atom_site_fract_z
 _atom_site_occupancy
  Er  Er0  1  0.193970  0.387939  0.247891  1
  Er  Er1  1  0.806030  0.612061  0.752109  1
  Er  Er2  1  0.606897  0.806248  0.249368  1
  Er  Er3  1  0.393103  0.193752  0.750632  1
  Er  Er4  1  0.199350  0.806248  0.249368  1
  Er  Er5  1  0.800650  0.193752  0.750632  1
  Al  Al6  1  0.163311  0.326623  0.576195  1
  Al  Al7  1  0.836689  0.673377  0.423805  1
  Al  Al8  1  0.673772  0.832437  0.575048  1
  Al  Al9  1  0.836570  0.673139  0.075690  1
  Al  Al10  1  0.326228  0.167563  0.424952  1
  Al  Al11  1  0.163430  0.326861  0.924310  1
  Al  Al12  1  0.158665  0.832437  0.575048  1
  Al  Al13  1  0.327533  0.164764  0.073551  1
  Al  Al14  1  0.841335  0.167563  0.424952  1
  Al  Al15  1  0.672467  0.835236  0.926449  1
  Al  Al16  1  0.837230  0.164764  0.073551  1
  Al  Al17  1  0.162770  0.835236  0.926449  1
  Al  Al18  1  0.876605  0.435816  0.249485  1
  Al  Al19  1  0.123395  0.564184  0.750515  1
  Al  Al20  1  0.559211  0.435816  0.249485  1
  Al  Al21  1  0.440789  0.564184  0.750515  1
  Al  Al22  1  0.999183  0.998366  0.249643  1
  Al  Al23  1  0.000817  0.001634  0.750357  1
  Fe  Fe24  1  0.500000  0.000000  0.000000  1
  Fe  Fe25  1  0.000000  0.500000  0.000000  1
  Fe  Fe26  1  0.500000  0.500000  0.000000  1
  Fe  Fe27  1  0.000000  0.500000  0.500000  1
  Fe  Fe28  1  0.500000  0.500000  0.500000  1
  Fe  Fe29  1  0.000000  0.000000  0.000000  1
  Fe  Fe30  1  0.000000  0.000000  0.500000  1
  Si  Si31  1  0.331335  0.662672  0.031271  1
  Si  Si32  1  0.668665  0.337328  0.968729  1
  Si  Si33  1  0.671825  0.343650  0.532885  1
  Si  Si34  1  0.328175  0.656350  0.467115  1
  Si  Si35  1  0.562112  0.124223  0.243849  1
  Si  Si36  1  0.437888  0.875777  0.756151  1
  Ru  Ru37  1  0.500000  0.000000  0.500000  1
