# generated using pymatgen
data_Tb9Th6MgScHg3Ru4
_symmetry_space_group_name_H-M   'P 1'
_cell_length_a   9.63443674
_cell_length_b   9.72185365
_cell_length_c   9.76390225
_cell_angle_alpha   59.46083708
_cell_angle_beta   60.29032277
_cell_angle_gamma   60.29985569
_symmetry_Int_Tables_number   1
_chemical_formula_structural   Tb9Th6MgScHg3Ru4
_chemical_formula_sum   'Tb9 Th6 Mg1 Sc1 Hg3 Ru4'
_cell_volume   646.83007640
_cell_formula_units_Z   1
loop_
 _symmetry_equiv_pos_site_id
 _symmetry_equiv_pos_as_xyz
  1  'x, y, z'
loop_
 _atom_site_type_symbol
 _atom_site_label
 _atom_site_symmetry_multiplicity
 _atom_site_fract_x
 _atom_site_fract_y
 _atom_site_fract_z
 _atom_site_occupancy
  Tb  Tb0  1  0.056264  0.442807  0.058041  1
  Tb  Tb1  1  0.438552  0.438888  0.061501  1
  Tb  Tb2  1  0.058139  0.058874  0.442649  1
  Tb  Tb3  1  0.186859  0.820114  0.814088  1
  Tb  Tb4  1  0.810740  0.183831  0.187065  1
  Tb  Tb5  1  0.808955  0.190919  0.812848  1
  Tb  Tb6  1  0.188263  0.813443  0.187261  1
  Tb  Tb7  1  0.807347  0.815443  0.192150  1
  Tb  Tb8  1  0.190446  0.186200  0.810611  1
  Th  Th9  1  0.589929  0.603719  0.598859  1
  Th  Th10  1  0.601441  0.593231  0.205609  1
  Th  Th11  1  0.600878  0.203491  0.592529  1
  Th  Th12  1  0.199286  0.602841  0.602764  1
  Th  Th13  1  0.065739  0.432975  0.437595  1
  Th  Th14  1  0.432381  0.067344  0.068366  1
  Mg  Mg15  1  0.533448  0.821222  0.818605  1
  Sc  Sc16  1  0.437986  0.060559  0.440116  1
  Hg  Hg17  1  0.837061  0.835976  0.836765  1
  Hg  Hg18  1  0.830050  0.839079  0.491160  1
  Hg  Hg19  1  0.830945  0.491371  0.839070  1
  Ru  Ru20  1  0.380368  0.390942  0.399624  1
  Ru  Ru21  1  0.395450  0.377847  0.823471  1
  Ru  Ru22  1  0.397286  0.827954  0.380176  1
  Ru  Ru23  1  0.822189  0.400933  0.399081  1
