# generated using pymatgen
data_CeTm(Si7Rh3)2
_symmetry_space_group_name_H-M   'P 1'
_cell_length_a   8.01285024
_cell_length_b   8.01284985
_cell_length_c   8.01285121
_cell_angle_alpha   57.04094062
_cell_angle_beta   57.04093971
_cell_angle_gamma   57.04093761
_symmetry_Int_Tables_number   1
_chemical_formula_structural   CeTm(Si7Rh3)2
_chemical_formula_sum   'Ce1 Tm1 Si14 Rh6'
_cell_volume   338.97032965
_cell_formula_units_Z   1
loop_
 _symmetry_equiv_pos_site_id
 _symmetry_equiv_pos_as_xyz
  1  'x, y, z'
loop_
 _atom_site_type_symbol
 _atom_site_label
 _atom_site_symmetry_multiplicity
 _atom_site_fract_x
 _atom_site_fract_y
 _atom_site_fract_z
 _atom_site_occupancy
  Ce  Ce0  1  0.000000  0.000000  0.000000  1
  Tm  Tm1  1  0.500000  0.500000  0.500000  1
  Si  Si2  1  0.750070  0.750070  0.750070  1
  Si  Si3  1  0.249930  0.249930  0.249930  1
  Si  Si4  1  0.850795  0.065292  0.671654  1
  Si  Si5  1  0.671654  0.850795  0.065292  1
  Si  Si6  1  0.065292  0.671654  0.850795  1
  Si  Si7  1  0.647471  0.827910  0.434818  1
  Si  Si8  1  0.434818  0.647471  0.827910  1
  Si  Si9  1  0.827910  0.434818  0.647471  1
  Si  Si10  1  0.172090  0.565182  0.352529  1
  Si  Si11  1  0.565182  0.352529  0.172090  1
  Si  Si12  1  0.352529  0.172090  0.565182  1
  Si  Si13  1  0.934708  0.328346  0.149205  1
  Si  Si14  1  0.328346  0.149205  0.934708  1
  Si  Si15  1  0.149205  0.934708  0.328346  1
  Rh  Rh16  1  0.070677  0.431801  0.748777  1
  Rh  Rh17  1  0.251223  0.929323  0.568199  1
  Rh  Rh18  1  0.568199  0.251223  0.929323  1
  Rh  Rh19  1  0.929323  0.568199  0.251223  1
  Rh  Rh20  1  0.431801  0.748777  0.070677  1
  Rh  Rh21  1  0.748777  0.070677  0.431801  1
