# generated using pymatgen
data_Zn(IrCl5)2
_symmetry_space_group_name_H-M   'P 1'
_cell_length_a   9.44522847
_cell_length_b   9.44522890
_cell_length_c   12.69389716
_cell_angle_alpha   87.10133511
_cell_angle_beta   87.10133074
_cell_angle_gamma   141.20089865
_symmetry_Int_Tables_number   1
_chemical_formula_structural   Zn(IrCl5)2
_chemical_formula_sum   'Zn2 Ir4 Cl20'
_cell_volume   701.31300189
_cell_formula_units_Z   2
loop_
 _symmetry_equiv_pos_site_id
 _symmetry_equiv_pos_as_xyz
  1  'x, y, z'
loop_
 _atom_site_type_symbol
 _atom_site_label
 _atom_site_symmetry_multiplicity
 _atom_site_fract_x
 _atom_site_fract_y
 _atom_site_fract_z
 _atom_site_occupancy
  Zn  Zn0  1  0.550651  0.449349  0.250000  1
  Zn  Zn1  1  0.449349  0.550651  0.750000  1
  Ir  Ir2  1  0.953219  0.046781  0.250000  1
  Ir  Ir3  1  0.046781  0.953219  0.750000  1
  Ir  Ir4  1  0.753150  0.246850  0.250000  1
  Ir  Ir5  1  0.246850  0.753150  0.750000  1
  Cl  Cl6  1  0.034197  0.741415  0.645865  1
  Cl  Cl7  1  0.258585  0.965803  0.854135  1
  Cl  Cl8  1  0.965803  0.258585  0.354135  1
  Cl  Cl9  1  0.741415  0.034197  0.145865  1
  Cl  Cl10  1  0.704113  0.619451  0.858508  1
  Cl  Cl11  1  0.380549  0.295887  0.641492  1
  Cl  Cl12  1  0.295887  0.380549  0.141492  1
  Cl  Cl13  1  0.619451  0.704113  0.358508  1
  Cl  Cl14  1  0.913068  0.421154  0.850794  1
  Cl  Cl15  1  0.578846  0.086932  0.649206  1
  Cl  Cl16  1  0.086932  0.578846  0.149206  1
  Cl  Cl17  1  0.421154  0.913068  0.350794  1
  Cl  Cl18  1  0.824211  0.908393  0.642666  1
  Cl  Cl19  1  0.091607  0.175789  0.857334  1
  Cl  Cl20  1  0.175789  0.091607  0.357334  1
  Cl  Cl21  1  0.908393  0.824211  0.142666  1
  Cl  Cl22  1  0.234116  0.550700  0.642680  1
  Cl  Cl23  1  0.449300  0.765884  0.857320  1
  Cl  Cl24  1  0.765884  0.449300  0.357320  1
  Cl  Cl25  1  0.550700  0.234116  0.142680  1
