# generated using pymatgen
data_HoErNiIr3
_symmetry_space_group_name_H-M   'P 1'
_cell_length_a   5.17743993
_cell_length_b   5.17743961
_cell_length_c   5.17744003
_cell_angle_alpha   62.54817783
_cell_angle_beta   62.54818575
_cell_angle_gamma   62.54817925
_symmetry_Int_Tables_number   1
_chemical_formula_structural   HoErNiIr3
_chemical_formula_sum   'Ho1 Er1 Ni1 Ir3'
_cell_volume   103.70726166
_cell_formula_units_Z   1
loop_
 _symmetry_equiv_pos_site_id
 _symmetry_equiv_pos_as_xyz
  1  'x, y, z'
loop_
 _atom_site_type_symbol
 _atom_site_label
 _atom_site_symmetry_multiplicity
 _atom_site_fract_x
 _atom_site_fract_y
 _atom_site_fract_z
 _atom_site_occupancy
  Ho  Ho0  1  0.250881  0.250881  0.250881  1
  Er  Er1  1  0.999019  0.999019  0.999019  1
  Ni  Ni2  1  0.625027  0.625027  0.625027  1
  Ir  Ir3  1  0.625090  0.625090  0.124894  1
  Ir  Ir4  1  0.625090  0.124894  0.625090  1
  Ir  Ir5  1  0.124894  0.625090  0.625090  1
