# generated using pymatgen
data_ScU4Se5O4
_symmetry_space_group_name_H-M   'P 1'
_cell_length_a   3.86418723
_cell_length_b   3.86418650
_cell_length_c   18.22879809
_cell_angle_alpha   96.08426920
_cell_angle_beta   96.08426699
_cell_angle_gamma   90.00001156
_symmetry_Int_Tables_number   1
_chemical_formula_structural   ScU4Se5O4
_chemical_formula_sum   'Sc1 U4 Se5 O4'
_cell_volume   269.11612456
_cell_formula_units_Z   1
loop_
 _symmetry_equiv_pos_site_id
 _symmetry_equiv_pos_as_xyz
  1  'x, y, z'
loop_
 _atom_site_type_symbol
 _atom_site_label
 _atom_site_symmetry_multiplicity
 _atom_site_fract_x
 _atom_site_fract_y
 _atom_site_fract_z
 _atom_site_occupancy
  Sc  Sc0  1  0.500001  0.500001  0.000000  1
  U  U1  1  0.115066  0.115066  0.230133  1
  U  U2  1  0.688079  0.688079  0.376157  1
  U  U3  1  0.311921  0.311921  0.623843  1
  U  U4  1  0.884934  0.884934  0.769867  1
  Se  Se5  1  0.000000  0.000000  0.000000  1
  Se  Se6  1  0.575693  0.575693  0.151385  1
  Se  Se7  1  0.223531  0.223531  0.447063  1
  Se  Se8  1  0.776469  0.776469  0.552938  1
  Se  Se9  1  0.424308  0.424308  0.848616  1
  O  O10  1  0.650118  0.150118  0.300236  1
  O  O11  1  0.150118  0.650118  0.300236  1
  O  O12  1  0.849883  0.349883  0.699764  1
  O  O13  1  0.349883  0.849883  0.699764  1
