# generated using pymatgen
data_Sm3Al12CuOs3
_symmetry_space_group_name_H-M   'P 1'
_cell_length_a   8.87555354
_cell_length_b   8.87555265
_cell_length_c   9.56312100
_cell_angle_alpha   90.00000000
_cell_angle_beta   90.00000000
_cell_angle_gamma   119.43852509
_symmetry_Int_Tables_number   1
_chemical_formula_structural   Sm3Al12CuOs3
_chemical_formula_sum   'Sm6 Al24 Cu2 Os6'
_cell_volume   656.07061119
_cell_formula_units_Z   2
loop_
 _symmetry_equiv_pos_site_id
 _symmetry_equiv_pos_as_xyz
  1  'x, y, z'
loop_
 _atom_site_type_symbol
 _atom_site_label
 _atom_site_symmetry_multiplicity
 _atom_site_fract_x
 _atom_site_fract_y
 _atom_site_fract_z
 _atom_site_occupancy
  Sm  Sm0  1  0.187086  0.382279  0.250000  1
  Sm  Sm1  1  0.812914  0.617721  0.750000  1
  Sm  Sm2  1  0.617721  0.812914  0.250000  1
  Sm  Sm3  1  0.382279  0.187086  0.750000  1
  Sm  Sm4  1  0.193312  0.806688  0.250000  1
  Sm  Sm5  1  0.806688  0.193312  0.750000  1
  Al  Al6  1  0.332477  0.667523  0.017936  1
  Al  Al7  1  0.667523  0.332477  0.982064  1
  Al  Al8  1  0.667523  0.332477  0.517936  1
  Al  Al9  1  0.332477  0.667523  0.482064  1
  Al  Al10  1  0.156681  0.324193  0.576121  1
  Al  Al11  1  0.843319  0.675807  0.423879  1
  Al  Al12  1  0.675807  0.843319  0.576121  1
  Al  Al13  1  0.843319  0.675807  0.076121  1
  Al  Al14  1  0.324193  0.156681  0.423879  1
  Al  Al15  1  0.156681  0.324193  0.923879  1
  Al  Al16  1  0.164277  0.835723  0.574551  1
  Al  Al17  1  0.324193  0.156681  0.076121  1
  Al  Al18  1  0.835723  0.164277  0.425449  1
  Al  Al19  1  0.675807  0.843319  0.923879  1
  Al  Al20  1  0.835723  0.164277  0.074551  1
  Al  Al21  1  0.164277  0.835723  0.925449  1
  Al  Al22  1  0.561674  0.124297  0.250000  1
  Al  Al23  1  0.438326  0.875703  0.750000  1
  Al  Al24  1  0.875703  0.438326  0.250000  1
  Al  Al25  1  0.124297  0.561674  0.750000  1
  Al  Al26  1  0.561523  0.438477  0.250000  1
  Al  Al27  1  0.438477  0.561523  0.750000  1
  Al  Al28  1  0.998373  0.001627  0.250000  1
  Al  Al29  1  0.001627  0.998373  0.750000  1
  Cu  Cu30  1  0.500000  0.500000  0.000000  1
  Cu  Cu31  1  0.500000  0.500000  0.500000  1
  Os  Os32  1  0.500000  0.000000  0.000000  1
  Os  Os33  1  0.000000  0.500000  0.000000  1
  Os  Os34  1  0.500000  0.000000  0.500000  1
  Os  Os35  1  0.000000  0.500000  0.500000  1
  Os  Os36  1  0.000000  0.000000  0.000000  1
  Os  Os37  1  0.000000  0.000000  0.500000  1
