# generated using pymatgen
data_Tb6NpO12
_symmetry_space_group_name_H-M   'P 1'
_cell_length_a   6.59535741
_cell_length_b   6.59535829
_cell_length_c   6.59535739
_cell_angle_alpha   98.87104541
_cell_angle_beta   98.87104291
_cell_angle_gamma   98.87103891
_symmetry_Int_Tables_number   1
_chemical_formula_structural   Tb6NpO12
_chemical_formula_sum   'Tb6 Np1 O12'
_cell_volume   275.37267584
_cell_formula_units_Z   1
loop_
 _symmetry_equiv_pos_site_id
 _symmetry_equiv_pos_as_xyz
  1  'x, y, z'
loop_
 _atom_site_type_symbol
 _atom_site_label
 _atom_site_symmetry_multiplicity
 _atom_site_fract_x
 _atom_site_fract_y
 _atom_site_fract_z
 _atom_site_occupancy
  Tb  Tb0  1  0.145284  0.320594  0.610938  1
  Tb  Tb1  1  0.389062  0.854716  0.679406  1
  Tb  Tb2  1  0.679406  0.389062  0.854716  1
  Tb  Tb3  1  0.320594  0.610938  0.145284  1
  Tb  Tb4  1  0.610938  0.145284  0.320594  1
  Tb  Tb5  1  0.854716  0.679406  0.389062  1
  Np  Np6  1  0.000000  0.000000  0.000000  1
  O  O7  1  0.075924  0.306473  0.955132  1
  O  O8  1  0.044868  0.924076  0.693527  1
  O  O9  1  0.411417  0.570202  0.822254  1
  O  O10  1  0.177746  0.588583  0.429798  1
  O  O11  1  0.693527  0.044868  0.924076  1
  O  O12  1  0.429798  0.177746  0.588583  1
  O  O13  1  0.570202  0.822254  0.411417  1
  O  O14  1  0.306473  0.955132  0.075924  1
  O  O15  1  0.822254  0.411417  0.570202  1
  O  O16  1  0.588583  0.429798  0.177746  1
  O  O17  1  0.955132  0.075924  0.306473  1
  O  O18  1  0.924076  0.693527  0.044868  1
