# generated using pymatgen
data_Y11ThCo4
_symmetry_space_group_name_H-M   'P 1'
_cell_length_a   6.30034548
_cell_length_b   6.97668704
_cell_length_c   9.56048700
_cell_angle_alpha   90.00000000
_cell_angle_beta   90.00000000
_cell_angle_gamma   91.11568338
_symmetry_Int_Tables_number   1
_chemical_formula_structural   Y11ThCo4
_chemical_formula_sum   'Y11 Th1 Co4'
_cell_volume   420.15668730
_cell_formula_units_Z   1
loop_
 _symmetry_equiv_pos_site_id
 _symmetry_equiv_pos_as_xyz
  1  'x, y, z'
loop_
 _atom_site_type_symbol
 _atom_site_label
 _atom_site_symmetry_multiplicity
 _atom_site_fract_x
 _atom_site_fract_y
 _atom_site_fract_z
 _atom_site_occupancy
  Y  Y0  1  0.325460  0.672399  0.066860  1
  Y  Y1  1  0.174801  0.174066  0.430657  1
  Y  Y2  1  0.677643  0.326082  0.568477  1
  Y  Y3  1  0.822042  0.828968  0.929822  1
  Y  Y4  1  0.677643  0.326082  0.931523  1
  Y  Y5  1  0.822042  0.828968  0.570178  1
  Y  Y6  1  0.325460  0.672399  0.433140  1
  Y  Y7  1  0.174801  0.174066  0.069343  1
  Y  Y8  1  0.640898  0.043282  0.250000  1
  Y  Y9  1  0.141131  0.454088  0.750000  1
  Y  Y10  1  0.357992  0.956483  0.750000  1
  Th  Th11  1  0.847192  0.558194  0.250000  1
  Co  Co12  1  0.040262  0.869699  0.250000  1
  Co  Co13  1  0.475489  0.390548  0.250000  1
  Co  Co14  1  0.954099  0.113249  0.750000  1
  Co  Co15  1  0.543044  0.611427  0.750000  1
