# generated using pymatgen
data_Sm3Cu2Pt7
_symmetry_space_group_name_H-M   'P 1'
_cell_length_a   9.16012210
_cell_length_b   9.16012228
_cell_length_c   9.16012258
_cell_angle_alpha   34.61903496
_cell_angle_beta   34.61903294
_cell_angle_gamma   34.61903825
_symmetry_Int_Tables_number   1
_chemical_formula_structural   Sm3Cu2Pt7
_chemical_formula_sum   'Sm3 Cu2 Pt7'
_cell_volume   221.35625586
_cell_formula_units_Z   1
loop_
 _symmetry_equiv_pos_site_id
 _symmetry_equiv_pos_as_xyz
  1  'x, y, z'
loop_
 _atom_site_type_symbol
 _atom_site_label
 _atom_site_symmetry_multiplicity
 _atom_site_fract_x
 _atom_site_fract_y
 _atom_site_fract_z
 _atom_site_occupancy
  Sm  Sm0  1  0.861103  0.861103  0.861103  1
  Sm  Sm1  1  0.138897  0.138897  0.138897  1
  Sm  Sm2  1  0.000000  0.000000  0.000000  1
  Cu  Cu3  1  0.666407  0.666407  0.666407  1
  Cu  Cu4  1  0.333593  0.333593  0.333593  1
  Pt  Pt5  1  0.417528  0.922718  0.417528  1
  Pt  Pt6  1  0.417528  0.417528  0.922718  1
  Pt  Pt7  1  0.922718  0.417528  0.417528  1
  Pt  Pt8  1  0.582472  0.077282  0.582472  1
  Pt  Pt9  1  0.582472  0.582472  0.077282  1
  Pt  Pt10  1  0.077282  0.582472  0.582472  1
  Pt  Pt11  1  0.500000  0.500000  0.500000  1
