# generated using pymatgen
data_Tb4InNi
_symmetry_space_group_name_H-M   'P 1'
_cell_length_a   9.61670540
_cell_length_b   9.61670556
_cell_length_c   9.61670500
_cell_angle_alpha   59.99999850
_cell_angle_beta   59.99999792
_cell_angle_gamma   59.99999721
_symmetry_Int_Tables_number   1
_chemical_formula_structural   Tb4InNi
_chemical_formula_sum   'Tb16 In4 Ni4'
_cell_volume   628.87438623
_cell_formula_units_Z   4
loop_
 _symmetry_equiv_pos_site_id
 _symmetry_equiv_pos_as_xyz
  1  'x, y, z'
loop_
 _atom_site_type_symbol
 _atom_site_label
 _atom_site_symmetry_multiplicity
 _atom_site_fract_x
 _atom_site_fract_y
 _atom_site_fract_z
 _atom_site_occupancy
  Tb  Tb0  1  0.347931  0.347931  0.347931  1
  Tb  Tb1  1  0.347931  0.347931  0.956208  1
  Tb  Tb2  1  0.347931  0.956208  0.347931  1
  Tb  Tb3  1  0.956208  0.347931  0.347931  1
  Tb  Tb4  1  0.811568  0.188432  0.188432  1
  Tb  Tb5  1  0.188432  0.811568  0.811568  1
  Tb  Tb6  1  0.188432  0.811568  0.188432  1
  Tb  Tb7  1  0.811568  0.188432  0.811568  1
  Tb  Tb8  1  0.188432  0.188432  0.811568  1
  Tb  Tb9  1  0.811568  0.811568  0.188432  1
  Tb  Tb10  1  0.937107  0.562893  0.562893  1
  Tb  Tb11  1  0.562893  0.937107  0.937107  1
  Tb  Tb12  1  0.562893  0.937107  0.562893  1
  Tb  Tb13  1  0.937107  0.562893  0.937107  1
  Tb  Tb14  1  0.562893  0.562893  0.937107  1
  Tb  Tb15  1  0.937107  0.937107  0.562893  1
  In  In16  1  0.581802  0.581802  0.581802  1
  In  In17  1  0.581802  0.581802  0.254592  1
  In  In18  1  0.581802  0.254592  0.581802  1
  In  In19  1  0.254592  0.581802  0.581802  1
  Ni  Ni20  1  0.142247  0.142247  0.142247  1
  Ni  Ni21  1  0.142247  0.142247  0.573259  1
  Ni  Ni22  1  0.142247  0.573259  0.142247  1
  Ni  Ni23  1  0.573259  0.142247  0.142247  1
