# generated using pymatgen
data_TbLu2MgNi8
_symmetry_space_group_name_H-M   'P 1'
_cell_length_a   4.96140300
_cell_length_b   4.96140245
_cell_length_c   8.62914193
_cell_angle_alpha   73.29288100
_cell_angle_beta   90.00000000
_cell_angle_gamma   119.99999701
_symmetry_Int_Tables_number   1
_chemical_formula_structural   TbLu2MgNi8
_chemical_formula_sum   'Tb1 Lu2 Mg1 Ni8'
_cell_volume   173.52226884
_cell_formula_units_Z   1
loop_
 _symmetry_equiv_pos_site_id
 _symmetry_equiv_pos_as_xyz
  1  'x, y, z'
loop_
 _atom_site_type_symbol
 _atom_site_label
 _atom_site_symmetry_multiplicity
 _atom_site_fract_x
 _atom_site_fract_y
 _atom_site_fract_z
 _atom_site_occupancy
  Tb  Tb0  1  0.003642  0.007283  0.989075  1
  Lu  Lu1  1  0.495511  0.991021  0.513468  1
  Lu  Lu2  1  0.875930  0.751861  0.372208  1
  Mg  Mg3  1  0.374014  0.748027  0.877959  1
  Ni  Ni4  1  0.437002  0.373678  0.189320  1
  Ni  Ni5  1  0.936264  0.378057  0.685681  1
  Ni  Ni6  1  0.437002  0.874005  0.189320  1
  Ni  Ni7  1  0.936264  0.872527  0.685681  1
  Ni  Ni8  1  0.187652  0.375306  0.437042  1
  Ni  Ni9  1  0.688252  0.376504  0.935244  1
  Ni  Ni10  1  0.936674  0.373678  0.189320  1
  Ni  Ni11  1  0.441793  0.378057  0.685681  1
