# generated using pymatgen
data_Ba(HoSe2)2
_symmetry_space_group_name_H-M   'P 1'
_cell_length_a   4.19909800
_cell_length_b   12.91819700
_cell_length_c   15.16997800
_cell_angle_alpha   90.00000000
_cell_angle_beta   90.00000000
_cell_angle_gamma   90.00000000
_symmetry_Int_Tables_number   1
_chemical_formula_structural   Ba(HoSe2)2
_chemical_formula_sum   'Ba4 Ho8 Se16'
_cell_volume   822.89204619
_cell_formula_units_Z   4
loop_
 _symmetry_equiv_pos_site_id
 _symmetry_equiv_pos_as_xyz
  1  'x, y, z'
loop_
 _atom_site_type_symbol
 _atom_site_label
 _atom_site_symmetry_multiplicity
 _atom_site_fract_x
 _atom_site_fract_y
 _atom_site_fract_z
 _atom_site_occupancy
  Ba  Ba0  1  0.250000  0.759950  0.334567  1
  Ba  Ba1  1  0.250000  0.259950  0.165433  1
  Ba  Ba2  1  0.750000  0.240050  0.665433  1
  Ba  Ba3  1  0.750000  0.740050  0.834567  1
  Ho  Ho4  1  0.250000  0.439131  0.390151  1
  Ho  Ho5  1  0.250000  0.939131  0.109849  1
  Ho  Ho6  1  0.750000  0.560869  0.609849  1
  Ho  Ho7  1  0.750000  0.060869  0.890151  1
  Ho  Ho8  1  0.250000  0.418602  0.901297  1
  Ho  Ho9  1  0.250000  0.918602  0.598703  1
  Ho  Ho10  1  0.750000  0.581398  0.098703  1
  Ho  Ho11  1  0.750000  0.081398  0.401297  1
  Se  Se12  1  0.250000  0.204106  0.839205  1
  Se  Se13  1  0.250000  0.704106  0.660795  1
  Se  Se14  1  0.750000  0.795894  0.160795  1
  Se  Se15  1  0.750000  0.295894  0.339205  1
  Se  Se16  1  0.250000  0.123601  0.525994  1
  Se  Se17  1  0.250000  0.623601  0.974006  1
  Se  Se18  1  0.750000  0.876399  0.474006  1
  Se  Se19  1  0.750000  0.376399  0.025994  1
  Se  Se20  1  0.250000  0.527254  0.215938  1
  Se  Se21  1  0.250000  0.027254  0.284062  1
  Se  Se22  1  0.750000  0.472746  0.784062  1
  Se  Se23  1  0.750000  0.972746  0.715938  1
  Se  Se24  1  0.250000  0.414161  0.575332  1
  Se  Se25  1  0.250000  0.914161  0.924668  1
  Se  Se26  1  0.750000  0.585839  0.424668  1
  Se  Se27  1  0.750000  0.085839  0.075332  1
