# generated using pymatgen
data_Tb7CoSn23Os5
_symmetry_space_group_name_H-M   'P 1'
_cell_length_a   9.85469895
_cell_length_b   9.89597344
_cell_length_c   10.07527905
_cell_angle_alpha   89.99999836
_cell_angle_beta   89.95416966
_cell_angle_gamma   120.13864793
_symmetry_Int_Tables_number   1
_chemical_formula_structural   Tb7CoSn23Os5
_chemical_formula_sum   'Tb7 Co1 Sn23 Os5'
_cell_volume   849.73001386
_cell_formula_units_Z   1
loop_
 _symmetry_equiv_pos_site_id
 _symmetry_equiv_pos_as_xyz
  1  'x, y, z'
loop_
 _atom_site_type_symbol
 _atom_site_label
 _atom_site_symmetry_multiplicity
 _atom_site_fract_x
 _atom_site_fract_y
 _atom_site_fract_z
 _atom_site_occupancy
  Tb  Tb0  1  0.485044  0.514678  0.302686  1
  Tb  Tb1  1  0.514493  0.484089  0.695589  1
  Tb  Tb2  1  0.485044  0.970368  0.302686  1
  Tb  Tb3  1  0.514493  0.030403  0.695589  1
  Tb  Tb4  1  0.029033  0.514517  0.302412  1
  Tb  Tb5  1  0.967120  0.483559  0.696577  1
  Tb  Tb6  1  0.013369  0.006684  0.007097  1
  Co  Co7  1  0.657826  0.828913  0.798654  1
  Sn  Sn8  1  0.115431  0.882985  0.282191  1
  Sn  Sn9  1  0.878694  0.109460  0.724986  1
  Sn  Sn10  1  0.115431  0.232447  0.282191  1
  Sn  Sn11  1  0.878694  0.769235  0.724986  1
  Sn  Sn12  1  0.762094  0.881047  0.274348  1
  Sn  Sn13  1  0.236372  0.118186  0.723950  1
  Sn  Sn14  1  0.779570  0.221194  0.463491  1
  Sn  Sn15  1  0.219972  0.777370  0.536514  1
  Sn  Sn16  1  0.779570  0.558376  0.463491  1
  Sn  Sn17  1  0.219972  0.442602  0.536514  1
  Sn  Sn18  1  0.442749  0.221375  0.462599  1
  Sn  Sn19  1  0.561186  0.780593  0.541248  1
  Sn  Sn20  1  0.351763  0.998721  0.999827  1
  Sn  Sn21  1  0.653867  0.996832  0.994310  1
  Sn  Sn22  1  0.000580  0.349372  0.000039  1
  Sn  Sn23  1  0.000580  0.651210  0.000039  1
  Sn  Sn24  1  0.653867  0.657035  0.994310  1
  Sn  Sn25  1  0.351763  0.353041  0.999827  1
  Sn  Sn26  1  0.334248  0.667125  0.128063  1
  Sn  Sn27  1  0.665097  0.332549  0.870618  1
  Sn  Sn28  1  0.334888  0.667445  0.823353  1
  Sn  Sn29  1  0.666188  0.333094  0.172734  1
  Sn  Sn30  1  0.997474  0.998737  0.502426  1
  Os  Os31  1  0.828817  0.168502  0.201024  1
  Os  Os32  1  0.169240  0.830368  0.797355  1
  Os  Os33  1  0.828817  0.660316  0.201024  1
  Os  Os34  1  0.169240  0.338871  0.797355  1
  Os  Os35  1  0.337409  0.168706  0.199900  1
