# generated using pymatgen
data_TaGa2RuCl16
_symmetry_space_group_name_H-M   'P 1'
_cell_length_a   9.90149702
_cell_length_b   9.90149727
_cell_length_c   8.76877300
_cell_angle_alpha   90.00000000
_cell_angle_beta   90.00000000
_cell_angle_gamma   128.57364220
_symmetry_Int_Tables_number   1
_chemical_formula_structural   TaGa2RuCl16
_chemical_formula_sum   'Ta1 Ga2 Ru1 Cl16'
_cell_volume   672.10996390
_cell_formula_units_Z   1
loop_
 _symmetry_equiv_pos_site_id
 _symmetry_equiv_pos_as_xyz
  1  'x, y, z'
loop_
 _atom_site_type_symbol
 _atom_site_label
 _atom_site_symmetry_multiplicity
 _atom_site_fract_x
 _atom_site_fract_y
 _atom_site_fract_z
 _atom_site_occupancy
  Ta  Ta0  1  0.114570  0.885430  0.750000  1
  Ga  Ga1  1  0.317152  0.682848  0.750000  1
  Ga  Ga2  1  0.684157  0.315843  0.250000  1
  Ru  Ru3  1  0.879410  0.120590  0.250000  1
  Cl  Cl4  1  0.378362  0.621638  0.540247  1
  Cl  Cl5  1  0.622233  0.377767  0.458637  1
  Cl  Cl6  1  0.422984  0.965896  0.750000  1
  Cl  Cl7  1  0.966797  0.419241  0.250000  1
  Cl  Cl8  1  0.580759  0.033203  0.250000  1
  Cl  Cl9  1  0.034104  0.577016  0.750000  1
  Cl  Cl10  1  0.238864  0.169569  0.750000  1
  Cl  Cl11  1  0.157853  0.234139  0.250000  1
  Cl  Cl12  1  0.765861  0.842147  0.250000  1
  Cl  Cl13  1  0.830431  0.761136  0.750000  1
  Cl  Cl14  1  0.132708  0.867292  0.488193  1
  Cl  Cl15  1  0.870226  0.129774  0.509380  1
  Cl  Cl16  1  0.870226  0.129774  0.990620  1
  Cl  Cl17  1  0.132708  0.867292  0.011807  1
  Cl  Cl18  1  0.378362  0.621638  0.959753  1
  Cl  Cl19  1  0.622233  0.377767  0.041363  1
