# generated using pymatgen
data_Tm3Zr(MoN2)4
_symmetry_space_group_name_H-M   'P 1'
_cell_length_a   3.14701700
_cell_length_b   5.63201342
_cell_length_c   10.52362360
_cell_angle_alpha   90.20960577
_cell_angle_beta   90.00000000
_cell_angle_gamma   90.00000000
_symmetry_Int_Tables_number   1
_chemical_formula_structural   Tm3Zr(MoN2)4
_chemical_formula_sum   'Tm3 Zr1 Mo4 N8'
_cell_volume   186.51989846
_cell_formula_units_Z   1
loop_
 _symmetry_equiv_pos_site_id
 _symmetry_equiv_pos_as_xyz
  1  'x, y, z'
loop_
 _atom_site_type_symbol
 _atom_site_label
 _atom_site_symmetry_multiplicity
 _atom_site_fract_x
 _atom_site_fract_y
 _atom_site_fract_z
 _atom_site_occupancy
  Tm  Tm0  1  0.250000  0.580353  0.646454  1
  Tm  Tm1  1  0.750000  0.919180  0.147648  1
  Tm  Tm2  1  0.750000  0.420107  0.352217  1
  Zr  Zr3  1  0.250000  0.082228  0.849802  1
  Mo  Mo4  1  0.250000  0.429879  0.092443  1
  Mo  Mo5  1  0.250000  0.930955  0.405852  1
  Mo  Mo6  1  0.750000  0.566775  0.908518  1
  Mo  Mo7  1  0.750000  0.069943  0.593698  1
  N  N8  1  0.250000  0.165836  0.246335  1
  N  N9  1  0.250000  0.663072  0.250444  1
  N  N10  1  0.750000  0.844570  0.757586  1
  N  N11  1  0.750000  0.327932  0.751943  1
  N  N12  1  0.250000  0.770301  0.992794  1
  N  N13  1  0.250000  0.263922  0.505817  1
  N  N14  1  0.750000  0.230600  0.001016  1
  N  N15  1  0.750000  0.734347  0.497432  1
