# generated using pymatgen
data_Tm9Hg4
_symmetry_space_group_name_H-M   'P 1'
_cell_length_a   8.69308261
_cell_length_b   8.69308160
_cell_length_c   8.69316289
_cell_angle_alpha   94.94755104
_cell_angle_beta   94.94738552
_cell_angle_gamma   145.84416426
_symmetry_Int_Tables_number   1
_chemical_formula_structural   Tm9Hg4
_chemical_formula_sum   'Tm9 Hg4'
_cell_volume   352.57283721
_cell_formula_units_Z   1
loop_
 _symmetry_equiv_pos_site_id
 _symmetry_equiv_pos_as_xyz
  1  'x, y, z'
loop_
 _atom_site_type_symbol
 _atom_site_label
 _atom_site_symmetry_multiplicity
 _atom_site_fract_x
 _atom_site_fract_y
 _atom_site_fract_z
 _atom_site_occupancy
  Tm  Tm0  1  0.499999  0.499999  0.000000  1
  Tm  Tm1  1  0.182443  0.887076  0.069521  1
  Tm  Tm2  1  0.112923  0.182443  0.295366  1
  Tm  Tm3  1  0.891510  0.400385  0.291896  1
  Tm  Tm4  1  0.599613  0.891511  0.491126  1
  Tm  Tm5  1  0.400386  0.108488  0.508873  1
  Tm  Tm6  1  0.108489  0.599614  0.708104  1
  Tm  Tm7  1  0.887076  0.817556  0.704634  1
  Tm  Tm8  1  0.817556  0.112923  0.930479  1
  Hg  Hg9  1  0.398794  0.737915  0.136711  1
  Hg  Hg10  1  0.737917  0.601203  0.339122  1
  Hg  Hg11  1  0.262082  0.398796  0.660878  1
  Hg  Hg12  1  0.601205  0.262084  0.863289  1
