# generated using pymatgen
data_NaAc3(MgSn)4
_symmetry_space_group_name_H-M   'P 1'
_cell_length_a   4.84358800
_cell_length_b   8.02732104
_cell_length_c   9.26421703
_cell_angle_alpha   90.17166748
_cell_angle_beta   90.00000000
_cell_angle_gamma   90.00000000
_symmetry_Int_Tables_number   1
_chemical_formula_structural   NaAc3(MgSn)4
_chemical_formula_sum   'Na1 Ac3 Mg4 Sn4'
_cell_volume   360.20073787
_cell_formula_units_Z   1
loop_
 _symmetry_equiv_pos_site_id
 _symmetry_equiv_pos_as_xyz
  1  'x, y, z'
loop_
 _atom_site_type_symbol
 _atom_site_label
 _atom_site_symmetry_multiplicity
 _atom_site_fract_x
 _atom_site_fract_y
 _atom_site_fract_z
 _atom_site_occupancy
  Na  Na0  1  0.250000  0.021723  0.817517  1
  Ac  Ac1  1  0.750000  0.981289  0.180766  1
  Ac  Ac2  1  0.750000  0.477806  0.317076  1
  Ac  Ac3  1  0.250000  0.515734  0.684576  1
  Mg  Mg4  1  0.250000  0.645797  0.059553  1
  Mg  Mg5  1  0.250000  0.148337  0.445401  1
  Mg  Mg6  1  0.750000  0.852033  0.569258  1
  Mg  Mg7  1  0.750000  0.355289  0.933521  1
  Sn  Sn8  1  0.250000  0.272123  0.103916  1
  Sn  Sn9  1  0.250000  0.775129  0.382943  1
  Sn  Sn10  1  0.750000  0.222392  0.615421  1
  Sn  Sn11  1  0.750000  0.732348  0.890051  1
