# generated using pymatgen
data_Lu3FeB7
_symmetry_space_group_name_H-M   'P 1'
_cell_length_a   7.85185224
_cell_length_b   7.85185243
_cell_length_c   9.15372400
_cell_angle_alpha   90.00000000
_cell_angle_beta   90.00000000
_cell_angle_gamma   155.30157981
_symmetry_Int_Tables_number   1
_chemical_formula_structural   Lu3FeB7
_chemical_formula_sum   'Lu6 Fe2 B14'
_cell_volume   235.80563356
_cell_formula_units_Z   2
loop_
 _symmetry_equiv_pos_site_id
 _symmetry_equiv_pos_as_xyz
  1  'x, y, z'
loop_
 _atom_site_type_symbol
 _atom_site_label
 _atom_site_symmetry_multiplicity
 _atom_site_fract_x
 _atom_site_fract_y
 _atom_site_fract_z
 _atom_site_occupancy
  Lu  Lu0  1  0.894556  0.105444  0.440400  1
  Lu  Lu1  1  0.105444  0.894556  0.559600  1
  Lu  Lu2  1  0.894556  0.105444  0.059600  1
  Lu  Lu3  1  0.105444  0.894556  0.940400  1
  Lu  Lu4  1  0.243884  0.756116  0.250000  1
  Lu  Lu5  1  0.756116  0.243884  0.750000  1
  Fe  Fe6  1  0.054022  0.945978  0.250000  1
  Fe  Fe7  1  0.945978  0.054022  0.750000  1
  B  B8  1  0.727800  0.272200  0.466419  1
  B  B9  1  0.272200  0.727800  0.533581  1
  B  B10  1  0.727800  0.272200  0.033581  1
  B  B11  1  0.272200  0.727800  0.966419  1
  B  B12  1  0.630718  0.369282  0.152237  1
  B  B13  1  0.369282  0.630718  0.847763  1
  B  B14  1  0.630718  0.369282  0.347763  1
  B  B15  1  0.369282  0.630718  0.652237  1
  B  B16  1  0.520340  0.479660  0.097382  1
  B  B17  1  0.479660  0.520340  0.902618  1
  B  B18  1  0.520340  0.479660  0.402618  1
  B  B19  1  0.479660  0.520340  0.597382  1
  B  B20  1  0.455762  0.544238  0.250000  1
  B  B21  1  0.544238  0.455762  0.750000  1
