# generated using pymatgen
data_TbU3(PO4)6
_symmetry_space_group_name_H-M   'P 1'
_cell_length_a   9.17850465
_cell_length_b   9.17850466
_cell_length_c   9.41456000
_cell_angle_alpha   60.82601366
_cell_angle_beta   60.82600648
_cell_angle_gamma   59.99999725
_symmetry_Int_Tables_number   1
_chemical_formula_structural   TbU3(PO4)6
_chemical_formula_sum   'Tb1 U3 P6 O24'
_cell_volume   567.72726910
_cell_formula_units_Z   1
loop_
 _symmetry_equiv_pos_site_id
 _symmetry_equiv_pos_as_xyz
  1  'x, y, z'
loop_
 _atom_site_type_symbol
 _atom_site_label
 _atom_site_symmetry_multiplicity
 _atom_site_fract_x
 _atom_site_fract_y
 _atom_site_fract_z
 _atom_site_occupancy
  Tb  Tb0  1  0.860919  0.860919  0.417242  1
  U  U1  1  0.142107  0.142107  0.573680  1
  U  U2  1  0.358018  0.358018  0.925944  1
  U  U3  1  0.642974  0.642974  0.071077  1
  P  P4  1  0.754309  0.034607  0.747165  1
  P  P5  1  0.034607  0.463920  0.747165  1
  P  P6  1  0.463920  0.754309  0.747165  1
  P  P7  1  0.533650  0.255213  0.250119  1
  P  P8  1  0.961017  0.533650  0.250119  1
  P  P9  1  0.255213  0.961017  0.250119  1
  O  O10  1  0.301720  0.119009  0.089044  1
  O  O11  1  0.490227  0.301720  0.089044  1
  O  O12  1  0.919324  0.053865  0.735507  1
  O  O13  1  0.119009  0.490227  0.089044  1
  O  O14  1  0.594353  0.205877  0.775346  1
  O  O15  1  0.779281  0.010785  0.589232  1
  O  O16  1  0.053865  0.291303  0.735507  1
  O  O17  1  0.205877  0.424424  0.775346  1
  O  O18  1  0.424424  0.594353  0.775346  1
  O  O19  1  0.368995  0.225387  0.411690  1
  O  O20  1  0.699961  0.096578  0.258318  1
  O  O21  1  0.993930  0.368995  0.411690  1
  O  O22  1  0.010785  0.620701  0.589232  1
  O  O23  1  0.291303  0.919324  0.735507  1
  O  O24  1  0.620701  0.779281  0.589232  1
  O  O25  1  0.551478  0.422141  0.235169  1
  O  O26  1  0.791212  0.551478  0.235169  1
  O  O27  1  0.945143  0.699961  0.258318  1
  O  O28  1  0.225387  0.993930  0.411690  1
  O  O29  1  0.422141  0.791212  0.235169  1
  O  O30  1  0.873290  0.493592  0.912428  1
  O  O31  1  0.096578  0.945143  0.258318  1
  O  O32  1  0.493592  0.720690  0.912428  1
  O  O33  1  0.720690  0.873290  0.912428  1
