# generated using pymatgen
data_CaLa9(SnGe2)2
_symmetry_space_group_name_H-M   'P 1'
_cell_length_a   9.29689809
_cell_length_b   9.29689821
_cell_length_c   9.29689764
_cell_angle_alpha   127.78959200
_cell_angle_beta   127.78957979
_cell_angle_gamma   76.96613121
_symmetry_Int_Tables_number   1
_chemical_formula_structural   CaLa9(SnGe2)2
_chemical_formula_sum   'Ca1 La9 Sn2 Ge4'
_cell_volume   487.15481984
_cell_formula_units_Z   1
loop_
 _symmetry_equiv_pos_site_id
 _symmetry_equiv_pos_as_xyz
  1  'x, y, z'
loop_
 _atom_site_type_symbol
 _atom_site_label
 _atom_site_symmetry_multiplicity
 _atom_site_fract_x
 _atom_site_fract_y
 _atom_site_fract_z
 _atom_site_occupancy
  Ca  Ca0  1  0.500000  0.500000  0.000000  1
  La  La1  1  0.528464  0.029068  0.842637  1
  La  La2  1  0.186431  0.685826  0.157363  1
  La  La3  1  0.029068  0.186431  0.500605  1
  La  La4  1  0.685826  0.528464  0.499395  1
  La  La5  1  0.471536  0.970932  0.157363  1
  La  La6  1  0.813569  0.314174  0.842637  1
  La  La7  1  0.970932  0.813569  0.499395  1
  La  La8  1  0.314174  0.471536  0.500605  1
  La  La9  1  0.000000  0.000000  0.000000  1
  Sn  Sn10  1  0.249230  0.249230  0.000000  1
  Sn  Sn11  1  0.750770  0.750770  0.000000  1
  Ge  Ge12  1  0.875547  0.373141  0.248688  1
  Ge  Ge13  1  0.124453  0.626859  0.751312  1
  Ge  Ge14  1  0.373141  0.124453  0.497594  1
  Ge  Ge15  1  0.626859  0.875547  0.502406  1
