# generated using pymatgen
data_Er3Al3ZnGePd
_symmetry_space_group_name_H-M   'P 1'
_cell_length_a   6.92865500
_cell_length_b   6.92865540
_cell_length_c   4.25587600
_cell_angle_alpha   90.00000000
_cell_angle_beta   90.00000000
_cell_angle_gamma   119.99999329
_symmetry_Int_Tables_number   1
_chemical_formula_structural   Er3Al3ZnGePd
_chemical_formula_sum   'Er3 Al3 Zn1 Ge1 Pd1'
_cell_volume   176.93653826
_cell_formula_units_Z   1
loop_
 _symmetry_equiv_pos_site_id
 _symmetry_equiv_pos_as_xyz
  1  'x, y, z'
loop_
 _atom_site_type_symbol
 _atom_site_label
 _atom_site_symmetry_multiplicity
 _atom_site_fract_x
 _atom_site_fract_y
 _atom_site_fract_z
 _atom_site_occupancy
  Er  Er0  1  0.419443  0.001071  0.000000  1
  Er  Er1  1  0.998929  0.418372  0.000000  1
  Er  Er2  1  0.581627  0.580556  0.000000  1
  Al  Al3  1  0.767503  0.008265  0.499999  1
  Al  Al4  1  0.240762  0.232498  0.499999  1
  Al  Al5  1  0.991735  0.759238  0.499999  1
  Zn  Zn6  1  0.666666  0.333334  0.499999  1
  Ge  Ge7  1  0.333334  0.666667  0.499999  1
  Pd  Pd8  1  0.000000  0.000000  0.000000  1
