# generated using pymatgen
data_Th2P(IrPt3)2
_symmetry_space_group_name_H-M   'P 1'
_cell_length_a   9.14155047
_cell_length_b   9.14155004
_cell_length_c   4.30444100
_cell_angle_alpha   90.00000000
_cell_angle_beta   90.00000000
_cell_angle_gamma   145.65419669
_symmetry_Int_Tables_number   1
_chemical_formula_structural   Th2P(IrPt3)2
_chemical_formula_sum   'Th2 P1 Ir2 Pt6'
_cell_volume   202.94528799
_cell_formula_units_Z   1
loop_
 _symmetry_equiv_pos_site_id
 _symmetry_equiv_pos_as_xyz
  1  'x, y, z'
loop_
 _atom_site_type_symbol
 _atom_site_label
 _atom_site_symmetry_multiplicity
 _atom_site_fract_x
 _atom_site_fract_y
 _atom_site_fract_z
 _atom_site_occupancy
  Th  Th0  1  0.616321  0.371048  0.500000  1
  Th  Th1  1  0.371048  0.616321  0.500000  1
  P  P2  1  0.223967  0.223967  0.000000  1
  Ir  Ir3  1  0.115889  0.895959  0.000000  1
  Ir  Ir4  1  0.895959  0.115889  0.000000  1
  Pt  Pt5  1  0.487161  0.980824  0.000000  1
  Pt  Pt6  1  0.980824  0.487161  0.000000  1
  Pt  Pt7  1  0.192295  0.793956  0.500000  1
  Pt  Pt8  1  0.793956  0.192295  0.500000  1
  Pt  Pt9  1  0.997172  0.997172  0.500000  1
  Pt  Pt10  1  0.639007  0.639007  0.000000  1
