# generated using pymatgen
data_LaPr9Si5Sn
_symmetry_space_group_name_H-M   'P 1'
_cell_length_a   7.95435288
_cell_length_b   7.95435347
_cell_length_c   9.10576065
_cell_angle_alpha   115.89836257
_cell_angle_beta   115.89835479
_cell_angle_gamma   89.99999847
_symmetry_Int_Tables_number   1
_chemical_formula_structural   LaPr9Si5Sn
_chemical_formula_sum   'La1 Pr9 Si5 Sn1'
_cell_volume   453.08477647
_cell_formula_units_Z   1
loop_
 _symmetry_equiv_pos_site_id
 _symmetry_equiv_pos_as_xyz
  1  'x, y, z'
loop_
 _atom_site_type_symbol
 _atom_site_label
 _atom_site_symmetry_multiplicity
 _atom_site_fract_x
 _atom_site_fract_y
 _atom_site_fract_z
 _atom_site_occupancy
  La  La0  1  0.503291  0.503291  0.006582  1
  Pr  Pr1  1  0.996437  0.996437  0.992873  1
  Pr  Pr2  1  0.972320  0.825581  0.285310  1
  Pr  Pr3  1  0.312989  0.459728  0.285310  1
  Pr  Pr4  1  0.825581  0.312989  0.285310  1
  Pr  Pr5  1  0.459728  0.972320  0.285310  1
  Pr  Pr6  1  0.040123  0.186848  0.714773  1
  Pr  Pr7  1  0.674649  0.527925  0.714773  1
  Pr  Pr8  1  0.186848  0.674649  0.714773  1
  Pr  Pr9  1  0.527925  0.040123  0.714773  1
  Si  Si10  1  0.249668  0.249668  0.499337  1
  Si  Si11  1  0.614251  0.886198  0.999943  1
  Si  Si12  1  0.385692  0.113745  0.999943  1
  Si  Si13  1  0.886198  0.385692  0.999943  1
  Si  Si14  1  0.113745  0.614251  0.999943  1
  Sn  Sn15  1  0.750553  0.750553  0.501106  1
