# generated using pymatgen
data_Ce2ErSn3IrRh2
_symmetry_space_group_name_H-M   'P 1'
_cell_length_a   7.50840963
_cell_length_b   7.51165661
_cell_length_c   4.01450100
_cell_angle_alpha   90.00000000
_cell_angle_beta   90.00000000
_cell_angle_gamma   120.25897632
_symmetry_Int_Tables_number   1
_chemical_formula_structural   Ce2ErSn3IrRh2
_chemical_formula_sum   'Ce2 Er1 Sn3 Ir1 Rh2'
_cell_volume   195.57197380
_cell_formula_units_Z   1
loop_
 _symmetry_equiv_pos_site_id
 _symmetry_equiv_pos_as_xyz
  1  'x, y, z'
loop_
 _atom_site_type_symbol
 _atom_site_label
 _atom_site_symmetry_multiplicity
 _atom_site_fract_x
 _atom_site_fract_y
 _atom_site_fract_z
 _atom_site_occupancy
  Ce  Ce0  1  0.586186  0.000598  0.000000  1
  Ce  Ce1  1  0.997943  0.585232  0.000000  1
  Er  Er2  1  0.408759  0.406810  0.000000  1
  Sn  Sn3  1  0.007269  0.255975  0.500000  1
  Sn  Sn4  1  0.739356  0.740311  0.500000  1
  Sn  Sn5  1  0.255089  0.005478  0.500000  1
  Ir  Ir6  1  0.673904  0.332241  0.500000  1
  Rh  Rh7  1  0.999123  0.999334  0.000000  1
  Rh  Rh8  1  0.332372  0.674021  0.500000  1
