# generated using pymatgen
data_Ti10AlSnSb4
_symmetry_space_group_name_H-M   'P 1'
_cell_length_a   7.91737093
_cell_length_b   7.91723197
_cell_length_c   7.91737138
_cell_angle_alpha   96.48754193
_cell_angle_beta   96.49139244
_cell_angle_gamma   140.71214049
_symmetry_Int_Tables_number   1
_chemical_formula_structural   Ti10AlSnSb4
_chemical_formula_sum   'Ti10 Al1 Sn1 Sb4'
_cell_volume   295.96662755
_cell_formula_units_Z   1
loop_
 _symmetry_equiv_pos_site_id
 _symmetry_equiv_pos_as_xyz
  1  'x, y, z'
loop_
 _atom_site_type_symbol
 _atom_site_label
 _atom_site_symmetry_multiplicity
 _atom_site_fract_x
 _atom_site_fract_y
 _atom_site_fract_z
 _atom_site_occupancy
  Ti  Ti0  1  0.565342  0.713205  0.298773  1
  Ti  Ti1  1  0.414434  0.266561  0.701235  1
  Ti  Ti2  1  0.749981  0.250000  0.499981  1
  Ti  Ti3  1  0.249984  0.750000  0.499984  1
  Ti  Ti4  1  0.713233  0.414473  0.147874  1
  Ti  Ti5  1  0.266563  0.565331  0.852125  1
  Ti  Ti6  1  0.934674  0.233439  0.147872  1
  Ti  Ti7  1  0.233401  0.085527  0.298762  1
  Ti  Ti8  1  0.085567  0.786795  0.852136  1
  Ti  Ti9  1  0.786793  0.934669  0.701233  1
  Al  Al10  1  0.250003  0.250000  0.000003  1
  Sn  Sn11  1  0.750016  0.750000  0.000016  1
  Sb  Sb12  1  0.336171  0.836192  0.172377  1
  Sb  Sb13  1  0.163850  0.336207  0.500008  1
  Sb  Sb14  1  0.663800  0.163793  0.827642  1
  Sb  Sb15  1  0.836185  0.663808  0.499979  1
