# generated using pymatgen
data_Li3PuBiSb
_symmetry_space_group_name_H-M   'P 1'
_cell_length_a   4.67483000
_cell_length_b   4.67482953
_cell_length_c   7.27094100
_cell_angle_alpha   90.00000000
_cell_angle_beta   90.00000000
_cell_angle_gamma   120.00000330
_symmetry_Int_Tables_number   1
_chemical_formula_structural   Li3PuBiSb
_chemical_formula_sum   'Li3 Pu1 Bi1 Sb1'
_cell_volume   137.61090129
_cell_formula_units_Z   1
loop_
 _symmetry_equiv_pos_site_id
 _symmetry_equiv_pos_as_xyz
  1  'x, y, z'
loop_
 _atom_site_type_symbol
 _atom_site_label
 _atom_site_symmetry_multiplicity
 _atom_site_fract_x
 _atom_site_fract_y
 _atom_site_fract_z
 _atom_site_occupancy
  Li  Li0  1  0.666667  0.333333  0.645091  1
  Li  Li1  1  0.333333  0.666667  0.346598  1
  Li  Li2  1  0.000000  0.000000  0.497698  1
  Pu  Pu3  1  0.000000  0.000000  0.007080  1
  Bi  Bi4  1  0.333333  0.666667  0.755116  1
  Sb  Sb5  1  0.666667  0.333333  0.248417  1
