# generated using pymatgen
data_Yb7HfSi16(Mo5W)2
_symmetry_space_group_name_H-M   'P 1'
_cell_length_a   6.70229583
_cell_length_b   6.89123748
_cell_length_c   12.97762448
_cell_angle_alpha   89.75148027
_cell_angle_beta   89.94954879
_cell_angle_gamma   90.26549695
_symmetry_Int_Tables_number   1
_chemical_formula_structural   Yb7HfSi16(Mo5W)2
_chemical_formula_sum   'Yb7 Hf1 Si16 Mo10 W2'
_cell_volume   599.38668110
_cell_formula_units_Z   1
loop_
 _symmetry_equiv_pos_site_id
 _symmetry_equiv_pos_as_xyz
  1  'x, y, z'
loop_
 _atom_site_type_symbol
 _atom_site_label
 _atom_site_symmetry_multiplicity
 _atom_site_fract_x
 _atom_site_fract_y
 _atom_site_fract_z
 _atom_site_occupancy
  Yb  Yb0  1  0.998149  0.166063  0.090853  1
  Yb  Yb1  1  0.002425  0.834496  0.909113  1
  Yb  Yb2  1  0.502696  0.665202  0.909877  1
  Yb  Yb3  1  0.002423  0.834735  0.589550  1
  Yb  Yb4  1  0.497820  0.332751  0.090812  1
  Yb  Yb5  1  0.999530  0.167678  0.410077  1
  Yb  Yb6  1  0.498372  0.330860  0.408673  1
  Hf  Hf7  1  0.500441  0.673839  0.598964  1
  Si  Si8  1  0.035061  0.130553  0.747943  1
  Si  Si9  1  0.964619  0.874640  0.250996  1
  Si  Si10  1  0.463878  0.623240  0.249400  1
  Si  Si11  1  0.535647  0.373955  0.747960  1
  Si  Si12  1  0.301222  0.865159  0.749850  1
  Si  Si13  1  0.699455  0.132458  0.250501  1
  Si  Si14  1  0.198607  0.365458  0.250248  1
  Si  Si15  1  0.802295  0.636102  0.749778  1
  Si  Si16  1  0.167770  0.461948  0.545596  1
  Si  Si17  1  0.836192  0.541432  0.456663  1
  Si  Si18  1  0.341312  0.953411  0.457588  1
  Si  Si19  1  0.841225  0.542154  0.045574  1
  Si  Si20  1  0.657973  0.039031  0.545331  1
  Si  Si21  1  0.158324  0.457046  0.953228  1
  Si  Si22  1  0.658826  0.043573  0.953899  1
  Si  Si23  1  0.341464  0.957280  0.045286  1
  Mo  Mo24  1  0.338227  0.989842  0.250936  1
  Mo  Mo25  1  0.662782  0.002950  0.746784  1
  Mo  Mo26  1  0.333247  0.165430  0.625058  1
  Mo  Mo27  1  0.662499  0.827700  0.375243  1
  Mo  Mo28  1  0.165493  0.667084  0.373520  1
  Mo  Mo29  1  0.665407  0.831509  0.128173  1
  Mo  Mo30  1  0.830487  0.338444  0.625355  1
  Mo  Mo31  1  0.334565  0.167714  0.869950  1
  Mo  Mo32  1  0.833283  0.333619  0.870928  1
  Mo  Mo33  1  0.164283  0.667450  0.127790  1
  W  W34  1  0.165436  0.496885  0.747310  1
  W  W35  1  0.838567  0.508312  0.251199  1
