# generated using pymatgen
data_Ca6SmY(Si3Pd)4
_symmetry_space_group_name_H-M   'P 1'
_cell_length_a   8.25370300
_cell_length_b   8.25370234
_cell_length_c   8.30464600
_cell_angle_alpha   90.00000000
_cell_angle_beta   90.00000000
_cell_angle_gamma   119.99999864
_symmetry_Int_Tables_number   1
_chemical_formula_structural   Ca6SmY(Si3Pd)4
_chemical_formula_sum   'Ca6 Sm1 Y1 Si12 Pd4'
_cell_volume   489.94733760
_cell_formula_units_Z   1
loop_
 _symmetry_equiv_pos_site_id
 _symmetry_equiv_pos_as_xyz
  1  'x, y, z'
loop_
 _atom_site_type_symbol
 _atom_site_label
 _atom_site_symmetry_multiplicity
 _atom_site_fract_x
 _atom_site_fract_y
 _atom_site_fract_z
 _atom_site_occupancy
  Ca  Ca0  1  0.501354  0.002708  0.250000  1
  Ca  Ca1  1  0.498632  0.997265  0.750000  1
  Ca  Ca2  1  0.997292  0.498646  0.250000  1
  Ca  Ca3  1  0.002735  0.501368  0.750000  1
  Ca  Ca4  1  0.501354  0.498646  0.250000  1
  Ca  Ca5  1  0.498632  0.501368  0.750000  1
  Sm  Sm6  1  0.000000  0.000000  0.250000  1
  Y  Y7  1  0.000000  0.000000  0.750000  1
  Si  Si8  1  0.164825  0.329650  0.000070  1
  Si  Si9  1  0.835182  0.670364  0.997375  1
  Si  Si10  1  0.670350  0.835175  0.000070  1
  Si  Si11  1  0.835182  0.670364  0.502625  1
  Si  Si12  1  0.329636  0.164818  0.997375  1
  Si  Si13  1  0.164825  0.329650  0.499930  1
  Si  Si14  1  0.164825  0.835175  0.000070  1
  Si  Si15  1  0.329636  0.164818  0.502625  1
  Si  Si16  1  0.835182  0.164818  0.997375  1
  Si  Si17  1  0.670350  0.835175  0.499930  1
  Si  Si18  1  0.835182  0.164818  0.502625  1
  Si  Si19  1  0.164825  0.835175  0.499930  1
  Pd  Pd20  1  0.333333  0.666667  0.001216  1
  Pd  Pd21  1  0.666667  0.333333  0.996128  1
  Pd  Pd22  1  0.666667  0.333333  0.503872  1
  Pd  Pd23  1  0.333333  0.666667  0.498784  1
