# generated using pymatgen
data_CaYb6Y(Si3Pd)4
_symmetry_space_group_name_H-M   'P 1'
_cell_length_a   8.25466300
_cell_length_b   8.25466201
_cell_length_c   8.26540300
_cell_angle_alpha   90.00000000
_cell_angle_beta   90.00000000
_cell_angle_gamma   119.99999997
_symmetry_Int_Tables_number   1
_chemical_formula_structural   CaYb6Y(Si3Pd)4
_chemical_formula_sum   'Ca1 Yb6 Y1 Si12 Pd4'
_cell_volume   487.74554189
_cell_formula_units_Z   1
loop_
 _symmetry_equiv_pos_site_id
 _symmetry_equiv_pos_as_xyz
  1  'x, y, z'
loop_
 _atom_site_type_symbol
 _atom_site_label
 _atom_site_symmetry_multiplicity
 _atom_site_fract_x
 _atom_site_fract_y
 _atom_site_fract_z
 _atom_site_occupancy
  Ca  Ca0  1  0.000000  0.000000  0.250000  1
  Yb  Yb1  1  0.501834  0.003668  0.250000  1
  Yb  Yb2  1  0.498084  0.996168  0.750000  1
  Yb  Yb3  1  0.996332  0.498166  0.250000  1
  Yb  Yb4  1  0.003832  0.501916  0.750000  1
  Yb  Yb5  1  0.501834  0.498166  0.250000  1
  Yb  Yb6  1  0.498084  0.501916  0.750000  1
  Y  Y7  1  0.000000  0.000000  0.750000  1
  Si  Si8  1  0.164677  0.329355  0.998036  1
  Si  Si9  1  0.835346  0.670693  0.995469  1
  Si  Si10  1  0.670645  0.835323  0.998036  1
  Si  Si11  1  0.835346  0.670693  0.504531  1
  Si  Si12  1  0.329307  0.164654  0.995469  1
  Si  Si13  1  0.164677  0.329355  0.501964  1
  Si  Si14  1  0.164677  0.835323  0.998036  1
  Si  Si15  1  0.329307  0.164654  0.504531  1
  Si  Si16  1  0.835346  0.164654  0.995469  1
  Si  Si17  1  0.670645  0.835323  0.501964  1
  Si  Si18  1  0.835346  0.164654  0.504531  1
  Si  Si19  1  0.164677  0.835323  0.501964  1
  Pd  Pd20  1  0.333333  0.666667  0.004772  1
  Pd  Pd21  1  0.666667  0.333333  0.996646  1
  Pd  Pd22  1  0.666667  0.333333  0.503354  1
  Pd  Pd23  1  0.333333  0.666667  0.495228  1
