# generated using pymatgen
data_Pr7Nd3Ir4
_symmetry_space_group_name_H-M   'P 1'
_cell_length_a   9.05548325
_cell_length_b   9.06413348
_cell_length_c   7.37370596
_cell_angle_alpha   83.60025580
_cell_angle_beta   83.53483766
_cell_angle_gamma   43.81038951
_symmetry_Int_Tables_number   1
_chemical_formula_structural   Pr7Nd3Ir4
_chemical_formula_sum   'Pr7 Nd3 Ir4'
_cell_volume   415.92196753
_cell_formula_units_Z   1
loop_
 _symmetry_equiv_pos_site_id
 _symmetry_equiv_pos_as_xyz
  1  'x, y, z'
loop_
 _atom_site_type_symbol
 _atom_site_label
 _atom_site_symmetry_multiplicity
 _atom_site_fract_x
 _atom_site_fract_y
 _atom_site_fract_z
 _atom_site_occupancy
  Pr  Pr0  1  0.019201  0.796207  0.918802  1
  Pr  Pr1  1  0.203462  0.981255  0.581047  1
  Pr  Pr2  1  0.981206  0.203535  0.081510  1
  Pr  Pr3  1  0.796262  0.018927  0.418437  1
  Pr  Pr4  1  0.350807  0.213974  0.815529  1
  Pr  Pr5  1  0.786578  0.648857  0.684121  1
  Pr  Pr6  1  0.649209  0.786252  0.184688  1
  Nd  Nd7  1  0.214053  0.351541  0.315928  1
  Nd  Nd8  1  0.567037  0.432919  0.750074  1
  Nd  Nd9  1  0.432724  0.566847  0.249971  1
  Ir  Ir10  1  0.181969  0.596228  0.573450  1
  Ir  Ir11  1  0.402907  0.817971  0.925835  1
  Ir  Ir12  1  0.818913  0.402872  0.425733  1
  Ir  Ir13  1  0.595673  0.182615  0.074876  1
