# generated using pymatgen
data_Tb5Bi2Os
_symmetry_space_group_name_H-M   'P 1'
_cell_length_a   8.01606500
_cell_length_b   9.06281300
_cell_length_c   12.53542400
_cell_angle_alpha   90.00000000
_cell_angle_beta   90.00000000
_cell_angle_gamma   90.00000000
_symmetry_Int_Tables_number   1
_chemical_formula_structural   Tb5Bi2Os
_chemical_formula_sum   'Tb20 Bi8 Os4'
_cell_volume   910.67471236
_cell_formula_units_Z   4
loop_
 _symmetry_equiv_pos_site_id
 _symmetry_equiv_pos_as_xyz
  1  'x, y, z'
loop_
 _atom_site_type_symbol
 _atom_site_label
 _atom_site_symmetry_multiplicity
 _atom_site_fract_x
 _atom_site_fract_y
 _atom_site_fract_z
 _atom_site_occupancy
  Tb  Tb0  1  0.842156  0.750000  0.791932  1
  Tb  Tb1  1  0.157844  0.250000  0.208068  1
  Tb  Tb2  1  0.342156  0.250000  0.708068  1
  Tb  Tb3  1  0.657844  0.750000  0.291932  1
  Tb  Tb4  1  0.374770  0.750000  0.693252  1
  Tb  Tb5  1  0.625230  0.250000  0.306748  1
  Tb  Tb6  1  0.874770  0.250000  0.806748  1
  Tb  Tb7  1  0.125230  0.750000  0.193252  1
  Tb  Tb8  1  0.942567  0.750000  0.504547  1
  Tb  Tb9  1  0.057433  0.250000  0.495453  1
  Tb  Tb10  1  0.442567  0.250000  0.995453  1
  Tb  Tb11  1  0.557433  0.750000  0.004547  1
  Tb  Tb12  1  0.675070  0.042106  0.563768  1
  Tb  Tb13  1  0.324930  0.957894  0.436232  1
  Tb  Tb14  1  0.175070  0.957894  0.936232  1
  Tb  Tb15  1  0.324930  0.542106  0.436232  1
  Tb  Tb16  1  0.824930  0.042106  0.063768  1
  Tb  Tb17  1  0.675070  0.457894  0.563768  1
  Tb  Tb18  1  0.824930  0.457894  0.063768  1
  Tb  Tb19  1  0.175070  0.542106  0.936232  1
  Bi  Bi20  1  0.569550  0.493781  0.827920  1
  Bi  Bi21  1  0.430450  0.506219  0.172080  1
  Bi  Bi22  1  0.069550  0.506219  0.672080  1
  Bi  Bi23  1  0.430450  0.993781  0.172080  1
  Bi  Bi24  1  0.930450  0.493781  0.327920  1
  Bi  Bi25  1  0.569550  0.006219  0.827920  1
  Bi  Bi26  1  0.930450  0.006219  0.327920  1
  Bi  Bi27  1  0.069550  0.993781  0.672080  1
  Os  Os28  1  0.575787  0.750000  0.511525  1
  Os  Os29  1  0.424213  0.250000  0.488475  1
  Os  Os30  1  0.075787  0.250000  0.988475  1
  Os  Os31  1  0.924213  0.750000  0.011525  1
