# generated using pymatgen
data_Hf18TiRe7P2
_symmetry_space_group_name_H-M   'P 1'
_cell_length_a   8.56548400
_cell_length_b   8.56548423
_cell_length_c   8.60868900
_cell_angle_alpha   90.00000000
_cell_angle_beta   90.00000000
_cell_angle_gamma   119.99999913
_symmetry_Int_Tables_number   1
_chemical_formula_structural   Hf18TiRe7P2
_chemical_formula_sum   'Hf18 Ti1 Re7 P2'
_cell_volume   546.98004413
_cell_formula_units_Z   1
loop_
 _symmetry_equiv_pos_site_id
 _symmetry_equiv_pos_as_xyz
  1  'x, y, z'
loop_
 _atom_site_type_symbol
 _atom_site_label
 _atom_site_symmetry_multiplicity
 _atom_site_fract_x
 _atom_site_fract_y
 _atom_site_fract_z
 _atom_site_occupancy
  Hf  Hf0  1  0.196684  0.803316  0.451699  1
  Hf  Hf1  1  0.196684  0.393366  0.451699  1
  Hf  Hf2  1  0.606634  0.803316  0.451699  1
  Hf  Hf3  1  0.803316  0.196684  0.548301  1
  Hf  Hf4  1  0.803316  0.606634  0.548301  1
  Hf  Hf5  1  0.393366  0.196684  0.548301  1
  Hf  Hf6  1  0.803875  0.196125  0.950948  1
  Hf  Hf7  1  0.803875  0.607752  0.950948  1
  Hf  Hf8  1  0.392248  0.196125  0.950948  1
  Hf  Hf9  1  0.196125  0.803875  0.049052  1
  Hf  Hf10  1  0.196125  0.392248  0.049052  1
  Hf  Hf11  1  0.607752  0.803875  0.049052  1
  Hf  Hf12  1  0.539227  0.460773  0.248978  1
  Hf  Hf13  1  0.539227  0.078455  0.248978  1
  Hf  Hf14  1  0.921545  0.460773  0.248978  1
  Hf  Hf15  1  0.460773  0.539227  0.751022  1
  Hf  Hf16  1  0.460773  0.921545  0.751022  1
  Hf  Hf17  1  0.078455  0.539227  0.751022  1
  Ti  Ti18  1  0.000000  0.000000  0.500000  1
  Re  Re19  1  0.890143  0.109857  0.251854  1
  Re  Re20  1  0.890143  0.780285  0.251854  1
  Re  Re21  1  0.219715  0.109857  0.251854  1
  Re  Re22  1  0.109857  0.890143  0.748146  1
  Re  Re23  1  0.109857  0.219715  0.748146  1
  Re  Re24  1  0.780285  0.890143  0.748146  1
  Re  Re25  1  0.000000  0.000000  0.000000  1
  P  P26  1  0.333333  0.666667  0.249560  1
  P  P27  1  0.666667  0.333333  0.750440  1
