# generated using pymatgen
data_La8Nd2Os2Br15
_symmetry_space_group_name_H-M   'P 1'
_cell_length_a   9.83181839
_cell_length_b   10.79249405
_cell_length_c   11.39370624
_cell_angle_alpha   90.61457661
_cell_angle_beta   114.39237814
_cell_angle_gamma   111.39295730
_symmetry_Int_Tables_number   1
_chemical_formula_structural   La8Nd2Os2Br15
_chemical_formula_sum   'La8 Nd2 Os2 Br15'
_cell_volume   1006.47247219
_cell_formula_units_Z   1
loop_
 _symmetry_equiv_pos_site_id
 _symmetry_equiv_pos_as_xyz
  1  'x, y, z'
loop_
 _atom_site_type_symbol
 _atom_site_label
 _atom_site_symmetry_multiplicity
 _atom_site_fract_x
 _atom_site_fract_y
 _atom_site_fract_z
 _atom_site_occupancy
  La  La0  1  0.309967  0.912803  0.274550  1
  La  La1  1  0.690033  0.087197  0.725450  1
  La  La2  1  0.094321  0.549516  0.335432  1
  La  La3  1  0.905679  0.450484  0.664568  1
  La  La4  1  0.822965  0.752946  0.183005  1
  La  La5  1  0.177035  0.247054  0.816995  1
  La  La6  1  0.972736  0.793664  0.900372  1
  La  La7  1  0.027264  0.206336  0.099628  1
  Nd  Nd8  1  0.241405  0.581465  0.049900  1
  Nd  Nd9  1  0.758595  0.418535  0.950100  1
  Os  Os10  1  0.033692  0.674700  0.119916  1
  Os  Os11  1  0.966308  0.325300  0.880084  1
  Br  Br12  1  0.328915  0.446300  0.292970  1
  Br  Br13  1  0.671085  0.553700  0.707030  1
  Br  Br14  1  0.198759  0.727583  0.815769  1
  Br  Br15  1  0.801241  0.272417  0.184231  1
  Br  Br16  1  0.136333  0.386867  0.583285  1
  Br  Br17  1  0.863667  0.613133  0.416715  1
  Br  Br18  1  0.386050  0.804766  0.526036  1
  Br  Br19  1  0.613950  0.195234  0.473964  1
  Br  Br20  1  0.251961  0.085059  0.050321  1
  Br  Br21  1  0.748039  0.914941  0.949679  1
  Br  Br22  1  0.558720  0.840165  0.220775  1
  Br  Br23  1  0.441280  0.159835  0.779225  1
  Br  Br24  1  0.093401  0.031743  0.329903  1
  Br  Br25  1  0.906599  0.968257  0.670097  1
  Br  Br26  1  0.500000  0.500000  0.000000  1
