# generated using pymatgen
data_Sm2Y18Si15Pt
_symmetry_space_group_name_H-M   'P 1'
_cell_length_a   7.42025492
_cell_length_b   7.75645453
_cell_length_c   14.68115401
_cell_angle_alpha   89.73352583
_cell_angle_beta   89.97635255
_cell_angle_gamma   89.92654583
_symmetry_Int_Tables_number   1
_chemical_formula_structural   Sm2Y18Si15Pt
_chemical_formula_sum   'Sm2 Y18 Si15 Pt1'
_cell_volume   844.96200608
_cell_formula_units_Z   1
loop_
 _symmetry_equiv_pos_site_id
 _symmetry_equiv_pos_as_xyz
  1  'x, y, z'
loop_
 _atom_site_type_symbol
 _atom_site_label
 _atom_site_symmetry_multiplicity
 _atom_site_fract_x
 _atom_site_fract_y
 _atom_site_fract_z
 _atom_site_occupancy
  Sm  Sm0  1  0.524672  0.567765  0.344872  1
  Sm  Sm1  1  0.025144  0.431431  0.654759  1
  Y  Y2  1  0.812110  0.574710  0.874300  1
  Y  Y3  1  0.319019  0.427272  0.125992  1
  Y  Y4  1  0.182607  0.927845  0.373259  1
  Y  Y5  1  0.682284  0.070177  0.626982  1
  Y  Y6  1  0.182848  0.928128  0.627743  1
  Y  Y7  1  0.682295  0.070374  0.372034  1
  Y  Y8  1  0.814188  0.572330  0.126821  1
  Y  Y9  1  0.320471  0.429903  0.872971  1
  Y  Y10  1  0.643729  0.234797  0.999605  1
  Y  Y11  1  0.155097  0.759517  0.000615  1
  Y  Y12  1  0.350924  0.263375  0.499873  1
  Y  Y13  1  0.851058  0.735515  0.500035  1
  Y  Y14  1  0.474952  0.931974  0.845544  1
  Y  Y15  1  0.973227  0.067293  0.153383  1
  Y  Y16  1  0.474312  0.931909  0.154004  1
  Y  Y17  1  0.972454  0.067948  0.847316  1
  Y  Y18  1  0.528171  0.565779  0.652334  1
  Y  Y19  1  0.028029  0.433461  0.347451  1
  Si  Si20  1  0.019779  0.351376  0.999857  1
  Si  Si21  1  0.477413  0.855191  0.500395  1
  Si  Si22  1  0.977616  0.143496  0.499738  1
  Si  Si23  1  0.649771  0.277172  0.789736  1
  Si  Si24  1  0.149700  0.721738  0.210261  1
  Si  Si25  1  0.352485  0.219415  0.289333  1
  Si  Si26  1  0.852812  0.780227  0.711242  1
  Si  Si27  1  0.357142  0.221632  0.709724  1
  Si  Si28  1  0.857083  0.778055  0.289660  1
  Si  Si29  1  0.646308  0.272765  0.208190  1
  Si  Si30  1  0.145643  0.725589  0.791651  1
  Si  Si31  1  0.770888  0.880947  0.000749  1
  Si  Si32  1  0.258722  0.125762  0.999437  1
  Si  Si33  1  0.234542  0.625111  0.500992  1
  Si  Si34  1  0.733665  0.375128  0.499045  1
  Pt  Pt35  1  0.518843  0.654891  0.000096  1
