# generated using pymatgen
data_Th(ZrAu2)2
_symmetry_space_group_name_H-M   'P 1'
_cell_length_a   5.88132132
_cell_length_b   5.88132238
_cell_length_c   5.88132187
_cell_angle_alpha   102.49063522
_cell_angle_beta   102.49065273
_cell_angle_gamma   124.57188041
_symmetry_Int_Tables_number   1
_chemical_formula_structural   Th(ZrAu2)2
_chemical_formula_sum   'Th1 Zr2 Au4'
_cell_volume   148.29414149
_cell_formula_units_Z   1
loop_
 _symmetry_equiv_pos_site_id
 _symmetry_equiv_pos_as_xyz
  1  'x, y, z'
loop_
 _atom_site_type_symbol
 _atom_site_label
 _atom_site_symmetry_multiplicity
 _atom_site_fract_x
 _atom_site_fract_y
 _atom_site_fract_z
 _atom_site_occupancy
  Th  Th0  1  0.000000  0.000000  0.000000  1
  Zr  Zr1  1  0.250000  0.750000  0.500000  1
  Zr  Zr2  1  0.750000  0.250000  0.500000  1
  Au  Au3  1  0.304048  0.304048  0.608098  1
  Au  Au4  1  0.695952  0.695952  0.391902  1
  Au  Au5  1  0.695952  0.304048  0.000000  1
  Au  Au6  1  0.304048  0.695952  0.000000  1
