# generated using pymatgen
data_Rb4AlIn3H16
_symmetry_space_group_name_H-M   'P 1'
_cell_length_a   6.01955400
_cell_length_b   7.81221785
_cell_length_c   9.62952126
_cell_angle_alpha   89.85953554
_cell_angle_beta   90.00000000
_cell_angle_gamma   90.00000000
_symmetry_Int_Tables_number   1
_chemical_formula_structural   Rb4AlIn3H16
_chemical_formula_sum   'Rb4 Al1 In3 H16'
_cell_volume   452.83715304
_cell_formula_units_Z   1
loop_
 _symmetry_equiv_pos_site_id
 _symmetry_equiv_pos_as_xyz
  1  'x, y, z'
loop_
 _atom_site_type_symbol
 _atom_site_label
 _atom_site_symmetry_multiplicity
 _atom_site_fract_x
 _atom_site_fract_y
 _atom_site_fract_z
 _atom_site_occupancy
  Rb  Rb0  1  0.250000  0.656800  0.182961  1
  Rb  Rb1  1  0.750000  0.339465  0.815589  1
  Rb  Rb2  1  0.750000  0.161242  0.323221  1
  Rb  Rb3  1  0.250000  0.840049  0.679474  1
  Al  Al4  1  0.250000  0.313070  0.561938  1
  In  In5  1  0.250000  0.185710  0.061282  1
  In  In6  1  0.750000  0.814247  0.938724  1
  In  In7  1  0.750000  0.685246  0.438636  1
  H  H8  1  0.010387  0.319340  0.081444  1
  H  H9  1  0.989715  0.680822  0.918536  1
  H  H10  1  0.989210  0.819248  0.418635  1
  H  H11  1  0.510285  0.680822  0.918536  1
  H  H12  1  0.029259  0.191392  0.579740  1
  H  H13  1  0.489613  0.319340  0.081444  1
  H  H14  1  0.470741  0.191392  0.579740  1
  H  H15  1  0.510790  0.819248  0.418635  1
  H  H16  1  0.250000  0.030924  0.196609  1
  H  H17  1  0.750000  0.968883  0.803010  1
  H  H18  1  0.750000  0.531398  0.303304  1
  H  H19  1  0.250000  0.457299  0.684310  1
  H  H20  1  0.250000  0.397195  0.406612  1
  H  H21  1  0.750000  0.596230  0.607936  1
  H  H22  1  0.750000  0.903486  0.107710  1
  H  H23  1  0.250000  0.097151  0.891971  1
