# generated using pymatgen
data_LiHo3In3PdPt
_symmetry_space_group_name_H-M   'P 1'
_cell_length_a   7.81296700
_cell_length_b   7.81296820
_cell_length_c   3.70380500
_cell_angle_alpha   90.00000000
_cell_angle_beta   90.00000000
_cell_angle_gamma   119.99999915
_symmetry_Int_Tables_number   1
_chemical_formula_structural   LiHo3In3PdPt
_chemical_formula_sum   'Li1 Ho3 In3 Pd1 Pt1'
_cell_volume   195.79914715
_cell_formula_units_Z   1
loop_
 _symmetry_equiv_pos_site_id
 _symmetry_equiv_pos_as_xyz
  1  'x, y, z'
loop_
 _atom_site_type_symbol
 _atom_site_label
 _atom_site_symmetry_multiplicity
 _atom_site_fract_x
 _atom_site_fract_y
 _atom_site_fract_z
 _atom_site_occupancy
  Li  Li0  1  0.000000  0.000000  0.500000  1
  Ho  Ho1  1  0.586429  0.005407  0.500000  1
  Ho  Ho2  1  0.418978  0.413571  0.500000  1
  Ho  Ho3  1  0.994593  0.581022  0.500000  1
  In  In4  1  0.744105  0.745714  0.000000  1
  In  In5  1  0.001609  0.255895  0.000000  1
  In  In6  1  0.254286  0.998391  0.000000  1
  Pd  Pd7  1  0.333333  0.666667  0.000000  1
  Pt  Pt8  1  0.666667  0.333333  0.000000  1
