# generated using pymatgen
data_LuGa2(CoSn)4
_symmetry_space_group_name_H-M   'P 1'
_cell_length_a   6.50229045
_cell_length_b   6.50229073
_cell_length_c   6.52031976
_cell_angle_alpha   119.55264742
_cell_angle_beta   119.55265471
_cell_angle_gamma   90.61987495
_symmetry_Int_Tables_number   1
_chemical_formula_structural   LuGa2(CoSn)4
_chemical_formula_sum   'Lu1 Ga2 Co4 Sn4'
_cell_volume   196.50254093
_cell_formula_units_Z   1
loop_
 _symmetry_equiv_pos_site_id
 _symmetry_equiv_pos_as_xyz
  1  'x, y, z'
loop_
 _atom_site_type_symbol
 _atom_site_label
 _atom_site_symmetry_multiplicity
 _atom_site_fract_x
 _atom_site_fract_y
 _atom_site_fract_z
 _atom_site_occupancy
  Lu  Lu0  1  0.978421  0.978421  0.000000  1
  Ga  Ga1  1  0.887345  0.528875  0.000000  1
  Ga  Ga2  1  0.528875  0.887345  0.000000  1
  Co  Co3  1  0.610827  0.245516  0.000000  1
  Co  Co4  1  0.245516  0.610827  0.000000  1
  Co  Co5  1  0.733541  0.733541  0.308391  1
  Co  Co6  1  0.425151  0.425151  0.691610  1
  Sn  Sn7  1  0.457137  0.457137  0.339521  1
  Sn  Sn8  1  0.507785  0.007785  0.500000  1
  Sn  Sn9  1  0.007785  0.507785  0.500000  1
  Sn  Sn10  1  0.117617  0.117617  0.660480  1
