# generated using pymatgen
data_Be17V2
_symmetry_space_group_name_H-M   'P 1'
_cell_length_a   5.46770119
_cell_length_b   5.46770164
_cell_length_c   5.46770118
_cell_angle_alpha   82.86621356
_cell_angle_beta   82.86621351
_cell_angle_gamma   82.86621342
_symmetry_Int_Tables_number   1
_chemical_formula_structural   Be17V2
_chemical_formula_sum   'Be17 V2'
_cell_volume   159.95512261
_cell_formula_units_Z   1
loop_
 _symmetry_equiv_pos_site_id
 _symmetry_equiv_pos_as_xyz
  1  'x, y, z'
loop_
 _atom_site_type_symbol
 _atom_site_label
 _atom_site_symmetry_multiplicity
 _atom_site_fract_x
 _atom_site_fract_y
 _atom_site_fract_z
 _atom_site_occupancy
  Be  Be0  1  0.399599  0.399599  0.399599  1
  Be  Be1  1  0.600401  0.600401  0.600401  1
  Be  Be2  1  0.500000  0.500000  0.000000  1
  Be  Be3  1  0.500000  0.000000  0.500000  1
  Be  Be4  1  0.000000  0.500000  0.500000  1
  Be  Be5  1  0.500000  0.800373  0.199627  1
  Be  Be6  1  0.800373  0.199627  0.500000  1
  Be  Be7  1  0.199627  0.500000  0.800373  1
  Be  Be8  1  0.500000  0.199627  0.800373  1
  Be  Be9  1  0.199627  0.800373  0.500000  1
  Be  Be10  1  0.800373  0.500000  0.199627  1
  Be  Be11  1  0.661518  0.150820  0.150820  1
  Be  Be12  1  0.150820  0.150820  0.661518  1
  Be  Be13  1  0.150820  0.661518  0.150820  1
  Be  Be14  1  0.849180  0.338482  0.849180  1
  Be  Be15  1  0.338482  0.849180  0.849180  1
  Be  Be16  1  0.849180  0.849180  0.338482  1
  V  V17  1  0.161636  0.161636  0.161636  1
  V  V18  1  0.838364  0.838364  0.838364  1
