# generated using pymatgen
data_TmSc4Bi2Sb
_symmetry_space_group_name_H-M   'P 1'
_cell_length_a   7.78751900
_cell_length_b   9.00399100
_cell_length_c   11.45956600
_cell_angle_alpha   90.00000000
_cell_angle_beta   90.00000000
_cell_angle_gamma   90.00000000
_symmetry_Int_Tables_number   1
_chemical_formula_structural   TmSc4Bi2Sb
_chemical_formula_sum   'Tm4 Sc16 Bi8 Sb4'
_cell_volume   803.53045479
_cell_formula_units_Z   4
loop_
 _symmetry_equiv_pos_site_id
 _symmetry_equiv_pos_as_xyz
  1  'x, y, z'
loop_
 _atom_site_type_symbol
 _atom_site_label
 _atom_site_symmetry_multiplicity
 _atom_site_fract_x
 _atom_site_fract_y
 _atom_site_fract_z
 _atom_site_occupancy
  Tm  Tm0  1  0.182555  0.250000  0.781994  1
  Tm  Tm1  1  0.817445  0.750000  0.218006  1
  Tm  Tm2  1  0.317445  0.750000  0.281994  1
  Tm  Tm3  1  0.682555  0.250000  0.718006  1
  Sc  Sc4  1  0.022293  0.250000  0.511676  1
  Sc  Sc5  1  0.977707  0.750000  0.488324  1
  Sc  Sc6  1  0.477707  0.750000  0.011676  1
  Sc  Sc7  1  0.522293  0.250000  0.988324  1
  Sc  Sc8  1  0.351177  0.250000  0.282761  1
  Sc  Sc9  1  0.648823  0.750000  0.717239  1
  Sc  Sc10  1  0.148823  0.750000  0.782761  1
  Sc  Sc11  1  0.851177  0.250000  0.217239  1
  Sc  Sc12  1  0.190097  0.065576  0.060795  1
  Sc  Sc13  1  0.809903  0.934424  0.939205  1
  Sc  Sc14  1  0.309903  0.934424  0.560795  1
  Sc  Sc15  1  0.809903  0.565576  0.939205  1
  Sc  Sc16  1  0.690097  0.065576  0.439205  1
  Sc  Sc17  1  0.190097  0.434424  0.060795  1
  Sc  Sc18  1  0.690097  0.434424  0.439205  1
  Sc  Sc19  1  0.309903  0.565576  0.560795  1
  Bi  Bi20  1  0.064925  0.008823  0.327887  1
  Bi  Bi21  1  0.935075  0.991177  0.672113  1
  Bi  Bi22  1  0.435075  0.991177  0.827887  1
  Bi  Bi23  1  0.935075  0.508823  0.672113  1
  Bi  Bi24  1  0.564925  0.008823  0.172113  1
  Bi  Bi25  1  0.064925  0.491177  0.327887  1
  Bi  Bi26  1  0.564925  0.491177  0.172113  1
  Bi  Bi27  1  0.435075  0.508823  0.827887  1
  Sb  Sb28  1  0.403673  0.250000  0.534240  1
  Sb  Sb29  1  0.596327  0.750000  0.465760  1
  Sb  Sb30  1  0.096327  0.750000  0.034240  1
  Sb  Sb31  1  0.903673  0.250000  0.965760  1
