# generated using pymatgen
data_Th14CoCuRe4
_symmetry_space_group_name_H-M   'P 1'
_cell_length_a   9.97092121
_cell_length_b   9.97092333
_cell_length_c   6.29320337
_cell_angle_alpha   90.26865302
_cell_angle_beta   89.73134586
_cell_angle_gamma   118.81433417
_symmetry_Int_Tables_number   1
_chemical_formula_structural   Th14CoCuRe4
_chemical_formula_sum   'Th14 Co1 Cu1 Re4'
_cell_volume   548.19157684
_cell_formula_units_Z   1
loop_
 _symmetry_equiv_pos_site_id
 _symmetry_equiv_pos_as_xyz
  1  'x, y, z'
loop_
 _atom_site_type_symbol
 _atom_site_label
 _atom_site_symmetry_multiplicity
 _atom_site_fract_x
 _atom_site_fract_y
 _atom_site_fract_z
 _atom_site_occupancy
  Th  Th0  1  0.329626  0.670374  0.025445  1
  Th  Th1  1  0.665756  0.334244  0.539849  1
  Th  Th2  1  0.124097  0.875903  0.243230  1
  Th  Th3  1  0.253548  0.124244  0.754285  1
  Th  Th4  1  0.875756  0.746452  0.754285  1
  Th  Th5  1  0.136648  0.259585  0.256654  1
  Th  Th6  1  0.740415  0.863352  0.256654  1
  Th  Th7  1  0.878990  0.121010  0.761985  1
  Th  Th8  1  0.540445  0.459555  0.045682  1
  Th  Th9  1  0.079057  0.552898  0.545230  1
  Th  Th10  1  0.447102  0.920943  0.545230  1
  Th  Th11  1  0.542179  0.074664  0.040316  1
  Th  Th12  1  0.925336  0.457821  0.040316  1
  Th  Th13  1  0.459883  0.540117  0.550380  1
  Co  Co14  1  0.184584  0.815416  0.790959  1
  Cu  Cu15  1  0.814541  0.185459  0.312277  1
  Re  Re16  1  0.626089  0.821325  0.801279  1
  Re  Re17  1  0.178675  0.373911  0.801279  1
  Re  Re18  1  0.821153  0.623878  0.297333  1
  Re  Re19  1  0.376122  0.178847  0.297333  1
