# generated using pymatgen
data_Dy2Zn3Ga
_symmetry_space_group_name_H-M   'P 1'
_cell_length_a   5.67981678
_cell_length_b   5.64525256
_cell_length_c   5.64525237
_cell_angle_alpha   133.33231664
_cell_angle_beta   102.27995765
_cell_angle_gamma   95.69156895
_symmetry_Int_Tables_number   1
_chemical_formula_structural   Dy2Zn3Ga
_chemical_formula_sum   'Dy2 Zn3 Ga1'
_cell_volume   120.75767992
_cell_formula_units_Z   1
loop_
 _symmetry_equiv_pos_site_id
 _symmetry_equiv_pos_as_xyz
  1  'x, y, z'
loop_
 _atom_site_type_symbol
 _atom_site_label
 _atom_site_symmetry_multiplicity
 _atom_site_fract_x
 _atom_site_fract_y
 _atom_site_fract_z
 _atom_site_occupancy
  Dy  Dy0  1  0.719748  0.471768  0.247980  1
  Dy  Dy1  1  0.280849  0.527603  0.753245  1
  Zn  Zn2  1  0.124563  0.166373  0.958190  1
  Zn  Zn3  1  0.708215  0.164682  0.543533  1
  Zn  Zn4  1  0.287429  0.832446  0.454983  1
  Ga  Ga5  1  0.879196  0.837127  0.042069  1
