# generated using pymatgen
data_Gd6Al24Fe7Pd
_symmetry_space_group_name_H-M   'P 1'
_cell_length_a   8.74577640
_cell_length_b   8.74577656
_cell_length_c   9.36643600
_cell_angle_alpha   89.86465757
_cell_angle_beta   90.13534243
_cell_angle_gamma   119.97077667
_symmetry_Int_Tables_number   1
_chemical_formula_structural   Gd6Al24Fe7Pd
_chemical_formula_sum   'Gd6 Al24 Fe7 Pd1'
_cell_volume   620.62311390
_cell_formula_units_Z   1
loop_
 _symmetry_equiv_pos_site_id
 _symmetry_equiv_pos_as_xyz
  1  'x, y, z'
loop_
 _atom_site_type_symbol
 _atom_site_label
 _atom_site_symmetry_multiplicity
 _atom_site_fract_x
 _atom_site_fract_y
 _atom_site_fract_z
 _atom_site_occupancy
  Gd  Gd0  1  0.806526  0.193474  0.746205  1
  Gd  Gd1  1  0.193474  0.806526  0.253795  1
  Gd  Gd2  1  0.385714  0.191068  0.748330  1
  Gd  Gd3  1  0.614286  0.808932  0.251670  1
  Gd  Gd4  1  0.808932  0.614286  0.748330  1
  Gd  Gd5  1  0.191068  0.385714  0.251670  1
  Al  Al6  1  0.672737  0.327263  0.991647  1
  Al  Al7  1  0.327263  0.672737  0.008353  1
  Al  Al8  1  0.333553  0.666447  0.490610  1
  Al  Al9  1  0.666447  0.333553  0.509390  1
  Al  Al10  1  0.838426  0.161574  0.425400  1
  Al  Al11  1  0.161574  0.838426  0.574600  1
  Al  Al12  1  0.322067  0.161099  0.426143  1
  Al  Al13  1  0.160143  0.839857  0.924607  1
  Al  Al14  1  0.677933  0.838901  0.573857  1
  Al  Al15  1  0.839857  0.160143  0.075393  1
  Al  Al16  1  0.838901  0.677933  0.426143  1
  Al  Al17  1  0.681187  0.848484  0.923255  1
  Al  Al18  1  0.161099  0.322067  0.573857  1
  Al  Al19  1  0.318813  0.151516  0.076745  1
  Al  Al20  1  0.151516  0.318813  0.923255  1
  Al  Al21  1  0.848484  0.681187  0.076745  1
  Al  Al22  1  0.438533  0.561467  0.741838  1
  Al  Al23  1  0.561467  0.438533  0.258162  1
  Al  Al24  1  0.118433  0.558797  0.749944  1
  Al  Al25  1  0.881567  0.441203  0.250056  1
  Al  Al26  1  0.441203  0.881567  0.749944  1
  Al  Al27  1  0.558797  0.118433  0.250056  1
  Al  Al28  1  0.999993  0.000007  0.749642  1
  Al  Al29  1  0.000007  0.999993  0.250358  1
  Fe  Fe30  1  0.000000  0.500000  0.000000  1
  Fe  Fe31  1  0.500000  0.500000  0.500000  1
  Fe  Fe32  1  0.500000  0.000000  0.000000  1
  Fe  Fe33  1  0.000000  0.500000  0.500000  1
  Fe  Fe34  1  0.500000  0.000000  0.500000  1
  Fe  Fe35  1  0.000000  0.000000  0.000000  1
  Fe  Fe36  1  0.000000  0.000000  0.500000  1
  Pd  Pd37  1  0.500000  0.500000  0.000000  1
