# generated using pymatgen
data_Tb5Y3(ErGa5)4
_symmetry_space_group_name_H-M   'P 1'
_cell_length_a   6.11164804
_cell_length_b   9.65591915
_cell_length_c   11.56348200
_cell_angle_alpha   90.00223702
_cell_angle_beta   89.99357823
_cell_angle_gamma   89.99026891
_symmetry_Int_Tables_number   1
_chemical_formula_structural   Tb5Y3(ErGa5)4
_chemical_formula_sum   'Tb5 Y3 Er4 Ga20'
_cell_volume   682.40244747
_cell_formula_units_Z   1
loop_
 _symmetry_equiv_pos_site_id
 _symmetry_equiv_pos_as_xyz
  1  'x, y, z'
loop_
 _atom_site_type_symbol
 _atom_site_label
 _atom_site_symmetry_multiplicity
 _atom_site_fract_x
 _atom_site_fract_y
 _atom_site_fract_z
 _atom_site_occupancy
  Tb  Tb0  1  0.890404  0.509253  0.351330  1
  Tb  Tb1  1  0.609622  0.990717  0.851430  1
  Tb  Tb2  1  0.109628  0.009202  0.648589  1
  Tb  Tb3  1  0.390451  0.490754  0.148606  1
  Tb  Tb4  1  0.109561  0.490863  0.648670  1
  Y  Y5  1  0.390357  0.009246  0.148767  1
  Y  Y6  1  0.890305  0.990809  0.351226  1
  Y  Y7  1  0.609675  0.509225  0.851347  1
  Er  Er8  1  0.849006  0.749894  0.074999  1
  Er  Er9  1  0.650932  0.750023  0.574964  1
  Er  Er10  1  0.151081  0.249910  0.925077  1
  Er  Er11  1  0.348974  0.250079  0.424992  1
  Ga  Ga12  1  0.875121  0.053496  0.089769  1
  Ga  Ga13  1  0.624634  0.446493  0.589787  1
  Ga  Ga14  1  0.124843  0.553531  0.910220  1
  Ga  Ga15  1  0.375121  0.946525  0.410200  1
  Ga  Ga16  1  0.124648  0.946458  0.910141  1
  Ga  Ga17  1  0.375309  0.553537  0.410242  1
  Ga  Ga18  1  0.875412  0.446450  0.089830  1
  Ga  Ga19  1  0.624627  0.053484  0.589815  1
  Ga  Ga20  1  0.172548  0.749992  0.252325  1
  Ga  Ga21  1  0.327519  0.750048  0.752416  1
  Ga  Ga22  1  0.827658  0.249963  0.747621  1
  Ga  Ga23  1  0.672500  0.250045  0.247611  1
  Ga  Ga24  1  0.373148  0.750090  0.004172  1
  Ga  Ga25  1  0.126882  0.749996  0.503979  1
  Ga  Ga26  1  0.626781  0.250060  0.995906  1
  Ga  Ga27  1  0.873168  0.249961  0.495988  1
  Ga  Ga28  1  0.601569  0.749975  0.299638  1
  Ga  Ga29  1  0.898554  0.749953  0.799584  1
  Ga  Ga30  1  0.398446  0.249947  0.700372  1
  Ga  Ga31  1  0.101514  0.250024  0.200384  1
