# generated using pymatgen
data_NdY5(NiRh8)2
_symmetry_space_group_name_H-M   'P 1'
_cell_length_a   5.29165400
_cell_length_b   5.29165455
_cell_length_c   17.24101000
_cell_angle_alpha   90.00000000
_cell_angle_beta   90.00000000
_cell_angle_gamma   119.99998408
_symmetry_Int_Tables_number   1
_chemical_formula_structural   NdY5(NiRh8)2
_chemical_formula_sum   'Nd1 Y5 Ni2 Rh16'
_cell_volume   418.09630486
_cell_formula_units_Z   1
loop_
 _symmetry_equiv_pos_site_id
 _symmetry_equiv_pos_as_xyz
  1  'x, y, z'
loop_
 _atom_site_type_symbol
 _atom_site_label
 _atom_site_symmetry_multiplicity
 _atom_site_fract_x
 _atom_site_fract_y
 _atom_site_fract_z
 _atom_site_occupancy
  Nd  Nd0  1  0.333333  0.666667  0.750000  1
  Y  Y1  1  0.333333  0.666667  0.957858  1
  Y  Y2  1  0.666667  0.333333  0.042037  1
  Y  Y3  1  0.666667  0.333333  0.457963  1
  Y  Y4  1  0.333333  0.666667  0.542142  1
  Y  Y5  1  0.666667  0.333333  0.250000  1
  Ni  Ni6  1  0.333333  0.666667  0.250000  1
  Ni  Ni7  1  0.666667  0.333333  0.750000  1
  Rh  Rh8  1  0.168733  0.831267  0.373012  1
  Rh  Rh9  1  0.168733  0.337467  0.373012  1
  Rh  Rh10  1  0.662533  0.831267  0.373012  1
  Rh  Rh11  1  0.831433  0.168567  0.626979  1
  Rh  Rh12  1  0.831433  0.662865  0.626979  1
  Rh  Rh13  1  0.337135  0.168567  0.626979  1
  Rh  Rh14  1  0.831433  0.168567  0.873021  1
  Rh  Rh15  1  0.831433  0.662865  0.873021  1
  Rh  Rh16  1  0.337135  0.168567  0.873021  1
  Rh  Rh17  1  0.168733  0.831267  0.126988  1
  Rh  Rh18  1  0.168733  0.337467  0.126988  1
  Rh  Rh19  1  0.662533  0.831267  0.126988  1
  Rh  Rh20  1  0.000000  0.000000  0.250000  1
  Rh  Rh21  1  0.000000  0.000000  0.750000  1
  Rh  Rh22  1  0.000000  0.000000  0.500068  1
  Rh  Rh23  1  0.000000  0.000000  0.999932  1
