# generated using pymatgen
data_Tb2YHo2Pb3
_symmetry_space_group_name_H-M   'P 1'
_cell_length_a   9.08117807
_cell_length_b   9.07923375
_cell_length_c   6.65021100
_cell_angle_alpha   90.00000000
_cell_angle_beta   90.00000000
_cell_angle_gamma   119.99291559
_symmetry_Int_Tables_number   1
_chemical_formula_structural   Tb2YHo2Pb3
_chemical_formula_sum   'Tb4 Y2 Ho4 Pb6'
_cell_volume   474.88499167
_cell_formula_units_Z   2
loop_
 _symmetry_equiv_pos_site_id
 _symmetry_equiv_pos_as_xyz
  1  'x, y, z'
loop_
 _atom_site_type_symbol
 _atom_site_label
 _atom_site_symmetry_multiplicity
 _atom_site_fract_x
 _atom_site_fract_y
 _atom_site_fract_z
 _atom_site_occupancy
  Tb  Tb0  1  0.238213  0.000022  0.250000  1
  Tb  Tb1  1  0.238213  0.238191  0.750000  1
  Tb  Tb2  1  0.000028  0.761833  0.750000  1
  Tb  Tb3  1  0.000028  0.238195  0.250000  1
  Y  Y4  1  0.761855  0.761839  0.250000  1
  Y  Y5  1  0.761855  0.000017  0.750000  1
  Ho  Ho6  1  0.333372  0.666687  0.000000  1
  Ho  Ho7  1  0.666669  0.333334  0.500000  1
  Ho  Ho8  1  0.666669  0.333334  0.000000  1
  Ho  Ho9  1  0.333372  0.666687  0.500000  1
  Pb  Pb10  1  0.604555  0.999845  0.250000  1
  Pb  Pb11  1  0.604555  0.604710  0.750000  1
  Pb  Pb12  1  0.999872  0.395188  0.750000  1
  Pb  Pb13  1  0.999872  0.604684  0.250000  1
  Pb  Pb14  1  0.395436  0.395417  0.250000  1
  Pb  Pb15  1  0.395436  0.000019  0.750000  1
