# generated using pymatgen
data_PrHo2Cr(Co4P3)2
_symmetry_space_group_name_H-M   'P 1'
_cell_length_a   3.71113600
_cell_length_b   10.56971800
_cell_length_c   12.24314900
_cell_angle_alpha   90.00000000
_cell_angle_beta   90.00000000
_cell_angle_gamma   90.00000000
_symmetry_Int_Tables_number   1
_chemical_formula_structural   PrHo2Cr(Co4P3)2
_chemical_formula_sum   'Pr2 Ho4 Cr2 Co16 P12'
_cell_volume   480.24561200
_cell_formula_units_Z   2
loop_
 _symmetry_equiv_pos_site_id
 _symmetry_equiv_pos_as_xyz
  1  'x, y, z'
loop_
 _atom_site_type_symbol
 _atom_site_label
 _atom_site_symmetry_multiplicity
 _atom_site_fract_x
 _atom_site_fract_y
 _atom_site_fract_z
 _atom_site_occupancy
  Pr  Pr0  1  0.000000  0.500000  0.523352  1
  Pr  Pr1  1  0.500000  0.000000  0.476648  1
  Ho  Ho2  1  0.500000  0.818079  0.203441  1
  Ho  Ho3  1  0.500000  0.181921  0.203441  1
  Ho  Ho4  1  0.000000  0.681921  0.796559  1
  Ho  Ho5  1  0.000000  0.318079  0.796559  1
  Cr  Cr6  1  0.500000  0.500000  0.153388  1
  Cr  Cr7  1  0.000000  0.000000  0.846612  1
  Co  Co8  1  0.000000  0.500000  0.987206  1
  Co  Co9  1  0.500000  0.000000  0.012794  1
  Co  Co10  1  0.500000  0.295564  0.428906  1
  Co  Co11  1  0.500000  0.704436  0.428906  1
  Co  Co12  1  0.000000  0.204436  0.571094  1
  Co  Co13  1  0.000000  0.795564  0.571094  1
  Co  Co14  1  0.500000  0.879809  0.712616  1
  Co  Co15  1  0.500000  0.120191  0.712616  1
  Co  Co16  1  0.000000  0.620191  0.287384  1
  Co  Co17  1  0.000000  0.379809  0.287384  1
  Co  Co18  1  0.500000  0.332510  0.993311  1
  Co  Co19  1  0.500000  0.667490  0.993311  1
  Co  Co20  1  0.000000  0.167490  0.006689  1
  Co  Co21  1  0.000000  0.832510  0.006689  1
  Co  Co22  1  0.500000  0.500000  0.706674  1
  Co  Co23  1  0.000000  0.000000  0.293326  1
  P  P24  1  0.500000  0.307474  0.618444  1
  P  P25  1  0.500000  0.692526  0.618444  1
  P  P26  1  0.000000  0.192526  0.381556  1
  P  P27  1  0.000000  0.807474  0.381556  1
  P  P28  1  0.500000  0.500000  0.883707  1
  P  P29  1  0.000000  0.000000  0.116293  1
  P  P30  1  0.500000  0.846867  0.893417  1
  P  P31  1  0.500000  0.153133  0.893417  1
  P  P32  1  0.000000  0.653133  0.106583  1
  P  P33  1  0.000000  0.346867  0.106583  1
  P  P34  1  0.500000  0.500000  0.339369  1
  P  P35  1  0.000000  0.000000  0.660631  1
