# generated using pymatgen
data_Pr2DyY(GeO5)2
_symmetry_space_group_name_H-M   'P 1'
_cell_length_a   8.36311122
_cell_length_b   8.36317857
_cell_length_c   10.88291301
_cell_angle_alpha   61.24898103
_cell_angle_beta   61.25011380
_cell_angle_gamma   49.78532664
_symmetry_Int_Tables_number   1
_chemical_formula_structural   Pr2DyY(GeO5)2
_chemical_formula_sum   'Pr4 Dy2 Y2 Ge4 O20'
_cell_volume   492.81042912
_cell_formula_units_Z   2
loop_
 _symmetry_equiv_pos_site_id
 _symmetry_equiv_pos_as_xyz
  1  'x, y, z'
loop_
 _atom_site_type_symbol
 _atom_site_label
 _atom_site_symmetry_multiplicity
 _atom_site_fract_x
 _atom_site_fract_y
 _atom_site_fract_z
 _atom_site_occupancy
  Pr  Pr0  1  0.721978  0.207329  0.963979  1
  Pr  Pr1  1  0.792670  0.278019  0.536023  1
  Pr  Pr2  1  0.278023  0.792674  0.036011  1
  Pr  Pr3  1  0.207328  0.721980  0.463987  1
  Dy  Dy4  1  0.013508  0.264438  0.162222  1
  Dy  Dy5  1  0.735567  0.986489  0.337775  1
  Y  Y6  1  0.986548  0.735486  0.837774  1
  Y  Y7  1  0.264509  0.013454  0.662229  1
  Ge  Ge8  1  0.777963  0.595487  0.690955  1
  Ge  Ge9  1  0.404512  0.222034  0.809047  1
  Ge  Ge10  1  0.222061  0.404453  0.309065  1
  Ge  Ge11  1  0.595548  0.777941  0.190933  1
  O  O12  1  0.784828  0.629221  0.057683  1
  O  O13  1  0.370783  0.215166  0.442321  1
  O  O14  1  0.215180  0.370555  0.942462  1
  O  O15  1  0.629440  0.784826  0.557534  1
  O  O16  1  0.585192  0.587720  0.360124  1
  O  O17  1  0.412282  0.414806  0.139880  1
  O  O18  1  0.414824  0.412271  0.639861  1
  O  O19  1  0.587727  0.585177  0.860135  1
  O  O20  1  0.948504  0.656359  0.682854  1
  O  O21  1  0.343640  0.051497  0.817147  1
  O  O22  1  0.051482  0.343595  0.317082  1
  O  O23  1  0.656406  0.948518  0.182916  1
  O  O24  1  0.886605  0.080571  0.390970  1
  O  O25  1  0.919427  0.113396  0.109028  1
  O  O26  1  0.113371  0.919444  0.608888  1
  O  O27  1  0.080559  0.886627  0.891114  1
  O  O28  1  0.077903  0.674797  0.325054  1
  O  O29  1  0.325198  0.922103  0.174945  1
  O  O30  1  0.921848  0.325420  0.674964  1
  O  O31  1  0.674584  0.078145  0.825037  1
