# generated using pymatgen
data_Ho16Cd3Co3AgIr
_symmetry_space_group_name_H-M   'P 1'
_cell_length_a   9.49665736
_cell_length_b   9.45599381
_cell_length_c   9.45599279
_cell_angle_alpha   59.91113956
_cell_angle_beta   60.08183599
_cell_angle_gamma   60.08183347
_symmetry_Int_Tables_number   1
_chemical_formula_structural   Ho16Cd3Co3AgIr
_chemical_formula_sum   'Ho16 Cd3 Co3 Ag1 Ir1'
_cell_volume   600.77651395
_cell_formula_units_Z   1
loop_
 _symmetry_equiv_pos_site_id
 _symmetry_equiv_pos_as_xyz
  1  'x, y, z'
loop_
 _atom_site_type_symbol
 _atom_site_label
 _atom_site_symmetry_multiplicity
 _atom_site_fract_x
 _atom_site_fract_y
 _atom_site_fract_z
 _atom_site_occupancy
  Ho  Ho0  1  0.590552  0.599988  0.599988  1
  Ho  Ho1  1  0.592061  0.601835  0.206886  1
  Ho  Ho2  1  0.592061  0.206886  0.601835  1
  Ho  Ho3  1  0.211714  0.597086  0.597086  1
  Ho  Ho4  1  0.065943  0.438685  0.438685  1
  Ho  Ho5  1  0.437129  0.061538  0.061538  1
  Ho  Ho6  1  0.438454  0.060741  0.437402  1
  Ho  Ho7  1  0.066377  0.436934  0.055494  1
  Ho  Ho8  1  0.438454  0.437402  0.060741  1
  Ho  Ho9  1  0.066377  0.055494  0.436934  1
  Ho  Ho10  1  0.185746  0.812300  0.812300  1
  Ho  Ho11  1  0.812138  0.188113  0.188113  1
  Ho  Ho12  1  0.812329  0.187122  0.809577  1
  Ho  Ho13  1  0.186355  0.812299  0.186923  1
  Ho  Ho14  1  0.812329  0.809577  0.187122  1
  Ho  Ho15  1  0.186355  0.186923  0.812299  1
  Cd  Cd16  1  0.831717  0.831133  0.508579  1
  Cd  Cd17  1  0.831717  0.508579  0.831133  1
  Cd  Cd18  1  0.507867  0.831435  0.831435  1
  Co  Co19  1  0.390771  0.391088  0.391088  1
  Co  Co20  1  0.392062  0.392591  0.827481  1
  Co  Co21  1  0.392062  0.827481  0.392591  1
  Ag  Ag22  1  0.833065  0.832605  0.832605  1
  Ir  Ir23  1  0.826363  0.392163  0.392163  1
