# generated using pymatgen
data_Ba4Ti4MnZnO14
_symmetry_space_group_name_H-M   'P 1'
_cell_length_a   8.68602400
_cell_length_b   8.68602400
_cell_length_c   5.65821300
_cell_angle_alpha   90.00000000
_cell_angle_beta   90.00000000
_cell_angle_gamma   90.00000000
_symmetry_Int_Tables_number   1
_chemical_formula_structural   Ba4Ti4MnZnO14
_chemical_formula_sum   'Ba4 Ti4 Mn1 Zn1 O14'
_cell_volume   426.89526936
_cell_formula_units_Z   1
loop_
 _symmetry_equiv_pos_site_id
 _symmetry_equiv_pos_as_xyz
  1  'x, y, z'
loop_
 _atom_site_type_symbol
 _atom_site_label
 _atom_site_symmetry_multiplicity
 _atom_site_fract_x
 _atom_site_fract_y
 _atom_site_fract_z
 _atom_site_occupancy
  Ba  Ba0  1  0.663423  0.165220  0.508606  1
  Ba  Ba1  1  0.834780  0.663423  0.491394  1
  Ba  Ba2  1  0.165220  0.336577  0.491394  1
  Ba  Ba3  1  0.336577  0.834780  0.508606  1
  Ti  Ti4  1  0.856300  0.359842  0.956457  1
  Ti  Ti5  1  0.143700  0.640158  0.956457  1
  Ti  Ti6  1  0.640158  0.856300  0.043543  1
  Ti  Ti7  1  0.359842  0.143700  0.043543  1
  Mn  Mn8  1  0.000000  0.000000  0.000000  1
  Zn  Zn9  1  0.500000  0.500000  0.000000  1
  O  O10  1  0.674362  0.412884  0.816626  1
  O  O11  1  0.325638  0.587116  0.816626  1
  O  O12  1  0.412884  0.325638  0.183374  1
  O  O13  1  0.587116  0.674362  0.183374  1
  O  O14  1  0.909091  0.180305  0.810648  1
  O  O15  1  0.819695  0.909091  0.189352  1
  O  O16  1  0.180305  0.090909  0.189352  1
  O  O17  1  0.090909  0.819695  0.810648  1
  O  O18  1  0.859962  0.358642  0.274793  1
  O  O19  1  0.641358  0.859962  0.725207  1
  O  O20  1  0.500000  0.000000  0.169260  1
  O  O21  1  0.000000  0.500000  0.830740  1
  O  O22  1  0.140038  0.641358  0.274793  1
  O  O23  1  0.358642  0.140038  0.725207  1
