# generated using pymatgen
data_Nd8Hf11Si16Pd
_symmetry_space_group_name_H-M   'P 1'
_cell_length_a   7.39300490
_cell_length_b   7.39300560
_cell_length_c   13.46413674
_cell_angle_alpha   89.70550727
_cell_angle_beta   90.29449266
_cell_angle_gamma   89.73951018
_symmetry_Int_Tables_number   1
_chemical_formula_structural   Nd8Hf11Si16Pd
_chemical_formula_sum   'Nd8 Hf11 Si16 Pd1'
_cell_volume   735.87581273
_cell_formula_units_Z   1
loop_
 _symmetry_equiv_pos_site_id
 _symmetry_equiv_pos_as_xyz
  1  'x, y, z'
loop_
 _atom_site_type_symbol
 _atom_site_label
 _atom_site_symmetry_multiplicity
 _atom_site_fract_x
 _atom_site_fract_y
 _atom_site_fract_z
 _atom_site_occupancy
  Nd  Nd0  1  0.997343  0.344365  0.210710  1
  Nd  Nd1  1  0.005855  0.655006  0.716919  1
  Nd  Nd2  1  0.156872  0.493491  0.464920  1
  Nd  Nd3  1  0.499658  0.848437  0.032918  1
  Nd  Nd4  1  0.848437  0.499658  0.967082  1
  Nd  Nd5  1  0.493491  0.156872  0.535080  1
  Nd  Nd6  1  0.344365  0.997343  0.789290  1
  Nd  Nd7  1  0.655006  0.005855  0.283081  1
  Hf  Hf8  1  0.824723  0.824723  0.500000  1
  Hf  Hf9  1  0.321467  0.676792  0.248890  1
  Hf  Hf10  1  0.676792  0.321467  0.751110  1
  Hf  Hf11  1  0.147605  0.994385  0.373072  1
  Hf  Hf12  1  0.855262  0.004665  0.878446  1
  Hf  Hf13  1  0.505130  0.648974  0.626009  1
  Hf  Hf14  1  0.352996  0.490600  0.878909  1
  Hf  Hf15  1  0.490600  0.352996  0.121091  1
  Hf  Hf16  1  0.648974  0.505130  0.373991  1
  Hf  Hf17  1  0.994385  0.147605  0.626928  1
  Hf  Hf18  1  0.004665  0.855262  0.121554  1
  Si  Si19  1  0.363179  0.297147  0.313401  1
  Si  Si20  1  0.635660  0.703607  0.817592  1
  Si  Si21  1  0.205873  0.864517  0.566392  1
  Si  Si22  1  0.131115  0.781847  0.931598  1
  Si  Si23  1  0.781847  0.131115  0.068402  1
  Si  Si24  1  0.864517  0.205873  0.433608  1
  Si  Si25  1  0.297147  0.363179  0.686599  1
  Si  Si26  1  0.703607  0.635660  0.182408  1
  Si  Si27  1  0.289364  0.055029  0.185838  1
  Si  Si28  1  0.708363  0.949657  0.686782  1
  Si  Si29  1  0.449631  0.792038  0.435209  1
  Si  Si30  1  0.212483  0.563659  0.064128  1
  Si  Si31  1  0.563659  0.212483  0.935872  1
  Si  Si32  1  0.792038  0.449631  0.564791  1
  Si  Si33  1  0.055029  0.289364  0.814162  1
  Si  Si34  1  0.949657  0.708363  0.313218  1
  Pd  Pd35  1  0.173206  0.173206  0.000000  1
