# generated using pymatgen
data_Ho18Th2IrRu11
_symmetry_space_group_name_H-M   'P 1'
_cell_length_a   10.86123516
_cell_length_b   10.81985257
_cell_length_c   6.36592582
_cell_angle_alpha   89.92664635
_cell_angle_beta   89.53656582
_cell_angle_gamma   89.98478159
_symmetry_Int_Tables_number   1
_chemical_formula_structural   Ho18Th2IrRu11
_chemical_formula_sum   'Ho18 Th2 Ir1 Ru11'
_cell_volume   748.07916087
_cell_formula_units_Z   1
loop_
 _symmetry_equiv_pos_site_id
 _symmetry_equiv_pos_as_xyz
  1  'x, y, z'
loop_
 _atom_site_type_symbol
 _atom_site_label
 _atom_site_symmetry_multiplicity
 _atom_site_fract_x
 _atom_site_fract_y
 _atom_site_fract_z
 _atom_site_occupancy
  Ho  Ho0  1  0.709548  0.087188  0.875214  1
  Ho  Ho1  1  0.709748  0.913113  0.375537  1
  Ho  Ho2  1  0.592430  0.790393  0.877274  1
  Ho  Ho3  1  0.592349  0.209474  0.376594  1
  Ho  Ho4  1  0.417838  0.788094  0.376852  1
  Ho  Ho5  1  0.417514  0.213515  0.876881  1
  Ho  Ho6  1  0.206526  0.414361  0.622871  1
  Ho  Ho7  1  0.206276  0.585402  0.123015  1
  Ho  Ho8  1  0.792342  0.414110  0.123438  1
  Ho  Ho9  1  0.791302  0.585678  0.622737  1
  Ho  Ho10  1  0.913016  0.706849  0.122143  1
  Ho  Ho11  1  0.912934  0.292860  0.622276  1
  Ho  Ho12  1  0.082301  0.705269  0.621841  1
  Ho  Ho13  1  0.083166  0.294373  0.121685  1
  Ho  Ho14  1  0.996480  0.997588  0.500208  1
  Ho  Ho15  1  0.996014  0.002087  0.000342  1
  Ho  Ho16  1  0.502158  0.500148  0.003140  1
  Ho  Ho17  1  0.501225  0.498290  0.501471  1
  Th  Th18  1  0.291526  0.092363  0.379669  1
  Th  Th19  1  0.291342  0.911193  0.880436  1
  Ir  Ir20  1  0.345982  0.653936  0.751891  1
  Ru  Ru21  1  0.845807  0.152652  0.250359  1
  Ru  Ru22  1  0.845688  0.847118  0.749894  1
  Ru  Ru23  1  0.157515  0.148525  0.744286  1
  Ru  Ru24  1  0.158304  0.850894  0.242786  1
  Ru  Ru25  1  0.653227  0.347570  0.750437  1
  Ru  Ru26  1  0.652101  0.652948  0.251312  1
  Ru  Ru27  1  0.345508  0.344481  0.253451  1
  Ru  Ru28  1  0.495932  0.999969  0.125366  1
  Ru  Ru29  1  0.495649  0.999703  0.626259  1
  Ru  Ru30  1  0.998820  0.499704  0.874896  1
  Ru  Ru31  1  0.999432  0.500152  0.375440  1
