# generated using pymatgen
data_TbY3Al17GaRh6
_symmetry_space_group_name_H-M   'P 1'
_cell_length_a   7.53924120
_cell_length_b   7.53917345
_cell_length_c   9.50856600
_cell_angle_alpha   90.00000000
_cell_angle_beta   90.00000000
_cell_angle_gamma   119.34423024
_symmetry_Int_Tables_number   1
_chemical_formula_structural   TbY3Al17GaRh6
_chemical_formula_sum   'Tb1 Y3 Al17 Ga1 Rh6'
_cell_volume   471.11732262
_cell_formula_units_Z   1
loop_
 _symmetry_equiv_pos_site_id
 _symmetry_equiv_pos_as_xyz
  1  'x, y, z'
loop_
 _atom_site_type_symbol
 _atom_site_label
 _atom_site_symmetry_multiplicity
 _atom_site_fract_x
 _atom_site_fract_y
 _atom_site_fract_z
 _atom_site_occupancy
  Tb  Tb0  1  0.993852  0.673887  0.250000  1
  Y  Y1  1  0.005379  0.328599  0.750000  1
  Y  Y2  1  0.673753  0.993853  0.250000  1
  Y  Y3  1  0.328570  0.005373  0.750000  1
  Al  Al4  1  0.870834  0.870846  0.750000  1
  Al  Al5  1  0.001403  0.335646  0.073300  1
  Al  Al6  1  0.998780  0.664615  0.926183  1
  Al  Al7  1  0.998780  0.664615  0.573817  1
  Al  Al8  1  0.335804  0.001466  0.426711  1
  Al  Al9  1  0.001403  0.335646  0.426700  1
  Al  Al10  1  0.664623  0.998800  0.573747  1
  Al  Al11  1  0.664623  0.998800  0.926253  1
  Al  Al12  1  0.335804  0.001466  0.073289  1
  Al  Al13  1  0.333384  0.333387  0.551916  1
  Al  Al14  1  0.665661  0.665726  0.450731  1
  Al  Al15  1  0.665661  0.665726  0.049269  1
  Al  Al16  1  0.333384  0.333387  0.948084  1
  Al  Al17  1  0.338298  0.549473  0.250000  1
  Al  Al18  1  0.661087  0.450830  0.750000  1
  Al  Al19  1  0.549448  0.338252  0.250000  1
  Al  Al20  1  0.450879  0.661102  0.750000  1
  Ga  Ga21  1  0.132172  0.132086  0.250000  1
  Rh  Rh22  1  0.671274  0.327534  0.000189  1
  Rh  Rh23  1  0.327572  0.671291  0.000190  1
  Rh  Rh24  1  0.327572  0.671291  0.499810  1
  Rh  Rh25  1  0.671274  0.327534  0.499811  1
  Rh  Rh26  1  0.999364  0.999384  0.997690  1
  Rh  Rh27  1  0.999364  0.999384  0.502310  1
