# generated using pymatgen
data_Dy3HoOs7W
_symmetry_space_group_name_H-M   'P 1'
_cell_length_a   5.48353601
_cell_length_b   5.27588256
_cell_length_c   8.87923500
_cell_angle_alpha   90.01911350
_cell_angle_beta   90.00284204
_cell_angle_gamma   121.21750021
_symmetry_Int_Tables_number   1
_chemical_formula_structural   Dy3HoOs7W
_chemical_formula_sum   'Dy3 Ho1 Os7 W1'
_cell_volume   219.68584130
_cell_formula_units_Z   1
loop_
 _symmetry_equiv_pos_site_id
 _symmetry_equiv_pos_as_xyz
  1  'x, y, z'
loop_
 _atom_site_type_symbol
 _atom_site_label
 _atom_site_symmetry_multiplicity
 _atom_site_fract_x
 _atom_site_fract_y
 _atom_site_fract_z
 _atom_site_occupancy
  Dy  Dy0  1  0.671015  0.341868  0.562937  1
  Dy  Dy1  1  0.334269  0.668575  0.433856  1
  Dy  Dy2  1  0.334307  0.668572  0.066125  1
  Ho  Ho3  1  0.671241  0.342310  0.936944  1
  Os  Os4  1  0.006700  0.013377  0.497052  1
  Os  Os5  1  0.006524  0.012957  0.002891  1
  Os  Os6  1  0.173585  0.823951  0.750400  1
  Os  Os7  1  0.649905  0.824449  0.750403  1
  Os  Os8  1  0.822961  0.645673  0.249578  1
  Os  Os9  1  0.828036  0.166214  0.249798  1
  Os  Os10  1  0.338683  0.166528  0.249791  1
  W  W11  1  0.162773  0.325524  0.750225  1
