# generated using pymatgen
data_Lu2Fe7Co(P3W)2
_symmetry_space_group_name_H-M   'P 1'
_cell_length_a   3.64576500
_cell_length_b   10.32668500
_cell_length_c   12.11182000
_cell_angle_alpha   90.00000000
_cell_angle_beta   90.00000000
_cell_angle_gamma   90.00000000
_symmetry_Int_Tables_number   1
_chemical_formula_structural   Lu2Fe7Co(P3W)2
_chemical_formula_sum   'Lu4 Fe14 Co2 P12 W4'
_cell_volume   455.99387478
_cell_formula_units_Z   2
loop_
 _symmetry_equiv_pos_site_id
 _symmetry_equiv_pos_as_xyz
  1  'x, y, z'
loop_
 _atom_site_type_symbol
 _atom_site_label
 _atom_site_symmetry_multiplicity
 _atom_site_fract_x
 _atom_site_fract_y
 _atom_site_fract_z
 _atom_site_occupancy
  Lu  Lu0  1  0.250000  0.583024  0.710286  1
  Lu  Lu1  1  0.250000  0.916976  0.210286  1
  Lu  Lu2  1  0.750000  0.416471  0.290065  1
  Lu  Lu3  1  0.750000  0.083529  0.790065  1
  Fe  Fe4  1  0.250000  0.411067  0.488424  1
  Fe  Fe5  1  0.250000  0.088933  0.988424  1
  Fe  Fe6  1  0.750000  0.589901  0.511480  1
  Fe  Fe7  1  0.750000  0.910099  0.011480  1
  Fe  Fe8  1  0.250000  0.218105  0.173854  1
  Fe  Fe9  1  0.250000  0.281895  0.673854  1
  Fe  Fe10  1  0.750000  0.781623  0.825946  1
  Fe  Fe11  1  0.750000  0.718377  0.325946  1
  Fe  Fe12  1  0.250000  0.883747  0.696280  1
  Fe  Fe13  1  0.250000  0.616253  0.196280  1
  Fe  Fe14  1  0.750000  0.116511  0.303354  1
  Fe  Fe15  1  0.750000  0.383489  0.803354  1
  Fe  Fe16  1  0.250000  0.465048  0.937361  1
  Fe  Fe17  1  0.250000  0.034952  0.437361  1
  Co  Co18  1  0.750000  0.535920  0.065395  1
  Co  Co19  1  0.750000  0.964080  0.565395  1
  P  P20  1  0.250000  0.419964  0.115732  1
  P  P21  1  0.250000  0.080036  0.615732  1
  P  P22  1  0.750000  0.578651  0.884105  1
  P  P23  1  0.750000  0.921349  0.384105  1
  P  P24  1  0.250000  0.270254  0.858429  1
  P  P25  1  0.250000  0.229746  0.358429  1
  P  P26  1  0.750000  0.730689  0.141262  1
  P  P27  1  0.750000  0.769311  0.641262  1
  P  P28  1  0.250000  0.595917  0.379479  1
  P  P29  1  0.250000  0.904083  0.879479  1
  P  P30  1  0.750000  0.404031  0.620082  1
  P  P31  1  0.750000  0.095969  0.120082  1
  W  W32  1  0.250000  0.705970  0.990129  1
  W  W33  1  0.250000  0.794030  0.490129  1
  W  W34  1  0.750000  0.292932  0.008339  1
  W  W35  1  0.750000  0.207068  0.508339  1
