# generated using pymatgen
data_Tb6LuZn(Co3Sn11)2
_symmetry_space_group_name_H-M   'P 1'
_cell_length_a   9.68224104
_cell_length_b   9.68224006
_cell_length_c   9.96225106
_cell_angle_alpha   89.98929496
_cell_angle_beta   90.01070283
_cell_angle_gamma   120.00058401
_symmetry_Int_Tables_number   1
_chemical_formula_structural   Tb6LuZn(Co3Sn11)2
_chemical_formula_sum   'Tb6 Lu1 Zn1 Co6 Sn22'
_cell_volume   808.79281509
_cell_formula_units_Z   1
loop_
 _symmetry_equiv_pos_site_id
 _symmetry_equiv_pos_as_xyz
  1  'x, y, z'
loop_
 _atom_site_type_symbol
 _atom_site_label
 _atom_site_symmetry_multiplicity
 _atom_site_fract_x
 _atom_site_fract_y
 _atom_site_fract_z
 _atom_site_occupancy
  Tb  Tb0  1  0.999840  0.000160  0.000304  1
  Tb  Tb1  1  0.521010  0.478990  0.693971  1
  Tb  Tb2  1  0.478954  0.958262  0.305428  1
  Tb  Tb3  1  0.520910  0.041910  0.694329  1
  Tb  Tb4  1  0.041738  0.521046  0.305428  1
  Tb  Tb5  1  0.958090  0.479090  0.694329  1
  Lu  Lu6  1  0.480223  0.519777  0.305062  1
  Zn  Zn7  1  0.999962  0.000038  0.499785  1
  Co  Co8  1  0.832647  0.167353  0.197340  1
  Co  Co9  1  0.167630  0.832370  0.803095  1
  Co  Co10  1  0.830699  0.664086  0.197548  1
  Co  Co11  1  0.167562  0.335130  0.802911  1
  Co  Co12  1  0.335914  0.169301  0.197548  1
  Co  Co13  1  0.664870  0.832438  0.802911  1
  Sn  Sn14  1  0.346114  0.000514  0.000152  1
  Sn  Sn15  1  0.654134  0.999934  0.000175  1
  Sn  Sn16  1  0.000066  0.345866  0.000175  1
  Sn  Sn17  1  0.999486  0.653886  0.000152  1
  Sn  Sn18  1  0.653717  0.653859  0.000405  1
  Sn  Sn19  1  0.346141  0.346283  0.000405  1
  Sn  Sn20  1  0.333383  0.666617  0.818123  1
  Sn  Sn21  1  0.666319  0.333681  0.182019  1
  Sn  Sn22  1  0.783216  0.216784  0.452898  1
  Sn  Sn23  1  0.216737  0.783263  0.546913  1
  Sn  Sn24  1  0.781099  0.566331  0.452059  1
  Sn  Sn25  1  0.217801  0.433628  0.545723  1
  Sn  Sn26  1  0.433669  0.218901  0.452059  1
  Sn  Sn27  1  0.566372  0.782199  0.545723  1
  Sn  Sn28  1  0.335279  0.664721  0.119564  1
  Sn  Sn29  1  0.666627  0.333373  0.882647  1
  Sn  Sn30  1  0.112995  0.887005  0.276958  1
  Sn  Sn31  1  0.886823  0.113177  0.723178  1
  Sn  Sn32  1  0.114716  0.227872  0.277032  1
  Sn  Sn33  1  0.886677  0.773548  0.723310  1
  Sn  Sn34  1  0.772128  0.885284  0.277032  1
  Sn  Sn35  1  0.226452  0.113323  0.723310  1
