# generated using pymatgen
data_Y2Fe7
_symmetry_space_group_name_H-M   'P 1'
_cell_length_a   12.30160329
_cell_length_b   12.30160405
_cell_length_c   12.30160400
_cell_angle_alpha   23.98856356
_cell_angle_beta   23.98855557
_cell_angle_gamma   23.98856617
_symmetry_Int_Tables_number   1
_chemical_formula_structural   Y2Fe7
_chemical_formula_sum   'Y4 Fe14'
_cell_volume   270.36308026
_cell_formula_units_Z   2
loop_
 _symmetry_equiv_pos_site_id
 _symmetry_equiv_pos_as_xyz
  1  'x, y, z'
loop_
 _atom_site_type_symbol
 _atom_site_label
 _atom_site_symmetry_multiplicity
 _atom_site_fract_x
 _atom_site_fract_y
 _atom_site_fract_z
 _atom_site_occupancy
  Y  Y0  1  0.947836  0.947836  0.947836  1
  Y  Y1  1  0.052164  0.052164  0.052164  1
  Y  Y2  1  0.850512  0.850512  0.850512  1
  Y  Y3  1  0.149488  0.149488  0.149488  1
  Fe  Fe4  1  0.720850  0.720850  0.720850  1
  Fe  Fe5  1  0.279150  0.279150  0.279150  1
  Fe  Fe6  1  0.612814  0.612814  0.612814  1
  Fe  Fe7  1  0.387186  0.387186  0.387186  1
  Fe  Fe8  1  0.500000  0.500000  0.000000  1
  Fe  Fe9  1  0.000000  0.500000  0.500000  1
  Fe  Fe10  1  0.500000  0.000000  0.500000  1
  Fe  Fe11  1  0.391224  0.891087  0.391224  1
  Fe  Fe12  1  0.391224  0.391224  0.891087  1
  Fe  Fe13  1  0.891087  0.391224  0.391224  1
  Fe  Fe14  1  0.608776  0.108913  0.608776  1
  Fe  Fe15  1  0.608776  0.608776  0.108913  1
  Fe  Fe16  1  0.108913  0.608776  0.608776  1
  Fe  Fe17  1  0.500000  0.500000  0.500000  1
