# generated using pymatgen
data_Ho18ErTmPb16
_symmetry_space_group_name_H-M   'P 1'
_cell_length_a   8.17849400
_cell_length_b   8.24817214
_cell_length_c   15.59169000
_cell_angle_alpha   90.00000000
_cell_angle_beta   90.00000000
_cell_angle_gamma   90.00994215
_symmetry_Int_Tables_number   1
_chemical_formula_structural   Ho18ErTmPb16
_chemical_formula_sum   'Ho18 Er1 Tm1 Pb16'
_cell_volume   1051.77838254
_cell_formula_units_Z   1
loop_
 _symmetry_equiv_pos_site_id
 _symmetry_equiv_pos_as_xyz
  1  'x, y, z'
loop_
 _atom_site_type_symbol
 _atom_site_label
 _atom_site_symmetry_multiplicity
 _atom_site_fract_x
 _atom_site_fract_y
 _atom_site_fract_z
 _atom_site_occupancy
  Ho  Ho0  1  0.377145  0.841039  0.879088  1
  Ho  Ho1  1  0.877253  0.658889  0.620958  1
  Ho  Ho2  1  0.622601  0.158793  0.379027  1
  Ho  Ho3  1  0.122949  0.340975  0.120948  1
  Ho  Ho4  1  0.622601  0.158793  0.120973  1
  Ho  Ho5  1  0.122949  0.340975  0.379052  1
  Ho  Ho6  1  0.377145  0.841039  0.620912  1
  Ho  Ho7  1  0.877253  0.658889  0.879042  1
  Ho  Ho8  1  0.536772  0.323428  0.900077  1
  Ho  Ho9  1  0.036789  0.176624  0.599880  1
  Ho  Ho10  1  0.463143  0.676728  0.400100  1
  Ho  Ho11  1  0.963310  0.823490  0.099921  1
  Ho  Ho12  1  0.463143  0.676728  0.099900  1
  Ho  Ho13  1  0.963310  0.823490  0.400079  1
  Ho  Ho14  1  0.536772  0.323428  0.599923  1
  Ho  Ho15  1  0.036789  0.176624  0.900120  1
  Ho  Ho16  1  0.708655  0.995912  0.750000  1
  Ho  Ho17  1  0.791351  0.495920  0.250000  1
  Er  Er18  1  0.208718  0.504180  0.750000  1
  Tm  Tm19  1  0.291226  0.004229  0.250000  1
  Pb  Pb20  1  0.280645  0.032474  0.042671  1
  Pb  Pb21  1  0.780632  0.467490  0.457524  1
  Pb  Pb22  1  0.719369  0.967473  0.542436  1
  Pb  Pb23  1  0.219355  0.532489  0.957512  1
  Pb  Pb24  1  0.719369  0.967473  0.957564  1
  Pb  Pb25  1  0.219355  0.532489  0.542488  1
  Pb  Pb26  1  0.280645  0.032474  0.457329  1
  Pb  Pb27  1  0.780632  0.467490  0.042476  1
  Pb  Pb28  1  0.571719  0.626442  0.750000  1
  Pb  Pb29  1  0.071874  0.873411  0.750000  1
  Pb  Pb30  1  0.428024  0.373210  0.250000  1
  Pb  Pb31  1  0.928631  0.126238  0.250000  1
  Pb  Pb32  1  0.348160  0.153808  0.750000  1
  Pb  Pb33  1  0.848256  0.346243  0.750000  1
  Pb  Pb34  1  0.651603  0.846334  0.250000  1
  Pb  Pb35  1  0.151857  0.654290  0.250000  1
