# generated using pymatgen
data_Hf5ZrGa6(PdPt2)2
_symmetry_space_group_name_H-M   'P 1'
_cell_length_a   7.20468637
_cell_length_b   7.18813503
_cell_length_c   7.07010200
_cell_angle_alpha   90.00000000
_cell_angle_beta   90.00000000
_cell_angle_gamma   120.30540376
_symmetry_Int_Tables_number   1
_chemical_formula_structural   Hf5ZrGa6(PdPt2)2
_chemical_formula_sum   'Hf5 Zr1 Ga6 Pd2 Pt4'
_cell_volume   316.11336293
_cell_formula_units_Z   1
loop_
 _symmetry_equiv_pos_site_id
 _symmetry_equiv_pos_as_xyz
  1  'x, y, z'
loop_
 _atom_site_type_symbol
 _atom_site_label
 _atom_site_symmetry_multiplicity
 _atom_site_fract_x
 _atom_site_fract_y
 _atom_site_fract_z
 _atom_site_occupancy
  Hf  Hf0  1  0.028446  0.416581  0.750000  1
  Hf  Hf1  1  0.417223  0.028701  0.250000  1
  Hf  Hf2  1  0.971673  0.388685  0.250000  1
  Hf  Hf3  1  0.388372  0.970979  0.750000  1
  Hf  Hf4  1  0.582474  0.610615  0.750000  1
  Zr  Zr5  1  0.612580  0.583453  0.250000  1
  Ga  Ga6  1  0.266353  0.266300  0.500513  1
  Ga  Ga7  1  0.734111  0.000199  0.499967  1
  Ga  Ga8  1  0.000049  0.733955  0.500257  1
  Ga  Ga9  1  0.734111  0.000199  0.000033  1
  Ga  Ga10  1  0.266353  0.266300  0.999487  1
  Ga  Ga11  1  0.000049  0.733955  0.999743  1
  Pd  Pd12  1  0.000152  0.999990  0.750000  1
  Pd  Pd13  1  0.002308  0.002046  0.250000  1
  Pt  Pt14  1  0.331205  0.667294  0.463772  1
  Pt  Pt15  1  0.331205  0.667294  0.036228  1
  Pt  Pt16  1  0.666669  0.331727  0.539052  1
  Pt  Pt17  1  0.666669  0.331727  0.960948  1
