# generated using pymatgen
data_Dy2HoEr13In6FeCo
_symmetry_space_group_name_H-M   'P 1'
_cell_length_a   10.30443500
_cell_length_b   10.30440232
_cell_length_c   6.96943800
_cell_angle_alpha   90.00020017
_cell_angle_beta   89.99991660
_cell_angle_gamma   119.99624304
_symmetry_Int_Tables_number   1
_chemical_formula_structural   Dy2HoEr13In6FeCo
_chemical_formula_sum   'Dy2 Ho1 Er13 In6 Fe1 Co1'
_cell_volume   640.90228755
_cell_formula_units_Z   1
loop_
 _symmetry_equiv_pos_site_id
 _symmetry_equiv_pos_as_xyz
  1  'x, y, z'
loop_
 _atom_site_type_symbol
 _atom_site_label
 _atom_site_symmetry_multiplicity
 _atom_site_fract_x
 _atom_site_fract_y
 _atom_site_fract_z
 _atom_site_occupancy
  Dy  Dy0  1  0.535087  0.070164  0.504193  1
  Dy  Dy1  1  0.929832  0.464919  0.504187  1
  Ho  Ho2  1  0.999978  0.000031  0.993186  1
  Er  Er3  1  0.534996  0.465007  0.504946  1
  Er  Er4  1  0.464815  0.929637  0.004872  1
  Er  Er5  1  0.070372  0.535191  0.004878  1
  Er  Er6  1  0.464988  0.535015  0.005246  1
  Er  Er7  1  0.178644  0.356775  0.712053  1
  Er  Er8  1  0.643228  0.821359  0.712049  1
  Er  Er9  1  0.178276  0.821719  0.712176  1
  Er  Er10  1  0.821495  0.643366  0.211897  1
  Er  Er11  1  0.356641  0.178507  0.211893  1
  Er  Er12  1  0.821825  0.178167  0.211548  1
  Er  Er13  1  0.666490  0.333511  0.894662  1
  Er  Er14  1  0.333492  0.666501  0.395250  1
  Er  Er15  1  0.000058  0.999920  0.493380  1
  In  In16  1  0.837159  0.674674  0.753267  1
  In  In17  1  0.325319  0.162822  0.753245  1
  In  In18  1  0.837577  0.162432  0.753086  1
  In  In19  1  0.163000  0.326156  0.253424  1
  In  In20  1  0.673845  0.836993  0.253421  1
  In  In21  1  0.163160  0.836851  0.253190  1
  Fe  Fe22  1  0.666369  0.333633  0.280769  1
  Co  Co23  1  0.333354  0.666653  0.781223  1
