# generated using pymatgen
data_Li2Tm3Si3Pd
_symmetry_space_group_name_H-M   'P 1'
_cell_length_a   6.85937300
_cell_length_b   7.02050514
_cell_length_c   4.09944900
_cell_angle_alpha   90.00000000
_cell_angle_beta   90.00000000
_cell_angle_gamma   119.24363079
_symmetry_Int_Tables_number   1
_chemical_formula_structural   Li2Tm3Si3Pd
_chemical_formula_sum   'Li2 Tm3 Si3 Pd1'
_cell_volume   172.25377596
_cell_formula_units_Z   1
loop_
 _symmetry_equiv_pos_site_id
 _symmetry_equiv_pos_as_xyz
  1  'x, y, z'
loop_
 _atom_site_type_symbol
 _atom_site_label
 _atom_site_symmetry_multiplicity
 _atom_site_fract_x
 _atom_site_fract_y
 _atom_site_fract_z
 _atom_site_occupancy
  Li  Li0  1  0.772300  0.763040  0.500000  1
  Li  Li1  1  0.009260  0.236960  0.500000  1
  Tm  Tm2  1  0.992757  0.576096  0.000000  1
  Tm  Tm3  1  0.571881  0.000000  0.000000  1
  Tm  Tm4  1  0.416660  0.423904  0.000000  1
  Si  Si5  1  0.327845  0.675968  0.500000  1
  Si  Si6  1  0.651879  0.324032  0.500000  1
  Si  Si7  1  0.018309  0.000000  0.000000  1
  Pd  Pd8  1  0.239107  0.000000  0.500000  1
