# generated using pymatgen
data_Tl2AgBi(Rh2O7)2
_symmetry_space_group_name_H-M   'P 1'
_cell_length_a   7.33463211
_cell_length_b   7.33463190
_cell_length_c   7.27884701
_cell_angle_alpha   58.99292679
_cell_angle_beta   58.99292887
_cell_angle_gamma   59.05404756
_symmetry_Int_Tables_number   1
_chemical_formula_structural   Tl2AgBi(Rh2O7)2
_chemical_formula_sum   'Tl2 Ag1 Bi1 Rh4 O14'
_cell_volume   270.65640925
_cell_formula_units_Z   1
loop_
 _symmetry_equiv_pos_site_id
 _symmetry_equiv_pos_as_xyz
  1  'x, y, z'
loop_
 _atom_site_type_symbol
 _atom_site_label
 _atom_site_symmetry_multiplicity
 _atom_site_fract_x
 _atom_site_fract_y
 _atom_site_fract_z
 _atom_site_occupancy
  Tl  Tl0  1  0.125000  0.625000  0.125000  1
  Tl  Tl1  1  0.625000  0.125000  0.125000  1
  Ag  Ag2  1  0.125000  0.125000  0.625000  1
  Bi  Bi3  1  0.125000  0.125000  0.125000  1
  Rh  Rh4  1  0.625000  0.625000  0.625000  1
  Rh  Rh5  1  0.625000  0.625000  0.125000  1
  Rh  Rh6  1  0.125000  0.625000  0.625000  1
  Rh  Rh7  1  0.625000  0.125000  0.625000  1
  O  O8  1  0.240277  0.240277  0.271628  1
  O  O9  1  0.291532  0.711508  0.289330  1
  O  O10  1  0.952355  0.952355  0.538494  1
  O  O11  1  0.556203  0.951642  0.543340  1
  O  O12  1  0.705428  0.705428  0.292395  1
  O  O13  1  0.951642  0.556203  0.543340  1
  O  O14  1  0.693797  0.298358  0.706660  1
  O  O15  1  0.297645  0.297645  0.711506  1
  O  O16  1  0.711508  0.291532  0.289330  1
  O  O17  1  0.298358  0.693797  0.706660  1
  O  O18  1  0.958468  0.538492  0.960670  1
  O  O19  1  0.544572  0.544572  0.957605  1
  O  O20  1  0.009723  0.009723  0.978372  1
  O  O21  1  0.538492  0.958468  0.960670  1
