# generated using pymatgen
data_Cs4UBiI12
_symmetry_space_group_name_H-M   'P 1'
_cell_length_a   8.55052400
_cell_length_b   8.55052400
_cell_length_c   12.54573100
_cell_angle_alpha   90.00000000
_cell_angle_beta   90.00000000
_cell_angle_gamma   90.00000000
_symmetry_Int_Tables_number   1
_chemical_formula_structural   Cs4UBiI12
_chemical_formula_sum   'Cs4 U1 Bi1 I12'
_cell_volume   917.23671881
_cell_formula_units_Z   1
loop_
 _symmetry_equiv_pos_site_id
 _symmetry_equiv_pos_as_xyz
  1  'x, y, z'
loop_
 _atom_site_type_symbol
 _atom_site_label
 _atom_site_symmetry_multiplicity
 _atom_site_fract_x
 _atom_site_fract_y
 _atom_site_fract_z
 _atom_site_occupancy
  Cs  Cs0  1  0.500000  0.000000  0.785588  1
  Cs  Cs1  1  0.500000  0.000000  0.214412  1
  Cs  Cs2  1  0.000000  0.500000  0.214412  1
  Cs  Cs3  1  0.000000  0.500000  0.785588  1
  U  U4  1  0.500000  0.500000  0.500000  1
  Bi  Bi5  1  0.000000  0.000000  0.000000  1
  I  I6  1  0.748982  0.261936  0.000000  1
  I  I7  1  0.251018  0.738064  0.000000  1
  I  I8  1  0.500000  0.500000  0.265460  1
  I  I9  1  0.303677  0.218104  0.500000  1
  I  I10  1  0.261936  0.251018  0.000000  1
  I  I11  1  0.781896  0.303677  0.500000  1
  I  I12  1  0.000000  0.000000  0.248041  1
  I  I13  1  0.696323  0.781896  0.500000  1
  I  I14  1  0.218104  0.696323  0.500000  1
  I  I15  1  0.500000  0.500000  0.734540  1
  I  I16  1  0.738064  0.748982  0.000000  1
  I  I17  1  0.000000  0.000000  0.751959  1
