# generated using pymatgen
data_Cs7K9(PbSe4)4
_symmetry_space_group_name_H-M   'P 1'
_cell_length_a   8.56668514
_cell_length_b   10.88939400
_cell_length_c   15.95694800
_cell_angle_alpha   90.00000000
_cell_angle_beta   90.15695908
_cell_angle_gamma   90.00000000
_symmetry_Int_Tables_number   1
_chemical_formula_structural   Cs7K9(PbSe4)4
_chemical_formula_sum   'Cs7 K9 Pb4 Se16'
_cell_volume   1488.55442223
_cell_formula_units_Z   1
loop_
 _symmetry_equiv_pos_site_id
 _symmetry_equiv_pos_as_xyz
  1  'x, y, z'
loop_
 _atom_site_type_symbol
 _atom_site_label
 _atom_site_symmetry_multiplicity
 _atom_site_fract_x
 _atom_site_fract_y
 _atom_site_fract_z
 _atom_site_occupancy
  Cs  Cs0  1  0.000468  0.998856  0.999407  1
  Cs  Cs1  1  0.499676  0.000220  0.500653  1
  Cs  Cs2  1  0.000468  0.501144  0.999407  1
  Cs  Cs3  1  0.499676  0.499780  0.500653  1
  Cs  Cs4  1  0.992548  0.750000  0.425491  1
  Cs  Cs5  1  0.493341  0.250000  0.075161  1
  Cs  Cs6  1  0.007118  0.250000  0.575400  1
  K  K7  1  0.528110  0.750000  0.928314  1
  K  K8  1  0.837913  0.050229  0.265281  1
  K  K9  1  0.337287  0.948204  0.232100  1
  K  K10  1  0.161815  0.552138  0.735508  1
  K  K11  1  0.661955  0.449685  0.767949  1
  K  K12  1  0.161815  0.947862  0.735508  1
  K  K13  1  0.661955  0.050315  0.767949  1
  K  K14  1  0.837913  0.449771  0.265281  1
  K  K15  1  0.337287  0.551796  0.232100  1
  Pb  Pb16  1  0.763756  0.750000  0.672276  1
  Pb  Pb17  1  0.233521  0.250000  0.328333  1
  Pb  Pb18  1  0.731194  0.750000  0.169145  1
  Pb  Pb19  1  0.270022  0.250000  0.829970  1
  Se  Se20  1  0.957501  0.250000  0.824572  1
  Se  Se21  1  0.545920  0.250000  0.323442  1
  Se  Se22  1  0.452172  0.750000  0.677413  1
  Se  Se23  1  0.043088  0.750000  0.175937  1
  Se  Se24  1  0.624086  0.554802  0.090107  1
  Se  Se25  1  0.129472  0.449273  0.403248  1
  Se  Se26  1  0.373303  0.048005  0.904980  1
  Se  Se27  1  0.870257  0.948561  0.597344  1
  Se  Se28  1  0.373303  0.451995  0.904980  1
  Se  Se29  1  0.870257  0.551439  0.597344  1
  Se  Se30  1  0.624086  0.945198  0.090107  1
  Se  Se31  1  0.129472  0.050727  0.403248  1
  Se  Se32  1  0.607326  0.750000  0.323558  1
  Se  Se33  1  0.107222  0.250000  0.174336  1
  Se  Se34  1  0.393251  0.250000  0.675351  1
  Se  Se35  1  0.881451  0.750000  0.828151  1
