# generated using pymatgen
data_HoTh(GaCu)2
_symmetry_space_group_name_H-M   'P 1'
_cell_length_a   4.44675300
_cell_length_b   7.17676700
_cell_length_c   7.36559200
_cell_angle_alpha   90.00000000
_cell_angle_beta   90.00000000
_cell_angle_gamma   90.00000000
_symmetry_Int_Tables_number   1
_chemical_formula_structural   HoTh(GaCu)2
_chemical_formula_sum   'Ho2 Th2 Ga4 Cu4'
_cell_volume   235.06042221
_cell_formula_units_Z   2
loop_
 _symmetry_equiv_pos_site_id
 _symmetry_equiv_pos_as_xyz
  1  'x, y, z'
loop_
 _atom_site_type_symbol
 _atom_site_label
 _atom_site_symmetry_multiplicity
 _atom_site_fract_x
 _atom_site_fract_y
 _atom_site_fract_z
 _atom_site_occupancy
  Ho  Ho0  1  0.750000  0.992324  0.218405  1
  Ho  Ho1  1  0.750000  0.492324  0.281595  1
  Th  Th2  1  0.250000  0.007101  0.803142  1
  Th  Th3  1  0.250000  0.507101  0.696858  1
  Ga  Ga4  1  0.250000  0.190037  0.407512  1
  Ga  Ga5  1  0.250000  0.690037  0.092488  1
  Ga  Ga6  1  0.750000  0.802739  0.582447  1
  Ga  Ga7  1  0.750000  0.302739  0.917553  1
  Cu  Cu8  1  0.250000  0.808284  0.413635  1
  Cu  Cu9  1  0.250000  0.308284  0.086365  1
  Cu  Cu10  1  0.750000  0.199515  0.578842  1
  Cu  Cu11  1  0.750000  0.699515  0.921158  1
