# generated using pymatgen
data_Tb8Cd4Ir3Au5
_symmetry_space_group_name_H-M   'P 1'
_cell_length_a   7.85844947
_cell_length_b   7.85844837
_cell_length_c   7.53447400
_cell_angle_alpha   90.10205917
_cell_angle_beta   90.10205187
_cell_angle_gamma   90.51193527
_symmetry_Int_Tables_number   1
_chemical_formula_structural   Tb8Cd4Ir3Au5
_chemical_formula_sum   'Tb8 Cd4 Ir3 Au5'
_cell_volume   465.27303270
_cell_formula_units_Z   1
loop_
 _symmetry_equiv_pos_site_id
 _symmetry_equiv_pos_as_xyz
  1  'x, y, z'
loop_
 _atom_site_type_symbol
 _atom_site_label
 _atom_site_symmetry_multiplicity
 _atom_site_fract_x
 _atom_site_fract_y
 _atom_site_fract_z
 _atom_site_occupancy
  Tb  Tb0  1  0.170824  0.170824  0.010401  1
  Tb  Tb1  1  0.819908  0.819908  0.999210  1
  Tb  Tb2  1  0.660004  0.351315  0.492519  1
  Tb  Tb3  1  0.351315  0.660004  0.492519  1
  Tb  Tb4  1  0.667648  0.346063  0.006914  1
  Tb  Tb5  1  0.346063  0.667648  0.006914  1
  Tb  Tb6  1  0.812982  0.812982  0.500682  1
  Tb  Tb7  1  0.180240  0.180240  0.490837  1
  Cd  Cd8  1  0.500657  0.005706  0.247923  1
  Cd  Cd9  1  0.501801  0.993279  0.750695  1
  Cd  Cd10  1  0.005706  0.500657  0.247923  1
  Cd  Cd11  1  0.993279  0.501801  0.750695  1
  Ir  Ir12  1  0.365968  0.365968  0.243848  1
  Ir  Ir13  1  0.628805  0.628805  0.755042  1
  Ir  Ir14  1  0.633302  0.633302  0.243891  1
  Au  Au15  1  0.867006  0.131366  0.741555  1
  Au  Au16  1  0.866993  0.128156  0.258858  1
  Au  Au17  1  0.367979  0.367979  0.759161  1
  Au  Au18  1  0.128156  0.866993  0.258858  1
  Au  Au19  1  0.131366  0.867006  0.741555  1
