# generated using pymatgen
data_Tb3Y5Re(B8Ru)3
_symmetry_space_group_name_H-M   'P 1'
_cell_length_a   3.67736700
_cell_length_b   9.16993710
_cell_length_c   11.56084217
_cell_angle_alpha   89.85598143
_cell_angle_beta   90.00000000
_cell_angle_gamma   90.00000000
_symmetry_Int_Tables_number   1
_chemical_formula_structural   Tb3Y5Re(B8Ru)3
_chemical_formula_sum   'Tb3 Y5 Re1 B24 Ru3'
_cell_volume   389.84451808
_cell_formula_units_Z   1
loop_
 _symmetry_equiv_pos_site_id
 _symmetry_equiv_pos_as_xyz
  1  'x, y, z'
loop_
 _atom_site_type_symbol
 _atom_site_label
 _atom_site_symmetry_multiplicity
 _atom_site_fract_x
 _atom_site_fract_y
 _atom_site_fract_z
 _atom_site_occupancy
  Tb  Tb0  1  0.000000  0.823563  0.085081  1
  Tb  Tb1  1  0.000000  0.179378  0.911864  1
  Tb  Tb2  1  0.000000  0.323183  0.416223  1
  Y  Y3  1  0.000000  0.675925  0.586652  1
  Y  Y4  1  0.000000  0.443019  0.128736  1
  Y  Y5  1  0.000000  0.556599  0.872531  1
  Y  Y6  1  0.000000  0.942419  0.371633  1
  Y  Y7  1  0.000000  0.056083  0.627242  1
  Re  Re8  1  0.000000  0.362511  0.678754  1
  B  B9  1  0.500000  0.054102  0.067094  1
  B  B10  1  0.500000  0.946403  0.932486  1
  B  B11  1  0.500000  0.553557  0.432270  1
  B  B12  1  0.500000  0.447183  0.567084  1
  B  B13  1  0.500000  0.247760  0.080693  1
  B  B14  1  0.500000  0.752751  0.919569  1
  B  B15  1  0.500000  0.747365  0.419177  1
  B  B16  1  0.500000  0.252044  0.580806  1
  B  B17  1  0.500000  0.289665  0.233812  1
  B  B18  1  0.500000  0.709677  0.767138  1
  B  B19  1  0.500000  0.790079  0.266121  1
  B  B20  1  0.500000  0.208976  0.733746  1
  B  B21  1  0.500000  0.130948  0.314326  1
  B  B22  1  0.500000  0.868282  0.685960  1
  B  B23  1  0.500000  0.631820  0.185532  1
  B  B24  1  0.500000  0.368716  0.814244  1
  B  B25  1  0.500000  0.483702  0.287570  1
  B  B26  1  0.500000  0.517735  0.712710  1
  B  B27  1  0.500000  0.983516  0.211906  1
  B  B28  1  0.500000  0.016492  0.787344  1
  B  B29  1  0.500000  0.106438  0.469626  1
  B  B30  1  0.500000  0.891197  0.529505  1
  B  B31  1  0.500000  0.608472  0.030544  1
  B  B32  1  0.500000  0.392520  0.970940  1
  Ru  Ru33  1  0.000000  0.137620  0.178749  1
  Ru  Ru34  1  0.000000  0.862499  0.821607  1
  Ru  Ru35  1  0.000000  0.637800  0.320727  1
