# generated using pymatgen
data_LiTb3Zn2IrPd2
_symmetry_space_group_name_H-M   'P 1'
_cell_length_a   7.28262384
_cell_length_b   7.26066625
_cell_length_c   3.92270000
_cell_angle_alpha   90.00000000
_cell_angle_beta   90.00000000
_cell_angle_gamma   119.75525758
_symmetry_Int_Tables_number   1
_chemical_formula_structural   LiTb3Zn2IrPd2
_chemical_formula_sum   'Li1 Tb3 Zn2 Ir1 Pd2'
_cell_volume   180.07186250
_cell_formula_units_Z   1
loop_
 _symmetry_equiv_pos_site_id
 _symmetry_equiv_pos_as_xyz
  1  'x, y, z'
loop_
 _atom_site_type_symbol
 _atom_site_label
 _atom_site_symmetry_multiplicity
 _atom_site_fract_x
 _atom_site_fract_y
 _atom_site_fract_z
 _atom_site_occupancy
  Li  Li0  1  0.002136  0.762796  0.500000  1
  Tb  Tb1  1  0.010983  0.405266  0.000000  1
  Tb  Tb2  1  0.574461  0.592528  0.000000  1
  Tb  Tb3  1  0.413477  0.995665  0.000000  1
  Zn  Zn4  1  0.250000  0.244963  0.500000  1
  Zn  Zn5  1  0.748620  0.994342  0.500000  1
  Ir  Ir6  1  0.330674  0.665082  0.500000  1
  Pd  Pd7  1  0.998540  0.003478  0.000000  1
  Pd  Pd8  1  0.671107  0.335881  0.500000  1
