# generated using pymatgen
data_Eu6Ir
_symmetry_space_group_name_H-M   'P 1'
_cell_length_a   12.04268600
_cell_length_b   12.04268649
_cell_length_c   6.61893500
_cell_angle_alpha   90.00000000
_cell_angle_beta   90.00000000
_cell_angle_gamma   120.00000413
_symmetry_Int_Tables_number   1
_chemical_formula_structural   Eu6Ir
_chemical_formula_sum   'Eu18 Ir3'
_cell_volume   831.31472491
_cell_formula_units_Z   3
loop_
 _symmetry_equiv_pos_site_id
 _symmetry_equiv_pos_as_xyz
  1  'x, y, z'
loop_
 _atom_site_type_symbol
 _atom_site_label
 _atom_site_symmetry_multiplicity
 _atom_site_fract_x
 _atom_site_fract_y
 _atom_site_fract_z
 _atom_site_occupancy
  Eu  Eu0  1  0.111280  0.222558  0.245597  1
  Eu  Eu1  1  0.111280  0.888720  0.245597  1
  Eu  Eu2  1  0.777441  0.888720  0.245597  1
  Eu  Eu3  1  0.110429  0.555214  0.243445  1
  Eu  Eu4  1  0.444785  0.555214  0.243445  1
  Eu  Eu5  1  0.444786  0.889571  0.243445  1
  Eu  Eu6  1  0.443034  0.221518  0.266477  1
  Eu  Eu7  1  0.778483  0.221518  0.266477  1
  Eu  Eu8  1  0.778482  0.556966  0.266477  1
  Eu  Eu9  1  0.221518  0.443034  0.733522  1
  Eu  Eu10  1  0.221517  0.778482  0.733522  1
  Eu  Eu11  1  0.556966  0.778482  0.733522  1
  Eu  Eu12  1  0.555214  0.110429  0.756555  1
  Eu  Eu13  1  0.555215  0.444786  0.756555  1
  Eu  Eu14  1  0.889571  0.444786  0.756555  1
  Eu  Eu15  1  0.222559  0.111280  0.754402  1
  Eu  Eu16  1  0.888720  0.111280  0.754402  1
  Eu  Eu17  1  0.888720  0.777442  0.754402  1
  Ir  Ir18  1  0.000000  0.000000  0.000000  1
  Ir  Ir19  1  0.333333  0.666666  0.488655  1
  Ir  Ir20  1  0.666667  0.333334  0.511345  1
