# generated using pymatgen
data_DyThMn17
_symmetry_space_group_name_H-M   'P 1'
_cell_length_a   6.36354885
_cell_length_b   6.36354898
_cell_length_c   6.36354952
_cell_angle_alpha   86.11839331
_cell_angle_beta   86.11838726
_cell_angle_gamma   86.11838916
_symmetry_Int_Tables_number   1
_chemical_formula_structural   DyThMn17
_chemical_formula_sum   'Dy1 Th1 Mn17'
_cell_volume   255.99338469
_cell_formula_units_Z   1
loop_
 _symmetry_equiv_pos_site_id
 _symmetry_equiv_pos_as_xyz
  1  'x, y, z'
loop_
 _atom_site_type_symbol
 _atom_site_label
 _atom_site_symmetry_multiplicity
 _atom_site_fract_x
 _atom_site_fract_y
 _atom_site_fract_z
 _atom_site_occupancy
  Dy  Dy0  1  0.647954  0.647954  0.647954  1
  Th  Th1  1  0.354216  0.354216  0.354216  1
  Mn  Mn2  1  0.354822  0.354822  0.874805  1
  Mn  Mn3  1  0.874805  0.354822  0.354822  1
  Mn  Mn4  1  0.098731  0.098731  0.098731  1
  Mn  Mn5  1  0.901704  0.901704  0.901704  1
  Mn  Mn6  1  0.997361  0.997361  0.500575  1
  Mn  Mn7  1  0.997361  0.500575  0.997361  1
  Mn  Mn8  1  0.500575  0.997361  0.997361  1
  Mn  Mn9  1  0.727031  0.272660  0.998747  1
  Mn  Mn10  1  0.272660  0.998747  0.727031  1
  Mn  Mn11  1  0.998747  0.727031  0.272660  1
  Mn  Mn12  1  0.272660  0.727031  0.998747  1
  Mn  Mn13  1  0.727031  0.998747  0.272660  1
  Mn  Mn14  1  0.998747  0.272660  0.727031  1
  Mn  Mn15  1  0.126192  0.647290  0.647290  1
  Mn  Mn16  1  0.647290  0.647290  0.126192  1
  Mn  Mn17  1  0.647290  0.126192  0.647290  1
  Mn  Mn18  1  0.354822  0.874805  0.354822  1
