# generated using pymatgen
data_Nb2Hg(P2O7)3
_symmetry_space_group_name_H-M   'P 1'
_cell_length_a   8.63247056
_cell_length_b   8.63247046
_cell_length_c   12.61150200
_cell_angle_alpha   85.22598591
_cell_angle_beta   85.22598596
_cell_angle_gamma   77.24131478
_symmetry_Int_Tables_number   1
_chemical_formula_structural   Nb2Hg(P2O7)3
_chemical_formula_sum   'Nb4 Hg2 P12 O42'
_cell_volume   911.38337389
_cell_formula_units_Z   2
loop_
 _symmetry_equiv_pos_site_id
 _symmetry_equiv_pos_as_xyz
  1  'x, y, z'
loop_
 _atom_site_type_symbol
 _atom_site_label
 _atom_site_symmetry_multiplicity
 _atom_site_fract_x
 _atom_site_fract_y
 _atom_site_fract_z
 _atom_site_occupancy
  Nb  Nb0  1  0.285648  0.285648  0.178812  1
  Nb  Nb1  1  0.245111  0.754889  0.500000  1
  Nb  Nb2  1  0.754889  0.245111  0.500000  1
  Nb  Nb3  1  0.714352  0.714352  0.821188  1
  Hg  Hg4  1  0.222444  0.222444  0.860499  1
  Hg  Hg5  1  0.777556  0.777556  0.139501  1
  P  P6  1  0.678770  0.202087  0.102822  1
  P  P7  1  0.140074  0.140074  0.588980  1
  P  P8  1  0.343237  0.343237  0.456849  1
  P  P9  1  0.202087  0.678770  0.102822  1
  P  P10  1  0.350943  0.869516  0.233675  1
  P  P11  1  0.649057  0.130484  0.766325  1
  P  P12  1  0.321230  0.797913  0.897178  1
  P  P13  1  0.656763  0.656763  0.543151  1
  P  P14  1  0.130484  0.649057  0.766325  1
  P  P15  1  0.869516  0.350943  0.233675  1
  P  P16  1  0.859926  0.859926  0.411020  1
  P  P17  1  0.797913  0.321230  0.897178  1
  O  O18  1  0.296689  0.816933  0.349936  1
  O  O19  1  0.183067  0.703311  0.650064  1
  O  O20  1  0.828731  0.219249  0.162846  1
  O  O21  1  0.171269  0.780751  0.837154  1
  O  O22  1  0.016828  0.785075  0.466090  1
  O  O23  1  0.725997  0.725997  0.958436  1
  O  O24  1  0.265841  0.529345  0.173246  1
  O  O25  1  0.295798  0.962350  0.932354  1
  O  O26  1  0.983172  0.214925  0.533910  1
  O  O27  1  0.214925  0.983172  0.533910  1
  O  O28  1  0.816933  0.296689  0.349936  1
  O  O29  1  0.529345  0.265841  0.173246  1
  O  O30  1  0.477271  0.713063  0.526685  1
  O  O31  1  0.703311  0.183067  0.650064  1
  O  O32  1  0.219249  0.828731  0.162846  1
  O  O33  1  0.962350  0.295798  0.932354  1
  O  O34  1  0.783468  0.514390  0.201202  1
  O  O35  1  0.299146  0.299146  0.353554  1
  O  O36  1  0.734159  0.470655  0.826754  1
  O  O37  1  0.485610  0.216532  0.798798  1
  O  O38  1  0.123661  0.123661  0.707435  1
  O  O39  1  0.948654  0.683061  0.776511  1
  O  O40  1  0.704202  0.037650  0.067646  1
  O  O41  1  0.470655  0.734159  0.826754  1
  O  O42  1  0.216532  0.485610  0.798798  1
  O  O43  1  0.522729  0.286937  0.473315  1
  O  O44  1  0.713063  0.477271  0.526685  1
  O  O45  1  0.683061  0.948654  0.776511  1
  O  O46  1  0.785075  0.016828  0.466090  1
  O  O47  1  0.672277  0.327723  0.000000  1
  O  O48  1  0.780751  0.171269  0.837154  1
  O  O49  1  0.258737  0.258737  0.556092  1
  O  O50  1  0.514390  0.783468  0.201202  1
  O  O51  1  0.316939  0.051346  0.223489  1
  O  O52  1  0.274003  0.274003  0.041564  1
  O  O53  1  0.286937  0.522729  0.473315  1
  O  O54  1  0.037650  0.704202  0.067646  1
  O  O55  1  0.876339  0.876339  0.292565  1
  O  O56  1  0.741263  0.741263  0.443908  1
  O  O57  1  0.700854  0.700854  0.646446  1
  O  O58  1  0.051346  0.316939  0.223489  1
  O  O59  1  0.327723  0.672277  0.000000  1
