# generated using pymatgen
data_Tb5Dy5(YNi2)2
_symmetry_space_group_name_H-M   'P 1'
_cell_length_a   6.36013350
_cell_length_b   6.85057405
_cell_length_c   9.61071981
_cell_angle_alpha   89.98688906
_cell_angle_beta   90.04523589
_cell_angle_gamma   89.99787740
_symmetry_Int_Tables_number   1
_chemical_formula_structural   Tb5Dy5(YNi2)2
_chemical_formula_sum   'Tb5 Dy5 Y2 Ni4'
_cell_volume   418.74435493
_cell_formula_units_Z   1
loop_
 _symmetry_equiv_pos_site_id
 _symmetry_equiv_pos_as_xyz
  1  'x, y, z'
loop_
 _atom_site_type_symbol
 _atom_site_label
 _atom_site_symmetry_multiplicity
 _atom_site_fract_x
 _atom_site_fract_y
 _atom_site_fract_z
 _atom_site_occupancy
  Tb  Tb0  1  0.322599  0.677512  0.065816  1
  Tb  Tb1  1  0.177262  0.177307  0.433830  1
  Tb  Tb2  1  0.677586  0.322452  0.565418  1
  Tb  Tb3  1  0.859316  0.535287  0.250024  1
  Tb  Tb4  1  0.640492  0.035145  0.249627  1
  Dy  Dy5  1  0.822585  0.822472  0.934363  1
  Dy  Dy6  1  0.677937  0.322495  0.934673  1
  Dy  Dy7  1  0.822345  0.822399  0.565570  1
  Dy  Dy8  1  0.322731  0.677498  0.434091  1
  Dy  Dy9  1  0.176971  0.177527  0.065615  1
  Y  Y10  1  0.139304  0.466562  0.750105  1
  Y  Y11  1  0.360530  0.966292  0.750241  1
  Ni  Ni12  1  0.055637  0.890578  0.249890  1
  Ni  Ni13  1  0.444190  0.390610  0.249826  1
  Ni  Ni14  1  0.940468  0.107521  0.750878  1
  Ni  Ni15  1  0.560048  0.608346  0.750032  1
