# generated using pymatgen
data_Y8Tm2Si5Pb
_symmetry_space_group_name_H-M   'P 1'
_cell_length_a   8.51734000
_cell_length_b   8.55391811
_cell_length_c   6.40620708
_cell_angle_alpha   90.01529166
_cell_angle_beta   90.00000000
_cell_angle_gamma   119.85863786
_symmetry_Int_Tables_number   1
_chemical_formula_structural   Y8Tm2Si5Pb
_chemical_formula_sum   'Y8 Tm2 Si5 Pb1'
_cell_volume   404.77858684
_cell_formula_units_Z   1
loop_
 _symmetry_equiv_pos_site_id
 _symmetry_equiv_pos_as_xyz
  1  'x, y, z'
loop_
 _atom_site_type_symbol
 _atom_site_label
 _atom_site_symmetry_multiplicity
 _atom_site_fract_x
 _atom_site_fract_y
 _atom_site_fract_z
 _atom_site_occupancy
  Y  Y0  1  0.987804  0.746447  0.750097  1
  Y  Y1  1  0.998040  0.243028  0.250039  1
  Y  Y2  1  0.755012  0.756972  0.249961  1
  Y  Y3  1  0.766598  0.000000  0.750000  1
  Y  Y4  1  0.241357  0.253553  0.749903  1
  Y  Y5  1  0.241163  0.000000  0.250000  1
  Y  Y6  1  0.675121  0.343951  0.496325  1
  Y  Y7  1  0.331168  0.656049  0.003675  1
  Tm  Tm8  1  0.331078  0.655787  0.496352  1
  Tm  Tm9  1  0.675293  0.344213  0.003648  1
  Si  Si10  1  0.393595  0.391864  0.250082  1
  Si  Si11  1  0.001730  0.608136  0.249918  1
  Si  Si12  1  0.998018  0.394472  0.750014  1
  Si  Si13  1  0.603546  0.605528  0.749986  1
  Si  Si14  1  0.605765  0.000000  0.250000  1
  Pb  Pb15  1  0.394711  0.000000  0.750000  1
