# generated using pymatgen
data_Er3Sc(Co2O5)4
_symmetry_space_group_name_H-M   'P 1'
_cell_length_a   5.68492500
_cell_length_b   7.15042531
_cell_length_c   8.33360900
_cell_angle_alpha   90.04604224
_cell_angle_beta   90.00000000
_cell_angle_gamma   90.00000000
_symmetry_Int_Tables_number   1
_chemical_formula_structural   Er3Sc(Co2O5)4
_chemical_formula_sum   'Er3 Sc1 Co8 O20'
_cell_volume   338.75802636
_cell_formula_units_Z   1
loop_
 _symmetry_equiv_pos_site_id
 _symmetry_equiv_pos_as_xyz
  1  'x, y, z'
loop_
 _atom_site_type_symbol
 _atom_site_label
 _atom_site_symmetry_multiplicity
 _atom_site_fract_x
 _atom_site_fract_y
 _atom_site_fract_z
 _atom_site_occupancy
  Er  Er0  1  0.500000  0.361601  0.327668  1
  Er  Er1  1  0.500000  0.638098  0.671433  1
  Er  Er2  1  0.500000  0.135052  0.831194  1
  Sc  Sc3  1  0.500000  0.856934  0.172503  1
  Co  Co4  1  0.000000  0.087634  0.151520  1
  Co  Co5  1  0.000000  0.907335  0.851214  1
  Co  Co6  1  0.000000  0.407875  0.650095  1
  Co  Co7  1  0.000000  0.594365  0.347585  1
  Co  Co8  1  0.246247  0.999136  0.498378  1
  Co  Co9  1  0.753753  0.999136  0.498378  1
  Co  Co10  1  0.754160  0.502958  0.000979  1
  Co  Co11  1  0.245840  0.502958  0.000979  1
  O  O12  1  0.231621  0.993881  0.004550  1
  O  O13  1  0.768379  0.993881  0.004550  1
  O  O14  1  0.773158  0.499649  0.498288  1
  O  O15  1  0.226842  0.499649  0.498288  1
  O  O16  1  0.000000  0.349048  0.071832  1
  O  O17  1  0.000000  0.652482  0.931409  1
  O  O18  1  0.000000  0.152904  0.567128  1
  O  O19  1  0.000000  0.848020  0.432823  1
  O  O20  1  0.500000  0.338976  0.055634  1
  O  O21  1  0.500000  0.668965  0.947962  1
  O  O22  1  0.500000  0.162571  0.554403  1
  O  O23  1  0.500000  0.834640  0.437450  1
  O  O24  1  0.261472  0.099366  0.290444  1
  O  O25  1  0.742155  0.896052  0.707290  1
  O  O26  1  0.257845  0.896052  0.707290  1
  O  O27  1  0.741778  0.396708  0.793044  1
  O  O28  1  0.738528  0.099366  0.290444  1
  O  O29  1  0.260425  0.613999  0.206099  1
  O  O30  1  0.739575  0.613999  0.206099  1
  O  O31  1  0.258222  0.396708  0.793044  1
