# generated using pymatgen
data_Ba5Na3(Cd4Au3)4
_symmetry_space_group_name_H-M   'P 1'
_cell_length_a   15.33354200
_cell_length_b   15.33354208
_cell_length_c   4.51910400
_cell_angle_alpha   90.00000000
_cell_angle_beta   90.00000000
_cell_angle_gamma   119.99999982
_symmetry_Int_Tables_number   1
_chemical_formula_structural   Ba5Na3(Cd4Au3)4
_chemical_formula_sum   'Ba5 Na3 Cd16 Au12'
_cell_volume   920.16973548
_cell_formula_units_Z   1
loop_
 _symmetry_equiv_pos_site_id
 _symmetry_equiv_pos_as_xyz
  1  'x, y, z'
loop_
 _atom_site_type_symbol
 _atom_site_label
 _atom_site_symmetry_multiplicity
 _atom_site_fract_x
 _atom_site_fract_y
 _atom_site_fract_z
 _atom_site_occupancy
  Ba  Ba0  1  0.333333  0.666667  0.000000  1
  Ba  Ba1  1  0.666667  0.333333  0.000000  1
  Ba  Ba2  1  0.813666  0.000000  0.500000  1
  Ba  Ba3  1  0.000000  0.813666  0.500000  1
  Ba  Ba4  1  0.186334  0.186334  0.500000  1
  Na  Na5  1  0.447537  0.000000  0.000000  1
  Na  Na6  1  0.000000  0.447537  0.000000  1
  Na  Na7  1  0.552463  0.552463  0.000000  1
  Cd  Cd8  1  0.178322  0.377838  0.000000  1
  Cd  Cd9  1  0.622162  0.800485  0.000000  1
  Cd  Cd10  1  0.377838  0.178322  0.000000  1
  Cd  Cd11  1  0.199515  0.821678  0.000000  1
  Cd  Cd12  1  0.800485  0.622162  0.000000  1
  Cd  Cd13  1  0.821678  0.199515  0.000000  1
  Cd  Cd14  1  0.288655  0.000000  0.500000  1
  Cd  Cd15  1  0.000000  0.288655  0.500000  1
  Cd  Cd16  1  0.711345  0.711345  0.500000  1
  Cd  Cd17  1  0.352701  0.476405  0.500000  1
  Cd  Cd18  1  0.523595  0.876296  0.500000  1
  Cd  Cd19  1  0.476405  0.352701  0.500000  1
  Cd  Cd20  1  0.123704  0.647299  0.500000  1
  Cd  Cd21  1  0.876296  0.523595  0.500000  1
  Cd  Cd22  1  0.647299  0.123704  0.500000  1
  Cd  Cd23  1  0.000000  0.000000  0.000000  1
  Au  Au24  1  0.165629  0.489556  0.500000  1
  Au  Au25  1  0.510444  0.676073  0.500000  1
  Au  Au26  1  0.489556  0.165629  0.500000  1
  Au  Au27  1  0.323927  0.834371  0.500000  1
  Au  Au28  1  0.676073  0.510444  0.500000  1
  Au  Au29  1  0.834371  0.323927  0.500000  1
  Au  Au30  1  0.179593  0.000000  0.000000  1
  Au  Au31  1  0.000000  0.179593  0.000000  1
  Au  Au32  1  0.820407  0.820407  0.000000  1
  Au  Au33  1  0.642842  0.000000  0.000000  1
  Au  Au34  1  0.000000  0.642842  0.000000  1
  Au  Au35  1  0.357158  0.357158  0.000000  1
