# generated using pymatgen
data_Ho7Er5Tc4
_symmetry_space_group_name_H-M   'P 1'
_cell_length_a   6.21326413
_cell_length_b   7.37781215
_cell_length_c   9.07569319
_cell_angle_alpha   90.01811799
_cell_angle_beta   90.03505088
_cell_angle_gamma   90.03135658
_symmetry_Int_Tables_number   1
_chemical_formula_structural   Ho7Er5Tc4
_chemical_formula_sum   'Ho7 Er5 Tc4'
_cell_volume   416.03229724
_cell_formula_units_Z   1
loop_
 _symmetry_equiv_pos_site_id
 _symmetry_equiv_pos_as_xyz
  1  'x, y, z'
loop_
 _atom_site_type_symbol
 _atom_site_label
 _atom_site_symmetry_multiplicity
 _atom_site_fract_x
 _atom_site_fract_y
 _atom_site_fract_z
 _atom_site_occupancy
  Ho  Ho0  1  0.340622  0.675613  0.062324  1
  Ho  Ho1  1  0.159586  0.175954  0.437367  1
  Ho  Ho2  1  0.659660  0.324482  0.562921  1
  Ho  Ho3  1  0.873059  0.541683  0.249857  1
  Ho  Ho4  1  0.627139  0.041285  0.249372  1
  Ho  Ho5  1  0.125929  0.459155  0.750607  1
  Ho  Ho6  1  0.373363  0.958378  0.750187  1
  Er  Er7  1  0.840737  0.824472  0.937343  1
  Er  Er8  1  0.658696  0.324956  0.937920  1
  Er  Er9  1  0.841866  0.824710  0.562665  1
  Er  Er10  1  0.341392  0.674612  0.437336  1
  Er  Er11  1  0.157944  0.175017  0.062201  1
  Tc  Tc12  1  0.041338  0.885452  0.250866  1
  Tc  Tc13  1  0.458583  0.385141  0.248352  1
  Tc  Tc14  1  0.957687  0.114390  0.751737  1
  Tc  Tc15  1  0.542400  0.614700  0.748945  1
