# generated using pymatgen
data_Ho16In3HgIr4
_symmetry_space_group_name_H-M   'P 1'
_cell_length_a   9.61763862
_cell_length_b   9.61763883
_cell_length_c   9.61763929
_cell_angle_alpha   59.97693147
_cell_angle_beta   59.97693098
_cell_angle_gamma   59.97693195
_symmetry_Int_Tables_number   1
_chemical_formula_structural   Ho16In3HgIr4
_chemical_formula_sum   'Ho16 In3 Hg1 Ir4'
_cell_volume   628.72853086
_cell_formula_units_Z   1
loop_
 _symmetry_equiv_pos_site_id
 _symmetry_equiv_pos_as_xyz
  1  'x, y, z'
loop_
 _atom_site_type_symbol
 _atom_site_label
 _atom_site_symmetry_multiplicity
 _atom_site_fract_x
 _atom_site_fract_y
 _atom_site_fract_z
 _atom_site_occupancy
  Ho  Ho0  1  0.438467  0.438467  0.063522  1
  Ho  Ho1  1  0.649220  0.649220  0.049563  1
  Ho  Ho2  1  0.190492  0.812242  0.190492  1
  Ho  Ho3  1  0.060364  0.439405  0.060364  1
  Ho  Ho4  1  0.192129  0.809078  0.809078  1
  Ho  Ho5  1  0.063522  0.438467  0.438467  1
  Ho  Ho6  1  0.812242  0.190492  0.190492  1
  Ho  Ho7  1  0.651792  0.651792  0.651792  1
  Ho  Ho8  1  0.809078  0.192129  0.809078  1
  Ho  Ho9  1  0.190492  0.190492  0.812242  1
  Ho  Ho10  1  0.049563  0.649220  0.649220  1
  Ho  Ho11  1  0.439405  0.060364  0.060364  1
  Ho  Ho12  1  0.060364  0.060364  0.439405  1
  Ho  Ho13  1  0.649220  0.049563  0.649220  1
  Ho  Ho14  1  0.809078  0.809078  0.192129  1
  Ho  Ho15  1  0.438467  0.063522  0.438467  1
  In  In16  1  0.417333  0.417333  0.747555  1
  In  In17  1  0.417333  0.747555  0.417333  1
  In  In18  1  0.747555  0.417333  0.417333  1
  Hg  Hg19  1  0.414305  0.414305  0.414305  1
  Ir  Ir20  1  0.424179  0.858737  0.858737  1
  Ir  Ir21  1  0.857928  0.857928  0.857928  1
  Ir  Ir22  1  0.858737  0.424179  0.858737  1
  Ir  Ir23  1  0.858737  0.858737  0.424179  1
