# generated using pymatgen
data_Dy2Tm3LuRh18
_symmetry_space_group_name_H-M   'P 1'
_cell_length_a   5.26420200
_cell_length_b   5.26417103
_cell_length_c   17.49419800
_cell_angle_alpha   90.00034829
_cell_angle_beta   89.99939049
_cell_angle_gamma   120.00269567
_symmetry_Int_Tables_number   1
_chemical_formula_structural   Dy2Tm3LuRh18
_chemical_formula_sum   'Dy2 Tm3 Lu1 Rh18'
_cell_volume   419.83187471
_cell_formula_units_Z   1
loop_
 _symmetry_equiv_pos_site_id
 _symmetry_equiv_pos_as_xyz
  1  'x, y, z'
loop_
 _atom_site_type_symbol
 _atom_site_label
 _atom_site_symmetry_multiplicity
 _atom_site_fract_x
 _atom_site_fract_y
 _atom_site_fract_z
 _atom_site_occupancy
  Dy  Dy0  1  0.333325  0.666665  0.749864  1
  Dy  Dy1  1  0.666673  0.333330  0.250056  1
  Tm  Tm2  1  0.333337  0.666660  0.958937  1
  Tm  Tm3  1  0.666662  0.333336  0.041194  1
  Tm  Tm4  1  0.666659  0.333343  0.458984  1
  Lu  Lu5  1  0.333336  0.666667  0.541180  1
  Rh  Rh6  1  0.167542  0.832477  0.375357  1
  Rh  Rh7  1  0.167536  0.335081  0.375360  1
  Rh  Rh8  1  0.664928  0.832462  0.375360  1
  Rh  Rh9  1  0.832443  0.167549  0.624492  1
  Rh  Rh10  1  0.832437  0.664876  0.624484  1
  Rh  Rh11  1  0.335113  0.167552  0.624489  1
  Rh  Rh12  1  0.832473  0.167507  0.875282  1
  Rh  Rh13  1  0.832474  0.664951  0.875284  1
  Rh  Rh14  1  0.335036  0.167513  0.875280  1
  Rh  Rh15  1  0.167515  0.832505  0.124748  1
  Rh  Rh16  1  0.167515  0.335028  0.124740  1
  Rh  Rh17  1  0.664984  0.832501  0.124738  1
  Rh  Rh18  1  0.333346  0.666679  0.250061  1
  Rh  Rh19  1  0.666673  0.333327  0.749942  1
  Rh  Rh20  1  0.000004  0.999997  0.250185  1
  Rh  Rh21  1  0.999993  0.000001  0.749930  1
  Rh  Rh22  1  0.999996  0.999999  0.499978  1
  Rh  Rh23  1  0.000001  0.999993  0.000075  1
