# generated using pymatgen
data_Sr4InHgPt4
_symmetry_space_group_name_H-M   'P 1'
_cell_length_a   5.98765811
_cell_length_b   5.98765854
_cell_length_c   8.53386737
_cell_angle_alpha   77.79657638
_cell_angle_beta   77.79657910
_cell_angle_gamma   60.08365009
_symmetry_Int_Tables_number   1
_chemical_formula_structural   Sr4InHgPt4
_chemical_formula_sum   'Sr4 In1 Hg1 Pt4'
_cell_volume   257.16151595
_cell_formula_units_Z   1
loop_
 _symmetry_equiv_pos_site_id
 _symmetry_equiv_pos_as_xyz
  1  'x, y, z'
loop_
 _atom_site_type_symbol
 _atom_site_label
 _atom_site_symmetry_multiplicity
 _atom_site_fract_x
 _atom_site_fract_y
 _atom_site_fract_z
 _atom_site_occupancy
  Sr  Sr0  1  0.503306  0.792932  0.351248  1
  Sr  Sr1  1  0.207068  0.496694  0.148752  1
  Sr  Sr2  1  0.496359  0.208669  0.645289  1
  Sr  Sr3  1  0.791331  0.503641  0.854711  1
  In  In4  1  0.132834  0.867166  0.750000  1
  Hg  Hg5  1  0.850250  0.149750  0.250000  1
  Pt  Pt6  1  0.284240  0.993530  0.987860  1
  Pt  Pt7  1  0.006470  0.715760  0.512140  1
  Pt  Pt8  1  0.725347  0.997205  0.000339  1
  Pt  Pt9  1  0.002795  0.274653  0.499661  1
