# generated using pymatgen
data_Th3SnGe2Ir3
_symmetry_space_group_name_H-M   'P 1'
_cell_length_a   7.40108358
_cell_length_b   7.46369560
_cell_length_c   4.07187900
_cell_angle_alpha   90.00000000
_cell_angle_beta   90.00000000
_cell_angle_gamma   120.28025467
_symmetry_Int_Tables_number   1
_chemical_formula_structural   Th3SnGe2Ir3
_chemical_formula_sum   'Th3 Sn1 Ge2 Ir3'
_cell_volume   194.24118635
_cell_formula_units_Z   1
loop_
 _symmetry_equiv_pos_site_id
 _symmetry_equiv_pos_as_xyz
  1  'x, y, z'
loop_
 _atom_site_type_symbol
 _atom_site_label
 _atom_site_symmetry_multiplicity
 _atom_site_fract_x
 _atom_site_fract_y
 _atom_site_fract_z
 _atom_site_occupancy
  Th  Th0  1  0.419845  0.415172  0.500000  1
  Th  Th1  1  0.580155  0.995327  0.500000  1
  Th  Th2  1  0.000000  0.594956  0.500000  1
  Sn  Sn3  1  0.000000  0.246028  0.000000  1
  Ge  Ge4  1  0.750376  0.752168  0.000000  1
  Ge  Ge5  1  0.249624  0.001792  0.000000  1
  Ir  Ir6  1  0.661843  0.334739  0.000000  1
  Ir  Ir7  1  0.338157  0.672897  0.000000  1
  Ir  Ir8  1  0.000000  0.986920  0.500000  1
