# generated using pymatgen
data_Er2SnB2Ir5
_symmetry_space_group_name_H-M   'P 1'
_cell_length_a   3.28647700
_cell_length_b   9.60898400
_cell_length_c   9.60898400
_cell_angle_alpha   90.00000000
_cell_angle_beta   90.00000000
_cell_angle_gamma   90.00000000
_symmetry_Int_Tables_number   1
_chemical_formula_structural   Er2SnB2Ir5
_chemical_formula_sum   'Er4 Sn2 B4 Ir10'
_cell_volume   303.44887920
_cell_formula_units_Z   2
loop_
 _symmetry_equiv_pos_site_id
 _symmetry_equiv_pos_as_xyz
  1  'x, y, z'
loop_
 _atom_site_type_symbol
 _atom_site_label
 _atom_site_symmetry_multiplicity
 _atom_site_fract_x
 _atom_site_fract_y
 _atom_site_fract_z
 _atom_site_occupancy
  Er  Er0  1  0.000000  0.176661  0.676661  1
  Er  Er1  1  0.000000  0.823339  0.323339  1
  Er  Er2  1  0.000000  0.323339  0.176661  1
  Er  Er3  1  0.000000  0.676661  0.823339  1
  Sn  Sn4  1  0.000000  0.000000  0.000000  1
  Sn  Sn5  1  0.000000  0.500000  0.500000  1
  B  B6  1  0.000000  0.619916  0.119916  1
  B  B7  1  0.000000  0.380084  0.880084  1
  B  B8  1  0.000000  0.880084  0.619916  1
  B  B9  1  0.000000  0.119916  0.380084  1
  Ir  Ir10  1  0.500000  0.069926  0.225073  1
  Ir  Ir11  1  0.500000  0.930074  0.774927  1
  Ir  Ir12  1  0.500000  0.774927  0.069926  1
  Ir  Ir13  1  0.500000  0.430074  0.725073  1
  Ir  Ir14  1  0.500000  0.225073  0.930074  1
  Ir  Ir15  1  0.500000  0.569926  0.274927  1
  Ir  Ir16  1  0.500000  0.725073  0.569926  1
  Ir  Ir17  1  0.500000  0.274927  0.430074  1
  Ir  Ir18  1  0.500000  0.000000  0.500000  1
  Ir  Ir19  1  0.500000  0.500000  0.000000  1
