# generated using pymatgen
data_NdInCuPt3
_symmetry_space_group_name_H-M   'P 1'
_cell_length_a   5.27453984
_cell_length_b   5.51275709
_cell_length_c   5.51275700
_cell_angle_alpha   59.99999454
_cell_angle_beta   58.49440051
_cell_angle_gamma   58.49439706
_symmetry_Int_Tables_number   1
_chemical_formula_structural   NdInCuPt3
_chemical_formula_sum   'Nd1 In1 Cu1 Pt3'
_cell_volume   110.69796416
_cell_formula_units_Z   1
loop_
 _symmetry_equiv_pos_site_id
 _symmetry_equiv_pos_as_xyz
  1  'x, y, z'
loop_
 _atom_site_type_symbol
 _atom_site_label
 _atom_site_symmetry_multiplicity
 _atom_site_fract_x
 _atom_site_fract_y
 _atom_site_fract_z
 _atom_site_occupancy
  Nd  Nd0  1  0.256727  0.247758  0.247758  1
  In  In1  1  0.010214  0.996595  0.996595  1
  Cu  Cu2  1  0.119877  0.626708  0.626708  1
  Pt  Pt3  1  0.621061  0.627096  0.627096  1
  Pt  Pt4  1  0.621061  0.627096  0.124746  1
  Pt  Pt5  1  0.621061  0.124746  0.627096  1
