# generated using pymatgen
data_Lu2Mg(PRh2)6
_symmetry_space_group_name_H-M   'P 1'
_cell_length_a   9.67542200
_cell_length_b   9.67542142
_cell_length_c   3.87483100
_cell_angle_alpha   90.00000000
_cell_angle_beta   90.00000000
_cell_angle_gamma   120.00000881
_symmetry_Int_Tables_number   1
_chemical_formula_structural   Lu2Mg(PRh2)6
_chemical_formula_sum   'Lu2 Mg1 P6 Rh12'
_cell_volume   314.13994624
_cell_formula_units_Z   1
loop_
 _symmetry_equiv_pos_site_id
 _symmetry_equiv_pos_as_xyz
  1  'x, y, z'
loop_
 _atom_site_type_symbol
 _atom_site_label
 _atom_site_symmetry_multiplicity
 _atom_site_fract_x
 _atom_site_fract_y
 _atom_site_fract_z
 _atom_site_occupancy
  Lu  Lu0  1  0.333333  0.666667  0.752892  1
  Lu  Lu1  1  0.666667  0.333333  0.247108  1
  Mg  Mg2  1  0.000000  0.000000  0.500000  1
  P  P3  1  0.402913  0.285233  0.746690  1
  P  P4  1  0.714767  0.117679  0.746690  1
  P  P5  1  0.882321  0.597087  0.746690  1
  P  P6  1  0.597087  0.714767  0.253310  1
  P  P7  1  0.285233  0.882321  0.253310  1
  P  P8  1  0.117679  0.402913  0.253310  1
  Rh  Rh9  1  0.454968  0.067942  0.748498  1
  Rh  Rh10  1  0.932058  0.387026  0.748498  1
  Rh  Rh11  1  0.612974  0.545032  0.748498  1
  Rh  Rh12  1  0.545032  0.932058  0.251502  1
  Rh  Rh13  1  0.067942  0.612974  0.251502  1
  Rh  Rh14  1  0.387026  0.454968  0.251502  1
  Rh  Rh15  1  0.161336  0.289685  0.754216  1
  Rh  Rh16  1  0.710315  0.871651  0.754216  1
  Rh  Rh17  1  0.128349  0.838664  0.754216  1
  Rh  Rh18  1  0.838664  0.710315  0.245784  1
  Rh  Rh19  1  0.289685  0.128349  0.245784  1
  Rh  Rh20  1  0.871651  0.161336  0.245784  1
