# generated using pymatgen
data_Tc3S2Br5
_symmetry_space_group_name_H-M   'P 1'
_cell_length_a   9.71793921
_cell_length_b   9.77607805
_cell_length_c   13.18072525
_cell_angle_alpha   82.73482138
_cell_angle_beta   84.17316763
_cell_angle_gamma   83.13361053
_symmetry_Int_Tables_number   1
_chemical_formula_structural   Tc3S2Br5
_chemical_formula_sum   'Tc12 S8 Br20'
_cell_volume   1228.49496249
_cell_formula_units_Z   4
loop_
 _symmetry_equiv_pos_site_id
 _symmetry_equiv_pos_as_xyz
  1  'x, y, z'
loop_
 _atom_site_type_symbol
 _atom_site_label
 _atom_site_symmetry_multiplicity
 _atom_site_fract_x
 _atom_site_fract_y
 _atom_site_fract_z
 _atom_site_occupancy
  Tc  Tc0  1  0.074174  0.054245  0.111727  1
  Tc  Tc1  1  0.030542  0.816026  0.056156  1
  Tc  Tc2  1  0.177456  0.980247  0.932545  1
  Tc  Tc3  1  0.326769  0.600085  0.497655  1
  Tc  Tc4  1  0.417123  0.335666  0.505383  1
  Tc  Tc5  1  0.486085  0.491581  0.643310  1
  Tc  Tc6  1  0.512974  0.507368  0.357210  1
  Tc  Tc7  1  0.581770  0.663260  0.495038  1
  Tc  Tc8  1  0.672392  0.398781  0.502894  1
  Tc  Tc9  1  0.820864  0.019594  0.064634  1
  Tc  Tc10  1  0.972931  0.183154  0.939114  1
  Tc  Tc11  1  0.931940  0.946318  0.886737  1
  S  S12  1  0.071337  0.099720  0.785298  1
  S  S13  1  0.123592  0.767610  0.891307  1
  S  S14  1  0.283516  0.450852  0.375707  1
  S  S15  1  0.247811  0.867775  0.093574  1
  S  S16  1  0.405898  0.728330  0.620362  1
  S  S17  1  0.593227  0.270561  0.380146  1
  S  S18  1  0.752589  0.133340  0.906973  1
  S  S19  1  0.715525  0.548384  0.624742  1
  Br  Br20  1  0.074500  0.567595  0.129813  1
  Br  Br21  1  0.175109  0.124046  0.260992  1
  Br  Br22  1  0.091603  0.736946  0.494361  1
  Br  Br23  1  0.227868  0.431921  0.645205  1
  Br  Br24  1  0.221075  0.218626  0.991189  1
  Br  Br25  1  0.307096  0.117140  0.513568  1
  Br  Br26  1  0.418067  0.772794  0.350630  1
  Br  Br27  1  0.578187  0.046054  0.149176  1
  Br  Br28  1  0.469213  0.481590  0.835009  1
  Br  Br29  1  0.529554  0.517287  0.165075  1
  Br  Br30  1  0.416837  0.950988  0.841144  1
  Br  Br31  1  0.581001  0.225796  0.649501  1
  Br  Br32  1  0.690881  0.882844  0.486251  1
  Br  Br33  1  0.777022  0.784232  0.013388  1
  Br  Br34  1  0.771514  0.566590  0.354834  1
  Br  Br35  1  0.863043  0.253142  0.119545  1
  Br  Br36  1  0.907653  0.262403  0.505926  1
  Br  Br37  1  0.841547  0.874524  0.733360  1
  Br  Br38  1  0.924530  0.895698  0.235420  1
  Br  Br39  1  0.935185  0.426895  0.855104  1
