# generated using pymatgen
data_Nd4BeZnSi6
_symmetry_space_group_name_H-M   'P 1'
_cell_length_a   8.08002900
_cell_length_b   8.08002929
_cell_length_c   8.54194300
_cell_angle_alpha   90.00000000
_cell_angle_beta   90.00000000
_cell_angle_gamma   119.99999472
_symmetry_Int_Tables_number   1
_chemical_formula_structural   Nd4BeZnSi6
_chemical_formula_sum   'Nd8 Be2 Zn2 Si12'
_cell_volume   482.96224144
_cell_formula_units_Z   2
loop_
 _symmetry_equiv_pos_site_id
 _symmetry_equiv_pos_as_xyz
  1  'x, y, z'
loop_
 _atom_site_type_symbol
 _atom_site_label
 _atom_site_symmetry_multiplicity
 _atom_site_fract_x
 _atom_site_fract_y
 _atom_site_fract_z
 _atom_site_occupancy
  Nd  Nd0  1  0.000000  0.000000  0.750000  1
  Nd  Nd1  1  0.000000  0.000000  0.250000  1
  Nd  Nd2  1  0.496685  0.503315  0.750000  1
  Nd  Nd3  1  0.496685  0.993371  0.750000  1
  Nd  Nd4  1  0.006629  0.503315  0.750000  1
  Nd  Nd5  1  0.497699  0.502301  0.250000  1
  Nd  Nd6  1  0.004604  0.502301  0.250000  1
  Nd  Nd7  1  0.497699  0.995396  0.250000  1
  Be  Be8  1  0.333333  0.666667  0.497622  1
  Be  Be9  1  0.333333  0.666667  0.002378  1
  Zn  Zn10  1  0.666667  0.333333  0.997270  1
  Zn  Zn11  1  0.666667  0.333333  0.502730  1
  Si  Si12  1  0.835723  0.164277  0.999660  1
  Si  Si13  1  0.835723  0.671447  0.999660  1
  Si  Si14  1  0.328553  0.164277  0.999660  1
  Si  Si15  1  0.835723  0.164277  0.500340  1
  Si  Si16  1  0.835723  0.671447  0.500340  1
  Si  Si17  1  0.328553  0.164277  0.500340  1
  Si  Si18  1  0.173698  0.826302  0.499462  1
  Si  Si19  1  0.652605  0.826302  0.499462  1
  Si  Si20  1  0.173698  0.347395  0.499462  1
  Si  Si21  1  0.173698  0.826302  0.000538  1
  Si  Si22  1  0.652605  0.826302  0.000538  1
  Si  Si23  1  0.173698  0.347395  0.000538  1
