# generated using pymatgen
data_In2P4PbO14
_symmetry_space_group_name_H-M   'P 1'
_cell_length_a   5.02487966
_cell_length_b   7.34186282
_cell_length_c   8.36011984
_cell_angle_alpha   89.69686925
_cell_angle_beta   92.56477078
_cell_angle_gamma   106.14741260
_symmetry_Int_Tables_number   1
_chemical_formula_structural   In2P4PbO14
_chemical_formula_sum   'In2 P4 Pb1 O14'
_cell_volume   295.94893437
_cell_formula_units_Z   1
loop_
 _symmetry_equiv_pos_site_id
 _symmetry_equiv_pos_as_xyz
  1  'x, y, z'
loop_
 _atom_site_type_symbol
 _atom_site_label
 _atom_site_symmetry_multiplicity
 _atom_site_fract_x
 _atom_site_fract_y
 _atom_site_fract_z
 _atom_site_occupancy
  In  In0  1  0.000000  0.500000  0.500000  1
  In  In1  1  0.500000  0.000000  0.000000  1
  P  P2  1  0.380685  0.277102  0.288159  1
  P  P3  1  0.619315  0.722898  0.711841  1
  P  P4  1  0.018970  0.111187  0.751350  1
  P  P5  1  0.981030  0.888813  0.248650  1
  Pb  Pb6  1  0.000000  0.500000  0.000000  1
  O  O7  1  0.276942  0.048011  0.791496  1
  O  O8  1  0.723058  0.951989  0.208504  1
  O  O9  1  0.113746  0.838847  0.094944  1
  O  O10  1  0.886254  0.161153  0.905056  1
  O  O11  1  0.212059  0.062021  0.333789  1
  O  O12  1  0.787941  0.937979  0.666211  1
  O  O13  1  0.174374  0.400039  0.282813  1
  O  O14  1  0.825626  0.599961  0.717187  1
  O  O15  1  0.602467  0.330497  0.419839  1
  O  O16  1  0.397533  0.669503  0.580161  1
  O  O17  1  0.076216  0.276845  0.638666  1
  O  O18  1  0.923784  0.723155  0.361334  1
  O  O19  1  0.488246  0.272274  0.116248  1
  O  O20  1  0.511754  0.727726  0.883752  1
