# generated using pymatgen
data_Sm2Al9PtRh2
_symmetry_space_group_name_H-M   'P 1'
_cell_length_a   7.66341100
_cell_length_b   7.66341182
_cell_length_c   9.62342200
_cell_angle_alpha   90.00000000
_cell_angle_beta   90.00000000
_cell_angle_gamma   119.52275346
_symmetry_Int_Tables_number   1
_chemical_formula_structural   Sm2Al9PtRh2
_chemical_formula_sum   'Sm4 Al18 Pt2 Rh4'
_cell_volume   491.78238162
_cell_formula_units_Z   2
loop_
 _symmetry_equiv_pos_site_id
 _symmetry_equiv_pos_as_xyz
  1  'x, y, z'
loop_
 _atom_site_type_symbol
 _atom_site_label
 _atom_site_symmetry_multiplicity
 _atom_site_fract_x
 _atom_site_fract_y
 _atom_site_fract_z
 _atom_site_occupancy
  Sm  Sm0  1  0.995648  0.672829  0.750000  1
  Sm  Sm1  1  0.004352  0.327171  0.250000  1
  Sm  Sm2  1  0.672829  0.995648  0.750000  1
  Sm  Sm3  1  0.327171  0.004352  0.250000  1
  Al  Al4  1  0.134908  0.134908  0.750000  1
  Al  Al5  1  0.865092  0.865092  0.250000  1
  Al  Al6  1  0.001459  0.339052  0.574357  1
  Al  Al7  1  0.998541  0.660948  0.425643  1
  Al  Al8  1  0.998541  0.660948  0.074357  1
  Al  Al9  1  0.339052  0.001459  0.925643  1
  Al  Al10  1  0.001459  0.339052  0.925643  1
  Al  Al11  1  0.660948  0.998541  0.074357  1
  Al  Al12  1  0.660948  0.998541  0.425643  1
  Al  Al13  1  0.339052  0.001459  0.574357  1
  Al  Al14  1  0.337171  0.337171  0.049754  1
  Al  Al15  1  0.662829  0.662829  0.950246  1
  Al  Al16  1  0.662829  0.662829  0.549754  1
  Al  Al17  1  0.337171  0.337171  0.450246  1
  Al  Al18  1  0.340035  0.549714  0.750000  1
  Al  Al19  1  0.659965  0.450286  0.250000  1
  Al  Al20  1  0.549714  0.340035  0.750000  1
  Al  Al21  1  0.450286  0.659965  0.250000  1
  Pt  Pt22  1  0.000000  0.000000  0.500000  1
  Pt  Pt23  1  0.000000  0.000000  0.000000  1
  Rh  Rh24  1  0.671074  0.328926  0.500000  1
  Rh  Rh25  1  0.328926  0.671074  0.500000  1
  Rh  Rh26  1  0.328926  0.671074  0.000000  1
  Rh  Rh27  1  0.671074  0.328926  0.000000  1
