# generated using pymatgen
data_Ba2SnHg3(Pd3O7)2
_symmetry_space_group_name_H-M   'P 1'
_cell_length_a   6.33241719
_cell_length_b   6.33241616
_cell_length_c   11.10944415
_cell_angle_alpha   90.47261332
_cell_angle_beta   90.47261449
_cell_angle_gamma   61.40550285
_symmetry_Int_Tables_number   1
_chemical_formula_structural   Ba2SnHg3(Pd3O7)2
_chemical_formula_sum   'Ba2 Sn1 Hg3 Pd6 O14'
_cell_volume   391.12911517
_cell_formula_units_Z   1
loop_
 _symmetry_equiv_pos_site_id
 _symmetry_equiv_pos_as_xyz
  1  'x, y, z'
loop_
 _atom_site_type_symbol
 _atom_site_label
 _atom_site_symmetry_multiplicity
 _atom_site_fract_x
 _atom_site_fract_y
 _atom_site_fract_z
 _atom_site_occupancy
  Ba  Ba0  1  0.505220  0.505220  0.295420  1
  Ba  Ba1  1  0.487994  0.487994  0.705785  1
  Sn  Sn2  1  0.831069  0.831069  0.227543  1
  Hg  Hg3  1  0.176091  0.176091  0.193040  1
  Hg  Hg4  1  0.005265  0.005265  0.502401  1
  Hg  Hg5  1  0.820584  0.820584  0.801899  1
  Pd  Pd6  1  0.999694  0.999694  0.998227  1
  Pd  Pd7  1  0.500133  0.999278  0.998307  1
  Pd  Pd8  1  0.999278  0.500133  0.998307  1
  Pd  Pd9  1  0.496742  0.999953  0.502678  1
  Pd  Pd10  1  0.999953  0.496742  0.502678  1
  Pd  Pd11  1  0.168893  0.168893  0.778650  1
  O  O12  1  0.687245  0.687245  0.093639  1
  O  O13  1  0.693349  0.120639  0.099451  1
  O  O14  1  0.120639  0.693349  0.099451  1
  O  O15  1  0.997439  0.997439  0.315900  1
  O  O16  1  0.981429  0.511056  0.316746  1
  O  O17  1  0.511056  0.981429  0.316746  1
  O  O18  1  0.359554  0.359554  0.492786  1
  O  O19  1  0.638487  0.638487  0.510225  1
  O  O20  1  0.481855  0.033234  0.685045  1
  O  O21  1  0.033234  0.481855  0.685045  1
  O  O22  1  0.007653  0.007653  0.687225  1
  O  O23  1  0.881279  0.304972  0.895723  1
  O  O24  1  0.304972  0.881279  0.895723  1
  O  O25  1  0.310893  0.310893  0.901357  1
