# generated using pymatgen
data_Nd2Si2Pb
_symmetry_space_group_name_H-M   'P 1'
_cell_length_a   7.78211483
_cell_length_b   7.78211531
_cell_length_c   4.24919200
_cell_angle_alpha   90.00000000
_cell_angle_beta   90.00000000
_cell_angle_gamma   150.61467804
_symmetry_Int_Tables_number   1
_chemical_formula_structural   Nd2Si2Pb
_chemical_formula_sum   'Nd2 Si2 Pb1'
_cell_volume   126.27009138
_cell_formula_units_Z   1
loop_
 _symmetry_equiv_pos_site_id
 _symmetry_equiv_pos_as_xyz
  1  'x, y, z'
loop_
 _atom_site_type_symbol
 _atom_site_label
 _atom_site_symmetry_multiplicity
 _atom_site_fract_x
 _atom_site_fract_y
 _atom_site_fract_z
 _atom_site_occupancy
  Nd  Nd0  1  0.361662  0.638338  0.500000  1
  Nd  Nd1  1  0.638338  0.361662  0.500000  1
  Si  Si2  1  0.204113  0.795887  0.000000  1
  Si  Si3  1  0.795887  0.204113  0.000000  1
  Pb  Pb4  1  0.000000  0.000000  0.000000  1
