# generated using pymatgen
data_Mg3(NbTc12)2
_symmetry_space_group_name_H-M   'P 1'
_cell_length_a   8.34832889
_cell_length_b   8.34833030
_cell_length_c   8.32769576
_cell_angle_alpha   109.48759499
_cell_angle_beta   109.48758511
_cell_angle_gamma   109.53871304
_symmetry_Int_Tables_number   1
_chemical_formula_structural   Mg3(NbTc12)2
_chemical_formula_sum   'Mg3 Nb2 Tc24'
_cell_volume   446.23503479
_cell_formula_units_Z   1
loop_
 _symmetry_equiv_pos_site_id
 _symmetry_equiv_pos_as_xyz
  1  'x, y, z'
loop_
 _atom_site_type_symbol
 _atom_site_label
 _atom_site_symmetry_multiplicity
 _atom_site_fract_x
 _atom_site_fract_y
 _atom_site_fract_z
 _atom_site_occupancy
  Mg  Mg0  1  0.998813  0.998813  0.000000  1
  Mg  Mg1  1  0.636369  0.000120  0.000000  1
  Mg  Mg2  1  0.000120  0.636369  0.000000  1
  Nb  Nb3  1  0.001177  0.001177  0.634951  1
  Nb  Nb4  1  0.366227  0.366227  0.365049  1
  Tc  Tc5  1  0.393103  0.673508  0.000000  1
  Tc  Tc6  1  0.719831  0.324295  0.328940  1
  Tc  Tc7  1  0.390891  0.995356  0.671060  1
  Tc  Tc8  1  0.673508  0.393103  0.000000  1
  Tc  Tc9  1  0.995356  0.390891  0.671060  1
  Tc  Tc10  1  0.324295  0.719831  0.328940  1
  Tc  Tc11  1  0.319496  0.319496  0.715295  1
  Tc  Tc12  1  0.995632  0.677892  0.393261  1
  Tc  Tc13  1  0.677892  0.995632  0.393261  1
  Tc  Tc14  1  0.604201  0.604201  0.284705  1
  Tc  Tc15  1  0.284632  0.602371  0.606739  1
  Tc  Tc16  1  0.602371  0.284632  0.606739  1
  Tc  Tc17  1  0.374807  0.195252  0.000000  1
  Tc  Tc18  1  0.185276  0.807562  0.808879  1
  Tc  Tc19  1  0.376397  0.998681  0.191121  1
  Tc  Tc20  1  0.195252  0.374807  0.000000  1
  Tc  Tc21  1  0.998681  0.376397  0.191121  1
  Tc  Tc22  1  0.807562  0.185276  0.808879  1
  Tc  Tc23  1  0.809230  0.809230  0.183137  1
  Tc  Tc24  1  0.999473  0.194638  0.372718  1
  Tc  Tc25  1  0.194638  0.999473  0.372718  1
  Tc  Tc26  1  0.626095  0.626095  0.816863  1
  Tc  Tc27  1  0.821920  0.626756  0.627282  1
  Tc  Tc28  1  0.626756  0.821920  0.627282  1
