# generated using pymatgen
data_MgAl2Pd7
_symmetry_space_group_name_H-M   'P 1'
_cell_length_a   7.29739507
_cell_length_b   7.29739518
_cell_length_c   5.49821855
_cell_angle_alpha   106.61474546
_cell_angle_beta   106.61474798
_cell_angle_gamma   32.76610931
_symmetry_Int_Tables_number   1
_chemical_formula_structural   MgAl2Pd7
_chemical_formula_sum   'Mg1 Al2 Pd7'
_cell_volume   151.26033370
_cell_formula_units_Z   1
loop_
 _symmetry_equiv_pos_site_id
 _symmetry_equiv_pos_as_xyz
  1  'x, y, z'
loop_
 _atom_site_type_symbol
 _atom_site_label
 _atom_site_symmetry_multiplicity
 _atom_site_fract_x
 _atom_site_fract_y
 _atom_site_fract_z
 _atom_site_occupancy
  Mg  Mg0  1  0.000000  0.000000  0.000000  1
  Al  Al1  1  0.809741  0.809741  0.346997  1
  Al  Al2  1  0.190259  0.190259  0.653003  1
  Pd  Pd3  1  0.209865  0.209865  0.143991  1
  Pd  Pd4  1  0.409483  0.409483  0.157289  1
  Pd  Pd5  1  0.621955  0.621955  0.367499  1
  Pd  Pd6  1  0.000000  0.000000  0.500000  1
  Pd  Pd7  1  0.378045  0.378045  0.632501  1
  Pd  Pd8  1  0.590516  0.590516  0.842711  1
  Pd  Pd9  1  0.790135  0.790135  0.856009  1
