# generated using pymatgen
data_Ca5Yb5SnBi5
_symmetry_space_group_name_H-M   'P 1'
_cell_length_a   9.28795054
_cell_length_b   9.31716768
_cell_length_c   7.03067200
_cell_angle_alpha   90.00000000
_cell_angle_beta   90.00000000
_cell_angle_gamma   120.10411804
_symmetry_Int_Tables_number   1
_chemical_formula_structural   Ca5Yb5SnBi5
_chemical_formula_sum   'Ca5 Yb5 Sn1 Bi5'
_cell_volume   526.35005484
_cell_formula_units_Z   1
loop_
 _symmetry_equiv_pos_site_id
 _symmetry_equiv_pos_as_xyz
  1  'x, y, z'
loop_
 _atom_site_type_symbol
 _atom_site_label
 _atom_site_symmetry_multiplicity
 _atom_site_fract_x
 _atom_site_fract_y
 _atom_site_fract_z
 _atom_site_occupancy
  Ca  Ca0  1  0.262312  0.000606  0.250000  1
  Ca  Ca1  1  0.739380  0.006811  0.750000  1
  Ca  Ca2  1  0.000000  0.261583  0.250000  1
  Ca  Ca3  1  0.737688  0.738294  0.250000  1
  Ca  Ca4  1  0.260620  0.267432  0.750000  1
  Yb  Yb5  1  0.327708  0.661809  0.997228  1
  Yb  Yb6  1  0.672292  0.334100  0.502772  1
  Yb  Yb7  1  0.672292  0.334100  0.997228  1
  Yb  Yb8  1  0.327708  0.661809  0.502772  1
  Yb  Yb9  1  0.000000  0.727158  0.750000  1
  Sn  Sn10  1  0.000000  0.383882  0.750000  1
  Bi  Bi11  1  0.613169  0.997804  0.250000  1
  Bi  Bi12  1  0.380124  0.001618  0.750000  1
  Bi  Bi13  1  0.000000  0.616863  0.250000  1
  Bi  Bi14  1  0.386831  0.384635  0.250000  1
  Bi  Bi15  1  0.619876  0.621494  0.750000  1
