# generated using pymatgen
data_MgAl2Pt5
_symmetry_space_group_name_H-M   'P 1'
_cell_length_a   4.06075400
_cell_length_b   5.49726003
_cell_length_c   10.83919127
_cell_angle_alpha   89.57619053
_cell_angle_beta   90.00000000
_cell_angle_gamma   90.00000000
_symmetry_Int_Tables_number   1
_chemical_formula_structural   MgAl2Pt5
_chemical_formula_sum   'Mg2 Al4 Pt10'
_cell_volume   241.95687101
_cell_formula_units_Z   2
loop_
 _symmetry_equiv_pos_site_id
 _symmetry_equiv_pos_as_xyz
  1  'x, y, z'
loop_
 _atom_site_type_symbol
 _atom_site_label
 _atom_site_symmetry_multiplicity
 _atom_site_fract_x
 _atom_site_fract_y
 _atom_site_fract_z
 _atom_site_occupancy
  Mg  Mg0  1  0.500000  0.183892  0.637592  1
  Mg  Mg1  1  0.500000  0.816108  0.362408  1
  Al  Al2  1  0.500000  0.679501  0.856750  1
  Al  Al3  1  0.500000  0.320499  0.143250  1
  Al  Al4  1  0.000000  0.500000  0.500000  1
  Al  Al5  1  0.000000  0.000000  0.000000  1
  Pt  Pt6  1  0.500000  0.306618  0.387957  1
  Pt  Pt7  1  0.500000  0.693382  0.612043  1
  Pt  Pt8  1  0.500000  0.798074  0.102060  1
  Pt  Pt9  1  0.500000  0.201926  0.897940  1
  Pt  Pt10  1  0.000000  0.435656  0.742693  1
  Pt  Pt11  1  0.000000  0.564344  0.257307  1
  Pt  Pt12  1  0.000000  0.933121  0.767229  1
  Pt  Pt13  1  0.000000  0.066879  0.232771  1
  Pt  Pt14  1  0.000000  0.500000  0.000000  1
  Pt  Pt15  1  0.000000  0.000000  0.500000  1
