# generated using pymatgen
data_Hf9Ta3FeRe
_symmetry_space_group_name_H-M   'P 1'
_cell_length_a   8.43588700
_cell_length_b   8.82096627
_cell_length_c   8.82096608
_cell_angle_alpha   119.99708158
_cell_angle_beta   90.00000000
_cell_angle_gamma   90.00000000
_symmetry_Int_Tables_number   1
_chemical_formula_structural   Hf9Ta3FeRe
_chemical_formula_sum   'Hf18 Ta6 Fe2 Re2'
_cell_volume   568.46858484
_cell_formula_units_Z   2
loop_
 _symmetry_equiv_pos_site_id
 _symmetry_equiv_pos_as_xyz
  1  'x, y, z'
loop_
 _atom_site_type_symbol
 _atom_site_label
 _atom_site_symmetry_multiplicity
 _atom_site_fract_x
 _atom_site_fract_y
 _atom_site_fract_z
 _atom_site_occupancy
  Hf  Hf0  1  0.559752  0.796823  0.593665  1
  Hf  Hf1  1  0.559775  0.796816  0.203184  1
  Hf  Hf2  1  0.559752  0.406335  0.203177  1
  Hf  Hf3  1  0.440248  0.203177  0.406335  1
  Hf  Hf4  1  0.440225  0.203184  0.796816  1
  Hf  Hf5  1  0.440248  0.593665  0.796823  1
  Hf  Hf6  1  0.059752  0.203177  0.406335  1
  Hf  Hf7  1  0.059775  0.203184  0.796816  1
  Hf  Hf8  1  0.059752  0.593665  0.796823  1
  Hf  Hf9  1  0.940248  0.796823  0.593665  1
  Hf  Hf10  1  0.940225  0.796816  0.203184  1
  Hf  Hf11  1  0.940248  0.406335  0.203177  1
  Hf  Hf12  1  0.750000  0.460000  0.920023  1
  Hf  Hf13  1  0.750000  0.459987  0.540013  1
  Hf  Hf14  1  0.750000  0.079977  0.539999  1
  Hf  Hf15  1  0.250000  0.539999  0.079977  1
  Hf  Hf16  1  0.250000  0.540013  0.459987  1
  Hf  Hf17  1  0.250000  0.920023  0.460000  1
  Ta  Ta18  1  0.750000  0.111666  0.223353  1
  Ta  Ta19  1  0.750000  0.111668  0.888332  1
  Ta  Ta20  1  0.750000  0.776647  0.888334  1
  Ta  Ta21  1  0.250000  0.888334  0.776647  1
  Ta  Ta22  1  0.250000  0.888332  0.111668  1
  Ta  Ta23  1  0.250000  0.223353  0.111666  1
  Fe  Fe24  1  0.750000  0.666634  0.333366  1
  Fe  Fe25  1  0.250000  0.333366  0.666634  1
  Re  Re26  1  0.500000  0.000000  0.000000  1
  Re  Re27  1  0.000000  0.000000  0.000000  1
