# generated using pymatgen
data_Tb5Tm5(InSb2)2
_symmetry_space_group_name_H-M   'P 1'
_cell_length_a   6.35493600
_cell_length_b   8.92741735
_cell_length_c   8.96998800
_cell_angle_alpha   120.18419909
_cell_angle_beta   89.99971149
_cell_angle_gamma   90.00007446
_symmetry_Int_Tables_number   1
_chemical_formula_structural   Tb5Tm5(InSb2)2
_chemical_formula_sum   'Tb5 Tm5 In2 Sb4'
_cell_volume   439.89641021
_cell_formula_units_Z   1
loop_
 _symmetry_equiv_pos_site_id
 _symmetry_equiv_pos_as_xyz
  1  'x, y, z'
loop_
 _atom_site_type_symbol
 _atom_site_label
 _atom_site_symmetry_multiplicity
 _atom_site_fract_x
 _atom_site_fract_y
 _atom_site_fract_z
 _atom_site_occupancy
  Tb  Tb0  1  0.750043  0.239892  0.995209  1
  Tb  Tb1  1  0.749967  0.760059  0.755158  1
  Tb  Tb2  1  0.750000  0.000119  0.242623  1
  Tb  Tb3  1  0.249991  0.759228  0.004389  1
  Tb  Tb4  1  0.249988  0.240691  0.245338  1
  Tm  Tm5  1  0.499552  0.332120  0.665971  1
  Tm  Tm6  1  0.499631  0.667853  0.333739  1
  Tm  Tm7  1  0.000330  0.667868  0.333746  1
  Tm  Tm8  1  0.000425  0.332141  0.665983  1
  Tm  Tm9  1  0.249970  0.999949  0.757282  1
  In  In10  1  0.750082  0.000018  0.602447  1
  In  In11  1  0.250103  0.000105  0.399166  1
  Sb  Sb12  1  0.749980  0.606736  0.998275  1
  Sb  Sb13  1  0.749980  0.393397  0.391695  1
  Sb  Sb14  1  0.249977  0.390971  0.000033  1
  Sb  Sb15  1  0.249982  0.608855  0.608943  1
