# generated using pymatgen
data_Y4HoP12Ru17Pt2
_symmetry_space_group_name_H-M   'P 1'
_cell_length_a   12.63058700
_cell_length_b   12.54696123
_cell_length_c   3.98882200
_cell_angle_alpha   90.00000000
_cell_angle_beta   90.00000000
_cell_angle_gamma   120.21934397
_symmetry_Int_Tables_number   1
_chemical_formula_structural   Y4HoP12Ru17Pt2
_chemical_formula_sum   'Y4 Ho1 P12 Ru17 Pt2'
_cell_volume   546.22708086
_cell_formula_units_Z   1
loop_
 _symmetry_equiv_pos_site_id
 _symmetry_equiv_pos_as_xyz
  1  'x, y, z'
loop_
 _atom_site_type_symbol
 _atom_site_label
 _atom_site_symmetry_multiplicity
 _atom_site_fract_x
 _atom_site_fract_y
 _atom_site_fract_z
 _atom_site_occupancy
  Y  Y0  1  0.001600  0.182825  0.500000  1
  Y  Y1  1  0.818781  0.817180  0.500000  1
  Y  Y2  1  0.183511  0.000003  0.500000  1
  Y  Y3  1  0.664064  0.327013  0.000000  1
  Ho  Ho4  1  0.337084  0.673006  0.000000  1
  P  P5  1  0.997487  0.812146  0.000000  1
  P  P6  1  0.185331  0.187856  0.000000  1
  P  P7  1  0.818601  0.000005  0.000000  1
  P  P8  1  0.692769  0.169272  0.500000  1
  P  P9  1  0.816651  0.516062  0.500000  1
  P  P10  1  0.477434  0.299157  0.500000  1
  P  P11  1  0.178423  0.700794  0.500000  1
  P  P12  1  0.523306  0.830579  0.500000  1
  P  P13  1  0.300632  0.484136  0.500000  1
  P  P14  1  0.000255  0.364874  0.000000  1
  P  P15  1  0.635391  0.635109  0.000000  1
  P  P16  1  0.373146  0.000014  0.000000  1
  Ru  Ru17  1  0.555172  0.999984  0.000000  1
  Ru  Ru18  1  0.997192  0.709199  0.500000  1
  Ru  Ru19  1  0.287978  0.290824  0.500000  1
  Ru  Ru20  1  0.718929  0.999973  0.500000  1
  Ru  Ru21  1  0.808963  0.184389  0.000000  1
  Ru  Ru22  1  0.812816  0.617920  0.000000  1
  Ru  Ru23  1  0.375922  0.192789  0.000000  1
  Ru  Ru24  1  0.183209  0.807156  0.000000  1
  Ru  Ru25  1  0.624440  0.815532  0.000000  1
  Ru  Ru26  1  0.194954  0.382207  0.000000  1
  Ru  Ru27  1  0.870250  0.364758  0.500000  1
  Ru  Ru28  1  0.628743  0.505714  0.500000  1
  Ru  Ru29  1  0.491510  0.123792  0.500000  1
  Ru  Ru30  1  0.367689  0.875966  0.500000  1
  Ru  Ru31  1  0.505289  0.635290  0.500000  1
  Ru  Ru32  1  0.123222  0.494467  0.500000  1
  Ru  Ru33  1  0.003051  0.999990  0.000000  1
  Pt  Pt34  1  0.997786  0.549353  0.000000  1
  Pt  Pt35  1  0.448419  0.450664  0.000000  1
