# generated using pymatgen
data_HoTh2AlC3
_symmetry_space_group_name_H-M   'P 1'
_cell_length_a   3.62934000
_cell_length_b   7.52046461
_cell_length_c   9.90043692
_cell_angle_alpha   88.58022831
_cell_angle_beta   90.00000000
_cell_angle_gamma   90.00000000
_symmetry_Int_Tables_number   1
_chemical_formula_structural   HoTh2AlC3
_chemical_formula_sum   'Ho2 Th4 Al2 C6'
_cell_volume   270.14276391
_cell_formula_units_Z   2
loop_
 _symmetry_equiv_pos_site_id
 _symmetry_equiv_pos_as_xyz
  1  'x, y, z'
loop_
 _atom_site_type_symbol
 _atom_site_label
 _atom_site_symmetry_multiplicity
 _atom_site_fract_x
 _atom_site_fract_y
 _atom_site_fract_z
 _atom_site_occupancy
  Ho  Ho0  1  0.500000  0.983140  0.199095  1
  Ho  Ho1  1  0.500000  0.016860  0.800905  1
  Th  Th2  1  0.500000  0.514929  0.191134  1
  Th  Th3  1  0.500000  0.485071  0.808866  1
  Th  Th4  1  0.000000  0.749068  0.472891  1
  Th  Th5  1  0.000000  0.250932  0.527109  1
  Al  Al6  1  0.000000  0.777663  0.999940  1
  Al  Al7  1  0.000000  0.222337  0.000060  1
  C  C8  1  0.500000  0.508707  0.570039  1
  C  C9  1  0.500000  0.491293  0.429961  1
  C  C10  1  0.500000  0.996677  0.568698  1
  C  C11  1  0.500000  0.003323  0.431302  1
  C  C12  1  0.000000  0.750615  0.208066  1
  C  C13  1  0.000000  0.249385  0.791934  1
