# generated using pymatgen
data_LiLa6Zn3IrPd12
_symmetry_space_group_name_H-M   'P 1'
_cell_length_a   8.45354473
_cell_length_b   8.45354548
_cell_length_c   8.45354602
_cell_angle_alpha   109.46704729
_cell_angle_beta   109.46704630
_cell_angle_gamma   109.46705532
_symmetry_Int_Tables_number   1
_chemical_formula_structural   LiLa6Zn3IrPd12
_chemical_formula_sum   'Li1 La6 Zn3 Ir1 Pd12'
_cell_volume   465.11658713
_cell_formula_units_Z   1
loop_
 _symmetry_equiv_pos_site_id
 _symmetry_equiv_pos_as_xyz
  1  'x, y, z'
loop_
 _atom_site_type_symbol
 _atom_site_label
 _atom_site_symmetry_multiplicity
 _atom_site_fract_x
 _atom_site_fract_y
 _atom_site_fract_z
 _atom_site_occupancy
  Li  Li0  1  0.500000  0.500000  0.500000  1
  La  La1  1  0.701151  0.701151  0.001351  1
  La  La2  1  0.298849  0.998649  0.298849  1
  La  La3  1  0.998649  0.298849  0.298849  1
  La  La4  1  0.298849  0.298849  0.998649  1
  La  La5  1  0.701151  0.001351  0.701151  1
  La  La6  1  0.001351  0.701151  0.701151  1
  Zn  Zn7  1  0.000000  0.000000  0.500000  1
  Zn  Zn8  1  0.000000  0.500000  0.000000  1
  Zn  Zn9  1  0.500000  0.000000  0.000000  1
  Ir  Ir10  1  0.000000  0.000000  0.000000  1
  Pd  Pd11  1  0.331426  0.331426  0.663016  1
  Pd  Pd12  1  0.669031  0.000000  0.330969  1
  Pd  Pd13  1  0.000000  0.669031  0.330969  1
  Pd  Pd14  1  0.669031  0.330969  0.000000  1
  Pd  Pd15  1  0.331426  0.663016  0.331426  1
  Pd  Pd16  1  0.000000  0.330969  0.669031  1
  Pd  Pd17  1  0.330969  0.669031  0.000000  1
  Pd  Pd18  1  0.330969  0.000000  0.669031  1
  Pd  Pd19  1  0.663016  0.331426  0.331426  1
  Pd  Pd20  1  0.668574  0.668574  0.336984  1
  Pd  Pd21  1  0.668574  0.336984  0.668574  1
  Pd  Pd22  1  0.336984  0.668574  0.668574  1
