# generated using pymatgen
data_PrY3(Si3Ir)2
_symmetry_space_group_name_H-M   'P 1'
_cell_length_a   8.21149200
_cell_length_b   8.21149315
_cell_length_c   8.10058300
_cell_angle_alpha   90.00000000
_cell_angle_beta   90.00000000
_cell_angle_gamma   119.99999538
_symmetry_Int_Tables_number   1
_chemical_formula_structural   PrY3(Si3Ir)2
_chemical_formula_sum   'Pr2 Y6 Si12 Ir4'
_cell_volume   473.03267082
_cell_formula_units_Z   2
loop_
 _symmetry_equiv_pos_site_id
 _symmetry_equiv_pos_as_xyz
  1  'x, y, z'
loop_
 _atom_site_type_symbol
 _atom_site_label
 _atom_site_symmetry_multiplicity
 _atom_site_fract_x
 _atom_site_fract_y
 _atom_site_fract_z
 _atom_site_occupancy
  Pr  Pr0  1  0.000000  0.000000  0.250000  1
  Pr  Pr1  1  0.000000  0.000000  0.750000  1
  Y  Y2  1  0.509273  0.490727  0.250000  1
  Y  Y3  1  0.509273  0.018545  0.250000  1
  Y  Y4  1  0.981455  0.490727  0.250000  1
  Y  Y5  1  0.490727  0.509273  0.750000  1
  Y  Y6  1  0.490727  0.981455  0.750000  1
  Y  Y7  1  0.018545  0.509273  0.750000  1
  Si  Si8  1  0.168410  0.831590  0.500001  1
  Si  Si9  1  0.168410  0.336818  0.500001  1
  Si  Si10  1  0.663182  0.831590  0.500001  1
  Si  Si11  1  0.831590  0.168410  0.499999  1
  Si  Si12  1  0.831590  0.663182  0.499999  1
  Si  Si13  1  0.336818  0.168410  0.499999  1
  Si  Si14  1  0.831590  0.168410  0.000001  1
  Si  Si15  1  0.831590  0.663182  0.000001  1
  Si  Si16  1  0.336818  0.168410  0.000001  1
  Si  Si17  1  0.168410  0.831590  0.999999  1
  Si  Si18  1  0.168410  0.336818  0.999999  1
  Si  Si19  1  0.663182  0.831590  0.999999  1
  Ir  Ir20  1  0.333333  0.666667  0.467113  1
  Ir  Ir21  1  0.666667  0.333333  0.532887  1
  Ir  Ir22  1  0.666667  0.333333  0.967113  1
  Ir  Ir23  1  0.333333  0.666667  0.032887  1
