# generated using pymatgen
data_Nd2Dy2Zn9GaSn2
_symmetry_space_group_name_H-M   'P 1'
_cell_length_a   8.45786655
_cell_length_b   8.45786780
_cell_length_c   9.08043209
_cell_angle_alpha   90.33706933
_cell_angle_beta   89.66295202
_cell_angle_gamma   149.79632032
_symmetry_Int_Tables_number   1
_chemical_formula_structural   Nd2Dy2Zn9GaSn2
_chemical_formula_sum   'Nd2 Dy2 Zn9 Ga1 Sn2'
_cell_volume   326.77836803
_cell_formula_units_Z   1
loop_
 _symmetry_equiv_pos_site_id
 _symmetry_equiv_pos_as_xyz
  1  'x, y, z'
loop_
 _atom_site_type_symbol
 _atom_site_label
 _atom_site_symmetry_multiplicity
 _atom_site_fract_x
 _atom_site_fract_y
 _atom_site_fract_z
 _atom_site_occupancy
  Nd  Nd0  1  0.000198  0.999802  0.500580  1
  Nd  Nd1  1  0.000866  0.999134  0.998078  1
  Dy  Dy2  1  0.203506  0.796494  0.249361  1
  Dy  Dy3  1  0.796400  0.203600  0.751142  1
  Zn  Zn4  1  0.186629  0.813371  0.611262  1
  Zn  Zn5  1  0.812335  0.187665  0.106615  1
  Zn  Zn6  1  0.187360  0.812640  0.891077  1
  Zn  Zn7  1  0.656886  0.343114  0.482155  1
  Zn  Zn8  1  0.342229  0.657771  0.520337  1
  Zn  Zn9  1  0.658155  0.341845  0.017371  1
  Zn  Zn10  1  0.341853  0.658147  0.982342  1
  Zn  Zn11  1  0.394281  0.605719  0.247776  1
  Zn  Zn12  1  0.607212  0.392788  0.750492  1
  Ga  Ga13  1  0.811489  0.188511  0.390956  1
  Sn  Sn14  1  0.556122  0.443878  0.249857  1
  Sn  Sn15  1  0.444480  0.555520  0.750601  1
