# generated using pymatgen
data_Li8In3GePt4
_symmetry_space_group_name_H-M   'P 1'
_cell_length_a   6.29303004
_cell_length_b   6.29273450
_cell_length_c   6.29231631
_cell_angle_alpha   90.06366324
_cell_angle_beta   89.95769442
_cell_angle_gamma   90.04631156
_symmetry_Int_Tables_number   1
_chemical_formula_structural   Li8In3GePt4
_chemical_formula_sum   'Li8 In3 Ge1 Pt4'
_cell_volume   249.17773365
_cell_formula_units_Z   1
loop_
 _symmetry_equiv_pos_site_id
 _symmetry_equiv_pos_as_xyz
  1  'x, y, z'
loop_
 _atom_site_type_symbol
 _atom_site_label
 _atom_site_symmetry_multiplicity
 _atom_site_fract_x
 _atom_site_fract_y
 _atom_site_fract_z
 _atom_site_occupancy
  Li  Li0  1  0.259359  0.740665  0.259340  1
  Li  Li1  1  0.740199  0.259807  0.259560  1
  Li  Li2  1  0.259524  0.259751  0.740263  1
  Li  Li3  1  0.999945  0.000032  0.999984  1
  Li  Li4  1  0.000200  0.499820  0.500173  1
  Li  Li5  1  0.740206  0.740450  0.740214  1
  Li  Li6  1  0.500184  0.999860  0.500181  1
  Li  Li7  1  0.500188  0.499823  0.000139  1
  In  In8  1  0.999717  0.000295  0.500133  1
  In  In9  1  0.999767  0.499789  0.999715  1
  In  In10  1  0.500173  0.000191  0.999771  1
  Ge  Ge11  1  0.499831  0.500044  0.499961  1
  Pt  Pt12  1  0.265003  0.264517  0.264953  1
  Pt  Pt13  1  0.735155  0.264890  0.735133  1
  Pt  Pt14  1  0.735542  0.735025  0.264968  1
  Pt  Pt15  1  0.265010  0.735044  0.735509  1
