# generated using pymatgen
data_Ta2Nb3Mo6W
_symmetry_space_group_name_H-M   'P 1'
_cell_length_a   4.54699300
_cell_length_b   6.44655100
_cell_length_c   13.76471200
_cell_angle_alpha   90.00000000
_cell_angle_beta   90.00017146
_cell_angle_gamma   90.00000000
_symmetry_Int_Tables_number   1
_chemical_formula_structural   Ta2Nb3Mo6W
_chemical_formula_sum   'Ta4 Nb6 Mo12 W2'
_cell_volume   403.47705058
_cell_formula_units_Z   2
loop_
 _symmetry_equiv_pos_site_id
 _symmetry_equiv_pos_as_xyz
  1  'x, y, z'
loop_
 _atom_site_type_symbol
 _atom_site_label
 _atom_site_symmetry_multiplicity
 _atom_site_fract_x
 _atom_site_fract_y
 _atom_site_fract_z
 _atom_site_occupancy
  Ta  Ta0  1  0.000000  0.500000  0.998980  1
  Ta  Ta1  1  0.499988  0.000000  0.166307  1
  Ta  Ta2  1  0.999989  0.500000  0.333704  1
  Ta  Ta3  1  0.500000  0.000000  0.501019  1
  Nb  Nb4  1  0.999999  0.000000  0.999392  1
  Nb  Nb5  1  0.499984  0.500000  0.166809  1
  Nb  Nb6  1  0.999987  0.000000  0.333214  1
  Nb  Nb7  1  0.499998  0.500000  0.500600  1
  Nb  Nb8  1  0.000014  0.000000  0.667142  1
  Nb  Nb9  1  0.500016  0.500000  0.832832  1
  Mo  Mo10  1  0.500001  0.247091  0.997530  1
  Mo  Mo11  1  0.500001  0.752910  0.997530  1
  Mo  Mo12  1  0.999988  0.251172  0.165988  1
  Mo  Mo13  1  0.999988  0.748829  0.165988  1
  Mo  Mo14  1  0.499989  0.248831  0.334020  1
  Mo  Mo15  1  0.499989  0.751168  0.334020  1
  Mo  Mo16  1  0.000000  0.252903  0.502471  1
  Mo  Mo17  1  0.000000  0.747097  0.502471  1
  Mo  Mo18  1  0.500012  0.250544  0.668413  1
  Mo  Mo19  1  0.500012  0.749455  0.668413  1
  Mo  Mo20  1  0.000012  0.249454  0.831582  1
  Mo  Mo21  1  0.000012  0.750547  0.831582  1
  W  W22  1  0.000011  0.500000  0.667320  1
  W  W23  1  0.500011  0.000000  0.832674  1
