# generated using pymatgen
data_Ba3(LuS3)2
_symmetry_space_group_name_H-M   'P 1'
_cell_length_a   8.46094669
_cell_length_b   8.46094634
_cell_length_c   8.46094576
_cell_angle_alpha   93.01211863
_cell_angle_beta   93.01211329
_cell_angle_gamma   93.01211846
_symmetry_Int_Tables_number   1
_chemical_formula_structural   Ba3(LuS3)2
_chemical_formula_sum   'Ba6 Lu4 S12'
_cell_volume   603.09677731
_cell_formula_units_Z   2
loop_
 _symmetry_equiv_pos_site_id
 _symmetry_equiv_pos_as_xyz
  1  'x, y, z'
loop_
 _atom_site_type_symbol
 _atom_site_label
 _atom_site_symmetry_multiplicity
 _atom_site_fract_x
 _atom_site_fract_y
 _atom_site_fract_z
 _atom_site_occupancy
  Ba  Ba0  1  0.369833  0.749998  0.130177  1
  Ba  Ba1  1  0.130177  0.369833  0.749998  1
  Ba  Ba2  1  0.749998  0.130177  0.369833  1
  Ba  Ba3  1  0.630167  0.250002  0.869822  1
  Ba  Ba4  1  0.869823  0.630166  0.250002  1
  Ba  Ba5  1  0.250002  0.869823  0.630167  1
  Lu  Lu6  1  0.500000  0.500000  0.500000  1
  Lu  Lu7  1  0.000000  0.000000  0.000000  1
  Lu  Lu8  1  0.249957  0.249957  0.249957  1
  Lu  Lu9  1  0.750042  0.750042  0.750043  1
  S  S10  1  0.407685  0.198412  0.533124  1
  S  S11  1  0.533123  0.407685  0.198412  1
  S  S12  1  0.198412  0.533123  0.407685  1
  S  S13  1  0.301596  0.092313  0.966873  1
  S  S14  1  0.092312  0.966872  0.301597  1
  S  S15  1  0.966873  0.301596  0.092313  1
  S  S16  1  0.592315  0.801588  0.466876  1
  S  S17  1  0.466876  0.592314  0.801588  1
  S  S18  1  0.801588  0.466876  0.592315  1
  S  S19  1  0.698404  0.907687  0.033127  1
  S  S20  1  0.907687  0.033127  0.698403  1
  S  S21  1  0.033127  0.698404  0.907686  1
