# generated using pymatgen
data_Ti6Nb6Sn9Au
_symmetry_space_group_name_H-M   'P 1'
_cell_length_a   9.38678500
_cell_length_b   9.38678638
_cell_length_c   5.71295800
_cell_angle_alpha   90.00000000
_cell_angle_beta   90.00000000
_cell_angle_gamma   120.00000570
_symmetry_Int_Tables_number   1
_chemical_formula_structural   Ti6Nb6Sn9Au
_chemical_formula_sum   'Ti6 Nb6 Sn9 Au1'
_cell_volume   435.93871860
_cell_formula_units_Z   1
loop_
 _symmetry_equiv_pos_site_id
 _symmetry_equiv_pos_as_xyz
  1  'x, y, z'
loop_
 _atom_site_type_symbol
 _atom_site_label
 _atom_site_symmetry_multiplicity
 _atom_site_fract_x
 _atom_site_fract_y
 _atom_site_fract_z
 _atom_site_occupancy
  Ti  Ti0  1  0.843361  0.686722  0.751912  1
  Ti  Ti1  1  0.156639  0.843361  0.248088  1
  Ti  Ti2  1  0.686722  0.843361  0.248088  1
  Ti  Ti3  1  0.313278  0.156639  0.751912  1
  Ti  Ti4  1  0.843361  0.156639  0.751912  1
  Ti  Ti5  1  0.156639  0.313278  0.248088  1
  Nb  Nb6  1  0.500000  0.000000  0.500000  1
  Nb  Nb7  1  0.500000  0.500000  0.000000  1
  Nb  Nb8  1  0.000000  0.500000  0.000000  1
  Nb  Nb9  1  0.000000  0.500000  0.500000  1
  Nb  Nb10  1  0.500000  0.000000  0.000000  1
  Nb  Nb11  1  0.500000  0.500000  0.500000  1
  Sn  Sn12  1  0.200145  0.400291  0.748606  1
  Sn  Sn13  1  0.799855  0.200145  0.251394  1
  Sn  Sn14  1  0.400291  0.200145  0.251394  1
  Sn  Sn15  1  0.599709  0.799855  0.748606  1
  Sn  Sn16  1  0.200145  0.799855  0.748606  1
  Sn  Sn17  1  0.799855  0.599709  0.251394  1
  Sn  Sn18  1  0.666667  0.333333  0.751550  1
  Sn  Sn19  1  0.333333  0.666667  0.248450  1
  Sn  Sn20  1  0.000000  0.000000  0.000000  1
  Au  Au21  1  0.000000  0.000000  0.500000  1
