# generated using pymatgen
data_Zr9Sc3(Si3Os)4
_symmetry_space_group_name_H-M   'P 1'
_cell_length_a   3.95756000
_cell_length_b   10.37900925
_cell_length_c   11.72996773
_cell_angle_alpha   90.00769174
_cell_angle_beta   90.00000000
_cell_angle_gamma   90.00000000
_symmetry_Int_Tables_number   1
_chemical_formula_structural   Zr9Sc3(Si3Os)4
_chemical_formula_sum   'Zr9 Sc3 Si12 Os4'
_cell_volume   481.81489303
_cell_formula_units_Z   1
loop_
 _symmetry_equiv_pos_site_id
 _symmetry_equiv_pos_as_xyz
  1  'x, y, z'
loop_
 _atom_site_type_symbol
 _atom_site_label
 _atom_site_symmetry_multiplicity
 _atom_site_fract_x
 _atom_site_fract_y
 _atom_site_fract_z
 _atom_site_occupancy
  Zr  Zr0  1  0.250000  0.875123  0.019327  1
  Zr  Zr1  1  0.250000  0.625646  0.518799  1
  Zr  Zr2  1  0.750000  0.124278  0.980375  1
  Zr  Zr3  1  0.750000  0.374686  0.481176  1
  Zr  Zr4  1  0.250000  0.923909  0.598378  1
  Zr  Zr5  1  0.250000  0.576944  0.097706  1
  Zr  Zr6  1  0.750000  0.077009  0.401696  1
  Zr  Zr7  1  0.750000  0.423727  0.901130  1
  Zr  Zr8  1  0.250000  0.658510  0.801666  1
  Sc  Sc9  1  0.250000  0.842383  0.301055  1
  Sc  Sc10  1  0.750000  0.340862  0.198582  1
  Sc  Sc11  1  0.750000  0.158748  0.698942  1
  Si  Si12  1  0.250000  0.015562  0.824024  1
  Si  Si13  1  0.250000  0.484492  0.323816  1
  Si  Si14  1  0.750000  0.984710  0.175718  1
  Si  Si15  1  0.750000  0.515522  0.674969  1
  Si  Si16  1  0.250000  0.249687  0.840715  1
  Si  Si17  1  0.250000  0.249853  0.340534  1
  Si  Si18  1  0.750000  0.749817  0.160189  1
  Si  Si19  1  0.750000  0.750771  0.658889  1
  Si  Si20  1  0.250000  0.192008  0.544692  1
  Si  Si21  1  0.250000  0.306737  0.044350  1
  Si  Si22  1  0.750000  0.808139  0.455074  1
  Si  Si23  1  0.750000  0.692195  0.956978  1
  Os  Os24  1  0.250000  0.386345  0.676695  1
  Os  Os25  1  0.250000  0.112987  0.176778  1
  Os  Os26  1  0.750000  0.612901  0.324285  1
  Os  Os27  1  0.750000  0.886449  0.823463  1
