# generated using pymatgen
data_Y3MgZn(InAu)2
_symmetry_space_group_name_H-M   'P 1'
_cell_length_a   7.79381983
_cell_length_b   7.77877819
_cell_length_c   3.92916300
_cell_angle_alpha   90.00000000
_cell_angle_beta   90.00000000
_cell_angle_gamma   119.93618986
_symmetry_Int_Tables_number   1
_chemical_formula_structural   Y3MgZn(InAu)2
_chemical_formula_sum   'Y3 Mg1 Zn1 In2 Au2'
_cell_volume   206.42928913
_cell_formula_units_Z   1
loop_
 _symmetry_equiv_pos_site_id
 _symmetry_equiv_pos_as_xyz
  1  'x, y, z'
loop_
 _atom_site_type_symbol
 _atom_site_label
 _atom_site_symmetry_multiplicity
 _atom_site_fract_x
 _atom_site_fract_y
 _atom_site_fract_z
 _atom_site_occupancy
  Y  Y0  1  0.000000  0.594676  0.500000  1
  Y  Y1  1  0.591993  0.997794  0.500000  1
  Y  Y2  1  0.408007  0.405802  0.500000  1
  Mg  Mg3  1  0.000000  0.253465  0.000000  1
  Zn  Zn4  1  0.000000  0.008347  0.500000  1
  In  In5  1  0.253056  0.002769  0.000000  1
  In  In6  1  0.746944  0.749713  0.000000  1
  Au  Au7  1  0.676312  0.331873  0.000000  1
  Au  Au8  1  0.323688  0.655562  0.000000  1
