# generated using pymatgen
data_U6Fe7Co5(SiB2)2
_symmetry_space_group_name_H-M   'P 1'
_cell_length_a   5.11580411
_cell_length_b   5.10831346
_cell_length_c   13.12586832
_cell_angle_alpha   90.46461979
_cell_angle_beta   90.22707298
_cell_angle_gamma   120.36414528
_symmetry_Int_Tables_number   1
_chemical_formula_structural   U6Fe7Co5(SiB2)2
_chemical_formula_sum   'U6 Fe7 Co5 Si2 B4'
_cell_volume   295.94538282
_cell_formula_units_Z   1
loop_
 _symmetry_equiv_pos_site_id
 _symmetry_equiv_pos_as_xyz
  1  'x, y, z'
loop_
 _atom_site_type_symbol
 _atom_site_label
 _atom_site_symmetry_multiplicity
 _atom_site_fract_x
 _atom_site_fract_y
 _atom_site_fract_z
 _atom_site_occupancy
  U  U0  1  0.326834  0.668901  0.245291  1
  U  U1  1  0.677869  0.331473  0.752625  1
  U  U2  1  0.322277  0.663708  0.035913  1
  U  U3  1  0.667609  0.331248  0.540253  1
  U  U4  1  0.663174  0.328996  0.966237  1
  U  U5  1  0.338155  0.678581  0.467439  1
  Fe  Fe6  1  0.822285  0.665358  0.141483  1
  Fe  Fe7  1  0.171393  0.830144  0.641275  1
  Fe  Fe8  1  0.671049  0.829024  0.641844  1
  Fe  Fe9  1  0.325287  0.164775  0.142908  1
  Fe  Fe10  1  0.825838  0.166490  0.141688  1
  Fe  Fe11  1  0.174820  0.333121  0.858337  1
  Fe  Fe12  1  0.173712  0.832247  0.858308  1
  Co  Co13  1  0.171215  0.328631  0.644365  1
  Co  Co14  1  0.673482  0.831770  0.855650  1
  Co  Co15  1  0.331346  0.172813  0.356422  1
  Co  Co16  1  0.830634  0.671557  0.356121  1
  Co  Co17  1  0.832216  0.172746  0.356777  1
  Si  Si18  1  0.996658  0.997943  0.999539  1
  Si  Si19  1  0.001950  0.002252  0.499614  1
  B  B20  1  0.994060  0.001872  0.248423  1
  B  B21  1  0.008338  0.995291  0.750575  1
  B  B22  1  0.337778  0.665754  0.750144  1
  B  B23  1  0.662021  0.335305  0.248771  1
