# generated using pymatgen
data_La4Al4PtRhAu2
_symmetry_space_group_name_H-M   'P 1'
_cell_length_a   4.38981500
_cell_length_b   7.40730363
_cell_length_c   16.69400334
_cell_angle_alpha   89.69618197
_cell_angle_beta   90.00000000
_cell_angle_gamma   90.00000000
_symmetry_Int_Tables_number   1
_chemical_formula_structural   La4Al4PtRhAu2
_chemical_formula_sum   'La8 Al8 Pt2 Rh2 Au4'
_cell_volume   542.82614325
_cell_formula_units_Z   2
loop_
 _symmetry_equiv_pos_site_id
 _symmetry_equiv_pos_as_xyz
  1  'x, y, z'
loop_
 _atom_site_type_symbol
 _atom_site_label
 _atom_site_symmetry_multiplicity
 _atom_site_fract_x
 _atom_site_fract_y
 _atom_site_fract_z
 _atom_site_occupancy
  La  La0  1  0.250000  0.517684  0.777534  1
  La  La1  1  0.750000  0.482316  0.222466  1
  La  La2  1  0.750000  0.976116  0.284051  1
  La  La3  1  0.250000  0.023884  0.715949  1
  La  La4  1  0.250000  0.648447  0.553298  1
  La  La5  1  0.750000  0.351553  0.446702  1
  La  La6  1  0.750000  0.861126  0.055736  1
  La  La7  1  0.250000  0.138874  0.944264  1
  Al  Al8  1  0.250000  0.661733  0.357896  1
  Al  Al9  1  0.750000  0.338267  0.642104  1
  Al  Al10  1  0.750000  0.836494  0.855998  1
  Al  Al11  1  0.250000  0.163506  0.144002  1
  Al  Al12  1  0.250000  0.506210  0.059666  1
  Al  Al13  1  0.750000  0.493790  0.940334  1
  Al  Al14  1  0.750000  0.995073  0.556822  1
  Al  Al15  1  0.250000  0.004927  0.443178  1
  Pt  Pt16  1  0.250000  0.704876  0.930115  1
  Pt  Pt17  1  0.750000  0.295124  0.069885  1
  Rh  Rh18  1  0.750000  0.794221  0.425964  1
  Rh  Rh19  1  0.250000  0.205779  0.574036  1
  Au  Au20  1  0.250000  0.772385  0.182717  1
  Au  Au21  1  0.750000  0.227615  0.817283  1
  Au  Au22  1  0.750000  0.729503  0.682794  1
  Au  Au23  1  0.250000  0.270497  0.317206  1
