# generated using pymatgen
data_La5Zn2RuRh2
_symmetry_space_group_name_H-M   'P 1'
_cell_length_a   8.67100972
_cell_length_b   8.63838616
_cell_length_c   8.64261984
_cell_angle_alpha   109.40927544
_cell_angle_beta   109.70642569
_cell_angle_gamma   109.54770013
_symmetry_Int_Tables_number   1
_chemical_formula_structural   La5Zn2RuRh2
_chemical_formula_sum   'La10 Zn4 Ru2 Rh4'
_cell_volume   496.79568225
_cell_formula_units_Z   2
loop_
 _symmetry_equiv_pos_site_id
 _symmetry_equiv_pos_as_xyz
  1  'x, y, z'
loop_
 _atom_site_type_symbol
 _atom_site_label
 _atom_site_symmetry_multiplicity
 _atom_site_fract_x
 _atom_site_fract_y
 _atom_site_fract_z
 _atom_site_occupancy
  La  La0  1  0.252418  0.689454  0.443406  1
  La  La1  1  0.744720  0.807225  0.057074  1
  La  La2  1  0.439881  0.251317  0.690517  1
  La  La3  1  0.688763  0.443315  0.251330  1
  La  La4  1  0.059903  0.749432  0.808514  1
  La  La5  1  0.806690  0.055273  0.745117  1
  La  La6  1  0.221352  0.221269  0.220976  1
  La  La7  1  0.502640  0.997786  0.280045  1
  La  La8  1  0.282805  0.503971  0.001950  1
  La  La9  1  0.004253  0.282265  0.502569  1
  Zn  Zn10  1  0.499210  0.998703  0.912471  1
  Zn  Zn11  1  0.585441  0.587193  0.586296  1
  Zn  Zn12  1  0.912375  0.499678  0.000004  1
  Zn  Zn13  1  0.997964  0.912081  0.498826  1
  Ru  Ru14  1  0.623816  0.751177  0.373551  1
  Ru  Ru15  1  0.371550  0.621199  0.749840  1
  Rh  Rh16  1  0.250482  0.126505  0.877273  1
  Rh  Rh17  1  0.750770  0.373881  0.623809  1
  Rh  Rh18  1  0.877030  0.250364  0.126205  1
  Rh  Rh19  1  0.127937  0.877914  0.250229  1
