# generated using pymatgen
data_TaNb11Al8(PdC)4
_symmetry_space_group_name_H-M   'P 1'
_cell_length_a   8.39570958
_cell_length_b   8.40176453
_cell_length_c   8.39570874
_cell_angle_alpha   59.97614437
_cell_angle_beta   59.97883774
_cell_angle_gamma   59.97613933
_symmetry_Int_Tables_number   1
_chemical_formula_structural   TaNb11Al8(PdC)4
_chemical_formula_sum   'Ta1 Nb11 Al8 Pd4 C4'
_cell_volume   418.54688571
_cell_formula_units_Z   1
loop_
 _symmetry_equiv_pos_site_id
 _symmetry_equiv_pos_as_xyz
  1  'x, y, z'
loop_
 _atom_site_type_symbol
 _atom_site_label
 _atom_site_symmetry_multiplicity
 _atom_site_fract_x
 _atom_site_fract_y
 _atom_site_fract_z
 _atom_site_occupancy
  Ta  Ta0  1  0.931540  0.568460  0.931540  1
  Nb  Nb1  1  0.567524  0.932476  0.567524  1
  Nb  Nb2  1  0.317450  0.682386  0.682688  1
  Nb  Nb3  1  0.682688  0.317476  0.317450  1
  Nb  Nb4  1  0.317802  0.682198  0.317802  1
  Nb  Nb5  1  0.682688  0.682386  0.317450  1
  Nb  Nb6  1  0.317450  0.317476  0.682688  1
  Nb  Nb7  1  0.567647  0.567353  0.932580  1
  Nb  Nb8  1  0.932580  0.567353  0.567647  1
  Nb  Nb9  1  0.567647  0.932421  0.932580  1
  Nb  Nb10  1  0.932580  0.932421  0.567647  1
  Nb  Nb11  1  0.682390  0.317610  0.682390  1
  Al  Al12  1  0.915715  0.916104  0.915715  1
  Al  Al13  1  0.997264  0.334163  0.334409  1
  Al  Al14  1  0.334132  0.997368  0.334132  1
  Al  Al15  1  0.334409  0.334163  0.997264  1
  Al  Al16  1  0.915715  0.252468  0.915715  1
  Al  Al17  1  0.915974  0.915635  0.252757  1
  Al  Al18  1  0.252757  0.915635  0.915974  1
  Al  Al19  1  0.334132  0.334365  0.334132  1
  Pd  Pd20  1  0.124394  0.126363  0.124394  1
  Pd  Pd21  1  0.625210  0.124909  0.124972  1
  Pd  Pd22  1  0.124394  0.624849  0.124394  1
  Pd  Pd23  1  0.124972  0.124909  0.625210  1
  C  C24  1  0.625137  0.624870  0.625137  1
  C  C25  1  0.124131  0.624663  0.626542  1
  C  C26  1  0.625137  0.124857  0.625137  1
  C  C27  1  0.626542  0.624663  0.124131  1
