# generated using pymatgen
data_TbY5(GaCo2)8
_symmetry_space_group_name_H-M   'P 1'
_cell_length_a   7.24496901
_cell_length_b   8.53528762
_cell_length_c   8.53342921
_cell_angle_alpha   120.01081428
_cell_angle_beta   90.01382362
_cell_angle_gamma   89.99570101
_symmetry_Int_Tables_number   1
_chemical_formula_structural   TbY5(GaCo2)8
_chemical_formula_sum   'Tb1 Y5 Ga8 Co16'
_cell_volume   456.94251203
_cell_formula_units_Z   1
loop_
 _symmetry_equiv_pos_site_id
 _symmetry_equiv_pos_as_xyz
  1  'x, y, z'
loop_
 _atom_site_type_symbol
 _atom_site_label
 _atom_site_symmetry_multiplicity
 _atom_site_fract_x
 _atom_site_fract_y
 _atom_site_fract_z
 _atom_site_occupancy
  Tb  Tb0  1  0.001570  0.525600  0.050889  1
  Y  Y1  1  0.001156  0.525417  0.474636  1
  Y  Y2  1  0.001153  0.949199  0.474471  1
  Y  Y3  1  0.501231  0.050931  0.525343  1
  Y  Y4  1  0.501223  0.474542  0.525496  1
  Y  Y5  1  0.501368  0.474686  0.949096  1
  Ga  Ga6  1  0.292694  0.339125  0.169782  1
  Ga  Ga7  1  0.292677  0.830659  0.169618  1
  Ga  Ga8  1  0.674974  0.666702  0.333304  1
  Ga  Ga9  1  0.792248  0.169616  0.339385  1
  Ga  Ga10  1  0.292373  0.830317  0.660798  1
  Ga  Ga11  1  0.175235  0.333268  0.666435  1
  Ga  Ga12  1  0.792229  0.169463  0.830090  1
  Ga  Ga13  1  0.792153  0.660931  0.830302  1
  Co  Co14  1  0.220539  0.999888  0.999915  1
  Co  Co15  1  0.720283  0.999958  0.000138  1
  Co  Co16  1  0.973048  0.202654  0.101269  1
  Co  Co17  1  0.973041  0.898481  0.101313  1
  Co  Co18  1  0.664499  0.325873  0.162995  1
  Co  Co19  1  0.664459  0.837121  0.162962  1
  Co  Co20  1  0.472976  0.101311  0.202685  1
  Co  Co21  1  0.164438  0.162879  0.325780  1
  Co  Co22  1  0.330701  0.666570  0.333132  1
  Co  Co23  1  0.830935  0.333441  0.666912  1
  Co  Co24  1  0.664388  0.837026  0.674083  1
  Co  Co25  1  0.973011  0.898657  0.797407  1
  Co  Co26  1  0.164525  0.163004  0.837141  1
  Co  Co27  1  0.164438  0.674095  0.837129  1
  Co  Co28  1  0.472887  0.101208  0.898782  1
  Co  Co29  1  0.472946  0.797376  0.898712  1
