# generated using pymatgen
data_UV2(Co10B3)2
_symmetry_space_group_name_H-M   'P 1'
_cell_length_a   7.39392708
_cell_length_b   7.39392669
_cell_length_c   7.39392700
_cell_angle_alpha   60.00000310
_cell_angle_beta   60.00000484
_cell_angle_gamma   60.00000149
_symmetry_Int_Tables_number   1
_chemical_formula_structural   UV2(Co10B3)2
_chemical_formula_sum   'U1 V2 Co20 B6'
_cell_volume   285.83176785
_cell_formula_units_Z   1
loop_
 _symmetry_equiv_pos_site_id
 _symmetry_equiv_pos_as_xyz
  1  'x, y, z'
loop_
 _atom_site_type_symbol
 _atom_site_label
 _atom_site_symmetry_multiplicity
 _atom_site_fract_x
 _atom_site_fract_y
 _atom_site_fract_z
 _atom_site_occupancy
  U  U0  1  0.750000  0.750000  0.750000  1
  V  V1  1  0.000000  0.000000  0.000000  1
  V  V2  1  0.250000  0.250000  0.250000  1
  Co  Co3  1  0.615251  0.615251  0.154247  1
  Co  Co4  1  0.615251  0.154247  0.615251  1
  Co  Co5  1  0.154247  0.615251  0.615251  1
  Co  Co6  1  0.615251  0.615251  0.615251  1
  Co  Co7  1  0.378662  0.378662  0.864013  1
  Co  Co8  1  0.378662  0.864013  0.378662  1
  Co  Co9  1  0.864013  0.378662  0.378662  1
  Co  Co10  1  0.378662  0.378662  0.378662  1
  Co  Co11  1  0.002479  0.002479  0.335825  1
  Co  Co12  1  0.659217  0.002479  0.335825  1
  Co  Co13  1  0.002479  0.659217  0.335825  1
  Co  Co14  1  0.659217  0.335825  0.002479  1
  Co  Co15  1  0.002479  0.335825  0.002479  1
  Co  Co16  1  0.002479  0.335825  0.659217  1
  Co  Co17  1  0.335825  0.659217  0.002479  1
  Co  Co18  1  0.335825  0.002479  0.659217  1
  Co  Co19  1  0.335825  0.002479  0.002479  1
  Co  Co20  1  0.002479  0.002479  0.659217  1
  Co  Co21  1  0.002479  0.659217  0.002479  1
  Co  Co22  1  0.659217  0.002479  0.002479  1
  B  B23  1  0.727201  0.727201  0.272799  1
  B  B24  1  0.272799  0.727201  0.272799  1
  B  B25  1  0.727201  0.272799  0.272799  1
  B  B26  1  0.272799  0.272799  0.727201  1
  B  B27  1  0.727201  0.272799  0.727201  1
  B  B28  1  0.272799  0.727201  0.727201  1
