# generated using pymatgen
data_Sm2Mn3Re14C3
_symmetry_space_group_name_H-M   'P 1'
_cell_length_a   6.96197148
_cell_length_b   6.96197095
_cell_length_c   6.96197251
_cell_angle_alpha   82.52533462
_cell_angle_beta   82.52532355
_cell_angle_gamma   82.52532690
_symmetry_Int_Tables_number   1
_chemical_formula_structural   Sm2Mn3Re14C3
_chemical_formula_sum   'Sm2 Mn3 Re14 C3'
_cell_volume   329.52448526
_cell_formula_units_Z   1
loop_
 _symmetry_equiv_pos_site_id
 _symmetry_equiv_pos_as_xyz
  1  'x, y, z'
loop_
 _atom_site_type_symbol
 _atom_site_label
 _atom_site_symmetry_multiplicity
 _atom_site_fract_x
 _atom_site_fract_y
 _atom_site_fract_z
 _atom_site_occupancy
  Sm  Sm0  1  0.647409  0.647409  0.647409  1
  Sm  Sm1  1  0.352591  0.352591  0.352591  1
  Mn  Mn2  1  0.000000  0.000000  0.500000  1
  Mn  Mn3  1  0.500000  0.000000  0.000000  1
  Mn  Mn4  1  0.000000  0.500000  0.000000  1
  Re  Re5  1  0.721654  0.278346  0.000000  1
  Re  Re6  1  0.000000  0.721654  0.278346  1
  Re  Re7  1  0.278346  0.000000  0.721654  1
  Re  Re8  1  0.000000  0.278346  0.721654  1
  Re  Re9  1  0.721654  0.000000  0.278346  1
  Re  Re10  1  0.278346  0.721654  0.000000  1
  Re  Re11  1  0.345320  0.345320  0.861906  1
  Re  Re12  1  0.861906  0.345320  0.345320  1
  Re  Re13  1  0.345320  0.861906  0.345320  1
  Re  Re14  1  0.654680  0.654680  0.138094  1
  Re  Re15  1  0.138094  0.654680  0.654680  1
  Re  Re16  1  0.654680  0.138094  0.654680  1
  Re  Re17  1  0.899900  0.899900  0.899900  1
  Re  Re18  1  0.100100  0.100100  0.100100  1
  C  C19  1  0.500000  0.500000  0.000000  1
  C  C20  1  0.000000  0.500000  0.500000  1
  C  C21  1  0.500000  0.000000  0.500000  1
