# generated using pymatgen
data_Nd2Cr3Re14C3
_symmetry_space_group_name_H-M   'P 1'
_cell_length_a   6.97607266
_cell_length_b   6.97607298
_cell_length_c   6.97607376
_cell_angle_alpha   82.71138828
_cell_angle_beta   82.71138452
_cell_angle_gamma   82.71137848
_symmetry_Int_Tables_number   1
_chemical_formula_structural   Nd2Cr3Re14C3
_chemical_formula_sum   'Nd2 Cr3 Re14 C3'
_cell_volume   331.90676008
_cell_formula_units_Z   1
loop_
 _symmetry_equiv_pos_site_id
 _symmetry_equiv_pos_as_xyz
  1  'x, y, z'
loop_
 _atom_site_type_symbol
 _atom_site_label
 _atom_site_symmetry_multiplicity
 _atom_site_fract_x
 _atom_site_fract_y
 _atom_site_fract_z
 _atom_site_occupancy
  Nd  Nd0  1  0.648395  0.648395  0.648395  1
  Nd  Nd1  1  0.351605  0.351605  0.351605  1
  Cr  Cr2  1  0.000000  0.000000  0.500000  1
  Cr  Cr3  1  0.500000  0.000000  0.000000  1
  Cr  Cr4  1  0.000000  0.500000  0.000000  1
  Re  Re5  1  0.721428  0.278572  0.000000  1
  Re  Re6  1  0.000000  0.721428  0.278572  1
  Re  Re7  1  0.278572  0.000000  0.721428  1
  Re  Re8  1  0.000000  0.278572  0.721428  1
  Re  Re9  1  0.721428  0.000000  0.278572  1
  Re  Re10  1  0.278572  0.721428  0.000000  1
  Re  Re11  1  0.344216  0.344216  0.865100  1
  Re  Re12  1  0.865100  0.344216  0.344216  1
  Re  Re13  1  0.344216  0.865100  0.344216  1
  Re  Re14  1  0.655784  0.655784  0.134900  1
  Re  Re15  1  0.134900  0.655784  0.655784  1
  Re  Re16  1  0.655784  0.134900  0.655784  1
  Re  Re17  1  0.900751  0.900751  0.900751  1
  Re  Re18  1  0.099249  0.099249  0.099249  1
  C  C19  1  0.500000  0.500000  0.000000  1
  C  C20  1  0.000000  0.500000  0.500000  1
  C  C21  1  0.500000  0.000000  0.500000  1
