# generated using pymatgen
data_La8AlZn7Rh8
_symmetry_space_group_name_H-M   'P 1'
_cell_length_a   4.07088100
_cell_length_b   7.48270815
_cell_length_c   16.62939342
_cell_angle_alpha   89.70651899
_cell_angle_beta   90.00000000
_cell_angle_gamma   90.00000000
_symmetry_Int_Tables_number   1
_chemical_formula_structural   La8AlZn7Rh8
_chemical_formula_sum   'La8 Al1 Zn7 Rh8'
_cell_volume   506.54487352
_cell_formula_units_Z   1
loop_
 _symmetry_equiv_pos_site_id
 _symmetry_equiv_pos_as_xyz
  1  'x, y, z'
loop_
 _atom_site_type_symbol
 _atom_site_label
 _atom_site_symmetry_multiplicity
 _atom_site_fract_x
 _atom_site_fract_y
 _atom_site_fract_z
 _atom_site_occupancy
  La  La0  1  0.750000  0.328884  0.441086  1
  La  La1  1  0.250000  0.046310  0.717026  1
  La  La2  1  0.250000  0.546825  0.782885  1
  La  La3  1  0.250000  0.672569  0.559765  1
  La  La4  1  0.750000  0.824988  0.058532  1
  La  La5  1  0.250000  0.171685  0.939348  1
  La  La6  1  0.750000  0.457672  0.219345  1
  La  La7  1  0.750000  0.952053  0.283435  1
  Al  Al8  1  0.250000  0.129853  0.149645  1
  Zn  Zn9  1  0.250000  0.999333  0.440436  1
  Zn  Zn10  1  0.750000  0.871906  0.850663  1
  Zn  Zn11  1  0.750000  0.001192  0.559712  1
  Zn  Zn12  1  0.250000  0.496542  0.060002  1
  Zn  Zn13  1  0.750000  0.371326  0.649264  1
  Zn  Zn14  1  0.750000  0.499902  0.940331  1
  Zn  Zn15  1  0.250000  0.628367  0.352033  1
  Rh  Rh16  1  0.750000  0.253274  0.814683  1
  Rh  Rh17  1  0.250000  0.243501  0.307974  1
  Rh  Rh18  1  0.250000  0.739752  0.934170  1
  Rh  Rh19  1  0.250000  0.241598  0.564952  1
  Rh  Rh20  1  0.250000  0.759373  0.183024  1
  Rh  Rh21  1  0.750000  0.757924  0.435055  1
  Rh  Rh22  1  0.750000  0.252122  0.071396  1
  Rh  Rh23  1  0.750000  0.753049  0.685234  1
