# generated using pymatgen
data_Si3Ni4PRu4
_symmetry_space_group_name_H-M   'P 1'
_cell_length_a   3.73211800
_cell_length_b   5.55580453
_cell_length_c   6.98967716
_cell_angle_alpha   90.33509791
_cell_angle_beta   90.00000000
_cell_angle_gamma   90.00000000
_symmetry_Int_Tables_number   1
_chemical_formula_structural   Si3Ni4PRu4
_chemical_formula_sum   'Si3 Ni4 P1 Ru4'
_cell_volume   144.92790489
_cell_formula_units_Z   1
loop_
 _symmetry_equiv_pos_site_id
 _symmetry_equiv_pos_as_xyz
  1  'x, y, z'
loop_
 _atom_site_type_symbol
 _atom_site_label
 _atom_site_symmetry_multiplicity
 _atom_site_fract_x
 _atom_site_fract_y
 _atom_site_fract_z
 _atom_site_occupancy
  Si  Si0  1  0.000000  0.247585  0.119490  1
  Si  Si1  1  0.000000  0.749509  0.379177  1
  Si  Si2  1  0.500000  0.751819  0.882507  1
  Ni  Ni3  1  0.000000  0.649166  0.062106  1
  Ni  Ni4  1  0.000000  0.152538  0.441308  1
  Ni  Ni5  1  0.500000  0.345044  0.931064  1
  Ni  Ni6  1  0.500000  0.860446  0.563958  1
  P  P7  1  0.500000  0.255835  0.617515  1
  Ru  Ru8  1  0.000000  0.523190  0.682037  1
  Ru  Ru9  1  0.000000  0.023747  0.815169  1
  Ru  Ru10  1  0.500000  0.469050  0.317873  1
  Ru  Ru11  1  0.500000  0.972068  0.187798  1
