# generated using pymatgen
data_LiHo2Tm(B6Ru)2
_symmetry_space_group_name_H-M   'P 1'
_cell_length_a   3.57506400
_cell_length_b   8.96198572
_cell_length_c   11.33719968
_cell_angle_alpha   89.89572230
_cell_angle_beta   90.00000000
_cell_angle_gamma   90.00000000
_symmetry_Int_Tables_number   1
_chemical_formula_structural   LiHo2Tm(B6Ru)2
_chemical_formula_sum   'Li2 Ho4 Tm2 B24 Ru4'
_cell_volume   363.23956348
_cell_formula_units_Z   2
loop_
 _symmetry_equiv_pos_site_id
 _symmetry_equiv_pos_as_xyz
  1  'x, y, z'
loop_
 _atom_site_type_symbol
 _atom_site_label
 _atom_site_symmetry_multiplicity
 _atom_site_fract_x
 _atom_site_fract_y
 _atom_site_fract_z
 _atom_site_occupancy
  Li  Li0  1  0.000000  0.944549  0.373691  1
  Li  Li1  1  0.000000  0.055451  0.626309  1
  Ho  Ho2  1  0.000000  0.318084  0.415646  1
  Ho  Ho3  1  0.000000  0.681916  0.584354  1
  Ho  Ho4  1  0.000000  0.824945  0.088416  1
  Ho  Ho5  1  0.000000  0.175055  0.911584  1
  Tm  Tm6  1  0.000000  0.442620  0.131309  1
  Tm  Tm7  1  0.000000  0.557380  0.868691  1
  B  B8  1  0.500000  0.555799  0.433513  1
  B  B9  1  0.500000  0.444201  0.566487  1
  B  B10  1  0.500000  0.053094  0.068169  1
  B  B11  1  0.500000  0.946906  0.931831  1
  B  B12  1  0.500000  0.759454  0.418893  1
  B  B13  1  0.500000  0.240546  0.581107  1
  B  B14  1  0.500000  0.248215  0.082241  1
  B  B15  1  0.500000  0.751785  0.917759  1
  B  B16  1  0.500000  0.796776  0.266361  1
  B  B17  1  0.500000  0.203224  0.733639  1
  B  B18  1  0.500000  0.288790  0.237098  1
  B  B19  1  0.500000  0.711210  0.762902  1
  B  B20  1  0.500000  0.632790  0.186424  1
  B  B21  1  0.500000  0.367210  0.813576  1
  B  B22  1  0.500000  0.123524  0.319919  1
  B  B23  1  0.500000  0.876476  0.680081  1
  B  B24  1  0.500000  0.979452  0.215537  1
  B  B25  1  0.500000  0.020548  0.784463  1
  B  B26  1  0.500000  0.482949  0.289474  1
  B  B27  1  0.500000  0.517051  0.710526  1
  B  B28  1  0.500000  0.603155  0.028130  1
  B  B29  1  0.500000  0.396845  0.971870  1
  B  B30  1  0.500000  0.091816  0.474339  1
  B  B31  1  0.500000  0.908184  0.525661  1
  Ru  Ru32  1  0.000000  0.643713  0.323011  1
  Ru  Ru33  1  0.000000  0.356287  0.676989  1
  Ru  Ru34  1  0.000000  0.135262  0.184390  1
  Ru  Ru35  1  0.000000  0.864738  0.815610  1
