# generated using pymatgen
data_La4Ga4SnRh9
_symmetry_space_group_name_H-M   'P 1'
_cell_length_a   12.73317981
_cell_length_b   12.73317989
_cell_length_c   12.73318000
_cell_angle_alpha   25.56319099
_cell_angle_beta   25.56319024
_cell_angle_gamma   25.56318902
_symmetry_Int_Tables_number   1
_chemical_formula_structural   La4Ga4SnRh9
_chemical_formula_sum   'La4 Ga4 Sn1 Rh9'
_cell_volume   338.41941489
_cell_formula_units_Z   1
loop_
 _symmetry_equiv_pos_site_id
 _symmetry_equiv_pos_as_xyz
  1  'x, y, z'
loop_
 _atom_site_type_symbol
 _atom_site_label
 _atom_site_symmetry_multiplicity
 _atom_site_fract_x
 _atom_site_fract_y
 _atom_site_fract_z
 _atom_site_occupancy
  La  La0  1  0.952086  0.952086  0.952086  1
  La  La1  1  0.047914  0.047914  0.047914  1
  La  La2  1  0.856694  0.856694  0.856694  1
  La  La3  1  0.143306  0.143306  0.143306  1
  Ga  Ga4  1  0.720581  0.720581  0.720581  1
  Ga  Ga5  1  0.279419  0.279419  0.279419  1
  Ga  Ga6  1  0.612108  0.612108  0.612108  1
  Ga  Ga7  1  0.387892  0.387892  0.387892  1
  Sn  Sn8  1  0.500000  0.500000  0.500000  1
  Rh  Rh9  1  0.500000  0.500000  0.000000  1
  Rh  Rh10  1  0.000000  0.500000  0.500000  1
  Rh  Rh11  1  0.500000  0.000000  0.500000  1
  Rh  Rh12  1  0.389273  0.898105  0.389273  1
  Rh  Rh13  1  0.389273  0.389273  0.898105  1
  Rh  Rh14  1  0.898105  0.389273  0.389273  1
  Rh  Rh15  1  0.610727  0.101895  0.610727  1
  Rh  Rh16  1  0.610727  0.610727  0.101895  1
  Rh  Rh17  1  0.101895  0.610727  0.610727  1
