# generated using pymatgen
data_Tb3Y4PI12
_symmetry_space_group_name_H-M   'P 1'
_cell_length_a   9.69775133
_cell_length_b   9.69775144
_cell_length_c   9.69775075
_cell_angle_alpha   107.90639542
_cell_angle_beta   107.90639273
_cell_angle_gamma   107.90639060
_symmetry_Int_Tables_number   1
_chemical_formula_structural   Tb3Y4PI12
_chemical_formula_sum   'Tb3 Y4 P1 I12'
_cell_volume   739.97113941
_cell_formula_units_Z   1
loop_
 _symmetry_equiv_pos_site_id
 _symmetry_equiv_pos_as_xyz
  1  'x, y, z'
loop_
 _atom_site_type_symbol
 _atom_site_label
 _atom_site_symmetry_multiplicity
 _atom_site_fract_x
 _atom_site_fract_y
 _atom_site_fract_z
 _atom_site_occupancy
  Tb  Tb0  1  0.099773  0.030133  0.301401  1
  Tb  Tb1  1  0.030133  0.301401  0.099773  1
  Tb  Tb2  1  0.301401  0.099773  0.030133  1
  Y  Y3  1  0.497702  0.497702  0.497702  1
  Y  Y4  1  0.901271  0.970924  0.699651  1
  Y  Y5  1  0.970924  0.699651  0.901271  1
  Y  Y6  1  0.699651  0.901271  0.970924  1
  P  P7  1  0.999703  0.999703  0.999703  1
  I  I8  1  0.534458  0.845791  0.614559  1
  I  I9  1  0.845791  0.614559  0.534458  1
  I  I10  1  0.614559  0.534458  0.845791  1
  I  I11  1  0.466614  0.153137  0.385926  1
  I  I12  1  0.153137  0.385926  0.466614  1
  I  I13  1  0.385926  0.466614  0.153137  1
  I  I14  1  0.685197  0.227674  0.074554  1
  I  I15  1  0.227674  0.074554  0.685197  1
  I  I16  1  0.074554  0.685197  0.227674  1
  I  I17  1  0.314683  0.771815  0.925035  1
  I  I18  1  0.771815  0.925035  0.314683  1
  I  I19  1  0.925035  0.314683  0.771815  1
