# generated using pymatgen
data_Nd7Ho(GaI6)2
_symmetry_space_group_name_H-M   'P 1'
_cell_length_a   4.32279100
_cell_length_b   14.44644417
_cell_length_c   15.20559300
_cell_angle_alpha   90.38854018
_cell_angle_beta   90.00000000
_cell_angle_gamma   90.00000000
_symmetry_Int_Tables_number   1
_chemical_formula_structural   Nd7Ho(GaI6)2
_chemical_formula_sum   'Nd7 Ho1 Ga2 I12'
_cell_volume   949.55161766
_cell_formula_units_Z   1
loop_
 _symmetry_equiv_pos_site_id
 _symmetry_equiv_pos_as_xyz
  1  'x, y, z'
loop_
 _atom_site_type_symbol
 _atom_site_label
 _atom_site_symmetry_multiplicity
 _atom_site_fract_x
 _atom_site_fract_y
 _atom_site_fract_z
 _atom_site_occupancy
  Nd  Nd0  1  0.500000  0.116973  0.343615  1
  Nd  Nd1  1  0.500000  0.884168  0.657178  1
  Nd  Nd2  1  0.500000  0.615759  0.155915  1
  Nd  Nd3  1  0.000000  0.118374  0.580031  1
  Nd  Nd4  1  0.000000  0.883723  0.422032  1
  Nd  Nd5  1  0.000000  0.616103  0.921057  1
  Nd  Nd6  1  0.000000  0.382656  0.077174  1
  Ho  Ho7  1  0.500000  0.384895  0.844522  1
  Ga  Ga8  1  0.500000  0.001195  0.500844  1
  Ga  Ga9  1  0.500000  0.498452  0.997770  1
  I  I10  1  0.500000  0.242738  0.162023  1
  I  I11  1  0.500000  0.755250  0.835574  1
  I  I12  1  0.500000  0.743142  0.336200  1
  I  I13  1  0.500000  0.258849  0.669323  1
  I  I14  1  0.000000  0.261576  0.416116  1
  I  I15  1  0.000000  0.739253  0.584999  1
  I  I16  1  0.000000  0.759878  0.085038  1
  I  I17  1  0.000000  0.246258  0.907087  1
  I  I18  1  0.000000  0.996869  0.238627  1
  I  I19  1  0.000000  0.003509  0.762750  1
  I  I20  1  0.000000  0.496988  0.260613  1
  I  I21  1  0.000000  0.493392  0.741512  1
