# generated using pymatgen
data_YbSmRuPtO7
_symmetry_space_group_name_H-M   'P 1'
_cell_length_a   7.35043780
_cell_length_b   7.28878486
_cell_length_c   7.28878369
_cell_angle_alpha   59.49967525
_cell_angle_beta   59.71978774
_cell_angle_gamma   59.71978155
_symmetry_Int_Tables_number   1
_chemical_formula_structural   YbSmRuPtO7
_chemical_formula_sum   'Yb2 Sm2 Ru2 Pt2 O14'
_cell_volume   273.90549648
_cell_formula_units_Z   2
loop_
 _symmetry_equiv_pos_site_id
 _symmetry_equiv_pos_as_xyz
  1  'x, y, z'
loop_
 _atom_site_type_symbol
 _atom_site_label
 _atom_site_symmetry_multiplicity
 _atom_site_fract_x
 _atom_site_fract_y
 _atom_site_fract_z
 _atom_site_occupancy
  Yb  Yb0  1  0.625000  0.625000  0.125000  1
  Yb  Yb1  1  0.625000  0.125000  0.625000  1
  Sm  Sm2  1  0.625000  0.625000  0.625000  1
  Sm  Sm3  1  0.125000  0.625000  0.625000  1
  Ru  Ru4  1  0.125000  0.125000  0.125000  1
  Ru  Ru5  1  0.625000  0.125000  0.125000  1
  Pt  Pt6  1  0.125000  0.125000  0.625000  1
  Pt  Pt7  1  0.125000  0.625000  0.125000  1
  O  O8  1  0.501275  0.498725  0.498725  1
  O  O9  1  0.748725  0.751275  0.751275  1
  O  O10  1  0.037248  0.049558  0.454026  1
  O  O11  1  0.790832  0.795974  0.200442  1
  O  O12  1  0.459168  0.049559  0.454025  1
  O  O13  1  0.433129  0.066871  0.066871  1
  O  O14  1  0.035577  0.464423  0.464423  1
  O  O15  1  0.037248  0.454025  0.049559  1
  O  O16  1  0.459168  0.454026  0.049558  1
  O  O17  1  0.214423  0.785577  0.785577  1
  O  O18  1  0.816871  0.183129  0.183129  1
  O  O19  1  0.212752  0.200442  0.795974  1
  O  O20  1  0.212752  0.795975  0.200441  1
  O  O21  1  0.790832  0.200441  0.795975  1
