# generated using pymatgen
data_HoPa7Ti12Si15Ge
_symmetry_space_group_name_H-M   'P 1'
_cell_length_a   7.03665716
_cell_length_b   7.03092555
_cell_length_c   13.01493438
_cell_angle_alpha   90.03038892
_cell_angle_beta   89.83386257
_cell_angle_gamma   90.05153403
_symmetry_Int_Tables_number   1
_chemical_formula_structural   HoPa7Ti12Si15Ge
_chemical_formula_sum   'Ho1 Pa7 Ti12 Si15 Ge1'
_cell_volume   643.90057384
_cell_formula_units_Z   1
loop_
 _symmetry_equiv_pos_site_id
 _symmetry_equiv_pos_as_xyz
  1  'x, y, z'
loop_
 _atom_site_type_symbol
 _atom_site_label
 _atom_site_symmetry_multiplicity
 _atom_site_fract_x
 _atom_site_fract_y
 _atom_site_fract_z
 _atom_site_occupancy
  Ho  Ho0  1  0.999939  0.660755  0.032117  1
  Pa  Pa1  1  0.336780  0.002087  0.466447  1
  Pa  Pa2  1  0.498284  0.835328  0.719175  1
  Pa  Pa3  1  0.504748  0.163156  0.218047  1
  Pa  Pa4  1  0.835892  0.494670  0.282472  1
  Pa  Pa5  1  0.163978  0.505580  0.782739  1
  Pa  Pa6  1  0.659541  0.000952  0.968008  1
  Pa  Pa7  1  0.998961  0.339993  0.529614  1
  Ti  Ti8  1  0.333719  0.324670  0.999934  1
  Ti  Ti9  1  0.173174  0.830719  0.250991  1
  Ti  Ti10  1  0.826078  0.170728  0.750528  1
  Ti  Ti11  1  0.670595  0.669592  0.499764  1
  Ti  Ti12  1  0.159624  0.005089  0.877100  1
  Ti  Ti13  1  0.498409  0.656531  0.126230  1
  Ti  Ti14  1  0.504435  0.343540  0.625847  1
  Ti  Ti15  1  0.654842  0.498593  0.874351  1
  Ti  Ti16  1  0.341968  0.502530  0.373467  1
  Ti  Ti17  1  0.842589  0.998460  0.374812  1
  Ti  Ti18  1  0.002002  0.158156  0.125192  1
  Ti  Ti19  1  0.994568  0.838723  0.622767  1
  Si  Si20  1  0.371660  0.703667  0.935976  1
  Si  Si21  1  0.624787  0.296818  0.434501  1
  Si  Si22  1  0.703168  0.373668  0.065496  1
  Si  Si23  1  0.297955  0.626831  0.565721  1
  Si  Si24  1  0.799499  0.869932  0.183674  1
  Si  Si25  1  0.128060  0.202056  0.315135  1
  Si  Si26  1  0.873431  0.799912  0.816410  1
  Si  Si27  1  0.289685  0.958226  0.067142  1
  Si  Si28  1  0.542977  0.789535  0.315449  1
  Si  Si29  1  0.462061  0.210990  0.816544  1
  Si  Si30  1  0.791507  0.540010  0.685094  1
  Si  Si31  1  0.209498  0.458340  0.183524  1
  Si  Si32  1  0.708744  0.040601  0.565554  1
  Si  Si33  1  0.957850  0.292117  0.934859  1
  Si  Si34  1  0.040008  0.710467  0.433152  1
  Ge  Ge35  1  0.198983  0.126975  0.682166  1
