# generated using pymatgen
data_Er8Al2CoPd
_symmetry_space_group_name_H-M   'P 1'
_cell_length_a   9.42723357
_cell_length_b   9.42723396
_cell_length_c   9.43767500
_cell_angle_alpha   59.96335260
_cell_angle_beta   59.96335123
_cell_angle_gamma   59.98737820
_symmetry_Int_Tables_number   1
_chemical_formula_structural   Er8Al2CoPd
_chemical_formula_sum   'Er16 Al4 Co2 Pd2'
_cell_volume   592.70198422
_cell_formula_units_Z   2
loop_
 _symmetry_equiv_pos_site_id
 _symmetry_equiv_pos_as_xyz
  1  'x, y, z'
loop_
 _atom_site_type_symbol
 _atom_site_label
 _atom_site_symmetry_multiplicity
 _atom_site_fract_x
 _atom_site_fract_y
 _atom_site_fract_z
 _atom_site_occupancy
  Er  Er0  1  0.349216  0.349216  0.362920  1
  Er  Er1  1  0.349216  0.349216  0.938646  1
  Er  Er2  1  0.343158  0.948979  0.353930  1
  Er  Er3  1  0.948979  0.343158  0.353930  1
  Er  Er4  1  0.816861  0.191394  0.192291  1
  Er  Er5  1  0.191394  0.816861  0.799454  1
  Er  Er6  1  0.191394  0.816861  0.192291  1
  Er  Er7  1  0.816861  0.191394  0.799454  1
  Er  Er8  1  0.189628  0.189628  0.810372  1
  Er  Er9  1  0.805722  0.805722  0.194278  1
  Er  Er10  1  0.934973  0.561221  0.566239  1
  Er  Er11  1  0.561221  0.934973  0.937567  1
  Er  Er12  1  0.561221  0.934973  0.566239  1
  Er  Er13  1  0.934973  0.561221  0.937567  1
  Er  Er14  1  0.562015  0.562015  0.937985  1
  Er  Er15  1  0.935363  0.935363  0.564637  1
  Al  Al16  1  0.578499  0.578499  0.575361  1
  Al  Al17  1  0.578499  0.578499  0.267640  1
  Al  Al18  1  0.580278  0.266492  0.576615  1
  Al  Al19  1  0.266492  0.580278  0.576615  1
  Co  Co20  1  0.143370  0.143370  0.141173  1
  Co  Co21  1  0.143370  0.143370  0.572088  1
  Pd  Pd22  1  0.146517  0.570778  0.141353  1
  Pd  Pd23  1  0.570778  0.146517  0.141353  1
