# generated using pymatgen
data_Na2Dy3P12Ru5Rh14
_symmetry_space_group_name_H-M   'P 1'
_cell_length_a   12.60088309
_cell_length_b   12.61976189
_cell_length_c   3.94233400
_cell_angle_alpha   90.00000000
_cell_angle_beta   90.00000000
_cell_angle_gamma   120.13406412
_symmetry_Int_Tables_number   1
_chemical_formula_structural   Na2Dy3P12Ru5Rh14
_chemical_formula_sum   'Na2 Dy3 P12 Ru5 Rh14'
_cell_volume   542.18551008
_cell_formula_units_Z   1
loop_
 _symmetry_equiv_pos_site_id
 _symmetry_equiv_pos_as_xyz
  1  'x, y, z'
loop_
 _atom_site_type_symbol
 _atom_site_label
 _atom_site_symmetry_multiplicity
 _atom_site_fract_x
 _atom_site_fract_y
 _atom_site_fract_z
 _atom_site_occupancy
  Na  Na0  1  0.817062  0.000730  0.500000  1
  Na  Na1  1  0.180827  0.183339  0.500000  1
  Dy  Dy2  1  0.667322  0.331597  0.000000  1
  Dy  Dy3  1  0.333377  0.668409  0.000000  1
  Dy  Dy4  1  0.999439  0.821282  0.500000  1
  P  P5  1  0.633547  0.998748  0.000000  1
  P  P6  1  0.365276  0.365443  0.000000  1
  P  P7  1  0.000265  0.634753  0.000000  1
  P  P8  1  0.688311  0.519803  0.500000  1
  P  P9  1  0.829444  0.304847  0.500000  1
  P  P10  1  0.318079  0.837404  0.500000  1
  P  P11  1  0.522525  0.693518  0.500000  1
  P  P12  1  0.179449  0.999982  0.000000  1
  P  P13  1  0.818898  0.817752  0.000000  1
  P  P14  1  0.995941  0.181615  0.000000  1
  P  P15  1  0.476551  0.168373  0.500000  1
  P  P16  1  0.166948  0.478602  0.500000  1
  Ru  Ru17  1  0.514694  0.873549  0.500000  1
  Ru  Ru18  1  0.716800  0.714020  0.500000  1
  Ru  Ru19  1  0.001112  0.284986  0.500000  1
  Ru  Ru20  1  0.814097  0.194343  0.000000  1
  Ru  Ru21  1  0.281600  0.998673  0.500000  1
  Rh  Rh22  1  0.623652  0.804260  0.000000  1
  Rh  Rh23  1  0.186473  0.378966  0.000000  1
  Rh  Rh24  1  0.377013  0.183085  0.000000  1
  Rh  Rh25  1  0.191664  0.817635  0.000000  1
  Rh  Rh26  1  0.806847  0.622266  0.000000  1
  Rh  Rh27  1  0.871163  0.507226  0.500000  1
  Rh  Rh28  1  0.488779  0.360711  0.500000  1
  Rh  Rh29  1  0.632087  0.126892  0.500000  1
  Rh  Rh30  1  0.132491  0.642430  0.500000  1
  Rh  Rh31  1  0.364022  0.493537  0.500000  1
  Rh  Rh32  1  0.998451  0.997962  0.000000  1
  Rh  Rh33  1  0.447464  0.992448  0.000000  1
  Rh  Rh34  1  0.550583  0.542935  0.000000  1
  Rh  Rh35  1  0.007749  0.457877  0.000000  1
