# generated using pymatgen
data_Tb3Th11Ir6
_symmetry_space_group_name_H-M   'P 1'
_cell_length_a   10.00256851
_cell_length_b   10.02142956
_cell_length_c   6.35316187
_cell_angle_alpha   90.22519914
_cell_angle_beta   89.81461137
_cell_angle_gamma   119.96852455
_symmetry_Int_Tables_number   1
_chemical_formula_structural   Tb3Th11Ir6
_chemical_formula_sum   'Tb3 Th11 Ir6'
_cell_volume   551.69061888
_cell_formula_units_Z   1
loop_
 _symmetry_equiv_pos_site_id
 _symmetry_equiv_pos_as_xyz
  1  'x, y, z'
loop_
 _atom_site_type_symbol
 _atom_site_label
 _atom_site_symmetry_multiplicity
 _atom_site_fract_x
 _atom_site_fract_y
 _atom_site_fract_z
 _atom_site_occupancy
  Tb  Tb0  1  0.459743  0.539405  0.295602  1
  Tb  Tb1  1  0.077931  0.538239  0.300326  1
  Tb  Tb2  1  0.923250  0.462035  0.801220  1
  Th  Th3  1  0.254329  0.128895  0.500277  1
  Th  Th4  1  0.543437  0.084883  0.794065  1
  Th  Th5  1  0.745985  0.873449  0.000690  1
  Th  Th6  1  0.665478  0.331794  0.293210  1
  Th  Th7  1  0.127090  0.869599  0.001138  1
  Th  Th8  1  0.456686  0.912878  0.292743  1
  Th  Th9  1  0.542524  0.459038  0.796061  1
  Th  Th10  1  0.873614  0.129661  0.502212  1
  Th  Th11  1  0.126838  0.256637  0.000248  1
  Th  Th12  1  0.870028  0.741986  0.499464  1
  Th  Th13  1  0.334176  0.667366  0.783853  1
  Ir  Ir14  1  0.810342  0.624808  0.054616  1
  Ir  Ir15  1  0.811480  0.186504  0.055000  1
  Ir  Ir16  1  0.626573  0.816232  0.552839  1
  Ir  Ir17  1  0.375797  0.188871  0.051191  1
  Ir  Ir18  1  0.185386  0.373080  0.555720  1
  Ir  Ir19  1  0.189314  0.814639  0.553526  1
