# generated using pymatgen
data_CsY8Er2(C2I9)2
_symmetry_space_group_name_H-M   'P 1'
_cell_length_a   11.53256123
_cell_length_b   11.52206646
_cell_length_c   11.50257543
_cell_angle_alpha   113.20441060
_cell_angle_beta   86.46679137
_cell_angle_gamma   120.29724067
_symmetry_Int_Tables_number   1
_chemical_formula_structural   CsY8Er2(C2I9)2
_chemical_formula_sum   'Cs1 Y8 Er2 C4 I18'
_cell_volume   1194.68647760
_cell_formula_units_Z   1
loop_
 _symmetry_equiv_pos_site_id
 _symmetry_equiv_pos_as_xyz
  1  'x, y, z'
loop_
 _atom_site_type_symbol
 _atom_site_label
 _atom_site_symmetry_multiplicity
 _atom_site_fract_x
 _atom_site_fract_y
 _atom_site_fract_z
 _atom_site_occupancy
  Cs  Cs0  1  0.499898  0.999619  0.499817  1
  Y  Y1  1  0.093223  0.389003  0.290729  1
  Y  Y2  1  0.963584  0.036997  0.323776  1
  Y  Y3  1  0.907158  0.610949  0.709135  1
  Y  Y4  1  0.103614  0.944978  0.000542  1
  Y  Y5  1  0.036279  0.963063  0.676131  1
  Y  Y6  1  0.319610  0.274038  0.287062  1
  Y  Y7  1  0.722827  0.647466  0.985384  1
  Y  Y8  1  0.896299  0.055314  0.999798  1
  Er  Er9  1  0.682296  0.726718  0.714890  1
  Er  Er10  1  0.275612  0.350618  0.015173  1
  C  C11  1  0.151232  0.219009  0.119573  1
  C  C12  1  0.848222  0.780730  0.879819  1
  C  C13  1  0.924187  0.856971  0.803574  1
  C  C14  1  0.075246  0.142996  0.195964  1
  I  I15  1  0.451413  0.530936  0.831560  1
  I  I16  1  0.381658  0.040390  0.157324  1
  I  I17  1  0.777885  0.854844  0.503024  1
  I  I18  1  0.838553  0.308430  0.152958  1
  I  I19  1  0.547496  0.469675  0.165982  1
  I  I20  1  0.220599  0.143910  0.498405  1
  I  I21  1  0.316883  0.099362  0.830255  1
  I  I22  1  0.682869  0.902778  0.171140  1
  I  I23  1  0.972831  0.755682  0.169586  1
  I  I24  1  0.933110  0.297526  0.501019  1
  I  I25  1  0.029334  0.245730  0.831508  1
  I  I26  1  0.067386  0.702850  0.499207  1
  I  I27  1  0.261962  0.618972  0.179935  1
  I  I28  1  0.739253  0.378821  0.817594  1
  I  I29  1  0.643526  0.439791  0.503609  1
  I  I30  1  0.161660  0.691835  0.846804  1
  I  I31  1  0.618544  0.957248  0.841290  1
  I  I32  1  0.355753  0.562749  0.497432  1
