# generated using pymatgen
data_Tb4Dy12CdNi4Hg3
_symmetry_space_group_name_H-M   'P 1'
_cell_length_a   9.53800222
_cell_length_b   9.53248483
_cell_length_c   9.53248500
_cell_angle_alpha   59.99999595
_cell_angle_beta   60.01912951
_cell_angle_gamma   60.01912833
_symmetry_Int_Tables_number   1
_chemical_formula_structural   Tb4Dy12CdNi4Hg3
_chemical_formula_sum   'Tb4 Dy12 Cd1 Ni4 Hg3'
_cell_volume   613.02780034
_cell_formula_units_Z   1
loop_
 _symmetry_equiv_pos_site_id
 _symmetry_equiv_pos_as_xyz
  1  'x, y, z'
loop_
 _atom_site_type_symbol
 _atom_site_label
 _atom_site_symmetry_multiplicity
 _atom_site_fract_x
 _atom_site_fract_y
 _atom_site_fract_z
 _atom_site_occupancy
  Tb  Tb0  1  0.600582  0.599716  0.599716  1
  Tb  Tb1  1  0.600582  0.599716  0.199986  1
  Tb  Tb2  1  0.600582  0.199986  0.599716  1
  Tb  Tb3  1  0.197863  0.600713  0.600713  1
  Dy  Dy4  1  0.060922  0.438691  0.438691  1
  Dy  Dy5  1  0.436796  0.062368  0.062368  1
  Dy  Dy6  1  0.436796  0.062368  0.438469  1
  Dy  Dy7  1  0.060922  0.438691  0.061696  1
  Dy  Dy8  1  0.436796  0.438469  0.062368  1
  Dy  Dy9  1  0.060922  0.061696  0.438691  1
  Dy  Dy10  1  0.185229  0.814363  0.814363  1
  Dy  Dy11  1  0.812952  0.186416  0.186416  1
  Dy  Dy12  1  0.812952  0.186416  0.814216  1
  Dy  Dy13  1  0.185229  0.814363  0.186046  1
  Dy  Dy14  1  0.812952  0.814216  0.186416  1
  Dy  Dy15  1  0.185229  0.186046  0.814363  1
  Cd  Cd16  1  0.509232  0.830256  0.830256  1
  Ni  Ni17  1  0.391930  0.392269  0.392269  1
  Ni  Ni18  1  0.391930  0.392269  0.823532  1
  Ni  Ni19  1  0.391930  0.823532  0.392269  1
  Ni  Ni20  1  0.823474  0.392175  0.392175  1
  Hg  Hg21  1  0.834734  0.835687  0.835687  1
  Hg  Hg22  1  0.834734  0.835687  0.493892  1
  Hg  Hg23  1  0.834734  0.493892  0.835687  1
