# generated using pymatgen
data_CeDy2Mg3Ir2Au
_symmetry_space_group_name_H-M   'P 1'
_cell_length_a   7.65898100
_cell_length_b   7.40469536
_cell_length_c   3.97903200
_cell_angle_alpha   90.00000000
_cell_angle_beta   90.00000000
_cell_angle_gamma   121.14263585
_symmetry_Int_Tables_number   1
_chemical_formula_structural   CeDy2Mg3Ir2Au
_chemical_formula_sum   'Ce1 Dy2 Mg3 Ir2 Au1'
_cell_volume   193.13890025
_cell_formula_units_Z   1
loop_
 _symmetry_equiv_pos_site_id
 _symmetry_equiv_pos_as_xyz
  1  'x, y, z'
loop_
 _atom_site_type_symbol
 _atom_site_label
 _atom_site_symmetry_multiplicity
 _atom_site_fract_x
 _atom_site_fract_y
 _atom_site_fract_z
 _atom_site_occupancy
  Ce  Ce0  1  0.568905  0.000000  0.000000  1
  Dy  Dy1  1  0.000021  0.583120  0.000000  1
  Dy  Dy2  1  0.416901  0.416880  0.000000  1
  Mg  Mg3  1  0.002520  0.256876  0.500000  1
  Mg  Mg4  1  0.245978  0.000000  0.500000  1
  Mg  Mg5  1  0.745644  0.743124  0.500000  1
  Ir  Ir6  1  0.348333  0.680048  0.500000  1
  Ir  Ir7  1  0.668286  0.319952  0.500000  1
  Au  Au8  1  0.003413  0.000000  0.000000  1
