# generated using pymatgen
data_Er9LuTlSb5
_symmetry_space_group_name_H-M   'P 1'
_cell_length_a   8.81515938
_cell_length_b   8.81227680
_cell_length_c   6.31519900
_cell_angle_alpha   90.02838692
_cell_angle_beta   89.98310731
_cell_angle_gamma   120.00713773
_symmetry_Int_Tables_number   1
_chemical_formula_structural   Er9LuTlSb5
_chemical_formula_sum   'Er9 Lu1 Tl1 Sb5'
_cell_volume   424.81972804
_cell_formula_units_Z   1
loop_
 _symmetry_equiv_pos_site_id
 _symmetry_equiv_pos_as_xyz
  1  'x, y, z'
loop_
 _atom_site_type_symbol
 _atom_site_label
 _atom_site_symmetry_multiplicity
 _atom_site_fract_x
 _atom_site_fract_y
 _atom_site_fract_z
 _atom_site_occupancy
  Er  Er0  1  0.002811  0.758924  0.750207  1
  Er  Er1  1  0.998002  0.242604  0.249966  1
  Er  Er2  1  0.755754  0.757020  0.249924  1
  Er  Er3  1  0.758771  0.000157  0.750004  1
  Er  Er4  1  0.243994  0.240938  0.750046  1
  Er  Er5  1  0.239746  0.000238  0.250125  1
  Er  Er6  1  0.665457  0.331452  0.000816  1
  Er  Er7  1  0.665855  0.332207  0.499063  1
  Er  Er8  1  0.333977  0.668467  0.000780  1
  Lu  Lu9  1  0.333939  0.668518  0.499872  1
  Tl  Tl10  1  0.394420  0.999017  0.748437  1
  Sb  Sb11  1  0.390305  0.392325  0.250810  1
  Sb  Sb12  1  0.999820  0.608475  0.250785  1
  Sb  Sb13  1  0.001847  0.391980  0.748998  1
  Sb  Sb14  1  0.608867  0.608640  0.748925  1
  Sb  Sb15  1  0.606435  0.999038  0.251244  1
