# generated using pymatgen
data_Sc8CrOs3C8
_symmetry_space_group_name_H-M   'P 1'
_cell_length_a   4.75339000
_cell_length_b   6.22121123
_cell_length_c   9.27137556
_cell_angle_alpha   90.25372282
_cell_angle_beta   90.00000000
_cell_angle_gamma   90.00000000
_symmetry_Int_Tables_number   1
_chemical_formula_structural   Sc8CrOs3C8
_chemical_formula_sum   'Sc8 Cr1 Os3 C8'
_cell_volume   274.16897678
_cell_formula_units_Z   1
loop_
 _symmetry_equiv_pos_site_id
 _symmetry_equiv_pos_as_xyz
  1  'x, y, z'
loop_
 _atom_site_type_symbol
 _atom_site_label
 _atom_site_symmetry_multiplicity
 _atom_site_fract_x
 _atom_site_fract_y
 _atom_site_fract_z
 _atom_site_occupancy
  Sc  Sc0  1  0.250000  0.669351  0.564195  1
  Sc  Sc1  1  0.750000  0.335043  0.440285  1
  Sc  Sc2  1  0.750000  0.831538  0.058267  1
  Sc  Sc3  1  0.250000  0.163485  0.938595  1
  Sc  Sc4  1  0.250000  0.541679  0.215855  1
  Sc  Sc5  1  0.750000  0.459005  0.779551  1
  Sc  Sc6  1  0.750000  0.963479  0.717495  1
  Sc  Sc7  1  0.250000  0.041783  0.282237  1
  Cr  Cr8  1  0.250000  0.709071  0.873675  1
  Os  Os9  1  0.750000  0.293415  0.124427  1
  Os  Os10  1  0.750000  0.795367  0.375102  1
  Os  Os11  1  0.250000  0.208484  0.627294  1
  C  C12  1  0.250000  0.445790  0.764942  1
  C  C13  1  0.750000  0.560776  0.240945  1
  C  C14  1  0.750000  0.059765  0.257819  1
  C  C15  1  0.250000  0.934624  0.744997  1
  C  C16  1  0.250000  0.826187  0.057135  1
  C  C17  1  0.750000  0.162545  0.935517  1
  C  C18  1  0.750000  0.664004  0.565095  1
  C  C19  1  0.250000  0.334608  0.436572  1
