# generated using pymatgen
data_LuFe12P7W
_symmetry_space_group_name_H-M   'P 1'
_cell_length_a   3.57457500
_cell_length_b   8.83566057
_cell_length_c   8.83486515
_cell_angle_alpha   119.99797555
_cell_angle_beta   90.00000000
_cell_angle_gamma   90.00000000
_symmetry_Int_Tables_number   1
_chemical_formula_structural   LuFe12P7W
_chemical_formula_sum   'Lu1 Fe12 P7 W1'
_cell_volume   241.65893295
_cell_formula_units_Z   1
loop_
 _symmetry_equiv_pos_site_id
 _symmetry_equiv_pos_as_xyz
  1  'x, y, z'
loop_
 _atom_site_type_symbol
 _atom_site_label
 _atom_site_symmetry_multiplicity
 _atom_site_fract_x
 _atom_site_fract_y
 _atom_site_fract_z
 _atom_site_occupancy
  Lu  Lu0  1  0.500000  0.333341  0.666678  1
  Fe  Fe1  1  0.000000  0.376546  0.944738  1
  Fe  Fe2  1  0.000000  0.055253  0.431853  1
  Fe  Fe3  1  0.000000  0.568156  0.623438  1
  Fe  Fe4  1  0.000000  0.879053  0.722394  1
  Fe  Fe5  1  0.000000  0.277660  0.156699  1
  Fe  Fe6  1  0.000000  0.843295  0.120921  1
  Fe  Fe7  1  0.500000  0.932942  0.554937  1
  Fe  Fe8  1  0.500000  0.445108  0.377993  1
  Fe  Fe9  1  0.500000  0.622008  0.067012  1
  Fe  Fe10  1  0.500000  0.123227  0.897714  1
  Fe  Fe11  1  0.500000  0.102306  0.225490  1
  Fe  Fe12  1  0.500000  0.774527  0.876784  1
  P  P13  1  0.000000  0.116468  0.705668  1
  P  P14  1  0.000000  0.294322  0.410819  1
  P  P15  1  0.000000  0.589218  0.883511  1
  P  P16  1  0.500000  0.707951  0.594452  1
  P  P17  1  0.500000  0.405563  0.113555  1
  P  P18  1  0.500000  0.886441  0.292049  1
  P  P19  1  0.000000  0.999982  0.000002  1
  W  W20  1  0.000000  0.666634  0.333296  1
