# generated using pymatgen
data_Tb3NdCo12(CuB3)2
_symmetry_space_group_name_H-M   'P 1'
_cell_length_a   5.07602800
_cell_length_b   5.07309179
_cell_length_c   12.77533300
_cell_angle_alpha   89.99994764
_cell_angle_beta   90.00009337
_cell_angle_gamma   120.01913476
_symmetry_Int_Tables_number   1
_chemical_formula_structural   Tb3NdCo12(CuB3)2
_chemical_formula_sum   'Tb3 Nd1 Co12 Cu2 B6'
_cell_volume   284.84973466
_cell_formula_units_Z   1
loop_
 _symmetry_equiv_pos_site_id
 _symmetry_equiv_pos_as_xyz
  1  'x, y, z'
loop_
 _atom_site_type_symbol
 _atom_site_label
 _atom_site_symmetry_multiplicity
 _atom_site_fract_x
 _atom_site_fract_y
 _atom_site_fract_z
 _atom_site_occupancy
  Tb  Tb0  1  0.999993  0.000000  0.500017  1
  Tb  Tb1  1  0.999987  0.000000  0.262668  1
  Tb  Tb2  1  0.000000  0.000000  0.737394  1
  Nd  Nd3  1  0.999987  0.000000  0.999959  1
  Co  Co4  1  0.499987  0.000000  0.161853  1
  Co  Co5  1  0.499987  0.500000  0.161813  1
  Co  Co6  1  0.999987  0.500000  0.161813  1
  Co  Co7  1  0.499997  0.000000  0.838140  1
  Co  Co8  1  0.499996  0.500003  0.838182  1
  Co  Co9  1  0.999993  0.499997  0.838182  1
  Co  Co10  1  0.499991  0.000000  0.386368  1
  Co  Co11  1  0.499991  0.500000  0.386374  1
  Co  Co12  1  0.999990  0.500000  0.386374  1
  Co  Co13  1  0.499996  0.000000  0.613637  1
  Co  Co14  1  0.499996  0.500000  0.613629  1
  Co  Co15  1  0.999996  0.500000  0.613629  1
  Cu  Cu16  1  0.333328  0.666687  0.999972  1
  Cu  Cu17  1  0.666641  0.333313  0.999972  1
  B  B18  1  0.333346  0.666709  0.499998  1
  B  B19  1  0.666639  0.333291  0.499998  1
  B  B20  1  0.333447  0.666916  0.270357  1
  B  B21  1  0.666531  0.333084  0.270357  1
  B  B22  1  0.666691  0.333392  0.729656  1
  B  B23  1  0.333299  0.666608  0.729656  1
