# generated using pymatgen
data_PrPaBeSi4Rh
_symmetry_space_group_name_H-M   'P 1'
_cell_length_a   8.54182235
_cell_length_b   8.54182349
_cell_length_c   4.09718000
_cell_angle_alpha   90.00000000
_cell_angle_beta   90.00000000
_cell_angle_gamma   151.92876307
_symmetry_Int_Tables_number   1
_chemical_formula_structural   PrPaBeSi4Rh
_chemical_formula_sum   'Pr1 Pa1 Be1 Si4 Rh1'
_cell_volume   140.67258609
_cell_formula_units_Z   1
loop_
 _symmetry_equiv_pos_site_id
 _symmetry_equiv_pos_as_xyz
  1  'x, y, z'
loop_
 _atom_site_type_symbol
 _atom_site_label
 _atom_site_symmetry_multiplicity
 _atom_site_fract_x
 _atom_site_fract_y
 _atom_site_fract_z
 _atom_site_occupancy
  Pr  Pr0  1  0.597962  0.402038  0.250000  1
  Pa  Pa1  1  0.388496  0.611504  0.750000  1
  Be  Be2  1  0.828081  0.171919  0.250000  1
  Si  Si3  1  0.957925  0.042075  0.250000  1
  Si  Si4  1  0.034272  0.965728  0.750000  1
  Si  Si5  1  0.256846  0.743154  0.250000  1
  Si  Si6  1  0.753431  0.246569  0.750000  1
  Rh  Rh7  1  0.182988  0.817012  0.750000  1
