# generated using pymatgen
data_Ho9Co4AgAu2
_symmetry_space_group_name_H-M   'P 1'
_cell_length_a   8.50261889
_cell_length_b   8.50268281
_cell_length_c   8.50361505
_cell_angle_alpha   129.33773865
_cell_angle_beta   129.34800632
_cell_angle_gamma   74.44916031
_symmetry_Int_Tables_number   1
_chemical_formula_structural   Ho9Co4AgAu2
_chemical_formula_sum   'Ho9 Co4 Ag1 Au2'
_cell_volume   358.37006674
_cell_formula_units_Z   1
loop_
 _symmetry_equiv_pos_site_id
 _symmetry_equiv_pos_as_xyz
  1  'x, y, z'
loop_
 _atom_site_type_symbol
 _atom_site_label
 _atom_site_symmetry_multiplicity
 _atom_site_fract_x
 _atom_site_fract_y
 _atom_site_fract_z
 _atom_site_occupancy
  Ho  Ho0  1  0.707702  0.554998  0.525360  1
  Ho  Ho1  1  0.444871  0.970418  0.152482  1
  Ho  Ho2  1  0.817929  0.292377  0.847493  1
  Ho  Ho3  1  0.555129  0.029582  0.847518  1
  Ho  Ho4  1  0.029632  0.182356  0.474654  1
  Ho  Ho5  1  0.292298  0.445002  0.474640  1
  Ho  Ho6  1  0.182071  0.707623  0.152507  1
  Ho  Ho7  1  0.970368  0.817644  0.525346  1
  Ho  Ho8  1  0.500000  0.500000  0.000000  1
  Co  Co9  1  0.122612  0.613431  0.736053  1
  Co  Co10  1  0.877388  0.386569  0.263947  1
  Co  Co11  1  0.613208  0.877859  0.491063  1
  Co  Co12  1  0.386792  0.122141  0.508937  1
  Ag  Ag13  1  0.000000  0.000000  0.000000  1
  Au  Au14  1  0.263484  0.263489  0.999996  1
  Au  Au15  1  0.736516  0.736511  0.000004  1
