# generated using pymatgen
data_Eu2ScGeO6
_symmetry_space_group_name_H-M   'P 1'
_cell_length_a   5.62410900
_cell_length_b   5.56505684
_cell_length_c   9.66210300
_cell_angle_alpha   54.73397187
_cell_angle_beta   90.00000000
_cell_angle_gamma   90.00000000
_symmetry_Int_Tables_number   1
_chemical_formula_structural   Eu2ScGeO6
_chemical_formula_sum   'Eu4 Sc2 Ge2 O12'
_cell_volume   246.91108323
_cell_formula_units_Z   2
loop_
 _symmetry_equiv_pos_site_id
 _symmetry_equiv_pos_as_xyz
  1  'x, y, z'
loop_
 _atom_site_type_symbol
 _atom_site_label
 _atom_site_symmetry_multiplicity
 _atom_site_fract_x
 _atom_site_fract_y
 _atom_site_fract_z
 _atom_site_occupancy
  Eu  Eu0  1  0.463258  0.241487  0.750156  1
  Eu  Eu1  1  0.536742  0.758513  0.249844  1
  Eu  Eu2  1  0.963258  0.758513  0.749844  1
  Eu  Eu3  1  0.036742  0.241487  0.250156  1
  Sc  Sc4  1  0.000000  0.000000  0.000000  1
  Sc  Sc5  1  0.500000  0.000000  0.500000  1
  Ge  Ge6  1  0.000000  0.500000  0.500000  1
  Ge  Ge7  1  0.500000  0.500000  0.000000  1
  O  O8  1  0.018422  0.337386  0.738733  1
  O  O9  1  0.981578  0.662614  0.261267  1
  O  O10  1  0.518422  0.662614  0.761267  1
  O  O11  1  0.481578  0.337386  0.238733  1
  O  O12  1  0.703924  0.813755  0.960374  1
  O  O13  1  0.296076  0.186245  0.039626  1
  O  O14  1  0.203924  0.186245  0.539626  1
  O  O15  1  0.796076  0.813755  0.460374  1
  O  O16  1  0.224893  0.743782  0.958815  1
  O  O17  1  0.775107  0.256218  0.041185  1
  O  O18  1  0.724893  0.256218  0.541185  1
  O  O19  1  0.275107  0.743782  0.458815  1
