# generated using pymatgen
data_Zr12Zn4Ir7PtN4
_symmetry_space_group_name_H-M   'P 1'
_cell_length_a   8.56546947
_cell_length_b   8.56546997
_cell_length_c   8.57392308
_cell_angle_alpha   60.03260693
_cell_angle_beta   60.03260484
_cell_angle_gamma   60.00000055
_symmetry_Int_Tables_number   1
_chemical_formula_structural   Zr12Zn4Ir7PtN4
_chemical_formula_sum   'Zr12 Zn4 Ir7 Pt1 N4'
_cell_volume   445.02131843
_cell_formula_units_Z   1
loop_
 _symmetry_equiv_pos_site_id
 _symmetry_equiv_pos_as_xyz
  1  'x, y, z'
loop_
 _atom_site_type_symbol
 _atom_site_label
 _atom_site_symmetry_multiplicity
 _atom_site_fract_x
 _atom_site_fract_y
 _atom_site_fract_z
 _atom_site_occupancy
  Zr  Zr0  1  0.808295  0.191814  0.191597  1
  Zr  Zr1  1  0.191814  0.808295  0.191597  1
  Zr  Zr2  1  0.808295  0.808295  0.191597  1
  Zr  Zr3  1  0.191581  0.809210  0.807627  1
  Zr  Zr4  1  0.809210  0.191581  0.807627  1
  Zr  Zr5  1  0.191581  0.191581  0.807627  1
  Zr  Zr6  1  0.442296  0.053439  0.061968  1
  Zr  Zr7  1  0.053439  0.442296  0.061968  1
  Zr  Zr8  1  0.442296  0.442296  0.061968  1
  Zr  Zr9  1  0.057553  0.442513  0.442380  1
  Zr  Zr10  1  0.442513  0.057553  0.442380  1
  Zr  Zr11  1  0.057553  0.057553  0.442380  1
  Zn  Zn12  1  0.625224  0.625224  0.124329  1
  Zn  Zn13  1  0.625194  0.625194  0.624328  1
  Zn  Zn14  1  0.125284  0.625194  0.624328  1
  Zn  Zn15  1  0.625194  0.125284  0.624328  1
  Ir  Ir16  1  0.415263  0.415263  0.413243  1
  Ir  Ir17  1  0.756230  0.415263  0.413243  1
  Ir  Ir18  1  0.415263  0.756230  0.413243  1
  Ir  Ir19  1  0.835081  0.835081  0.494758  1
  Ir  Ir20  1  0.835162  0.835162  0.834448  1
  Ir  Ir21  1  0.495229  0.835162  0.834448  1
  Ir  Ir22  1  0.835162  0.495229  0.834448  1
  Pt  Pt23  1  0.414156  0.414156  0.757530  1
  N  N24  1  0.124788  0.124788  0.625636  1
  N  N25  1  0.125520  0.125520  0.123658  1
  N  N26  1  0.625301  0.125520  0.123658  1
  N  N27  1  0.125520  0.625301  0.123658  1
