# generated using pymatgen
data_Mn4CoNiS8
_symmetry_space_group_name_H-M   'P 1'
_cell_length_a   6.81478171
_cell_length_b   6.81478180
_cell_length_c   6.81478100
_cell_angle_alpha   59.99999904
_cell_angle_beta   59.99999860
_cell_angle_gamma   59.99999951
_symmetry_Int_Tables_number   1
_chemical_formula_structural   Mn4CoNiS8
_chemical_formula_sum   'Mn4 Co1 Ni1 S8'
_cell_volume   223.79006424
_cell_formula_units_Z   1
loop_
 _symmetry_equiv_pos_site_id
 _symmetry_equiv_pos_as_xyz
  1  'x, y, z'
loop_
 _atom_site_type_symbol
 _atom_site_label
 _atom_site_symmetry_multiplicity
 _atom_site_fract_x
 _atom_site_fract_y
 _atom_site_fract_z
 _atom_site_occupancy
  Mn  Mn0  1  0.625126  0.625126  0.124621  1
  Mn  Mn1  1  0.625126  0.124621  0.625126  1
  Mn  Mn2  1  0.124621  0.625126  0.625126  1
  Mn  Mn3  1  0.625126  0.625126  0.625126  1
  Co  Co4  1  0.250000  0.250000  0.250000  1
  Ni  Ni5  1  0.000000  0.000000  0.000000  1
  S  S6  1  0.869492  0.869492  0.391525  1
  S  S7  1  0.869492  0.391525  0.869492  1
  S  S8  1  0.391525  0.869492  0.869492  1
  S  S9  1  0.869492  0.869492  0.869492  1
  S  S10  1  0.379668  0.379668  0.860996  1
  S  S11  1  0.379668  0.860996  0.379668  1
  S  S12  1  0.860996  0.379668  0.379668  1
  S  S13  1  0.379668  0.379668  0.379668  1
