# generated using pymatgen
data_Dy3Y2Ge6P6Ir19
_symmetry_space_group_name_H-M   'P 1'
_cell_length_a   12.96876300
_cell_length_b   12.96790272
_cell_length_c   3.98411300
_cell_angle_alpha   90.00000000
_cell_angle_beta   90.00000000
_cell_angle_gamma   120.00240513
_symmetry_Int_Tables_number   1
_chemical_formula_structural   Dy3Y2Ge6P6Ir19
_chemical_formula_sum   'Dy3 Y2 Ge6 P6 Ir19'
_cell_volume   580.25654947
_cell_formula_units_Z   1
loop_
 _symmetry_equiv_pos_site_id
 _symmetry_equiv_pos_as_xyz
  1  'x, y, z'
loop_
 _atom_site_type_symbol
 _atom_site_label
 _atom_site_symmetry_multiplicity
 _atom_site_fract_x
 _atom_site_fract_y
 _atom_site_fract_z
 _atom_site_occupancy
  Dy  Dy0  1  0.666643  0.333330  0.500000  1
  Dy  Dy1  1  0.180835  0.182368  0.000000  1
  Dy  Dy2  1  0.817625  0.998448  0.000000  1
  Y  Y3  1  0.333335  0.666662  0.500000  1
  Y  Y4  1  0.001480  0.819067  0.000000  1
  Ge  Ge5  1  0.998714  0.639223  0.500000  1
  Ge  Ge6  1  0.360740  0.359403  0.500000  1
  Ge  Ge7  1  0.640588  0.001308  0.500000  1
  Ge  Ge8  1  0.518550  0.678408  0.000000  1
  Ge  Ge9  1  0.321577  0.840126  0.000000  1
  Ge  Ge10  1  0.159889  0.481471  0.000000  1
  P  P11  1  0.483813  0.178017  0.000000  1
  P  P12  1  0.694200  0.516158  0.000000  1
  P  P13  1  0.821955  0.305790  0.000000  1
  P  P14  1  0.995049  0.175446  0.500000  1
  P  P15  1  0.824486  0.819623  0.500000  1
  P  P16  1  0.180457  0.005013  0.500000  1
  Ir  Ir17  1  0.520892  0.870809  0.000000  1
  Ir  Ir18  1  0.129211  0.650083  0.000000  1
  Ir  Ir19  1  0.349899  0.479091  0.000000  1
  Ir  Ir20  1  0.499814  0.368300  0.000000  1
  Ir  Ir21  1  0.868484  0.500178  0.000000  1
  Ir  Ir22  1  0.631736  0.131552  0.000000  1
  Ir  Ir23  1  0.007109  0.453521  0.500000  1
  Ir  Ir24  1  0.546367  0.553532  0.500000  1
  Ir  Ir25  1  0.446461  0.992879  0.500000  1
  Ir  Ir26  1  0.989790  0.271056  0.000000  1
  Ir  Ir27  1  0.728938  0.718800  0.000000  1
  Ir  Ir28  1  0.281282  0.010254  0.000000  1
  Ir  Ir29  1  0.638582  0.808671  0.500000  1
  Ir  Ir30  1  0.191442  0.829923  0.500000  1
  Ir  Ir31  1  0.170100  0.361420  0.500000  1
  Ir  Ir32  1  0.386008  0.179746  0.500000  1
  Ir  Ir33  1  0.793706  0.613947  0.500000  1
  Ir  Ir34  1  0.820260  0.206252  0.500000  1
  Ir  Ir35  1  0.999984  0.000121  0.500000  1
