# generated using pymatgen
data_Tb3DyHf2(SnRh)6
_symmetry_space_group_name_H-M   'P 1'
_cell_length_a   7.53605945
_cell_length_b   7.47182869
_cell_length_c   7.60285700
_cell_angle_alpha   90.00000000
_cell_angle_beta   90.00000000
_cell_angle_gamma   119.74736289
_symmetry_Int_Tables_number   1
_chemical_formula_structural   Tb3DyHf2(SnRh)6
_chemical_formula_sum   'Tb3 Dy1 Hf2 Sn6 Rh6'
_cell_volume   371.68809998
_cell_formula_units_Z   1
loop_
 _symmetry_equiv_pos_site_id
 _symmetry_equiv_pos_as_xyz
  1  'x, y, z'
loop_
 _atom_site_type_symbol
 _atom_site_label
 _atom_site_symmetry_multiplicity
 _atom_site_fract_x
 _atom_site_fract_y
 _atom_site_fract_z
 _atom_site_occupancy
  Tb  Tb0  1  0.000090  0.403383  0.250000  1
  Tb  Tb1  1  0.589496  0.592895  0.250000  1
  Tb  Tb2  1  0.410983  0.003189  0.250000  1
  Dy  Dy3  1  0.002386  0.405215  0.750000  1
  Hf  Hf4  1  0.604080  0.601082  0.750000  1
  Hf  Hf5  1  0.394429  0.994662  0.750000  1
  Sn  Sn6  1  0.263078  0.262329  0.508802  1
  Sn  Sn7  1  0.999091  0.734493  0.497368  1
  Sn  Sn8  1  0.999091  0.734493  0.002632  1
  Sn  Sn9  1  0.737632  0.001061  0.509725  1
  Sn  Sn10  1  0.737632  0.001061  0.990275  1
  Sn  Sn11  1  0.263078  0.262329  0.991198  1
  Rh  Rh12  1  0.343753  0.675632  0.527635  1
  Rh  Rh13  1  0.655854  0.331506  0.532161  1
  Rh  Rh14  1  0.343753  0.675632  0.972365  1
  Rh  Rh15  1  0.000263  0.986573  0.750000  1
  Rh  Rh16  1  0.999461  0.002960  0.250000  1
  Rh  Rh17  1  0.655854  0.331506  0.967839  1
