# generated using pymatgen
data_Rb4V3Te10
_symmetry_space_group_name_H-M   'P 1'
_cell_length_a   9.68888000
_cell_length_b   9.78383580
_cell_length_c   14.88046417
_cell_angle_alpha   65.72374860
_cell_angle_beta   90.00000000
_cell_angle_gamma   90.00000000
_symmetry_Int_Tables_number   1
_chemical_formula_structural   Rb4V3Te10
_chemical_formula_sum   'Rb8 V6 Te20'
_cell_volume   1285.85213347
_cell_formula_units_Z   2
loop_
 _symmetry_equiv_pos_site_id
 _symmetry_equiv_pos_as_xyz
  1  'x, y, z'
loop_
 _atom_site_type_symbol
 _atom_site_label
 _atom_site_symmetry_multiplicity
 _atom_site_fract_x
 _atom_site_fract_y
 _atom_site_fract_z
 _atom_site_occupancy
  Rb  Rb0  1  0.126197  0.442364  0.327504  1
  Rb  Rb1  1  0.373803  0.442364  0.827504  1
  Rb  Rb2  1  0.873803  0.557636  0.672496  1
  Rb  Rb3  1  0.626197  0.557636  0.172496  1
  Rb  Rb4  1  0.664209  0.982669  0.335050  1
  Rb  Rb5  1  0.835791  0.982669  0.835050  1
  Rb  Rb6  1  0.335791  0.017331  0.664950  1
  Rb  Rb7  1  0.164209  0.017331  0.164950  1
  V  V8  1  0.500000  0.500000  0.500000  1
  V  V9  1  0.000000  0.500000  0.000000  1
  V  V10  1  0.700424  0.280933  0.532761  1
  V  V11  1  0.799576  0.280933  0.032761  1
  V  V12  1  0.299576  0.719067  0.467239  1
  V  V13  1  0.200424  0.719067  0.967239  1
  Te  Te14  1  0.031963  0.801937  0.424821  1
  Te  Te15  1  0.468037  0.801937  0.924821  1
  Te  Te16  1  0.968037  0.198063  0.575179  1
  Te  Te17  1  0.531963  0.198063  0.075179  1
  Te  Te18  1  0.237863  0.008324  0.420849  1
  Te  Te19  1  0.262137  0.008324  0.920849  1
  Te  Te20  1  0.762137  0.991676  0.579151  1
  Te  Te21  1  0.737863  0.991676  0.079151  1
  Te  Te22  1  0.768736  0.554948  0.426696  1
  Te  Te23  1  0.731264  0.554948  0.926696  1
  Te  Te24  1  0.231264  0.445052  0.573304  1
  Te  Te25  1  0.268736  0.445052  0.073304  1
  Te  Te26  1  0.589109  0.297177  0.681828  1
  Te  Te27  1  0.910891  0.297177  0.181828  1
  Te  Te28  1  0.410891  0.702823  0.318172  1
  Te  Te29  1  0.089109  0.702823  0.818172  1
  Te  Te30  1  0.490808  0.278824  0.427087  1
  Te  Te31  1  0.009192  0.278824  0.927087  1
  Te  Te32  1  0.509192  0.721176  0.572913  1
  Te  Te33  1  0.990808  0.721176  0.072913  1
