# generated using pymatgen
data_Y3Er5(SiBr6)2
_symmetry_space_group_name_H-M   'P 1'
_cell_length_a   4.03654300
_cell_length_b   13.17244861
_cell_length_c   13.95497565
_cell_angle_alpha   89.96501510
_cell_angle_beta   90.00000000
_cell_angle_gamma   90.00000000
_symmetry_Int_Tables_number   1
_chemical_formula_structural   Y3Er5(SiBr6)2
_chemical_formula_sum   'Y3 Er5 Si2 Br12'
_cell_volume   742.00203843
_cell_formula_units_Z   1
loop_
 _symmetry_equiv_pos_site_id
 _symmetry_equiv_pos_as_xyz
  1  'x, y, z'
loop_
 _atom_site_type_symbol
 _atom_site_label
 _atom_site_symmetry_multiplicity
 _atom_site_fract_x
 _atom_site_fract_y
 _atom_site_fract_z
 _atom_site_occupancy
  Y  Y0  1  0.000000  0.118619  0.578768  1
  Y  Y1  1  0.000000  0.881442  0.421198  1
  Y  Y2  1  0.000000  0.617742  0.921743  1
  Er  Er3  1  0.500000  0.117901  0.341521  1
  Er  Er4  1  0.500000  0.882199  0.658418  1
  Er  Er5  1  0.500000  0.617659  0.158290  1
  Er  Er6  1  0.500000  0.382270  0.841744  1
  Er  Er7  1  0.000000  0.382162  0.078262  1
  Si  Si8  1  0.500000  0.000048  0.499947  1
  Si  Si9  1  0.500000  0.498648  0.000898  1
  Br  Br10  1  0.500000  0.244870  0.162848  1
  Br  Br11  1  0.500000  0.757025  0.836220  1
  Br  Br12  1  0.500000  0.742514  0.335876  1
  Br  Br13  1  0.500000  0.257408  0.664178  1
  Br  Br14  1  0.000000  0.255498  0.409481  1
  Br  Br15  1  0.000000  0.744565  0.590402  1
  Br  Br16  1  0.000000  0.755338  0.090339  1
  Br  Br17  1  0.000000  0.245272  0.911087  1
  Br  Br18  1  0.000000  0.003818  0.242280  1
  Br  Br19  1  0.000000  0.996378  0.757601  1
  Br  Br20  1  0.000000  0.502214  0.256386  1
  Br  Br21  1  0.000000  0.496411  0.742514  1
