# generated using pymatgen
data_Ho2Nb3Co9As7
_symmetry_space_group_name_H-M   'P 1'
_cell_length_a   3.81114300
_cell_length_b   9.52977950
_cell_length_c   9.52977900
_cell_angle_alpha   120.00000172
_cell_angle_beta   90.00000000
_cell_angle_gamma   90.00000000
_symmetry_Int_Tables_number   1
_chemical_formula_structural   Ho2Nb3Co9As7
_chemical_formula_sum   'Ho2 Nb3 Co9 As7'
_cell_volume   299.74472580
_cell_formula_units_Z   1
loop_
 _symmetry_equiv_pos_site_id
 _symmetry_equiv_pos_as_xyz
  1  'x, y, z'
loop_
 _atom_site_type_symbol
 _atom_site_label
 _atom_site_symmetry_multiplicity
 _atom_site_fract_x
 _atom_site_fract_y
 _atom_site_fract_z
 _atom_site_occupancy
  Ho  Ho0  1  0.000000  0.666667  0.333333  1
  Ho  Ho1  1  0.500000  0.333333  0.666667  1
  Nb  Nb2  1  0.500000  0.775953  0.897079  1
  Nb  Nb3  1  0.500000  0.121126  0.224047  1
  Nb  Nb4  1  0.500000  0.102921  0.878874  1
  Co  Co5  1  0.000000  0.570237  0.937596  1
  Co  Co6  1  0.000000  0.367359  0.429763  1
  Co  Co7  1  0.000000  0.062404  0.632641  1
  Co  Co8  1  0.000000  0.876833  0.160812  1
  Co  Co9  1  0.000000  0.283979  0.123167  1
  Co  Co10  1  0.000000  0.839188  0.716021  1
  Co  Co11  1  0.500000  0.948064  0.385024  1
  Co  Co12  1  0.500000  0.436959  0.051936  1
  Co  Co13  1  0.500000  0.614976  0.563041  1
  As  As14  1  0.000000  0.000000  0.000000  1
  As  As15  1  0.500000  0.708519  0.125012  1
  As  As16  1  0.500000  0.416494  0.291481  1
  As  As17  1  0.500000  0.874988  0.583506  1
  As  As18  1  0.000000  0.580125  0.692348  1
  As  As19  1  0.000000  0.112224  0.419875  1
  As  As20  1  0.000000  0.307652  0.887776  1
