# generated using pymatgen
data_Lu2Nb4FeB4Ru9
_symmetry_space_group_name_H-M   'P 1'
_cell_length_a   9.43849298
_cell_length_b   9.43849324
_cell_length_c   3.09567900
_cell_angle_alpha   90.00000000
_cell_angle_beta   90.00000000
_cell_angle_gamma   89.99411772
_symmetry_Int_Tables_number   1
_chemical_formula_structural   Lu2Nb4FeB4Ru9
_chemical_formula_sum   'Lu2 Nb4 Fe1 B4 Ru9'
_cell_volume   275.77903335
_cell_formula_units_Z   1
loop_
 _symmetry_equiv_pos_site_id
 _symmetry_equiv_pos_as_xyz
  1  'x, y, z'
loop_
 _atom_site_type_symbol
 _atom_site_label
 _atom_site_symmetry_multiplicity
 _atom_site_fract_x
 _atom_site_fract_y
 _atom_site_fract_z
 _atom_site_occupancy
  Lu  Lu0  1  0.822564  0.677436  0.000000  1
  Lu  Lu1  1  0.177436  0.322564  0.000000  1
  Nb  Nb2  1  0.330139  0.830139  0.000000  1
  Nb  Nb3  1  0.669861  0.169861  0.000000  1
  Nb  Nb4  1  0.500000  0.500000  0.000000  1
  Nb  Nb5  1  0.000000  0.000000  0.000000  1
  Fe  Fe6  1  0.500000  0.000000  0.500000  1
  B  B7  1  0.612526  0.887474  0.000000  1
  B  B8  1  0.387474  0.112526  0.000000  1
  B  B9  1  0.121188  0.621188  0.000000  1
  B  B10  1  0.878812  0.378812  0.000000  1
  Ru  Ru11  1  0.557862  0.728397  0.500000  1
  Ru  Ru12  1  0.442138  0.271603  0.500000  1
  Ru  Ru13  1  0.079451  0.785725  0.500000  1
  Ru  Ru14  1  0.920549  0.214275  0.500000  1
  Ru  Ru15  1  0.285725  0.579451  0.500000  1
  Ru  Ru16  1  0.714275  0.420549  0.500000  1
  Ru  Ru17  1  0.228397  0.057862  0.500000  1
  Ru  Ru18  1  0.771603  0.942138  0.500000  1
  Ru  Ru19  1  0.000000  0.500000  0.500000  1
