# generated using pymatgen
data_U8Re3B24Mo
_symmetry_space_group_name_H-M   'P 1'
_cell_length_a   3.65590300
_cell_length_b   9.27786709
_cell_length_c   11.37102611
_cell_angle_alpha   90.01599999
_cell_angle_beta   90.00000000
_cell_angle_gamma   90.00000000
_symmetry_Int_Tables_number   1
_chemical_formula_structural   U8Re3B24Mo
_chemical_formula_sum   'U8 Re3 B24 Mo1'
_cell_volume   385.69361641
_cell_formula_units_Z   1
loop_
 _symmetry_equiv_pos_site_id
 _symmetry_equiv_pos_as_xyz
  1  'x, y, z'
loop_
 _atom_site_type_symbol
 _atom_site_label
 _atom_site_symmetry_multiplicity
 _atom_site_fract_x
 _atom_site_fract_y
 _atom_site_fract_z
 _atom_site_occupancy
  U  U0  1  0.000000  0.335698  0.407277  1
  U  U1  1  0.000000  0.664319  0.592038  1
  U  U2  1  0.000000  0.835086  0.092847  1
  U  U3  1  0.000000  0.164131  0.907791  1
  U  U4  1  0.000000  0.955591  0.395724  1
  U  U5  1  0.000000  0.044321  0.604509  1
  U  U6  1  0.000000  0.456613  0.104805  1
  U  U7  1  0.000000  0.543734  0.895345  1
  Re  Re8  1  0.000000  0.355550  0.679991  1
  Re  Re9  1  0.000000  0.144235  0.179610  1
  Re  Re10  1  0.000000  0.856207  0.820289  1
  B  B11  1  0.500000  0.549112  0.433663  1
  B  B12  1  0.500000  0.450002  0.567535  1
  B  B13  1  0.500000  0.049539  0.067172  1
  B  B14  1  0.500000  0.950390  0.932886  1
  B  B15  1  0.500000  0.743016  0.424708  1
  B  B16  1  0.500000  0.257136  0.576296  1
  B  B17  1  0.500000  0.242811  0.076304  1
  B  B18  1  0.500000  0.757270  0.923354  1
  B  B19  1  0.500000  0.804203  0.272716  1
  B  B20  1  0.500000  0.196520  0.726904  1
  B  B21  1  0.500000  0.302816  0.226589  1
  B  B22  1  0.500000  0.696632  0.773061  1
  B  B23  1  0.500000  0.644755  0.187086  1
  B  B24  1  0.500000  0.355799  0.812090  1
  B  B25  1  0.500000  0.144012  0.311802  1
  B  B26  1  0.500000  0.856071  0.688330  1
  B  B27  1  0.500000  0.985841  0.218744  1
  B  B28  1  0.500000  0.014805  0.781103  1
  B  B29  1  0.500000  0.484112  0.280731  1
  B  B30  1  0.500000  0.514632  0.718916  1
  B  B31  1  0.500000  0.642895  0.038747  1
  B  B32  1  0.500000  0.357170  0.960611  1
  B  B33  1  0.500000  0.142938  0.460352  1
  B  B34  1  0.500000  0.857729  0.540090  1
  Mo  Mo35  1  0.000000  0.644308  0.319988  1
