# generated using pymatgen
data_Y15Tm5(Cd3Pt)2
_symmetry_space_group_name_H-M   'P 1'
_cell_length_a   9.71496100
_cell_length_b   9.71495986
_cell_length_c   9.75129900
_cell_angle_alpha   90.00000000
_cell_angle_beta   90.00000000
_cell_angle_gamma   120.00000046
_symmetry_Int_Tables_number   1
_chemical_formula_structural   Y15Tm5(Cd3Pt)2
_chemical_formula_sum   'Y15 Tm5 Cd6 Pt2'
_cell_volume   797.03092989
_cell_formula_units_Z   1
loop_
 _symmetry_equiv_pos_site_id
 _symmetry_equiv_pos_as_xyz
  1  'x, y, z'
loop_
 _atom_site_type_symbol
 _atom_site_label
 _atom_site_symmetry_multiplicity
 _atom_site_fract_x
 _atom_site_fract_y
 _atom_site_fract_z
 _atom_site_occupancy
  Y  Y0  1  0.793484  0.206516  0.059166  1
  Y  Y1  1  0.793484  0.586968  0.059166  1
  Y  Y2  1  0.413032  0.206516  0.059166  1
  Y  Y3  1  0.792973  0.207027  0.440849  1
  Y  Y4  1  0.792973  0.585946  0.440849  1
  Y  Y5  1  0.414054  0.207027  0.440849  1
  Y  Y6  1  0.206916  0.793084  0.559889  1
  Y  Y7  1  0.206916  0.413832  0.559889  1
  Y  Y8  1  0.586168  0.793084  0.559889  1
  Y  Y9  1  0.541974  0.458026  0.751041  1
  Y  Y10  1  0.541974  0.083948  0.751041  1
  Y  Y11  1  0.916052  0.458026  0.751041  1
  Y  Y12  1  0.457289  0.542711  0.248348  1
  Y  Y13  1  0.457289  0.914578  0.248348  1
  Y  Y14  1  0.085422  0.542711  0.248348  1
  Tm  Tm15  1  0.208206  0.791794  0.940014  1
  Tm  Tm16  1  0.208206  0.416413  0.940014  1
  Tm  Tm17  1  0.583587  0.791794  0.940014  1
  Tm  Tm18  1  0.000000  0.000000  0.999839  1
  Tm  Tm19  1  0.000000  0.000000  0.499175  1
  Cd  Cd20  1  0.885076  0.114924  0.750260  1
  Cd  Cd21  1  0.885076  0.770155  0.750260  1
  Cd  Cd22  1  0.229845  0.114924  0.750260  1
  Cd  Cd23  1  0.115104  0.884896  0.249875  1
  Cd  Cd24  1  0.115104  0.230207  0.249875  1
  Cd  Cd25  1  0.769793  0.884896  0.249875  1
  Pt  Pt26  1  0.333333  0.666667  0.753480  1
  Pt  Pt27  1  0.666667  0.333333  0.249184  1
