# generated using pymatgen
data_Ba4Mn2CrFeN8
_symmetry_space_group_name_H-M   'P 1'
_cell_length_a   6.45148042
_cell_length_b   6.45147955
_cell_length_c   7.78737695
_cell_angle_alpha   90.48739084
_cell_angle_beta   89.51261168
_cell_angle_gamma   126.07991140
_symmetry_Int_Tables_number   1
_chemical_formula_structural   Ba4Mn2CrFeN8
_chemical_formula_sum   'Ba4 Mn2 Cr1 Fe1 N8'
_cell_volume   261.94315011
_cell_formula_units_Z   1
loop_
 _symmetry_equiv_pos_site_id
 _symmetry_equiv_pos_as_xyz
  1  'x, y, z'
loop_
 _atom_site_type_symbol
 _atom_site_label
 _atom_site_symmetry_multiplicity
 _atom_site_fract_x
 _atom_site_fract_y
 _atom_site_fract_z
 _atom_site_occupancy
  Ba  Ba0  1  0.834498  0.165502  0.560806  1
  Ba  Ba1  1  0.152614  0.847386  0.441604  1
  Ba  Ba2  1  0.660609  0.339391  0.054756  1
  Ba  Ba3  1  0.344222  0.655778  0.934811  1
  Mn  Mn4  1  0.449559  0.550441  0.366438  1
  Mn  Mn5  1  0.947816  0.052184  0.139001  1
  Cr  Cr6  1  0.051574  0.948426  0.868024  1
  Fe  Fe7  1  0.548324  0.451676  0.631093  1
  N  N8  1  0.893059  0.106941  0.911745  1
  N  N9  1  0.108327  0.891673  0.087082  1
  N  N10  1  0.606717  0.393283  0.404190  1
  N  N11  1  0.385648  0.614352  0.580885  1
  N  N12  1  0.341288  0.145735  0.757534  1
  N  N13  1  0.158348  0.336869  0.252248  1
  N  N14  1  0.663131  0.841652  0.252248  1
  N  N15  1  0.854265  0.658712  0.757534  1
