# generated using pymatgen
data_KCr(PO3)4
_symmetry_space_group_name_H-M   'P 1'
_cell_length_a   10.58715829
_cell_length_b   10.58715864
_cell_length_c   5.25193846
_cell_angle_alpha   80.82110673
_cell_angle_beta   80.82110536
_cell_angle_gamma   71.82737794
_symmetry_Int_Tables_number   1
_chemical_formula_structural   KCr(PO3)4
_chemical_formula_sum   'K2 Cr2 P8 O24'
_cell_volume   548.36021586
_cell_formula_units_Z   2
loop_
 _symmetry_equiv_pos_site_id
 _symmetry_equiv_pos_as_xyz
  1  'x, y, z'
loop_
 _atom_site_type_symbol
 _atom_site_label
 _atom_site_symmetry_multiplicity
 _atom_site_fract_x
 _atom_site_fract_y
 _atom_site_fract_z
 _atom_site_occupancy
  K  K0  1  0.407716  0.407716  0.737082  1
  K  K1  1  0.592284  0.592284  0.262918  1
  Cr  Cr2  1  0.500000  0.000000  0.000000  1
  Cr  Cr3  1  0.000000  0.500000  0.000000  1
  P  P4  1  0.798703  0.354761  0.836026  1
  P  P5  1  0.068065  0.308076  0.535446  1
  P  P6  1  0.308076  0.068065  0.535446  1
  P  P7  1  0.645239  0.201297  0.163974  1
  P  P8  1  0.354761  0.798703  0.836026  1
  P  P9  1  0.691924  0.931935  0.464554  1
  P  P10  1  0.931935  0.691924  0.464554  1
  P  P11  1  0.201297  0.645239  0.163974  1
  O  O12  1  0.425964  0.847736  0.012405  1
  O  O13  1  0.398213  0.098933  0.698436  1
  O  O14  1  0.429760  0.677204  0.710394  1
  O  O15  1  0.152264  0.574036  0.987595  1
  O  O16  1  0.574036  0.152264  0.987595  1
  O  O17  1  0.911379  0.658125  0.754294  1
  O  O18  1  0.215422  0.784578  0.000000  1
  O  O19  1  0.570240  0.322796  0.289606  1
  O  O20  1  0.601787  0.901067  0.301564  1
  O  O21  1  0.708391  0.077506  0.377612  1
  O  O22  1  0.322796  0.570240  0.289606  1
  O  O23  1  0.901067  0.601787  0.301564  1
  O  O24  1  0.847736  0.425964  0.012405  1
  O  O25  1  0.077506  0.708391  0.377612  1
  O  O26  1  0.156613  0.156613  0.606746  1
  O  O27  1  0.098933  0.398213  0.698436  1
  O  O28  1  0.677204  0.429760  0.710394  1
  O  O29  1  0.291609  0.922494  0.622388  1
  O  O30  1  0.784578  0.215422  0.000000  1
  O  O31  1  0.341875  0.088621  0.245706  1
  O  O32  1  0.658125  0.911379  0.754294  1
  O  O33  1  0.843387  0.843387  0.393254  1
  O  O34  1  0.922494  0.291609  0.622388  1
  O  O35  1  0.088621  0.341875  0.245706  1
