# generated using pymatgen
data_CeCo2(PRu)3
_symmetry_space_group_name_H-M   'P 1'
_cell_length_a   3.81030400
_cell_length_b   10.71185900
_cell_length_c   12.17970700
_cell_angle_alpha   90.00000000
_cell_angle_beta   90.00000000
_cell_angle_gamma   90.00000000
_symmetry_Int_Tables_number   1
_chemical_formula_structural   CeCo2(PRu)3
_chemical_formula_sum   'Ce4 Co8 P12 Ru12'
_cell_volume   497.12009047
_cell_formula_units_Z   4
loop_
 _symmetry_equiv_pos_site_id
 _symmetry_equiv_pos_as_xyz
  1  'x, y, z'
loop_
 _atom_site_type_symbol
 _atom_site_label
 _atom_site_symmetry_multiplicity
 _atom_site_fract_x
 _atom_site_fract_y
 _atom_site_fract_z
 _atom_site_occupancy
  Ce  Ce0  1  0.250000  0.585334  0.705887  1
  Ce  Ce1  1  0.250000  0.914666  0.205887  1
  Ce  Ce2  1  0.750000  0.414666  0.294113  1
  Ce  Ce3  1  0.750000  0.085334  0.794113  1
  Co  Co4  1  0.250000  0.888815  0.696531  1
  Co  Co5  1  0.250000  0.611185  0.196531  1
  Co  Co6  1  0.750000  0.111185  0.303469  1
  Co  Co7  1  0.750000  0.388815  0.803469  1
  Co  Co8  1  0.250000  0.463868  0.933513  1
  Co  Co9  1  0.250000  0.036132  0.433513  1
  Co  Co10  1  0.750000  0.536132  0.066487  1
  Co  Co11  1  0.750000  0.963868  0.566487  1
  P  P12  1  0.250000  0.425480  0.109672  1
  P  P13  1  0.250000  0.074520  0.609672  1
  P  P14  1  0.750000  0.574520  0.890328  1
  P  P15  1  0.750000  0.925480  0.390328  1
  P  P16  1  0.250000  0.275959  0.870881  1
  P  P17  1  0.250000  0.224041  0.370881  1
  P  P18  1  0.750000  0.724041  0.129119  1
  P  P19  1  0.750000  0.775959  0.629119  1
  P  P20  1  0.250000  0.603543  0.387689  1
  P  P21  1  0.250000  0.896457  0.887689  1
  P  P22  1  0.750000  0.396457  0.612311  1
  P  P23  1  0.750000  0.103543  0.112311  1
  Ru  Ru24  1  0.250000  0.708279  0.988277  1
  Ru  Ru25  1  0.250000  0.791721  0.488277  1
  Ru  Ru26  1  0.750000  0.291721  0.011723  1
  Ru  Ru27  1  0.750000  0.208279  0.511723  1
  Ru  Ru28  1  0.250000  0.404954  0.483681  1
  Ru  Ru29  1  0.250000  0.095046  0.983681  1
  Ru  Ru30  1  0.750000  0.595046  0.516319  1
  Ru  Ru31  1  0.750000  0.904954  0.016319  1
  Ru  Ru32  1  0.250000  0.223739  0.179373  1
  Ru  Ru33  1  0.250000  0.276261  0.679373  1
  Ru  Ru34  1  0.750000  0.776261  0.820627  1
  Ru  Ru35  1  0.750000  0.723739  0.320627  1
