# generated using pymatgen
data_TaNb5Al4(AuC)2
_symmetry_space_group_name_H-M   'P 1'
_cell_length_a   8.45374749
_cell_length_b   8.45655290
_cell_length_c   8.45374647
_cell_angle_alpha   59.98902526
_cell_angle_beta   60.02196118
_cell_angle_gamma   59.98902864
_symmetry_Int_Tables_number   1
_chemical_formula_structural   TaNb5Al4(AuC)2
_chemical_formula_sum   'Ta2 Nb10 Al8 Au4 C4'
_cell_volume   427.34321841
_cell_formula_units_Z   2
loop_
 _symmetry_equiv_pos_site_id
 _symmetry_equiv_pos_as_xyz
  1  'x, y, z'
loop_
 _atom_site_type_symbol
 _atom_site_label
 _atom_site_symmetry_multiplicity
 _atom_site_fract_x
 _atom_site_fract_y
 _atom_site_fract_z
 _atom_site_occupancy
  Ta  Ta0  1  0.678288  0.321712  0.678288  1
  Ta  Ta1  1  0.928288  0.571712  0.928288  1
  Nb  Nb2  1  0.570191  0.929809  0.570191  1
  Nb  Nb3  1  0.319892  0.679618  0.680661  1
  Nb  Nb4  1  0.680661  0.319828  0.319892  1
  Nb  Nb5  1  0.320191  0.679809  0.320191  1
  Nb  Nb6  1  0.680661  0.679618  0.319892  1
  Nb  Nb7  1  0.319892  0.319828  0.680661  1
  Nb  Nb8  1  0.570382  0.569339  0.930172  1
  Nb  Nb9  1  0.930172  0.569339  0.570382  1
  Nb  Nb10  1  0.570382  0.930108  0.930172  1
  Nb  Nb11  1  0.930172  0.930108  0.570382  1
  Al  Al12  1  0.913876  0.914140  0.913876  1
  Al  Al13  1  0.991892  0.336124  0.335860  1
  Al  Al14  1  0.336318  0.991155  0.336318  1
  Al  Al15  1  0.335860  0.336124  0.991892  1
  Al  Al16  1  0.913876  0.258108  0.913876  1
  Al  Al17  1  0.913792  0.913682  0.258845  1
  Al  Al18  1  0.258845  0.913682  0.913792  1
  Al  Al19  1  0.336318  0.336208  0.336318  1
  Au  Au20  1  0.124408  0.126339  0.124408  1
  Au  Au21  1  0.625156  0.125592  0.123661  1
  Au  Au22  1  0.124408  0.624844  0.124408  1
  Au  Au23  1  0.123661  0.125592  0.625156  1
  C  C24  1  0.625604  0.623074  0.625604  1
  C  C25  1  0.124283  0.624396  0.626926  1
  C  C26  1  0.625604  0.125717  0.625604  1
  C  C27  1  0.626926  0.624396  0.124283  1
