# generated using pymatgen
data_LaTl(SeO4)2
_symmetry_space_group_name_H-M   'P 1'
_cell_length_a   7.50149500
_cell_length_b   9.02424060
_cell_length_c   11.25409800
_cell_angle_alpha   91.67513679
_cell_angle_beta   90.00000000
_cell_angle_gamma   90.00000000
_symmetry_Int_Tables_number   1
_chemical_formula_structural   LaTl(SeO4)2
_chemical_formula_sum   'La4 Tl4 Se8 O32'
_cell_volume   761.52390835
_cell_formula_units_Z   4
loop_
 _symmetry_equiv_pos_site_id
 _symmetry_equiv_pos_as_xyz
  1  'x, y, z'
loop_
 _atom_site_type_symbol
 _atom_site_label
 _atom_site_symmetry_multiplicity
 _atom_site_fract_x
 _atom_site_fract_y
 _atom_site_fract_z
 _atom_site_occupancy
  La  La0  1  0.666225  0.056371  0.347668  1
  La  La1  1  0.166225  0.943629  0.152332  1
  La  La2  1  0.333775  0.943629  0.652332  1
  La  La3  1  0.833775  0.056371  0.847668  1
  Tl  Tl4  1  0.853823  0.562563  0.342983  1
  Tl  Tl5  1  0.646177  0.562563  0.842983  1
  Tl  Tl6  1  0.146177  0.437437  0.657017  1
  Tl  Tl7  1  0.353823  0.437437  0.157017  1
  Se  Se8  1  0.164468  0.187459  0.392219  1
  Se  Se9  1  0.841572  0.278339  0.089557  1
  Se  Se10  1  0.335532  0.187459  0.892219  1
  Se  Se11  1  0.835532  0.812541  0.607781  1
  Se  Se12  1  0.158428  0.721661  0.910444  1
  Se  Se13  1  0.658428  0.278339  0.589556  1
  Se  Se14  1  0.341572  0.721661  0.410443  1
  Se  Se15  1  0.664468  0.812541  0.107781  1
  O  O16  1  0.479491  0.591056  0.364297  1
  O  O17  1  0.979491  0.408944  0.135703  1
  O  O18  1  0.520509  0.408944  0.635703  1
  O  O19  1  0.020509  0.591056  0.864297  1
  O  O20  1  0.753275  0.302821  0.456188  1
  O  O21  1  0.253275  0.697179  0.043812  1
  O  O22  1  0.246725  0.697179  0.543812  1
  O  O23  1  0.746725  0.302821  0.956188  1
  O  O24  1  0.683134  0.245820  0.190852  1
  O  O25  1  0.183134  0.754180  0.309148  1
  O  O26  1  0.316866  0.754180  0.809148  1
  O  O27  1  0.816866  0.245820  0.690852  1
  O  O28  1  0.450900  0.882746  0.444077  1
  O  O29  1  0.950900  0.117254  0.055923  1
  O  O30  1  0.549100  0.117254  0.555923  1
  O  O31  1  0.049100  0.882746  0.944077  1
  O  O32  1  0.667891  0.880492  0.972026  1
  O  O33  1  0.167891  0.119508  0.527974  1
  O  O34  1  0.332109  0.119508  0.027974  1
  O  O35  1  0.832109  0.880492  0.472026  1
  O  O36  1  0.851635  0.630907  0.602301  1
  O  O37  1  0.351635  0.369093  0.897699  1
  O  O38  1  0.148365  0.369093  0.397699  1
  O  O39  1  0.648365  0.630907  0.102301  1
  O  O40  1  0.659629  0.866163  0.694235  1
  O  O41  1  0.159629  0.133837  0.805765  1
  O  O42  1  0.340371  0.133837  0.305765  1
  O  O43  1  0.840371  0.866163  0.194235  1
  O  O44  1  0.000502  0.899113  0.686705  1
  O  O45  1  0.500502  0.100887  0.813295  1
  O  O46  1  0.999498  0.100887  0.313295  1
  O  O47  1  0.499498  0.899113  0.186705  1
