# generated using pymatgen
data_Y8MnCr(OsC4)2
_symmetry_space_group_name_H-M   'P 1'
_cell_length_a   5.08694700
_cell_length_b   6.46316236
_cell_length_c   9.79015086
_cell_angle_alpha   90.29550363
_cell_angle_beta   90.00000000
_cell_angle_gamma   90.00000000
_symmetry_Int_Tables_number   1
_chemical_formula_structural   Y8MnCr(OsC4)2
_chemical_formula_sum   'Y8 Mn1 Cr1 Os2 C8'
_cell_volume   321.87399234
_cell_formula_units_Z   1
loop_
 _symmetry_equiv_pos_site_id
 _symmetry_equiv_pos_as_xyz
  1  'x, y, z'
loop_
 _atom_site_type_symbol
 _atom_site_label
 _atom_site_symmetry_multiplicity
 _atom_site_fract_x
 _atom_site_fract_y
 _atom_site_fract_z
 _atom_site_occupancy
  Y  Y0  1  0.250000  0.683104  0.557818  1
  Y  Y1  1  0.750000  0.316664  0.443332  1
  Y  Y2  1  0.750000  0.819457  0.053772  1
  Y  Y3  1  0.250000  0.179265  0.946655  1
  Y  Y4  1  0.250000  0.528724  0.217411  1
  Y  Y5  1  0.750000  0.471709  0.785552  1
  Y  Y6  1  0.750000  0.973449  0.714797  1
  Y  Y7  1  0.250000  0.027568  0.285661  1
  Mn  Mn8  1  0.250000  0.727551  0.859986  1
  Cr  Cr9  1  0.750000  0.273345  0.137960  1
  Os  Os10  1  0.750000  0.773932  0.361577  1
  Os  Os11  1  0.250000  0.226269  0.640262  1
  C  C12  1  0.250000  0.468230  0.763878  1
  C  C13  1  0.750000  0.534355  0.235498  1
  C  C14  1  0.750000  0.044595  0.255301  1
  C  C15  1  0.250000  0.954054  0.745000  1
  C  C16  1  0.250000  0.810296  0.034488  1
  C  C17  1  0.750000  0.187266  0.959629  1
  C  C18  1  0.750000  0.680151  0.548014  1
  C  C19  1  0.250000  0.320016  0.453407  1
