# generated using pymatgen
data_Nd11In9Ir3Rh
_symmetry_space_group_name_H-M   'P 1'
_cell_length_a   13.41253553
_cell_length_b   13.38996963
_cell_length_c   3.86466700
_cell_angle_alpha   90.00000000
_cell_angle_beta   90.00000000
_cell_angle_gamma   112.25258418
_symmetry_Int_Tables_number   1
_chemical_formula_structural   Nd11In9Ir3Rh
_chemical_formula_sum   'Nd11 In9 Ir3 Rh1'
_cell_volume   642.37698303
_cell_formula_units_Z   1
loop_
 _symmetry_equiv_pos_site_id
 _symmetry_equiv_pos_as_xyz
  1  'x, y, z'
loop_
 _atom_site_type_symbol
 _atom_site_label
 _atom_site_symmetry_multiplicity
 _atom_site_fract_x
 _atom_site_fract_y
 _atom_site_fract_z
 _atom_site_occupancy
  Nd  Nd0  1  0.079741  0.419589  0.000000  1
  Nd  Nd1  1  0.920419  0.580595  0.000000  1
  Nd  Nd2  1  0.419550  0.079230  0.000000  1
  Nd  Nd3  1  0.581131  0.920697  0.000000  1
  Nd  Nd4  1  0.626011  0.373218  0.000000  1
  Nd  Nd5  1  0.372706  0.626587  0.000000  1
  Nd  Nd6  1  0.840033  0.159854  0.000000  1
  Nd  Nd7  1  0.159364  0.839623  0.000000  1
  Nd  Nd8  1  0.999775  0.999794  0.000000  1
  Nd  Nd9  1  0.313396  0.313327  0.000000  1
  Nd  Nd10  1  0.688046  0.686042  0.000000  1
  In  In11  1  0.838014  0.365033  0.500000  1
  In  In12  1  0.161775  0.635099  0.500000  1
  In  In13  1  0.366218  0.838563  0.500000  1
  In  In14  1  0.634430  0.160547  0.500000  1
  In  In15  1  0.078463  0.219592  0.500000  1
  In  In16  1  0.921734  0.780293  0.500000  1
  In  In17  1  0.219710  0.077039  0.500000  1
  In  In18  1  0.779646  0.921805  0.500000  1
  In  In19  1  0.499502  0.500724  0.500000  1
  Ir  Ir20  1  0.247790  0.454571  0.500000  1
  Ir  Ir21  1  0.752353  0.547514  0.500000  1
  Ir  Ir22  1  0.453633  0.247377  0.500000  1
  Rh  Rh23  1  0.546562  0.753286  0.500000  1
