# generated using pymatgen
data_SrTb2Y(Ir2O7)2
_symmetry_space_group_name_H-M   'P 1'
_cell_length_a   7.31098771
_cell_length_b   7.31675824
_cell_length_c   7.29688146
_cell_angle_alpha   59.96908539
_cell_angle_beta   59.93602850
_cell_angle_gamma   60.02608684
_symmetry_Int_Tables_number   1
_chemical_formula_structural   SrTb2Y(Ir2O7)2
_chemical_formula_sum   'Sr1 Tb2 Y1 Ir4 O14'
_cell_volume   275.86118640
_cell_formula_units_Z   1
loop_
 _symmetry_equiv_pos_site_id
 _symmetry_equiv_pos_as_xyz
  1  'x, y, z'
loop_
 _atom_site_type_symbol
 _atom_site_label
 _atom_site_symmetry_multiplicity
 _atom_site_fract_x
 _atom_site_fract_y
 _atom_site_fract_z
 _atom_site_occupancy
  Sr  Sr0  1  0.125000  0.625000  0.125000  1
  Tb  Tb1  1  0.625000  0.125000  0.125000  1
  Tb  Tb2  1  0.125000  0.125000  0.125000  1
  Y  Y3  1  0.125000  0.125000  0.625000  1
  Ir  Ir4  1  0.125000  0.625000  0.625000  1
  Ir  Ir5  1  0.625000  0.125000  0.625000  1
  Ir  Ir6  1  0.625000  0.625000  0.125000  1
  Ir  Ir7  1  0.625000  0.625000  0.625000  1
  O  O8  1  0.692319  0.718549  0.294523  1
  O  O9  1  0.293308  0.291005  0.707624  1
  O  O10  1  0.708064  0.291005  0.707624  1
  O  O11  1  0.294610  0.718549  0.294523  1
  O  O12  1  0.294582  0.718893  0.691942  1
  O  O13  1  0.707667  0.291321  0.293345  1
  O  O14  1  0.557681  0.531451  0.955477  1
  O  O15  1  0.956692  0.958995  0.542376  1
  O  O16  1  0.541936  0.958995  0.542376  1
  O  O17  1  0.955390  0.531451  0.955477  1
  O  O18  1  0.955418  0.531107  0.558058  1
  O  O19  1  0.542333  0.958679  0.956655  1
  O  O20  1  0.256491  0.228637  0.258382  1
  O  O21  1  0.993509  0.021363  0.991618  1
