# generated using pymatgen
data_Pr6IrPtCl6
_symmetry_space_group_name_H-M   'P 1'
_cell_length_a   10.37888375
_cell_length_b   10.37562069
_cell_length_c   10.31209032
_cell_angle_alpha   109.43065394
_cell_angle_beta   109.43919577
_cell_angle_gamma   109.82080809
_symmetry_Int_Tables_number   1
_chemical_formula_structural   Pr6IrPtCl6
_chemical_formula_sum   'Pr12 Ir2 Pt2 Cl12'
_cell_volume   851.90478713
_cell_formula_units_Z   2
loop_
 _symmetry_equiv_pos_site_id
 _symmetry_equiv_pos_as_xyz
  1  'x, y, z'
loop_
 _atom_site_type_symbol
 _atom_site_label
 _atom_site_symmetry_multiplicity
 _atom_site_fract_x
 _atom_site_fract_y
 _atom_site_fract_z
 _atom_site_occupancy
  Pr  Pr0  1  0.478655  0.492624  0.237561  1
  Pr  Pr1  1  0.755008  0.241274  0.262480  1
  Pr  Pr2  1  0.755342  0.012834  0.493260  1
  Pr  Pr3  1  0.237864  0.480329  0.493314  1
  Pr  Pr4  1  0.258737  0.745005  0.237688  1
  Pr  Pr5  1  0.019424  0.261965  0.006469  1
  Pr  Pr6  1  0.007533  0.021514  0.262618  1
  Pr  Pr7  1  0.487197  0.744621  0.006533  1
  Pr  Pr8  1  0.490531  0.240434  0.480867  1
  Pr  Pr9  1  0.010487  0.489698  0.750030  1
  Pr  Pr10  1  0.259604  0.009512  0.019215  1
  Pr  Pr11  1  0.239637  0.260247  0.750034  1
  Ir  Ir12  1  0.000322  0.250298  0.500567  1
  Ir  Ir13  1  0.249697  0.499665  0.999412  1
  Pt  Pt14  1  0.249662  0.250329  0.249994  1
  Pt  Pt15  1  0.500312  0.999690  0.249995  1
  Cl  Cl16  1  0.250563  0.752288  0.750598  1
  Cl  Cl17  1  0.501660  0.499871  0.749398  1
  Cl  Cl18  1  0.002276  0.751645  0.001589  1
  Cl  Cl19  1  0.747716  0.249494  0.749400  1
  Cl  Cl20  1  0.000072  0.998334  0.750603  1
  Cl  Cl21  1  0.250129  0.000725  0.498420  1
  Cl  Cl22  1  0.748314  0.497702  0.498427  1
  Cl  Cl23  1  0.499311  0.249920  0.001592  1
  Cl  Cl24  1  0.749894  0.750088  0.249942  1
  Cl  Cl25  1  0.749990  0.000012  0.000019  1
  Cl  Cl26  1  0.000058  0.499851  0.249940  1
  Cl  Cl27  1  0.500007  0.750030  0.500031  1
