# generated using pymatgen
data_GdDy(ReB4)2
_symmetry_space_group_name_H-M   'P 1'
_cell_length_a   3.62311400
_cell_length_b   5.98876229
_cell_length_c   11.59117878
_cell_angle_alpha   89.96105813
_cell_angle_beta   90.00000000
_cell_angle_gamma   90.00000000
_symmetry_Int_Tables_number   1
_chemical_formula_structural   GdDy(ReB4)2
_chemical_formula_sum   'Gd2 Dy2 Re4 B16'
_cell_volume   251.50497403
_cell_formula_units_Z   2
loop_
 _symmetry_equiv_pos_site_id
 _symmetry_equiv_pos_as_xyz
  1  'x, y, z'
loop_
 _atom_site_type_symbol
 _atom_site_label
 _atom_site_symmetry_multiplicity
 _atom_site_fract_x
 _atom_site_fract_y
 _atom_site_fract_z
 _atom_site_occupancy
  Gd  Gd0  1  0.000000  0.626419  0.349544  1
  Gd  Gd1  1  0.000000  0.373581  0.650456  1
  Dy  Dy2  1  0.000000  0.126222  0.150089  1
  Dy  Dy3  1  0.000000  0.873778  0.849911  1
  Re  Re4  1  0.000000  0.633155  0.087069  1
  Re  Re5  1  0.000000  0.366845  0.912931  1
  Re  Re6  1  0.000000  0.132987  0.412194  1
  Re  Re7  1  0.000000  0.867013  0.587806  1
  B  B8  1  0.500000  0.787152  0.184387  1
  B  B9  1  0.500000  0.212848  0.815613  1
  B  B10  1  0.500000  0.286520  0.314976  1
  B  B11  1  0.500000  0.713480  0.685024  1
  B  B12  1  0.500000  0.863430  0.031324  1
  B  B13  1  0.500000  0.136570  0.968676  1
  B  B14  1  0.500000  0.362995  0.468398  1
  B  B15  1  0.500000  0.637005  0.531602  1
  B  B16  1  0.500000  0.886508  0.452872  1
  B  B17  1  0.500000  0.113492  0.547128  1
  B  B18  1  0.500000  0.386039  0.047131  1
  B  B19  1  0.500000  0.613961  0.952869  1
  B  B20  1  0.500000  0.976601  0.307807  1
  B  B21  1  0.500000  0.023399  0.692193  1
  B  B22  1  0.500000  0.476538  0.191610  1
  B  B23  1  0.500000  0.523462  0.808390  1
