# generated using pymatgen
data_Nd4DyNb3(Co4P3)4
_symmetry_space_group_name_H-M   'P 1'
_cell_length_a   12.28880964
_cell_length_b   12.28880898
_cell_length_c   3.74337900
_cell_angle_alpha   90.00000000
_cell_angle_beta   90.00000000
_cell_angle_gamma   119.96315471
_symmetry_Int_Tables_number   1
_chemical_formula_structural   Nd4DyNb3(Co4P3)4
_chemical_formula_sum   'Nd4 Dy1 Nb3 Co16 P12'
_cell_volume   489.75081298
_cell_formula_units_Z   1
loop_
 _symmetry_equiv_pos_site_id
 _symmetry_equiv_pos_as_xyz
  1  'x, y, z'
loop_
 _atom_site_type_symbol
 _atom_site_label
 _atom_site_symmetry_multiplicity
 _atom_site_fract_x
 _atom_site_fract_y
 _atom_site_fract_z
 _atom_site_occupancy
  Nd  Nd0  1  0.816457  0.000617  0.500000  1
  Nd  Nd1  1  0.000617  0.816457  0.500000  1
  Nd  Nd2  1  0.333056  0.666741  0.000000  1
  Nd  Nd3  1  0.666741  0.333056  0.000000  1
  Dy  Dy4  1  0.185037  0.185037  0.500000  1
  Nb  Nb5  1  0.442567  0.000691  0.000000  1
  Nb  Nb6  1  0.000691  0.442567  0.000000  1
  Nb  Nb7  1  0.555656  0.555656  0.000000  1
  Co  Co8  1  0.280101  0.002126  0.500000  1
  Co  Co9  1  0.002126  0.280101  0.500000  1
  Co  Co10  1  0.719012  0.719012  0.500000  1
  Co  Co11  1  0.624920  0.801367  0.000000  1
  Co  Co12  1  0.198288  0.824450  0.000000  1
  Co  Co13  1  0.177413  0.372938  0.000000  1
  Co  Co14  1  0.372938  0.177413  0.000000  1
  Co  Co15  1  0.801367  0.624920  0.000000  1
  Co  Co16  1  0.824450  0.198288  0.000000  1
  Co  Co17  1  0.520061  0.874895  0.500000  1
  Co  Co18  1  0.124932  0.645649  0.500000  1
  Co  Co19  1  0.353428  0.477944  0.500000  1
  Co  Co20  1  0.477944  0.353428  0.500000  1
  Co  Co21  1  0.874895  0.520061  0.500000  1
  Co  Co22  1  0.645649  0.124932  0.500000  1
  Co  Co23  1  0.001884  0.001884  0.000000  1
  P  P24  1  0.181437  0.003462  0.000000  1
  P  P25  1  0.003462  0.181437  0.000000  1
  P  P26  1  0.818889  0.818889  0.000000  1
  P  P27  1  0.523467  0.689488  0.500000  1
  P  P28  1  0.309487  0.834757  0.500000  1
  P  P29  1  0.166364  0.476108  0.500000  1
  P  P30  1  0.476108  0.166364  0.500000  1
  P  P31  1  0.689488  0.523467  0.500000  1
  P  P32  1  0.834757  0.309487  0.500000  1
  P  P33  1  0.639630  0.999885  0.000000  1
  P  P34  1  0.999885  0.639630  0.000000  1
  P  P35  1  0.356797  0.356797  0.000000  1
