# generated using pymatgen
data_K5Ag5Hg
_symmetry_space_group_name_H-M   'P 1'
_cell_length_a   16.28459760
_cell_length_b   16.28459703
_cell_length_c   5.10412000
_cell_angle_alpha   90.00000000
_cell_angle_beta   90.00000000
_cell_angle_gamma   162.71204726
_symmetry_Int_Tables_number   1
_chemical_formula_structural   K5Ag5Hg
_chemical_formula_sum   'K5 Ag5 Hg1'
_cell_volume   402.24059876
_cell_formula_units_Z   1
loop_
 _symmetry_equiv_pos_site_id
 _symmetry_equiv_pos_as_xyz
  1  'x, y, z'
loop_
 _atom_site_type_symbol
 _atom_site_label
 _atom_site_symmetry_multiplicity
 _atom_site_fract_x
 _atom_site_fract_y
 _atom_site_fract_z
 _atom_site_occupancy
  K  K0  1  0.004727  0.995273  0.000000  1
  K  K1  1  0.616160  0.383838  0.000000  1
  K  K2  1  0.381753  0.618245  0.000000  1
  K  K3  1  0.800782  0.199216  0.500001  1
  K  K4  1  0.195855  0.804143  0.500001  1
  Ag  Ag5  1  0.731378  0.268620  0.000000  1
  Ag  Ag6  1  0.268529  0.731469  0.000000  1
  Ag  Ag7  1  0.545417  0.454581  0.500001  1
  Ag  Ag8  1  0.458929  0.541069  0.500001  1
  Ag  Ag9  1  0.080812  0.919187  0.500001  1
  Hg  Hg10  1  0.915647  0.084352  0.500001  1
