# generated using pymatgen
data_YTm15In4OsRh3
_symmetry_space_group_name_H-M   'P 1'
_cell_length_a   9.55670940
_cell_length_b   9.55670920
_cell_length_c   9.57136157
_cell_angle_alpha   59.94199378
_cell_angle_beta   59.94199738
_cell_angle_gamma   59.77649827
_symmetry_Int_Tables_number   1
_chemical_formula_structural   YTm15In4OsRh3
_chemical_formula_sum   'Y1 Tm15 In4 Os1 Rh3'
_cell_volume   616.53323808
_cell_formula_units_Z   1
loop_
 _symmetry_equiv_pos_site_id
 _symmetry_equiv_pos_as_xyz
  1  'x, y, z'
loop_
 _atom_site_type_symbol
 _atom_site_label
 _atom_site_symmetry_multiplicity
 _atom_site_fract_x
 _atom_site_fract_y
 _atom_site_fract_z
 _atom_site_occupancy
  Y  Y0  1  0.060094  0.060094  0.436491  1
  Tm  Tm1  1  0.447855  0.058184  0.436395  1
  Tm  Tm2  1  0.061967  0.439562  0.059701  1
  Tm  Tm3  1  0.046359  0.650396  0.650223  1
  Tm  Tm4  1  0.437629  0.437629  0.061823  1
  Tm  Tm5  1  0.650396  0.046359  0.650223  1
  Tm  Tm6  1  0.189632  0.809243  0.193021  1
  Tm  Tm7  1  0.191813  0.191813  0.808918  1
  Tm  Tm8  1  0.808442  0.808442  0.193635  1
  Tm  Tm9  1  0.439562  0.061967  0.059701  1
  Tm  Tm10  1  0.809243  0.189632  0.193021  1
  Tm  Tm11  1  0.058184  0.447855  0.436395  1
  Tm  Tm12  1  0.808518  0.192594  0.809489  1
  Tm  Tm13  1  0.192594  0.808518  0.809489  1
  Tm  Tm14  1  0.649619  0.649619  0.047839  1
  Tm  Tm15  1  0.650963  0.650963  0.651446  1
  In  In16  1  0.416092  0.416092  0.416772  1
  In  In17  1  0.749427  0.417364  0.415792  1
  In  In18  1  0.417364  0.749427  0.415792  1
  In  In19  1  0.417289  0.417289  0.748052  1
  Os  Os20  1  0.856717  0.856717  0.424762  1
  Rh  Rh21  1  0.858635  0.858635  0.861789  1
  Rh  Rh22  1  0.422878  0.858731  0.859619  1
  Rh  Rh23  1  0.858731  0.422878  0.859619  1
