# generated using pymatgen
data_Dy2Er5Th(ZnNi)2
_symmetry_space_group_name_H-M   'P 1'
_cell_length_a   9.38854547
_cell_length_b   9.38427834
_cell_length_c   9.37254368
_cell_angle_alpha   60.07145339
_cell_angle_beta   60.02625848
_cell_angle_gamma   60.17057928
_symmetry_Int_Tables_number   1
_chemical_formula_structural   Dy2Er5Th(ZnNi)2
_chemical_formula_sum   'Dy4 Er10 Th2 Zn4 Ni4'
_cell_volume   585.08561771
_cell_formula_units_Z   2
loop_
 _symmetry_equiv_pos_site_id
 _symmetry_equiv_pos_as_xyz
  1  'x, y, z'
loop_
 _atom_site_type_symbol
 _atom_site_label
 _atom_site_symmetry_multiplicity
 _atom_site_fract_x
 _atom_site_fract_y
 _atom_site_fract_z
 _atom_site_occupancy
  Dy  Dy0  1  0.815886  0.185303  0.816089  1
  Dy  Dy1  1  0.185303  0.815886  0.182722  1
  Dy  Dy2  1  0.815095  0.815095  0.184905  1
  Dy  Dy3  1  0.184913  0.184913  0.815087  1
  Er  Er4  1  0.602941  0.188644  0.604030  1
  Er  Er5  1  0.188644  0.602941  0.604387  1
  Er  Er6  1  0.060342  0.441538  0.439376  1
  Er  Er7  1  0.441538  0.060342  0.058744  1
  Er  Er8  1  0.441246  0.060450  0.439362  1
  Er  Er9  1  0.060450  0.441246  0.058942  1
  Er  Er10  1  0.438130  0.438130  0.061870  1
  Er  Er11  1  0.058664  0.058664  0.441336  1
  Er  Er12  1  0.186109  0.814652  0.815023  1
  Er  Er13  1  0.814652  0.186109  0.184217  1
  Th  Th14  1  0.599382  0.599083  0.604334  1
  Th  Th15  1  0.599083  0.599382  0.197201  1
  Zn  Zn16  1  0.831852  0.831393  0.827558  1
  Zn  Zn17  1  0.831393  0.831852  0.509197  1
  Zn  Zn18  1  0.833060  0.508432  0.829525  1
  Zn  Zn19  1  0.508432  0.833060  0.828983  1
  Ni  Ni20  1  0.393965  0.393204  0.392162  1
  Ni  Ni21  1  0.393204  0.393965  0.820670  1
  Ni  Ni22  1  0.395823  0.819896  0.392539  1
  Ni  Ni23  1  0.819896  0.395823  0.391744  1
