# generated using pymatgen
data_Ho2Ni9P7W3
_symmetry_space_group_name_H-M   'P 1'
_cell_length_a   9.17895100
_cell_length_b   9.17895024
_cell_length_c   3.70819300
_cell_angle_alpha   90.00000000
_cell_angle_beta   90.00000000
_cell_angle_gamma   120.00000732
_symmetry_Int_Tables_number   1
_chemical_formula_structural   Ho2Ni9P7W3
_chemical_formula_sum   'Ho2 Ni9 P7 W3'
_cell_volume   270.56959795
_cell_formula_units_Z   1
loop_
 _symmetry_equiv_pos_site_id
 _symmetry_equiv_pos_as_xyz
  1  'x, y, z'
loop_
 _atom_site_type_symbol
 _atom_site_label
 _atom_site_symmetry_multiplicity
 _atom_site_fract_x
 _atom_site_fract_y
 _atom_site_fract_z
 _atom_site_occupancy
  Ho  Ho0  1  0.333333  0.666667  0.000000  1
  Ho  Ho1  1  0.666667  0.333333  0.500000  1
  Ni  Ni2  1  0.717196  0.873183  0.000000  1
  Ni  Ni3  1  0.155987  0.282804  0.000000  1
  Ni  Ni4  1  0.126817  0.844013  0.000000  1
  Ni  Ni5  1  0.631107  0.566998  0.000000  1
  Ni  Ni6  1  0.935890  0.368893  0.000000  1
  Ni  Ni7  1  0.433002  0.064110  0.000000  1
  Ni  Ni8  1  0.557073  0.942023  0.500000  1
  Ni  Ni9  1  0.384950  0.442927  0.500000  1
  Ni  Ni10  1  0.057977  0.615050  0.500000  1
  P  P11  1  0.591408  0.709544  0.500000  1
  P  P12  1  0.118135  0.408592  0.500000  1
  P  P13  1  0.290456  0.881865  0.500000  1
  P  P14  1  0.000000  0.000000  0.000000  1
  P  P15  1  0.888127  0.588012  0.000000  1
  P  P16  1  0.699885  0.111873  0.000000  1
  P  P17  1  0.411988  0.300115  0.000000  1
  W  W18  1  0.881214  0.780154  0.500000  1
  W  W19  1  0.898939  0.118786  0.500000  1
  W  W20  1  0.219846  0.101061  0.500000  1
