# generated using pymatgen
data_Yb5(Pr2Rh3)2
_symmetry_space_group_name_H-M   'P 1'
_cell_length_a   7.48247336
_cell_length_b   7.49870894
_cell_length_c   7.53033350
_cell_angle_alpha   70.32313486
_cell_angle_beta   70.56201600
_cell_angle_gamma   70.90011843
_symmetry_Int_Tables_number   1
_chemical_formula_structural   Yb5(Pr2Rh3)2
_chemical_formula_sum   'Yb5 Pr4 Rh6'
_cell_volume   363.98890628
_cell_formula_units_Z   1
loop_
 _symmetry_equiv_pos_site_id
 _symmetry_equiv_pos_as_xyz
  1  'x, y, z'
loop_
 _atom_site_type_symbol
 _atom_site_label
 _atom_site_symmetry_multiplicity
 _atom_site_fract_x
 _atom_site_fract_y
 _atom_site_fract_z
 _atom_site_occupancy
  Yb  Yb0  1  0.998154  0.004871  0.999711  1
  Yb  Yb1  1  0.802959  0.803122  0.798507  1
  Yb  Yb2  1  0.196570  0.193991  0.196276  1
  Yb  Yb3  1  0.149811  0.397910  0.675125  1
  Yb  Yb4  1  0.675326  0.153256  0.397622  1
  Pr  Pr5  1  0.397542  0.670012  0.153502  1
  Pr  Pr6  1  0.851147  0.600320  0.328507  1
  Pr  Pr7  1  0.329229  0.850005  0.602791  1
  Pr  Pr8  1  0.602654  0.326693  0.844474  1
  Rh  Rh9  1  0.957307  0.167512  0.583344  1
  Rh  Rh10  1  0.588752  0.956736  0.169241  1
  Rh  Rh11  1  0.166822  0.579526  0.955708  1
  Rh  Rh12  1  0.045793  0.835148  0.413987  1
  Rh  Rh13  1  0.411773  0.043224  0.836735  1
  Rh  Rh14  1  0.826161  0.417674  0.044470  1
