# generated using pymatgen
data_Pr5NbPtO12
_symmetry_space_group_name_H-M   'P 1'
_cell_length_a   7.15472974
_cell_length_b   7.15472996
_cell_length_c   7.79813795
_cell_angle_alpha   74.12798430
_cell_angle_beta   74.12798632
_cell_angle_gamma   50.16236940
_symmetry_Int_Tables_number   1
_chemical_formula_structural   Pr5NbPtO12
_chemical_formula_sum   'Pr5 Nb1 Pt1 O12'
_cell_volume   292.21317259
_cell_formula_units_Z   1
loop_
 _symmetry_equiv_pos_site_id
 _symmetry_equiv_pos_as_xyz
  1  'x, y, z'
loop_
 _atom_site_type_symbol
 _atom_site_label
 _atom_site_symmetry_multiplicity
 _atom_site_fract_x
 _atom_site_fract_y
 _atom_site_fract_z
 _atom_site_occupancy
  Pr  Pr0  1  0.294695  0.313925  0.358206  1
  Pr  Pr1  1  0.686075  0.705305  0.641794  1
  Pr  Pr2  1  0.685167  0.699560  0.166954  1
  Pr  Pr3  1  0.300440  0.314833  0.833046  1
  Pr  Pr4  1  0.998917  0.001083  0.500000  1
  Nb  Nb5  1  0.789418  0.210582  0.000000  1
  Pt  Pt6  1  0.250825  0.749175  0.000000  1
  O  O7  1  0.089639  0.598152  0.577819  1
  O  O8  1  0.003725  0.995212  0.188950  1
  O  O9  1  0.401848  0.910361  0.422181  1
  O  O10  1  0.503566  0.496627  0.171689  1
  O  O11  1  0.093479  0.575268  0.082177  1
  O  O12  1  0.897476  0.406282  0.425072  1
  O  O13  1  0.004788  0.996275  0.811050  1
  O  O14  1  0.593718  0.102523  0.574928  1
  O  O15  1  0.503373  0.496434  0.828311  1
  O  O16  1  0.581366  0.103247  0.079217  1
  O  O17  1  0.424732  0.906521  0.917823  1
  O  O18  1  0.896753  0.418634  0.920783  1
