# generated using pymatgen
data_La4Pr4Cd2TcPd
_symmetry_space_group_name_H-M   'P 1'
_cell_length_a   10.09386366
_cell_length_b   10.09386515
_cell_length_c   10.26576300
_cell_angle_alpha   59.43503374
_cell_angle_beta   59.43502875
_cell_angle_gamma   59.33069578
_symmetry_Int_Tables_number   1
_chemical_formula_structural   La4Pr4Cd2TcPd
_chemical_formula_sum   'La8 Pr8 Cd4 Tc2 Pd2'
_cell_volume   729.49460191
_cell_formula_units_Z   2
loop_
 _symmetry_equiv_pos_site_id
 _symmetry_equiv_pos_as_xyz
  1  'x, y, z'
loop_
 _atom_site_type_symbol
 _atom_site_label
 _atom_site_symmetry_multiplicity
 _atom_site_fract_x
 _atom_site_fract_y
 _atom_site_fract_z
 _atom_site_occupancy
  La  La0  1  0.345575  0.345575  0.357902  1
  La  La1  1  0.345575  0.345575  0.950949  1
  La  La2  1  0.344614  0.958503  0.348443  1
  La  La3  1  0.958503  0.344614  0.348443  1
  La  La4  1  0.820416  0.190055  0.188648  1
  La  La5  1  0.190055  0.820416  0.800882  1
  La  La6  1  0.190055  0.820416  0.188648  1
  La  La7  1  0.820416  0.190055  0.800882  1
  Pr  Pr8  1  0.192202  0.192202  0.807798  1
  Pr  Pr9  1  0.803613  0.803613  0.196387  1
  Pr  Pr10  1  0.934091  0.563119  0.566731  1
  Pr  Pr11  1  0.563119  0.934091  0.936057  1
  Pr  Pr12  1  0.563119  0.934091  0.566731  1
  Pr  Pr13  1  0.934091  0.563119  0.936057  1
  Pr  Pr14  1  0.563866  0.563866  0.936134  1
  Pr  Pr15  1  0.941958  0.941958  0.558042  1
  Cd  Cd16  1  0.580441  0.580441  0.579233  1
  Cd  Cd17  1  0.580441  0.580441  0.259885  1
  Cd  Cd18  1  0.577927  0.258754  0.581659  1
  Cd  Cd19  1  0.258754  0.577927  0.581659  1
  Tc  Tc20  1  0.131256  0.131256  0.147482  1
  Tc  Tc21  1  0.131256  0.131256  0.590007  1
  Pd  Pd22  1  0.151378  0.577281  0.135670  1
  Pd  Pd23  1  0.577281  0.151378  0.135670  1
