# generated using pymatgen
data_Sm8Er8Sc3Si16Ag
_symmetry_space_group_name_H-M   'P 1'
_cell_length_a   7.23939903
_cell_length_b   7.68063272
_cell_length_c   14.55548100
_cell_angle_alpha   90.00000000
_cell_angle_beta   90.00000000
_cell_angle_gamma   89.88277044
_symmetry_Int_Tables_number   1
_chemical_formula_structural   Sm8Er8Sc3Si16Ag
_chemical_formula_sum   'Sm8 Er8 Sc3 Si16 Ag1'
_cell_volume   809.32911852
_cell_formula_units_Z   1
loop_
 _symmetry_equiv_pos_site_id
 _symmetry_equiv_pos_as_xyz
  1  'x, y, z'
loop_
 _atom_site_type_symbol
 _atom_site_label
 _atom_site_symmetry_multiplicity
 _atom_site_fract_x
 _atom_site_fract_y
 _atom_site_fract_z
 _atom_site_occupancy
  Sm  Sm0  1  0.016882  0.178874  0.097986  1
  Sm  Sm1  1  0.983356  0.810020  0.899900  1
  Sm  Sm2  1  0.477250  0.676964  0.900297  1
  Sm  Sm3  1  0.983356  0.810020  0.600100  1
  Sm  Sm4  1  0.515671  0.320310  0.097173  1
  Sm  Sm5  1  0.016882  0.178874  0.402014  1
  Sm  Sm6  1  0.515671  0.320310  0.402827  1
  Sm  Sm7  1  0.477250  0.676964  0.599703  1
  Er  Er8  1  0.318518  0.184725  0.627534  1
  Er  Er9  1  0.677805  0.823748  0.375017  1
  Er  Er10  1  0.178102  0.680425  0.373115  1
  Er  Er11  1  0.677805  0.823748  0.124983  1
  Er  Er12  1  0.832276  0.326391  0.627065  1
  Er  Er13  1  0.318518  0.184725  0.872466  1
  Er  Er14  1  0.832276  0.326391  0.872935  1
  Er  Er15  1  0.178102  0.680425  0.126885  1
  Sc  Sc16  1  0.843762  0.489166  0.250000  1
  Sc  Sc17  1  0.345194  0.013428  0.250000  1
  Sc  Sc18  1  0.649561  0.988994  0.750000  1
  Si  Si19  1  0.015168  0.083076  0.750000  1
  Si  Si20  1  0.978868  0.901025  0.250000  1
  Si  Si21  1  0.479592  0.604462  0.250000  1
  Si  Si22  1  0.529726  0.396327  0.750000  1
  Si  Si23  1  0.280680  0.880809  0.750000  1
  Si  Si24  1  0.719058  0.131080  0.250000  1
  Si  Si25  1  0.218387  0.369076  0.250000  1
  Si  Si26  1  0.766809  0.630394  0.750000  1
  Si  Si27  1  0.156173  0.462348  0.530165  1
  Si  Si28  1  0.849991  0.530988  0.459681  1
  Si  Si29  1  0.349529  0.968100  0.463472  1
  Si  Si30  1  0.849991  0.530988  0.040319  1
  Si  Si31  1  0.651786  0.030635  0.541835  1
  Si  Si32  1  0.156173  0.462348  0.969835  1
  Si  Si33  1  0.651786  0.030635  0.958165  1
  Si  Si34  1  0.349529  0.968100  0.036528  1
  Ag  Ag35  1  0.158519  0.525104  0.750000  1
