# generated using pymatgen
data_ThNp7(TcB6)4
_symmetry_space_group_name_H-M   'P 1'
_cell_length_a   3.65411600
_cell_length_b   9.30438301
_cell_length_c   11.37670849
_cell_angle_alpha   90.09094149
_cell_angle_beta   90.00000000
_cell_angle_gamma   90.00000000
_symmetry_Int_Tables_number   1
_chemical_formula_structural   ThNp7(TcB6)4
_chemical_formula_sum   'Th1 Np7 Tc4 B24'
_cell_volume   386.79957875
_cell_formula_units_Z   1
loop_
 _symmetry_equiv_pos_site_id
 _symmetry_equiv_pos_as_xyz
  1  'x, y, z'
loop_
 _atom_site_type_symbol
 _atom_site_label
 _atom_site_symmetry_multiplicity
 _atom_site_fract_x
 _atom_site_fract_y
 _atom_site_fract_z
 _atom_site_occupancy
  Th  Th0  1  0.000000  0.336816  0.407537  1
  Np  Np1  1  0.000000  0.664573  0.595687  1
  Np  Np2  1  0.000000  0.837298  0.093902  1
  Np  Np3  1  0.000000  0.162662  0.905639  1
  Np  Np4  1  0.000000  0.956581  0.399437  1
  Np  Np5  1  0.000000  0.038392  0.600835  1
  Np  Np6  1  0.000000  0.459799  0.099158  1
  Np  Np7  1  0.000000  0.540435  0.899639  1
  Tc  Tc8  1  0.000000  0.649791  0.317175  1
  Tc  Tc9  1  0.000000  0.355300  0.682917  1
  Tc  Tc10  1  0.000000  0.144312  0.178642  1
  Tc  Tc11  1  0.000000  0.855188  0.819224  1
  B  B12  1  0.500000  0.556515  0.431838  1
  B  B13  1  0.500000  0.448917  0.570806  1
  B  B14  1  0.500000  0.050927  0.066701  1
  B  B15  1  0.500000  0.947858  0.932912  1
  B  B16  1  0.500000  0.744995  0.423311  1
  B  B17  1  0.500000  0.254499  0.579032  1
  B  B18  1  0.500000  0.242837  0.075329  1
  B  B19  1  0.500000  0.756998  0.923651  1
  B  B20  1  0.500000  0.806140  0.273944  1
  B  B21  1  0.500000  0.194967  0.726456  1
  B  B22  1  0.500000  0.303764  0.222579  1
  B  B23  1  0.500000  0.695658  0.775400  1
  B  B24  1  0.500000  0.646810  0.187234  1
  B  B25  1  0.500000  0.354359  0.812037  1
  B  B26  1  0.500000  0.142460  0.310630  1
  B  B27  1  0.500000  0.854644  0.689006  1
  B  B28  1  0.500000  0.987769  0.219177  1
  B  B29  1  0.500000  0.011688  0.780865  1
  B  B30  1  0.500000  0.491945  0.277360  1
  B  B31  1  0.500000  0.512503  0.720817  1
  B  B32  1  0.500000  0.643500  0.038879  1
  B  B33  1  0.500000  0.356362  0.960283  1
  B  B34  1  0.500000  0.136068  0.461977  1
  B  B35  1  0.500000  0.856673  0.539982  1
