# generated using pymatgen
data_La3DyErIn3Br
_symmetry_space_group_name_H-M   'P 1'
_cell_length_a   9.61965400
_cell_length_b   9.61965336
_cell_length_c   6.81521100
_cell_angle_alpha   90.00000000
_cell_angle_beta   90.00000000
_cell_angle_gamma   120.00000220
_symmetry_Int_Tables_number   1
_chemical_formula_structural   La3DyErIn3Br
_chemical_formula_sum   'La6 Dy2 Er2 In6 Br2'
_cell_volume   546.17120855
_cell_formula_units_Z   2
loop_
 _symmetry_equiv_pos_site_id
 _symmetry_equiv_pos_as_xyz
  1  'x, y, z'
loop_
 _atom_site_type_symbol
 _atom_site_label
 _atom_site_symmetry_multiplicity
 _atom_site_fract_x
 _atom_site_fract_y
 _atom_site_fract_z
 _atom_site_occupancy
  La  La0  1  0.731360  0.731360  0.250225  1
  La  La1  1  0.000000  0.731360  0.749775  1
  La  La2  1  0.731360  0.000000  0.749775  1
  La  La3  1  0.268640  0.268640  0.749775  1
  La  La4  1  0.000000  0.268640  0.250225  1
  La  La5  1  0.268640  0.000000  0.250225  1
  Dy  Dy6  1  0.333333  0.666667  0.000000  1
  Dy  Dy7  1  0.666667  0.333333  0.000000  1
  Er  Er8  1  0.333333  0.666667  0.500000  1
  Er  Er9  1  0.666667  0.333333  0.500000  1
  In  In10  1  0.394360  0.000000  0.749707  1
  In  In11  1  0.000000  0.605640  0.250293  1
  In  In12  1  0.605640  0.000000  0.250293  1
  In  In13  1  0.000000  0.394360  0.749707  1
  In  In14  1  0.394360  0.394360  0.250293  1
  In  In15  1  0.605640  0.605640  0.749707  1
  Br  Br16  1  0.000000  0.000000  0.500000  1
  Br  Br17  1  0.000000  0.000000  0.000000  1
