# generated using pymatgen
data_Er4Pd3RuO14
_symmetry_space_group_name_H-M   'P 1'
_cell_length_a   7.19126100
_cell_length_b   7.24241355
_cell_length_c   7.19126100
_cell_angle_alpha   60.23337018
_cell_angle_beta   60.00000460
_cell_angle_gamma   60.23337129
_symmetry_Int_Tables_number   1
_chemical_formula_structural   Er4Pd3RuO14
_chemical_formula_sum   'Er4 Pd3 Ru1 O14'
_cell_volume   265.76720977
_cell_formula_units_Z   1
loop_
 _symmetry_equiv_pos_site_id
 _symmetry_equiv_pos_as_xyz
  1  'x, y, z'
loop_
 _atom_site_type_symbol
 _atom_site_label
 _atom_site_symmetry_multiplicity
 _atom_site_fract_x
 _atom_site_fract_y
 _atom_site_fract_z
 _atom_site_occupancy
  Er  Er0  1  0.125000  0.125000  0.625000  1
  Er  Er1  1  0.125000  0.625000  0.125000  1
  Er  Er2  1  0.625000  0.125000  0.125000  1
  Er  Er3  1  0.125000  0.125000  0.125000  1
  Pd  Pd4  1  0.625000  0.625000  0.125000  1
  Pd  Pd5  1  0.125000  0.625000  0.625000  1
  Pd  Pd6  1  0.625000  0.625000  0.625000  1
  Ru  Ru7  1  0.625000  0.125000  0.625000  1
  O  O8  1  0.250269  0.249194  0.250269  1
  O  O9  1  0.999731  0.000806  0.999731  1
  O  O10  1  0.537095  0.965650  0.537095  1
  O  O11  1  0.281956  0.719898  0.281956  1
  O  O12  1  0.533810  0.530102  0.968044  1
  O  O13  1  0.968044  0.530102  0.533810  1
  O  O14  1  0.537095  0.965650  0.960161  1
  O  O15  1  0.960161  0.965650  0.537095  1
  O  O16  1  0.968044  0.530102  0.968044  1
  O  O17  1  0.712905  0.284350  0.289839  1
  O  O18  1  0.281956  0.719898  0.716190  1
  O  O19  1  0.712905  0.284350  0.712905  1
  O  O20  1  0.289839  0.284350  0.712905  1
  O  O21  1  0.716190  0.719898  0.281956  1
