# generated using pymatgen
data_Tb5HoCoNi
_symmetry_space_group_name_H-M   'P 1'
_cell_length_a   6.26872513
_cell_length_b   6.90535900
_cell_length_c   9.52357578
_cell_angle_alpha   90.00000000
_cell_angle_beta   89.85347441
_cell_angle_gamma   90.00000000
_symmetry_Int_Tables_number   1
_chemical_formula_structural   Tb5HoCoNi
_chemical_formula_sum   'Tb10 Ho2 Co2 Ni2'
_cell_volume   412.25327160
_cell_formula_units_Z   2
loop_
 _symmetry_equiv_pos_site_id
 _symmetry_equiv_pos_as_xyz
  1  'x, y, z'
loop_
 _atom_site_type_symbol
 _atom_site_label
 _atom_site_symmetry_multiplicity
 _atom_site_fract_x
 _atom_site_fract_y
 _atom_site_fract_z
 _atom_site_occupancy
  Tb  Tb0  1  0.673786  0.174093  0.067954  1
  Tb  Tb1  1  0.364938  0.542891  0.249876  1
  Tb  Tb2  1  0.142198  0.035878  0.250197  1
  Tb  Tb3  1  0.822407  0.679411  0.433843  1
  Tb  Tb4  1  0.322407  0.820589  0.933843  1
  Tb  Tb5  1  0.173786  0.325907  0.567954  1
  Tb  Tb6  1  0.673441  0.174356  0.432265  1
  Tb  Tb7  1  0.173441  0.325644  0.932265  1
  Tb  Tb8  1  0.864938  0.957109  0.749876  1
  Tb  Tb9  1  0.642198  0.464122  0.750197  1
  Ho  Ho10  1  0.322996  0.820517  0.566533  1
  Ho  Ho11  1  0.822996  0.679483  0.066533  1
  Co  Co12  1  0.553375  0.887615  0.250359  1
  Co  Co13  1  0.053375  0.612385  0.750359  1
  Ni  Ni14  1  0.946859  0.390122  0.248973  1
  Ni  Ni15  1  0.446859  0.109878  0.748973  1
