# generated using pymatgen
data_Tb2NpTc3
_symmetry_space_group_name_H-M   'P 1'
_cell_length_a   5.79829400
_cell_length_b   5.79829495
_cell_length_c   8.13704500
_cell_angle_alpha   90.00000000
_cell_angle_beta   90.00000000
_cell_angle_gamma   119.99999458
_symmetry_Int_Tables_number   1
_chemical_formula_structural   Tb2NpTc3
_chemical_formula_sum   'Tb4 Np2 Tc6'
_cell_volume   236.91791881
_cell_formula_units_Z   2
loop_
 _symmetry_equiv_pos_site_id
 _symmetry_equiv_pos_as_xyz
  1  'x, y, z'
loop_
 _atom_site_type_symbol
 _atom_site_label
 _atom_site_symmetry_multiplicity
 _atom_site_fract_x
 _atom_site_fract_y
 _atom_site_fract_z
 _atom_site_occupancy
  Tb  Tb0  1  0.333333  0.666667  0.441354  1
  Tb  Tb1  1  0.666667  0.333333  0.558646  1
  Tb  Tb2  1  0.666667  0.333333  0.941354  1
  Tb  Tb3  1  0.333333  0.666667  0.058646  1
  Np  Np4  1  0.000000  0.000000  0.500000  1
  Np  Np5  1  0.000000  0.000000  0.000000  1
  Tc  Tc6  1  0.837865  0.162135  0.250000  1
  Tc  Tc7  1  0.837865  0.675731  0.250000  1
  Tc  Tc8  1  0.324269  0.162135  0.250000  1
  Tc  Tc9  1  0.162135  0.837865  0.750000  1
  Tc  Tc10  1  0.162135  0.324269  0.750000  1
  Tc  Tc11  1  0.675731  0.837865  0.750000  1
