# generated using pymatgen
data_LaHo2Al7Cu2
_symmetry_space_group_name_H-M   'P 1'
_cell_length_a   9.15439142
_cell_length_b   9.15439256
_cell_length_c   9.15439126
_cell_angle_alpha   35.09828246
_cell_angle_beta   35.09828434
_cell_angle_gamma   35.09827779
_symmetry_Int_Tables_number   1
_chemical_formula_structural   LaHo2Al7Cu2
_chemical_formula_sum   'La1 Ho2 Al7 Cu2'
_cell_volume   226.49649273
_cell_formula_units_Z   1
loop_
 _symmetry_equiv_pos_site_id
 _symmetry_equiv_pos_as_xyz
  1  'x, y, z'
loop_
 _atom_site_type_symbol
 _atom_site_label
 _atom_site_symmetry_multiplicity
 _atom_site_fract_x
 _atom_site_fract_y
 _atom_site_fract_z
 _atom_site_occupancy
  La  La0  1  0.000000  0.000000  0.000000  1
  Ho  Ho1  1  0.857697  0.857697  0.857697  1
  Ho  Ho2  1  0.142303  0.142303  0.142303  1
  Al  Al3  1  0.417038  0.417038  0.926374  1
  Al  Al4  1  0.926374  0.417038  0.417038  1
  Al  Al5  1  0.417038  0.926374  0.417038  1
  Al  Al6  1  0.500000  0.500000  0.500000  1
  Al  Al7  1  0.582962  0.073626  0.582962  1
  Al  Al8  1  0.073626  0.582962  0.582962  1
  Al  Al9  1  0.582962  0.582962  0.073626  1
  Cu  Cu10  1  0.664598  0.664598  0.664598  1
  Cu  Cu11  1  0.335402  0.335402  0.335402  1
