# generated using pymatgen
data_Mg2Sc(SbPt)3
_symmetry_space_group_name_H-M   'P 1'
_cell_length_a   7.80689972
_cell_length_b   7.79535545
_cell_length_c   7.79544139
_cell_angle_alpha   119.80600712
_cell_angle_beta   99.67222622
_cell_angle_gamma   99.67022546
_symmetry_Int_Tables_number   1
_chemical_formula_structural   Mg2Sc(SbPt)3
_chemical_formula_sum   'Mg4 Sc2 Sb6 Pt6'
_cell_volume   387.86611902
_cell_formula_units_Z   2
loop_
 _symmetry_equiv_pos_site_id
 _symmetry_equiv_pos_as_xyz
  1  'x, y, z'
loop_
 _atom_site_type_symbol
 _atom_site_label
 _atom_site_symmetry_multiplicity
 _atom_site_fract_x
 _atom_site_fract_y
 _atom_site_fract_z
 _atom_site_occupancy
  Mg  Mg0  1  0.999938  0.502228  0.999684  1
  Mg  Mg1  1  0.499566  0.332392  0.166431  1
  Mg  Mg2  1  0.999562  0.166425  0.332391  1
  Mg  Mg3  1  0.499932  0.999698  0.502200  1
  Sc  Sc4  1  0.000193  0.833310  0.667261  1
  Sc  Sc5  1  0.500178  0.667245  0.833322  1
  Sb  Sb6  1  0.249245  0.918000  0.087426  1
  Sb  Sb7  1  0.750074  0.749304  0.249594  1
  Sb  Sb8  1  0.251155  0.581379  0.412729  1
  Sb  Sb9  1  0.751152  0.412727  0.581378  1
  Sb  Sb10  1  0.250074  0.249586  0.749304  1
  Sb  Sb11  1  0.749246  0.087427  0.918000  1
  Pt  Pt12  1  0.123686  0.206470  0.038998  1
  Pt  Pt13  1  0.623688  0.038993  0.206461  1
  Pt  Pt14  1  0.124030  0.875460  0.377272  1
  Pt  Pt15  1  0.627173  0.708778  0.543297  1
  Pt  Pt16  1  0.127165  0.543287  0.708767  1
  Pt  Pt17  1  0.624029  0.377268  0.875462  1
