# generated using pymatgen
data_Ta5TiCo16Si7
_symmetry_space_group_name_H-M   'P 1'
_cell_length_a   7.88886626
_cell_length_b   7.89317375
_cell_length_c   7.89397804
_cell_angle_alpha   59.94909587
_cell_angle_beta   60.01109078
_cell_angle_gamma   60.03103603
_symmetry_Int_Tables_number   1
_chemical_formula_structural   Ta5TiCo16Si7
_chemical_formula_sum   'Ta5 Ti1 Co16 Si7'
_cell_volume   347.55046930
_cell_formula_units_Z   1
loop_
 _symmetry_equiv_pos_site_id
 _symmetry_equiv_pos_as_xyz
  1  'x, y, z'
loop_
 _atom_site_type_symbol
 _atom_site_label
 _atom_site_symmetry_multiplicity
 _atom_site_fract_x
 _atom_site_fract_y
 _atom_site_fract_z
 _atom_site_occupancy
  Ta  Ta0  1  0.202243  0.797739  0.201552  1
  Ta  Ta1  1  0.798377  0.201649  0.201627  1
  Ta  Ta2  1  0.798434  0.201591  0.797741  1
  Ta  Ta3  1  0.798480  0.797733  0.201566  1
  Ta  Ta4  1  0.202232  0.201558  0.797770  1
  Ti  Ti5  1  0.203492  0.796506  0.796583  1
  Co  Co6  1  0.381677  0.381279  0.381266  1
  Co  Co7  1  0.498051  0.834156  0.834159  1
  Co  Co8  1  0.618770  0.618202  0.144276  1
  Co  Co9  1  0.165749  0.166209  0.502294  1
  Co  Co10  1  0.833306  0.834158  0.499220  1
  Co  Co11  1  0.165967  0.166728  0.166705  1
  Co  Co12  1  0.833622  0.834151  0.834168  1
  Co  Co13  1  0.381465  0.380775  0.856297  1
  Co  Co14  1  0.833304  0.499238  0.834161  1
  Co  Co15  1  0.619396  0.618448  0.618467  1
  Co  Co16  1  0.381471  0.856354  0.380732  1
  Co  Co17  1  0.143653  0.618447  0.618487  1
  Co  Co18  1  0.618749  0.144269  0.618229  1
  Co  Co19  1  0.165751  0.502266  0.166213  1
  Co  Co20  1  0.855759  0.381305  0.381263  1
  Co  Co21  1  0.500609  0.166711  0.166705  1
  Si  Si22  1  0.001595  0.998282  0.501620  1
  Si  Si23  1  0.498484  0.998247  0.501650  1
  Si  Si24  1  0.499405  0.500599  0.500715  1
  Si  Si25  1  0.001652  0.501635  0.998283  1
  Si  Si26  1  0.498436  0.501651  0.998232  1
  Si  Si27  1  0.499980  0.000026  0.999981  1
  Si  Si28  1  0.999891  0.500093  0.500042  1
