# generated using pymatgen
data_Dy3AgRhPb3
_symmetry_space_group_name_H-M   'P 1'
_cell_length_a   7.97461500
_cell_length_b   7.97461583
_cell_length_c   3.67509700
_cell_angle_alpha   90.00000000
_cell_angle_beta   90.00000000
_cell_angle_gamma   119.99999130
_symmetry_Int_Tables_number   1
_chemical_formula_structural   Dy3AgRhPb3
_chemical_formula_sum   'Dy3 Ag1 Rh1 Pb3'
_cell_volume   202.40394447
_cell_formula_units_Z   1
loop_
 _symmetry_equiv_pos_site_id
 _symmetry_equiv_pos_as_xyz
  1  'x, y, z'
loop_
 _atom_site_type_symbol
 _atom_site_label
 _atom_site_symmetry_multiplicity
 _atom_site_fract_x
 _atom_site_fract_y
 _atom_site_fract_z
 _atom_site_occupancy
  Dy  Dy0  1  0.581750  0.969542  0.500001  1
  Dy  Dy1  1  0.387793  0.418251  0.500001  1
  Dy  Dy2  1  0.030458  0.612207  0.500001  1
  Ag  Ag3  1  0.666667  0.333334  0.000000  1
  Rh  Rh4  1  0.333333  0.666667  0.000000  1
  Pb  Pb5  1  0.253805  0.010341  0.000000  1
  Pb  Pb6  1  0.989659  0.243462  0.000000  1
  Pb  Pb7  1  0.756537  0.746195  0.000000  1
