# generated using pymatgen
data_Ba6Eu(IrO6)2
_symmetry_space_group_name_H-M   'P 1'
_cell_length_a   9.28127625
_cell_length_b   9.28127665
_cell_length_c   7.42309400
_cell_angle_alpha   67.98409581
_cell_angle_beta   67.98409481
_cell_angle_gamma   36.85697024
_symmetry_Int_Tables_number   1
_chemical_formula_structural   Ba6Eu(IrO6)2
_chemical_formula_sum   'Ba6 Eu1 Ir2 O12'
_cell_volume   352.33844257
_cell_formula_units_Z   1
loop_
 _symmetry_equiv_pos_site_id
 _symmetry_equiv_pos_as_xyz
  1  'x, y, z'
loop_
 _atom_site_type_symbol
 _atom_site_label
 _atom_site_symmetry_multiplicity
 _atom_site_fract_x
 _atom_site_fract_y
 _atom_site_fract_z
 _atom_site_occupancy
  Ba  Ba0  1  0.216164  0.216164  0.705572  1
  Ba  Ba1  1  0.880555  0.880555  0.711917  1
  Ba  Ba2  1  0.549215  0.549215  0.704768  1
  Ba  Ba3  1  0.783836  0.783836  0.294428  1
  Ba  Ba4  1  0.450785  0.450785  0.295232  1
  Ba  Ba5  1  0.119445  0.119445  0.288083  1
  Eu  Eu6  1  0.000000  0.000000  0.000000  1
  Ir  Ir7  1  0.671713  0.671713  0.999484  1
  Ir  Ir8  1  0.328287  0.328287  0.000516  1
  O  O9  1  0.280885  0.280885  0.306486  1
  O  O10  1  0.941519  0.941519  0.337240  1
  O  O11  1  0.618153  0.618153  0.304765  1
  O  O12  1  0.719115  0.719115  0.693514  1
  O  O13  1  0.381847  0.381847  0.695235  1
  O  O14  1  0.058481  0.058481  0.662760  1
  O  O15  1  0.000000  0.500000  0.000000  1
  O  O16  1  0.638139  0.178602  0.001393  1
  O  O17  1  0.361861  0.821398  0.998607  1
  O  O18  1  0.500000  0.000000  0.000000  1
  O  O19  1  0.178602  0.638139  0.001393  1
  O  O20  1  0.821398  0.361861  0.998607  1
