# generated using pymatgen
data_NdSb12Ru3Rh
_symmetry_space_group_name_H-M   'P 1'
_cell_length_a   8.13133819
_cell_length_b   8.14678689
_cell_length_c   8.13133783
_cell_angle_alpha   109.50970747
_cell_angle_beta   109.43270158
_cell_angle_gamma   109.50971494
_symmetry_Int_Tables_number   1
_chemical_formula_structural   NdSb12Ru3Rh
_chemical_formula_sum   'Nd1 Sb12 Ru3 Rh1'
_cell_volume   414.45938596
_cell_formula_units_Z   1
loop_
 _symmetry_equiv_pos_site_id
 _symmetry_equiv_pos_as_xyz
  1  'x, y, z'
loop_
 _atom_site_type_symbol
 _atom_site_label
 _atom_site_symmetry_multiplicity
 _atom_site_fract_x
 _atom_site_fract_y
 _atom_site_fract_z
 _atom_site_occupancy
  Nd  Nd0  1  0.000000  0.000000  0.000000  1
  Sb  Sb1  1  0.338555  0.180510  0.842344  1
  Sb  Sb2  1  0.661445  0.819490  0.157656  1
  Sb  Sb3  1  0.659214  0.503892  0.841878  1
  Sb  Sb4  1  0.340786  0.496108  0.158122  1
  Sb  Sb5  1  0.182663  0.844678  0.340786  1
  Sb  Sb6  1  0.817337  0.155322  0.659214  1
  Sb  Sb7  1  0.503789  0.841955  0.661445  1
  Sb  Sb8  1  0.496211  0.158045  0.338555  1
  Sb  Sb9  1  0.841878  0.337986  0.182663  1
  Sb  Sb10  1  0.158122  0.662014  0.817337  1
  Sb  Sb11  1  0.842344  0.661834  0.503789  1
  Sb  Sb12  1  0.157656  0.338166  0.496211  1
  Ru  Ru13  1  0.000000  0.000000  0.500000  1
  Ru  Ru14  1  0.500000  0.000000  0.000000  1
  Ru  Ru15  1  0.500000  0.500000  0.500000  1
  Rh  Rh16  1  0.000000  0.500000  0.000000  1
