# generated using pymatgen
data_Ta6GaCo6
_symmetry_space_group_name_H-M   'P 1'
_cell_length_a   4.91312976
_cell_length_b   4.91312920
_cell_length_c   9.12200998
_cell_angle_alpha   74.37732701
_cell_angle_beta   74.37733142
_cell_angle_gamma   59.99999984
_symmetry_Int_Tables_number   1
_chemical_formula_structural   Ta6GaCo6
_chemical_formula_sum   'Ta6 Ga1 Co6'
_cell_volume   181.24008068
_cell_formula_units_Z   1
loop_
 _symmetry_equiv_pos_site_id
 _symmetry_equiv_pos_as_xyz
  1  'x, y, z'
loop_
 _atom_site_type_symbol
 _atom_site_label
 _atom_site_symmetry_multiplicity
 _atom_site_fract_x
 _atom_site_fract_y
 _atom_site_fract_z
 _atom_site_occupancy
  Ta  Ta0  1  0.169096  0.169096  0.492712  1
  Ta  Ta1  1  0.830904  0.830904  0.507288  1
  Ta  Ta2  1  0.345023  0.345023  0.964931  1
  Ta  Ta3  1  0.654977  0.654977  0.035069  1
  Ta  Ta4  1  0.449516  0.449516  0.651452  1
  Ta  Ta5  1  0.550484  0.550484  0.348548  1
  Ga  Ga6  1  0.000000  0.000000  0.000000  1
  Co  Co7  1  0.588324  0.090059  0.231557  1
  Co  Co8  1  0.090059  0.090059  0.231557  1
  Co  Co9  1  0.090059  0.588324  0.231557  1
  Co  Co10  1  0.411676  0.909941  0.768443  1
  Co  Co11  1  0.909941  0.909941  0.768443  1
  Co  Co12  1  0.909941  0.411676  0.768443  1
