# generated using pymatgen
data_Tb5B2C5
_symmetry_space_group_name_H-M   'P 1'
_cell_length_a   8.14150700
_cell_length_b   8.14150700
_cell_length_c   10.74751900
_cell_angle_alpha   90.00000000
_cell_angle_beta   90.00000000
_cell_angle_gamma   90.00000000
_symmetry_Int_Tables_number   1
_chemical_formula_structural   Tb5B2C5
_chemical_formula_sum   'Tb20 B8 C20'
_cell_volume   712.39001354
_cell_formula_units_Z   4
loop_
 _symmetry_equiv_pos_site_id
 _symmetry_equiv_pos_as_xyz
  1  'x, y, z'
loop_
 _atom_site_type_symbol
 _atom_site_label
 _atom_site_symmetry_multiplicity
 _atom_site_fract_x
 _atom_site_fract_y
 _atom_site_fract_z
 _atom_site_occupancy
  Tb  Tb0  1  0.655721  0.037597  0.101004  1
  Tb  Tb1  1  0.844279  0.462404  0.101004  1
  Tb  Tb2  1  0.462404  0.655721  0.101004  1
  Tb  Tb3  1  0.037597  0.844279  0.101004  1
  Tb  Tb4  1  0.250000  0.250000  0.141253  1
  Tb  Tb5  1  0.750000  0.750000  0.358747  1
  Tb  Tb6  1  0.537597  0.155720  0.398996  1
  Tb  Tb7  1  0.962403  0.344279  0.398996  1
  Tb  Tb8  1  0.344279  0.537597  0.398996  1
  Tb  Tb9  1  0.155720  0.962403  0.398996  1
  Tb  Tb10  1  0.844279  0.037597  0.601004  1
  Tb  Tb11  1  0.655721  0.462404  0.601004  1
  Tb  Tb12  1  0.037597  0.655721  0.601004  1
  Tb  Tb13  1  0.462404  0.844279  0.601004  1
  Tb  Tb14  1  0.250000  0.250000  0.641253  1
  Tb  Tb15  1  0.750000  0.750000  0.858746  1
  Tb  Tb16  1  0.962403  0.155720  0.898996  1
  Tb  Tb17  1  0.537597  0.344279  0.898996  1
  Tb  Tb18  1  0.155720  0.537597  0.898996  1
  Tb  Tb19  1  0.344279  0.962403  0.898996  1
  B  B20  1  0.906034  0.093966  0.250000  1
  B  B21  1  0.593966  0.406033  0.250000  1
  B  B22  1  0.093966  0.593966  0.250000  1
  B  B23  1  0.406033  0.906034  0.250000  1
  B  B24  1  0.593966  0.093966  0.750000  1
  B  B25  1  0.906034  0.406033  0.750000  1
  B  B26  1  0.406033  0.593966  0.750000  1
  B  B27  1  0.093966  0.906034  0.750000  1
  C  C28  1  0.750000  0.750000  0.098458  1
  C  C29  1  0.948120  0.148897  0.124519  1
  C  C30  1  0.551880  0.351102  0.124519  1
  C  C31  1  0.148897  0.551880  0.124519  1
  C  C32  1  0.351102  0.948120  0.124519  1
  C  C33  1  0.851103  0.051879  0.375480  1
  C  C34  1  0.648897  0.448120  0.375480  1
  C  C35  1  0.051879  0.648897  0.375480  1
  C  C36  1  0.448120  0.851103  0.375480  1
  C  C37  1  0.250000  0.250000  0.401542  1
  C  C38  1  0.750000  0.750000  0.598458  1
  C  C39  1  0.551880  0.148897  0.624519  1
  C  C40  1  0.948120  0.351102  0.624519  1
  C  C41  1  0.351102  0.551880  0.624519  1
  C  C42  1  0.148897  0.948120  0.624519  1
  C  C43  1  0.648897  0.051879  0.875480  1
  C  C44  1  0.851103  0.448120  0.875480  1
  C  C45  1  0.448120  0.648897  0.875480  1
  C  C46  1  0.051879  0.851103  0.875480  1
  C  C47  1  0.250000  0.250000  0.901542  1
