# generated using pymatgen
data_YSc(InPt)2
_symmetry_space_group_name_H-M   'P 1'
_cell_length_a   7.67914100
_cell_length_b   7.67914246
_cell_length_c   7.38866600
_cell_angle_alpha   90.00000000
_cell_angle_beta   90.00000000
_cell_angle_gamma   120.00000665
_symmetry_Int_Tables_number   1
_chemical_formula_structural   YSc(InPt)2
_chemical_formula_sum   'Y3 Sc3 In6 Pt6'
_cell_volume   377.33058052
_cell_formula_units_Z   3
loop_
 _symmetry_equiv_pos_site_id
 _symmetry_equiv_pos_as_xyz
  1  'x, y, z'
loop_
 _atom_site_type_symbol
 _atom_site_label
 _atom_site_symmetry_multiplicity
 _atom_site_fract_x
 _atom_site_fract_y
 _atom_site_fract_z
 _atom_site_occupancy
  Y  Y0  1  0.402964  0.998433  0.750000  1
  Y  Y1  1  0.595469  0.597036  0.750000  1
  Y  Y2  1  0.001567  0.404531  0.750000  1
  Sc  Sc3  1  0.401591  0.003609  0.250000  1
  Sc  Sc4  1  0.602018  0.598409  0.250000  1
  Sc  Sc5  1  0.996391  0.397982  0.250000  1
  In  In6  1  0.268023  0.269070  0.009427  1
  In  In7  1  0.001047  0.731977  0.009427  1
  In  In8  1  0.001047  0.731977  0.490573  1
  In  In9  1  0.730930  0.998953  0.490573  1
  In  In10  1  0.268023  0.269070  0.490573  1
  In  In11  1  0.730930  0.998953  0.009427  1
  Pt  Pt12  1  0.000000  0.000000  0.750000  1
  Pt  Pt13  1  0.000000  0.000000  0.250000  1
  Pt  Pt14  1  0.666667  0.333333  0.020462  1
  Pt  Pt15  1  0.333333  0.666667  0.472719  1
  Pt  Pt16  1  0.333333  0.666667  0.027281  1
  Pt  Pt17  1  0.666667  0.333333  0.479538  1
