# generated using pymatgen
data_Tb11YB3CCl12
_symmetry_space_group_name_H-M   'P 1'
_cell_length_a   9.42832037
_cell_length_b   9.42831951
_cell_length_c   9.42854301
_cell_angle_alpha   109.34021662
_cell_angle_beta   109.34020592
_cell_angle_gamma   109.30618586
_symmetry_Int_Tables_number   1
_chemical_formula_structural   Tb11YB3CCl12
_chemical_formula_sum   'Tb11 Y1 B3 C1 Cl12'
_cell_volume   648.57358530
_cell_formula_units_Z   1
loop_
 _symmetry_equiv_pos_site_id
 _symmetry_equiv_pos_as_xyz
  1  'x, y, z'
loop_
 _atom_site_type_symbol
 _atom_site_label
 _atom_site_symmetry_multiplicity
 _atom_site_fract_x
 _atom_site_fract_y
 _atom_site_fract_z
 _atom_site_occupancy
  Tb  Tb0  1  0.466230  0.479906  0.235307  1
  Tb  Tb1  1  0.750076  0.235935  0.264160  1
  Tb  Tb2  1  0.750001  0.014743  0.485223  1
  Tb  Tb3  1  0.235382  0.466202  0.479985  1
  Tb  Tb4  1  0.264065  0.749924  0.235840  1
  Tb  Tb5  1  0.033798  0.264618  0.020015  1
  Tb  Tb6  1  0.020094  0.033770  0.264693  1
  Tb  Tb7  1  0.485257  0.749999  0.014777  1
  Tb  Tb8  1  0.479996  0.235343  0.466195  1
  Tb  Tb9  1  0.014759  0.485241  0.750000  1
  Tb  Tb10  1  0.264657  0.020004  0.033805  1
  Y  Y11  1  0.235612  0.264388  0.750000  1
  B  B12  1  0.499079  0.000921  0.250000  1
  B  B13  1  0.001054  0.249986  0.499154  1
  B  B14  1  0.250014  0.498946  0.000846  1
  C  C15  1  0.249998  0.250002  0.250000  1
  Cl  Cl16  1  0.250003  0.755949  0.744018  1
  Cl  Cl17  1  0.511325  0.505164  0.753417  1
  Cl  Cl18  1  0.988596  0.746555  0.994650  1
  Cl  Cl19  1  0.744051  0.249997  0.755982  1
  Cl  Cl20  1  0.994836  0.988675  0.746583  1
  Cl  Cl21  1  0.250068  0.995091  0.505617  1
  Cl  Cl22  1  0.753445  0.511404  0.505350  1
  Cl  Cl23  1  0.504909  0.249932  0.994383  1
  Cl  Cl24  1  0.755991  0.744009  0.250000  1
  Cl  Cl25  1  0.746588  0.994666  0.988603  1
  Cl  Cl26  1  0.994780  0.505220  0.250000  1
  Cl  Cl27  1  0.505334  0.753412  0.511397  1
