# generated using pymatgen
data_YAl2Pd2Pt3
_symmetry_space_group_name_H-M   'P 1'
_cell_length_a   8.11291159
_cell_length_b   8.11291154
_cell_length_c   8.11291119
_cell_angle_alpha   150.45683763
_cell_angle_beta   150.48492474
_cell_angle_gamma   42.25064148
_symmetry_Int_Tables_number   1
_chemical_formula_structural   YAl2Pd2Pt3
_chemical_formula_sum   'Y1 Al2 Pd2 Pt3'
_cell_volume   129.40091796
_cell_formula_units_Z   1
loop_
 _symmetry_equiv_pos_site_id
 _symmetry_equiv_pos_as_xyz
  1  'x, y, z'
loop_
 _atom_site_type_symbol
 _atom_site_label
 _atom_site_symmetry_multiplicity
 _atom_site_fract_x
 _atom_site_fract_y
 _atom_site_fract_z
 _atom_site_occupancy
  Y  Y0  1  0.000103  0.000103  0.000000  1
  Al  Al1  1  0.746889  0.746889  0.000000  1
  Al  Al2  1  0.252757  0.252757  0.000000  1
  Pd  Pd3  1  0.500277  0.500277  0.000000  1
  Pd  Pd4  1  0.643172  0.143172  0.500000  1
  Pt  Pt5  1  0.854488  0.354488  0.500000  1
  Pt  Pt6  1  0.356800  0.856800  0.500000  1
  Pt  Pt7  1  0.145513  0.645513  0.500000  1
