# generated using pymatgen
data_Sr7Tm(In4Au3)4
_symmetry_space_group_name_H-M   'P 1'
_cell_length_a   15.60401500
_cell_length_b   15.30852172
_cell_length_c   4.51441900
_cell_angle_alpha   90.00000000
_cell_angle_beta   90.00000000
_cell_angle_gamma   120.64060582
_symmetry_Int_Tables_number   1
_chemical_formula_structural   Sr7Tm(In4Au3)4
_chemical_formula_sum   'Sr7 Tm1 In16 Au12'
_cell_volume   927.81697864
_cell_formula_units_Z   1
loop_
 _symmetry_equiv_pos_site_id
 _symmetry_equiv_pos_as_xyz
  1  'x, y, z'
loop_
 _atom_site_type_symbol
 _atom_site_label
 _atom_site_symmetry_multiplicity
 _atom_site_fract_x
 _atom_site_fract_y
 _atom_site_fract_z
 _atom_site_occupancy
  Sr  Sr0  1  0.000919  0.453577  0.000000  1
  Sr  Sr1  1  0.547341  0.546423  0.000000  1
  Sr  Sr2  1  0.335906  0.671847  0.000000  1
  Sr  Sr3  1  0.664060  0.328153  0.000000  1
  Sr  Sr4  1  0.815592  0.000000  0.500000  1
  Sr  Sr5  1  0.002015  0.820314  0.500000  1
  Sr  Sr6  1  0.181701  0.179686  0.500000  1
  Tm  Tm7  1  0.449781  0.000000  0.000000  1
  In  In8  1  0.183627  0.379512  0.000000  1
  In  In9  1  0.625874  0.809068  0.000000  1
  In  In10  1  0.376976  0.177391  0.000000  1
  In  In11  1  0.199584  0.822609  0.000000  1
  In  In12  1  0.804116  0.620488  0.000000  1
  In  In13  1  0.816807  0.190932  0.000000  1
  In  In14  1  0.280192  0.000000  0.500000  1
  In  In15  1  0.997632  0.281787  0.500000  1
  In  In16  1  0.715845  0.718213  0.500000  1
  In  In17  1  0.351258  0.472744  0.500000  1
  In  In18  1  0.523853  0.878934  0.500000  1
  In  In19  1  0.476173  0.344833  0.500000  1
  In  In20  1  0.131340  0.655167  0.500000  1
  In  In21  1  0.878514  0.527256  0.500000  1
  In  In22  1  0.644919  0.121066  0.500000  1
  In  In23  1  0.000620  0.000000  0.000000  1
  Au  Au24  1  0.178784  0.497310  0.500000  1
  Au  Au25  1  0.508050  0.684261  0.500000  1
  Au  Au26  1  0.485088  0.155958  0.500000  1
  Au  Au27  1  0.329130  0.844042  0.500000  1
  Au  Au28  1  0.681475  0.502690  0.500000  1
  Au  Au29  1  0.823789  0.315739  0.500000  1
  Au  Au30  1  0.175011  0.000000  0.000000  1
  Au  Au31  1  0.002023  0.176979  0.000000  1
  Au  Au32  1  0.825044  0.823021  0.000000  1
  Au  Au33  1  0.644025  0.000000  0.000000  1
  Au  Au34  1  0.003064  0.663190  0.000000  1
  Au  Au35  1  0.339874  0.336810  0.000000  1
