# generated using pymatgen
data_TbYbCe2(Zn4Ru)2
_symmetry_space_group_name_H-M   'P 1'
_cell_length_a   7.15853900
_cell_length_b   7.15853900
_cell_length_c   5.13893400
_cell_angle_alpha   90.00000000
_cell_angle_beta   90.00000000
_cell_angle_gamma   90.00000000
_symmetry_Int_Tables_number   1
_chemical_formula_structural   TbYbCe2(Zn4Ru)2
_chemical_formula_sum   'Tb1 Yb1 Ce2 Zn8 Ru2'
_cell_volume   263.34303153
_cell_formula_units_Z   1
loop_
 _symmetry_equiv_pos_site_id
 _symmetry_equiv_pos_as_xyz
  1  'x, y, z'
loop_
 _atom_site_type_symbol
 _atom_site_label
 _atom_site_symmetry_multiplicity
 _atom_site_fract_x
 _atom_site_fract_y
 _atom_site_fract_z
 _atom_site_occupancy
  Tb  Tb0  1  0.500000  0.000000  0.223442  1
  Yb  Yb1  1  0.000000  0.500000  0.771860  1
  Ce  Ce2  1  0.000000  0.000000  0.997687  1
  Ce  Ce3  1  0.500000  0.500000  0.997687  1
  Zn  Zn4  1  0.185401  0.685401  0.290810  1
  Zn  Zn5  1  0.814599  0.685401  0.290810  1
  Zn  Zn6  1  0.814599  0.314599  0.290810  1
  Zn  Zn7  1  0.314727  0.185273  0.711436  1
  Zn  Zn8  1  0.185401  0.314599  0.290810  1
  Zn  Zn9  1  0.685273  0.185273  0.711436  1
  Zn  Zn10  1  0.685273  0.814727  0.711436  1
  Zn  Zn11  1  0.314727  0.814727  0.711436  1
  Ru  Ru12  1  0.500000  0.500000  0.500171  1
  Ru  Ru13  1  0.000000  0.000000  0.500171  1
