# generated using pymatgen
data_Tb3Dy(Lu3Si4)2
_symmetry_space_group_name_H-M   'P 1'
_cell_length_a   7.58908712
_cell_length_b   7.58823802
_cell_length_c   13.84180700
_cell_angle_alpha   90.00000000
_cell_angle_beta   90.00000000
_cell_angle_gamma   90.01471499
_symmetry_Int_Tables_number   1
_chemical_formula_structural   Tb3Dy(Lu3Si4)2
_chemical_formula_sum   'Tb6 Dy2 Lu12 Si16'
_cell_volume   797.11917919
_cell_formula_units_Z   2
loop_
 _symmetry_equiv_pos_site_id
 _symmetry_equiv_pos_as_xyz
  1  'x, y, z'
loop_
 _atom_site_type_symbol
 _atom_site_label
 _atom_site_symmetry_multiplicity
 _atom_site_fract_x
 _atom_site_fract_y
 _atom_site_fract_z
 _atom_site_occupancy
  Tb  Tb0  1  0.149777  0.497501  0.462497  1
  Tb  Tb1  1  0.502486  0.850281  0.037611  1
  Tb  Tb2  1  0.850223  0.502499  0.962497  1
  Tb  Tb3  1  0.497514  0.149719  0.537611  1
  Tb  Tb4  1  0.350097  0.997394  0.787409  1
  Tb  Tb5  1  0.649903  0.002606  0.287409  1
  Dy  Dy6  1  0.997425  0.350263  0.212623  1
  Dy  Dy7  1  0.002575  0.649737  0.712623  1
  Lu  Lu8  1  0.176361  0.176653  0.000017  1
  Lu  Lu9  1  0.823639  0.823347  0.500017  1
  Lu  Lu10  1  0.323414  0.676335  0.249979  1
  Lu  Lu11  1  0.676586  0.323665  0.749979  1
  Lu  Lu12  1  0.145599  0.003391  0.376187  1
  Lu  Lu13  1  0.854401  0.996609  0.876187  1
  Lu  Lu14  1  0.496106  0.645713  0.626176  1
  Lu  Lu15  1  0.354336  0.503943  0.873733  1
  Lu  Lu16  1  0.503894  0.354287  0.126176  1
  Lu  Lu17  1  0.645664  0.496057  0.373733  1
  Lu  Lu18  1  0.003596  0.145673  0.623823  1
  Lu  Lu19  1  0.996404  0.854327  0.123823  1
  Si  Si20  1  0.355349  0.292548  0.318093  1
  Si  Si21  1  0.644651  0.707452  0.818093  1
  Si  Si22  1  0.206794  0.855599  0.568733  1
  Si  Si23  1  0.143952  0.792594  0.931484  1
  Si  Si24  1  0.793206  0.144401  0.068733  1
  Si  Si25  1  0.856048  0.207406  0.431484  1
  Si  Si26  1  0.292206  0.356223  0.681623  1
  Si  Si27  1  0.707794  0.643777  0.181623  1
  Si  Si28  1  0.296321  0.052850  0.187087  1
  Si  Si29  1  0.703679  0.947150  0.687087  1
  Si  Si30  1  0.447095  0.795972  0.437165  1
  Si  Si31  1  0.203606  0.552588  0.062926  1
  Si  Si32  1  0.552905  0.204028  0.937165  1
  Si  Si33  1  0.796394  0.447412  0.562926  1
  Si  Si34  1  0.052282  0.297069  0.812833  1
  Si  Si35  1  0.947718  0.702931  0.312833  1
