# generated using pymatgen
data_DyY5Al18
_symmetry_space_group_name_H-M   'P 1'
_cell_length_a   14.47790498
_cell_length_b   14.47790401
_cell_length_c   14.47790511
_cell_angle_alpha   24.77583395
_cell_angle_beta   24.77583299
_cell_angle_gamma   24.77583672
_symmetry_Int_Tables_number   1
_chemical_formula_structural   DyY5Al18
_chemical_formula_sum   'Dy1 Y5 Al18'
_cell_volume   468.73769843
_cell_formula_units_Z   1
loop_
 _symmetry_equiv_pos_site_id
 _symmetry_equiv_pos_as_xyz
  1  'x, y, z'
loop_
 _atom_site_type_symbol
 _atom_site_label
 _atom_site_symmetry_multiplicity
 _atom_site_fract_x
 _atom_site_fract_y
 _atom_site_fract_z
 _atom_site_occupancy
  Dy  Dy0  1  0.108670  0.108670  0.108670  1
  Y  Y1  1  0.891281  0.891281  0.891281  1
  Y  Y2  1  0.391165  0.391165  0.391165  1
  Y  Y3  1  0.999918  0.999918  0.999918  1
  Y  Y4  1  0.500130  0.500130  0.500130  1
  Y  Y5  1  0.608784  0.608784  0.608784  1
  Al  Al6  1  0.926114  0.369503  0.369503  1
  Al  Al7  1  0.426518  0.869151  0.869151  1
  Al  Al8  1  0.369503  0.369503  0.926114  1
  Al  Al9  1  0.869151  0.869151  0.426518  1
  Al  Al10  1  0.369503  0.926114  0.369503  1
  Al  Al11  1  0.869151  0.426518  0.869151  1
  Al  Al12  1  0.573756  0.130730  0.130730  1
  Al  Al13  1  0.073163  0.630869  0.630869  1
  Al  Al14  1  0.130730  0.130730  0.573756  1
  Al  Al15  1  0.630869  0.630869  0.073163  1
  Al  Al16  1  0.130730  0.573756  0.130730  1
  Al  Al17  1  0.630869  0.073163  0.630869  1
  Al  Al18  1  0.499759  0.499759  0.000498  1
  Al  Al19  1  0.001067  0.001067  0.497846  1
  Al  Al20  1  0.499759  0.000498  0.499759  1
  Al  Al21  1  0.001067  0.497846  0.001067  1
  Al  Al22  1  0.000498  0.499759  0.499759  1
  Al  Al23  1  0.497846  0.001067  0.001067  1
