# generated using pymatgen
data_Rb4Dy6GeBr18
_symmetry_space_group_name_H-M   'P 1'
_cell_length_a   11.02516805
_cell_length_b   11.20750585
_cell_length_c   11.31444000
_cell_angle_alpha   118.40947873
_cell_angle_beta   100.22722612
_cell_angle_gamma   103.96572442
_symmetry_Int_Tables_number   1
_chemical_formula_structural   Rb4Dy6GeBr18
_chemical_formula_sum   'Rb4 Dy6 Ge1 Br18'
_cell_volume   1121.15586536
_cell_formula_units_Z   1
loop_
 _symmetry_equiv_pos_site_id
 _symmetry_equiv_pos_as_xyz
  1  'x, y, z'
loop_
 _atom_site_type_symbol
 _atom_site_label
 _atom_site_symmetry_multiplicity
 _atom_site_fract_x
 _atom_site_fract_y
 _atom_site_fract_z
 _atom_site_occupancy
  Rb  Rb0  1  0.657007  0.538736  0.229179  1
  Rb  Rb1  1  0.342993  0.461264  0.770821  1
  Rb  Rb2  1  0.694696  0.228707  0.567322  1
  Rb  Rb3  1  0.305304  0.771293  0.432678  1
  Dy  Dy4  1  0.173115  0.065019  0.264104  1
  Dy  Dy5  1  0.826885  0.934981  0.735896  1
  Dy  Dy6  1  0.840323  0.144088  0.151483  1
  Dy  Dy7  1  0.159677  0.855912  0.848517  1
  Dy  Dy8  1  0.165944  0.273241  0.050708  1
  Dy  Dy9  1  0.834056  0.726759  0.949292  1
  Ge  Ge10  1  0.000000  0.000000  0.000000  1
  Br  Br11  1  0.008763  0.412778  0.198611  1
  Br  Br12  1  0.991237  0.587222  0.801389  1
  Br  Br13  1  0.331716  0.337020  0.313406  1
  Br  Br14  1  0.668284  0.662980  0.686594  1
  Br  Br15  1  0.335770  0.537677  0.104926  1
  Br  Br16  1  0.664230  0.462323  0.895074  1
  Br  Br17  1  0.005174  0.794468  0.212055  1
  Br  Br18  1  0.994826  0.205532  0.787945  1
  Br  Br19  1  0.693349  0.284820  0.298437  1
  Br  Br20  1  0.306651  0.715180  0.701563  1
  Br  Br21  1  0.319297  0.129290  0.902464  1
  Br  Br22  1  0.680703  0.870710  0.097536  1
  Br  Br23  1  0.015799  0.206356  0.411272  1
  Br  Br24  1  0.984201  0.793644  0.588728  1
  Br  Br25  1  0.322922  0.921302  0.111274  1
  Br  Br26  1  0.677078  0.078698  0.888726  1
  Br  Br27  1  0.346598  0.125218  0.517098  1
  Br  Br28  1  0.653402  0.874782  0.482902  1
