# generated using pymatgen
data_Mn2Si2Tc3Os
_symmetry_space_group_name_H-M   'P 1'
_cell_length_a   4.20473900
_cell_length_b   5.97371601
_cell_length_c   12.58584302
_cell_angle_alpha   90.00609559
_cell_angle_beta   89.99968625
_cell_angle_gamma   89.99767162
_symmetry_Int_Tables_number   1
_chemical_formula_structural   Mn2Si2Tc3Os
_chemical_formula_sum   'Mn6 Si6 Tc9 Os3'
_cell_volume   316.13015429
_cell_formula_units_Z   3
loop_
 _symmetry_equiv_pos_site_id
 _symmetry_equiv_pos_as_xyz
  1  'x, y, z'
loop_
 _atom_site_type_symbol
 _atom_site_label
 _atom_site_symmetry_multiplicity
 _atom_site_fract_x
 _atom_site_fract_y
 _atom_site_fract_z
 _atom_site_occupancy
  Mn  Mn0  1  0.999956  0.501358  0.998826  1
  Mn  Mn1  1  0.499824  0.997783  0.168966  1
  Mn  Mn2  1  0.999887  0.500896  0.334870  1
  Mn  Mn3  1  0.500054  0.000035  0.500188  1
  Mn  Mn4  1  0.000155  0.499894  0.666348  1
  Mn  Mn5  1  0.500161  0.999854  0.830928  1
  Si  Si6  1  0.999991  0.000638  0.000420  1
  Si  Si7  1  0.499820  0.499680  0.166332  1
  Si  Si8  1  0.999814  0.000405  0.332907  1
  Si  Si9  1  0.499977  0.499472  0.499805  1
  Si  Si10  1  0.000208  0.000373  0.666957  1
  Si  Si11  1  0.500160  0.499628  0.833539  1
  Tc  Tc12  1  0.999831  0.750702  0.165347  1
  Tc  Tc13  1  0.499846  0.249280  0.331618  1
  Tc  Tc14  1  0.499847  0.750250  0.332379  1
  Tc  Tc15  1  0.999989  0.250286  0.499557  1
  Tc  Tc16  1  0.999979  0.748932  0.499905  1
  Tc  Tc17  1  0.500182  0.249624  0.667126  1
  Tc  Tc18  1  0.500192  0.750977  0.667177  1
  Tc  Tc19  1  0.000153  0.249911  0.835205  1
  Tc  Tc20  1  0.000149  0.749415  0.835064  1
  Os  Os21  1  0.499985  0.250421  0.000851  1
  Os  Os22  1  0.499996  0.749452  0.000213  1
  Os  Os23  1  0.999844  0.250736  0.165473  1
