# generated using pymatgen
data_Tb4Y3HoPt4
_symmetry_space_group_name_H-M   'P 1'
_cell_length_a   4.77809900
_cell_length_b   7.19027629
_cell_length_c   8.84563668
_cell_angle_alpha   89.92103723
_cell_angle_beta   90.00000000
_cell_angle_gamma   90.00000000
_symmetry_Int_Tables_number   1
_chemical_formula_structural   Tb4Y3HoPt4
_chemical_formula_sum   'Tb4 Y3 Ho1 Pt4'
_cell_volume   303.89909564
_cell_formula_units_Z   1
loop_
 _symmetry_equiv_pos_site_id
 _symmetry_equiv_pos_as_xyz
  1  'x, y, z'
loop_
 _atom_site_type_symbol
 _atom_site_label
 _atom_site_symmetry_multiplicity
 _atom_site_fract_x
 _atom_site_fract_y
 _atom_site_fract_z
 _atom_site_occupancy
  Tb  Tb0  1  0.250000  0.354688  0.581252  1
  Tb  Tb1  1  0.750000  0.143702  0.079779  1
  Tb  Tb2  1  0.750000  0.645418  0.418782  1
  Tb  Tb3  1  0.250000  0.991611  0.331957  1
  Y  Y4  1  0.250000  0.491988  0.167422  1
  Y  Y5  1  0.750000  0.007700  0.669518  1
  Y  Y6  1  0.750000  0.509863  0.832311  1
  Ho  Ho7  1  0.250000  0.855416  0.919497  1
  Pt  Pt8  1  0.250000  0.255721  0.906611  1
  Pt  Pt9  1  0.250000  0.759315  0.595151  1
  Pt  Pt10  1  0.750000  0.743075  0.090943  1
  Pt  Pt11  1  0.750000  0.241503  0.406774  1
