# generated using pymatgen
data_Li2Y3(CuSi2)2
_symmetry_space_group_name_H-M   'P 1'
_cell_length_a   7.92323724
_cell_length_b   8.09779463
_cell_length_c   8.09779437
_cell_angle_alpha   149.99146450
_cell_angle_beta   130.94857517
_cell_angle_gamma   58.77641941
_symmetry_Int_Tables_number   1
_chemical_formula_structural   Li2Y3(CuSi2)2
_chemical_formula_sum   'Li2 Y3 Cu2 Si4'
_cell_volume   194.59382554
_cell_formula_units_Z   1
loop_
 _symmetry_equiv_pos_site_id
 _symmetry_equiv_pos_as_xyz
  1  'x, y, z'
loop_
 _atom_site_type_symbol
 _atom_site_label
 _atom_site_symmetry_multiplicity
 _atom_site_fract_x
 _atom_site_fract_y
 _atom_site_fract_z
 _atom_site_occupancy
  Li  Li0  1  0.640447  0.328611  0.311835  1
  Li  Li1  1  0.359553  0.671389  0.688165  1
  Y  Y2  1  0.359539  0.870369  0.489170  1
  Y  Y3  1  0.640461  0.129631  0.510830  1
  Y  Y4  1  0.000000  0.000000  0.000000  1
  Cu  Cu5  1  0.020651  0.334442  0.686209  1
  Cu  Cu6  1  0.979349  0.665558  0.313791  1
  Si  Si7  1  0.189227  0.214919  0.974308  1
  Si  Si8  1  0.810773  0.785081  0.025692  1
  Si  Si9  1  0.683897  0.502300  0.181597  1
  Si  Si10  1  0.316103  0.497700  0.818403  1
