# generated using pymatgen
data_Rb7O
_symmetry_space_group_name_H-M   'P 1'
_cell_length_a   15.75087600
_cell_length_b   15.75084346
_cell_length_c   8.29573300
_cell_angle_alpha   90.00000000
_cell_angle_beta   90.00000000
_cell_angle_gamma   119.99992772
_symmetry_Int_Tables_number   1
_chemical_formula_structural   Rb7O
_chemical_formula_sum   'Rb21 O3'
_cell_volume   1782.35513423
_cell_formula_units_Z   3
loop_
 _symmetry_equiv_pos_site_id
 _symmetry_equiv_pos_as_xyz
  1  'x, y, z'
loop_
 _atom_site_type_symbol
 _atom_site_label
 _atom_site_symmetry_multiplicity
 _atom_site_fract_x
 _atom_site_fract_y
 _atom_site_fract_z
 _atom_site_occupancy
  Rb  Rb0  1  0.999983  0.999992  0.000000  1
  Rb  Rb1  1  0.553167  0.106335  0.000000  1
  Rb  Rb2  1  0.217659  0.435355  0.000000  1
  Rb  Rb3  1  0.893663  0.446831  0.000000  1
  Rb  Rb4  1  0.553167  0.446832  0.000000  1
  Rb  Rb5  1  0.217658  0.782304  0.000000  1
  Rb  Rb6  1  0.564648  0.782325  0.000000  1
  Rb  Rb7  1  0.666664  0.333332  0.214909  1
  Rb  Rb8  1  0.814821  0.185157  0.233532  1
  Rb  Rb9  1  0.814821  0.629663  0.233532  1
  Rb  Rb10  1  0.370326  0.185163  0.233526  1
  Rb  Rb11  1  0.111512  0.223084  0.500000  1
  Rb  Rb12  1  0.452500  0.547517  0.500000  1
  Rb  Rb13  1  0.095058  0.547530  0.500000  1
  Rb  Rb14  1  0.111511  0.888427  0.500000  1
  Rb  Rb15  1  0.776927  0.888463  0.500000  1
  Rb  Rb16  1  0.452500  0.904982  0.500000  1
  Rb  Rb17  1  0.370326  0.185163  0.766475  1
  Rb  Rb18  1  0.814821  0.185157  0.766469  1
  Rb  Rb19  1  0.814821  0.629663  0.766469  1
  Rb  Rb20  1  0.666664  0.333332  0.785092  1
  O  O21  1  0.749508  0.250480  0.000000  1
  O  O22  1  0.500969  0.250484  0.000000  1
  O  O23  1  0.749508  0.499028  0.000000  1
