# generated using pymatgen
data_TbHo2Tm5Au4
_symmetry_space_group_name_H-M   'P 1'
_cell_length_a   4.88675500
_cell_length_b   7.10375642
_cell_length_c   8.87050602
_cell_angle_alpha   89.82271278
_cell_angle_beta   90.00000000
_cell_angle_gamma   90.00000000
_symmetry_Int_Tables_number   1
_chemical_formula_structural   TbHo2Tm5Au4
_chemical_formula_sum   'Tb1 Ho2 Tm5 Au4'
_cell_volume   307.93208571
_cell_formula_units_Z   1
loop_
 _symmetry_equiv_pos_site_id
 _symmetry_equiv_pos_as_xyz
  1  'x, y, z'
loop_
 _atom_site_type_symbol
 _atom_site_label
 _atom_site_symmetry_multiplicity
 _atom_site_fract_x
 _atom_site_fract_y
 _atom_site_fract_z
 _atom_site_occupancy
  Tb  Tb0  1  0.750000  0.014474  0.677081  1
  Ho  Ho1  1  0.250000  0.985560  0.322330  1
  Ho  Ho2  1  0.750000  0.514525  0.823488  1
  Tm  Tm3  1  0.250000  0.851692  0.921520  1
  Tm  Tm4  1  0.250000  0.352608  0.578957  1
  Tm  Tm5  1  0.750000  0.148564  0.079829  1
  Tm  Tm6  1  0.750000  0.647482  0.419297  1
  Tm  Tm7  1  0.250000  0.485175  0.176278  1
  Au  Au8  1  0.250000  0.255210  0.901445  1
  Au  Au9  1  0.250000  0.754002  0.600275  1
  Au  Au10  1  0.750000  0.744420  0.100563  1
  Au  Au11  1  0.750000  0.246287  0.398936  1
