# generated using pymatgen
data_Y12InCo4Cu
_symmetry_space_group_name_H-M   'P 1'
_cell_length_a   8.39057887
_cell_length_b   8.39057903
_cell_length_c   8.39057887
_cell_angle_alpha   110.74331065
_cell_angle_beta   110.98414181
_cell_angle_gamma   106.72082799
_symmetry_Int_Tables_number   1
_chemical_formula_structural   Y12InCo4Cu
_chemical_formula_sum   'Y12 In1 Co4 Cu1'
_cell_volume   453.94703468
_cell_formula_units_Z   1
loop_
 _symmetry_equiv_pos_site_id
 _symmetry_equiv_pos_as_xyz
  1  'x, y, z'
loop_
 _atom_site_type_symbol
 _atom_site_label
 _atom_site_symmetry_multiplicity
 _atom_site_fract_x
 _atom_site_fract_y
 _atom_site_fract_z
 _atom_site_occupancy
  Y  Y0  1  0.416735  0.217273  0.199462  1
  Y  Y1  1  0.583265  0.782727  0.800538  1
  Y  Y2  1  0.017812  0.217273  0.800538  1
  Y  Y3  1  0.982188  0.782727  0.199462  1
  Y  Y4  1  0.186171  0.290656  0.476828  1
  Y  Y5  1  0.813829  0.709344  0.523172  1
  Y  Y6  1  0.186171  0.709344  0.895515  1
  Y  Y7  1  0.813829  0.290656  0.104485  1
  Y  Y8  1  0.314704  0.619215  0.304512  1
  Y  Y9  1  0.685296  0.380785  0.695488  1
  Y  Y10  1  0.314704  0.010194  0.695488  1
  Y  Y11  1  0.685296  0.989806  0.304512  1
  In  In12  1  0.500000  0.500000  0.000000  1
  Co  Co13  1  0.380908  0.000000  0.380908  1
  Co  Co14  1  0.619092  0.000000  0.619092  1
  Co  Co15  1  0.110975  0.610975  0.500000  1
  Co  Co16  1  0.889025  0.389025  0.500000  1
  Cu  Cu17  1  0.000000  0.000000  0.000000  1
