# generated using pymatgen
data_LiTb2CeIn3Ir2
_symmetry_space_group_name_H-M   'P 1'
_cell_length_a   7.66384508
_cell_length_b   7.66384684
_cell_length_c   3.82575200
_cell_angle_alpha   90.00000000
_cell_angle_beta   90.00000000
_cell_angle_gamma   118.75072215
_symmetry_Int_Tables_number   1
_chemical_formula_structural   LiTb2CeIn3Ir2
_chemical_formula_sum   'Li1 Tb2 Ce1 In3 Ir2'
_cell_volume   197.00243994
_cell_formula_units_Z   1
loop_
 _symmetry_equiv_pos_site_id
 _symmetry_equiv_pos_as_xyz
  1  'x, y, z'
loop_
 _atom_site_type_symbol
 _atom_site_label
 _atom_site_symmetry_multiplicity
 _atom_site_fract_x
 _atom_site_fract_y
 _atom_site_fract_z
 _atom_site_occupancy
  Li  Li0  1  0.005784  0.005784  0.000000  1
  Tb  Tb1  1  0.581971  0.999261  0.000000  1
  Tb  Tb2  1  0.999261  0.581971  0.000000  1
  Ce  Ce3  1  0.427105  0.427105  0.000000  1
  In  In4  1  0.993311  0.253985  0.500000  1
  In  In5  1  0.755592  0.755592  0.500000  1
  In  In6  1  0.253985  0.993311  0.500000  1
  Ir  Ir7  1  0.334730  0.648263  0.500000  1
  Ir  Ir8  1  0.648263  0.334730  0.500000  1
