# generated using pymatgen
data_Eu2Th(MgIr)3
_symmetry_space_group_name_H-M   'P 1'
_cell_length_a   7.44456200
_cell_length_b   7.36032100
_cell_length_c   4.20800800
_cell_angle_alpha   90.00000000
_cell_angle_beta   90.00000000
_cell_angle_gamma   120.37932586
_symmetry_Int_Tables_number   1
_chemical_formula_structural   Eu2Th(MgIr)3
_chemical_formula_sum   'Eu2 Th1 Mg3 Ir3'
_cell_volume   198.91629030
_cell_formula_units_Z   1
loop_
 _symmetry_equiv_pos_site_id
 _symmetry_equiv_pos_as_xyz
  1  'x, y, z'
loop_
 _atom_site_type_symbol
 _atom_site_label
 _atom_site_symmetry_multiplicity
 _atom_site_fract_x
 _atom_site_fract_y
 _atom_site_fract_z
 _atom_site_occupancy
  Eu  Eu0  1  0.001192  0.415691  0.500000  1
  Eu  Eu1  1  0.585500  0.584308  0.500000  1
  Th  Th2  1  0.409824  0.000000  0.500000  1
  Mg  Mg3  1  0.767561  0.000000  0.000000  1
  Mg  Mg4  1  0.240496  0.246076  0.000000  1
  Mg  Mg5  1  0.994419  0.753925  0.000000  1
  Ir  Ir6  1  0.647059  0.307576  0.000000  1
  Ir  Ir7  1  0.339483  0.692425  0.000000  1
  Ir  Ir8  1  0.014467  0.000000  0.500000  1
