# generated using pymatgen
data_Ca2Lu3Pb4
_symmetry_space_group_name_H-M   'P 1'
_cell_length_a   7.92770000
_cell_length_b   8.47992100
_cell_length_c   15.86917000
_cell_angle_alpha   90.00000000
_cell_angle_beta   90.00000000
_cell_angle_gamma   90.00000000
_symmetry_Int_Tables_number   1
_chemical_formula_structural   Ca2Lu3Pb4
_chemical_formula_sum   'Ca8 Lu12 Pb16'
_cell_volume   1066.82510252
_cell_formula_units_Z   4
loop_
 _symmetry_equiv_pos_site_id
 _symmetry_equiv_pos_as_xyz
  1  'x, y, z'
loop_
 _atom_site_type_symbol
 _atom_site_label
 _atom_site_symmetry_multiplicity
 _atom_site_fract_x
 _atom_site_fract_y
 _atom_site_fract_z
 _atom_site_occupancy
  Ca  Ca0  1  0.477612  0.684872  0.592547  1
  Ca  Ca1  1  0.977612  0.815128  0.907453  1
  Ca  Ca2  1  0.522388  0.315128  0.092547  1
  Ca  Ca3  1  0.022388  0.184872  0.407453  1
  Ca  Ca4  1  0.522388  0.315128  0.407453  1
  Ca  Ca5  1  0.022388  0.184872  0.092547  1
  Ca  Ca6  1  0.477612  0.684872  0.907453  1
  Ca  Ca7  1  0.977612  0.815128  0.592547  1
  Lu  Lu8  1  0.649212  0.153703  0.623235  1
  Lu  Lu9  1  0.149212  0.346297  0.876765  1
  Lu  Lu10  1  0.350788  0.846297  0.123235  1
  Lu  Lu11  1  0.850788  0.653703  0.376765  1
  Lu  Lu12  1  0.350788  0.846297  0.376765  1
  Lu  Lu13  1  0.850788  0.653703  0.123235  1
  Lu  Lu14  1  0.649212  0.153703  0.876765  1
  Lu  Lu15  1  0.149212  0.346297  0.623235  1
  Lu  Lu16  1  0.807256  0.502020  0.750000  1
  Lu  Lu17  1  0.307256  0.997980  0.750000  1
  Lu  Lu18  1  0.192744  0.497980  0.250000  1
  Lu  Lu19  1  0.692744  0.002020  0.250000  1
  Pb  Pb20  1  0.694404  0.960281  0.456432  1
  Pb  Pb21  1  0.194404  0.539719  0.043568  1
  Pb  Pb22  1  0.305596  0.039719  0.956432  1
  Pb  Pb23  1  0.805596  0.460281  0.543568  1
  Pb  Pb24  1  0.305596  0.039719  0.543568  1
  Pb  Pb25  1  0.805596  0.460281  0.956432  1
  Pb  Pb26  1  0.694404  0.960281  0.043568  1
  Pb  Pb27  1  0.194404  0.539719  0.456432  1
  Pb  Pb28  1  0.450837  0.364386  0.750000  1
  Pb  Pb29  1  0.950837  0.135614  0.750000  1
  Pb  Pb30  1  0.549163  0.635614  0.250000  1
  Pb  Pb31  1  0.049163  0.864386  0.250000  1
  Pb  Pb32  1  0.671829  0.851577  0.750000  1
  Pb  Pb33  1  0.171829  0.648423  0.750000  1
  Pb  Pb34  1  0.328171  0.148423  0.250000  1
  Pb  Pb35  1  0.828171  0.351577  0.250000  1
