# generated using pymatgen
data_Dy2Lu6Tc(B8Os)3
_symmetry_space_group_name_H-M   'P 1'
_cell_length_a   3.61547100
_cell_length_b   9.05817039
_cell_length_c   11.43965525
_cell_angle_alpha   89.97020034
_cell_angle_beta   90.00000000
_cell_angle_gamma   90.00000000
_symmetry_Int_Tables_number   1
_chemical_formula_structural   Dy2Lu6Tc(B8Os)3
_chemical_formula_sum   'Dy2 Lu6 Tc1 B24 Os3'
_cell_volume   374.64353795
_cell_formula_units_Z   1
loop_
 _symmetry_equiv_pos_site_id
 _symmetry_equiv_pos_as_xyz
  1  'x, y, z'
loop_
 _atom_site_type_symbol
 _atom_site_label
 _atom_site_symmetry_multiplicity
 _atom_site_fract_x
 _atom_site_fract_y
 _atom_site_fract_z
 _atom_site_occupancy
  Dy  Dy0  1  0.000000  0.323077  0.412884  1
  Dy  Dy1  1  0.000000  0.678182  0.583772  1
  Lu  Lu2  1  0.000000  0.818959  0.087910  1
  Lu  Lu3  1  0.000000  0.178710  0.915269  1
  Lu  Lu4  1  0.000000  0.942892  0.372124  1
  Lu  Lu5  1  0.000000  0.056642  0.627771  1
  Lu  Lu6  1  0.000000  0.444778  0.127578  1
  Lu  Lu7  1  0.000000  0.556470  0.872927  1
  Tc  Tc8  1  0.000000  0.638642  0.319714  1
  B  B9  1  0.500000  0.553454  0.432562  1
  B  B10  1  0.500000  0.446012  0.567712  1
  B  B11  1  0.500000  0.053313  0.066057  1
  B  B12  1  0.500000  0.946638  0.934159  1
  B  B13  1  0.500000  0.750054  0.418537  1
  B  B14  1  0.500000  0.250160  0.581314  1
  B  B15  1  0.500000  0.249248  0.079462  1
  B  B16  1  0.500000  0.750872  0.920490  1
  B  B17  1  0.500000  0.792594  0.264607  1
  B  B18  1  0.500000  0.207677  0.735366  1
  B  B19  1  0.500000  0.291313  0.232746  1
  B  B20  1  0.500000  0.708976  0.766653  1
  B  B21  1  0.500000  0.631186  0.183999  1
  B  B22  1  0.500000  0.368634  0.816423  1
  B  B23  1  0.500000  0.130021  0.314247  1
  B  B24  1  0.500000  0.870245  0.685272  1
  B  B25  1  0.500000  0.981311  0.212206  1
  B  B26  1  0.500000  0.018687  0.788086  1
  B  B27  1  0.500000  0.481931  0.285948  1
  B  B28  1  0.500000  0.517349  0.714088  1
  B  B29  1  0.500000  0.605159  0.028570  1
  B  B30  1  0.500000  0.394596  0.970844  1
  B  B31  1  0.500000  0.103404  0.471524  1
  B  B32  1  0.500000  0.897735  0.528794  1
  Os  Os33  1  0.000000  0.360962  0.680918  1
  Os  Os34  1  0.000000  0.137032  0.177667  1
  Os  Os35  1  0.000000  0.863083  0.821798  1
