# generated using pymatgen
data_Na3Nd8In3Au20
_symmetry_space_group_name_H-M   'P 1'
_cell_length_a   8.81266768
_cell_length_b   8.81266929
_cell_length_c   10.36528412
_cell_angle_alpha   90.09423290
_cell_angle_beta   89.90576932
_cell_angle_gamma   108.67949270
_symmetry_Int_Tables_number   1
_chemical_formula_structural   Na3Nd8In3Au20
_chemical_formula_sum   'Na3 Nd8 In3 Au20'
_cell_volume   762.59538542
_cell_formula_units_Z   1
loop_
 _symmetry_equiv_pos_site_id
 _symmetry_equiv_pos_as_xyz
  1  'x, y, z'
loop_
 _atom_site_type_symbol
 _atom_site_label
 _atom_site_symmetry_multiplicity
 _atom_site_fract_x
 _atom_site_fract_y
 _atom_site_fract_z
 _atom_site_occupancy
  Na  Na0  1  0.516249  0.016249  0.250000  1
  Na  Na1  1  0.001089  0.001332  0.001328  1
  Na  Na2  1  0.501332  0.501089  0.498672  1
  Nd  Nd3  1  0.701660  0.300581  0.998711  1
  Nd  Nd4  1  0.199924  0.799851  0.500118  1
  Nd  Nd5  1  0.803889  0.802841  0.296793  1
  Nd  Nd6  1  0.302841  0.303889  0.203207  1
  Nd  Nd7  1  0.800581  0.201660  0.501289  1
  Nd  Nd8  1  0.299851  0.699924  0.999882  1
  Nd  Nd9  1  0.698438  0.698359  0.795676  1
  Nd  Nd10  1  0.198359  0.198438  0.704324  1
  In  In11  1  0.982775  0.482775  0.750000  1
  In  In12  1  0.019612  0.519612  0.250000  1
  In  In13  1  0.480532  0.980532  0.750000  1
  Au  Au14  1  0.153951  0.430624  0.480772  1
  Au  Au15  1  0.902418  0.903255  0.594193  1
  Au  Au16  1  0.567327  0.844960  0.517266  1
  Au  Au17  1  0.882759  0.166086  0.208366  1
  Au  Au18  1  0.386598  0.663677  0.291581  1
  Au  Au19  1  0.666086  0.382759  0.291634  1
  Au  Au20  1  0.403255  0.402418  0.905807  1
  Au  Au21  1  0.930624  0.653951  0.019228  1
  Au  Au22  1  0.333323  0.609753  0.708743  1
  Au  Au23  1  0.344960  0.067327  0.982734  1
  Au  Au24  1  0.596536  0.597916  0.095499  1
  Au  Au25  1  0.658997  0.932233  0.020066  1
  Au  Au26  1  0.097916  0.096536  0.404501  1
  Au  Au27  1  0.612614  0.334159  0.708686  1
  Au  Au28  1  0.109753  0.833323  0.791257  1
  Au  Au29  1  0.070354  0.345329  0.978036  1
  Au  Au30  1  0.845329  0.570354  0.521964  1
  Au  Au31  1  0.163677  0.886598  0.208419  1
  Au  Au32  1  0.432233  0.158997  0.479934  1
  Au  Au33  1  0.834159  0.112614  0.791314  1
