# generated using pymatgen
data_HoEr3ReB12Os
_symmetry_space_group_name_H-M   'P 1'
_cell_length_a   3.64780600
_cell_length_b   9.12132810
_cell_length_c   11.50111700
_cell_angle_alpha   90.13936579
_cell_angle_beta   90.00000000
_cell_angle_gamma   90.00000000
_symmetry_Int_Tables_number   1
_chemical_formula_structural   HoEr3ReB12Os
_chemical_formula_sum   'Ho2 Er6 Re2 B24 Os2'
_cell_volume   382.67364052
_cell_formula_units_Z   2
loop_
 _symmetry_equiv_pos_site_id
 _symmetry_equiv_pos_as_xyz
  1  'x, y, z'
loop_
 _atom_site_type_symbol
 _atom_site_label
 _atom_site_symmetry_multiplicity
 _atom_site_fract_x
 _atom_site_fract_y
 _atom_site_fract_z
 _atom_site_occupancy
  Ho  Ho0  1  0.000000  0.320720  0.412464  1
  Ho  Ho1  1  0.000000  0.679280  0.587536  1
  Er  Er2  1  0.000000  0.824564  0.084644  1
  Er  Er3  1  0.000000  0.175436  0.915356  1
  Er  Er4  1  0.000000  0.943476  0.370687  1
  Er  Er5  1  0.000000  0.056524  0.629313  1
  Er  Er6  1  0.000000  0.442756  0.128695  1
  Er  Er7  1  0.000000  0.557244  0.871305  1
  Re  Re8  1  0.000000  0.138337  0.179468  1
  Re  Re9  1  0.000000  0.861663  0.820532  1
  B  B10  1  0.500000  0.553760  0.433190  1
  B  B11  1  0.500000  0.446240  0.566810  1
  B  B12  1  0.500000  0.053069  0.066679  1
  B  B13  1  0.500000  0.946931  0.933321  1
  B  B14  1  0.500000  0.749086  0.418892  1
  B  B15  1  0.500000  0.250914  0.581108  1
  B  B16  1  0.500000  0.249066  0.080750  1
  B  B17  1  0.500000  0.750934  0.919250  1
  B  B18  1  0.500000  0.791131  0.265676  1
  B  B19  1  0.500000  0.208869  0.734324  1
  B  B20  1  0.500000  0.292077  0.234653  1
  B  B21  1  0.500000  0.707923  0.765347  1
  B  B22  1  0.500000  0.630934  0.185761  1
  B  B23  1  0.500000  0.369066  0.814239  1
  B  B24  1  0.500000  0.131259  0.314980  1
  B  B25  1  0.500000  0.868741  0.685020  1
  B  B26  1  0.500000  0.982264  0.212488  1
  B  B27  1  0.500000  0.017736  0.787512  1
  B  B28  1  0.500000  0.482814  0.287876  1
  B  B29  1  0.500000  0.517186  0.712124  1
  B  B30  1  0.500000  0.602983  0.028791  1
  B  B31  1  0.500000  0.397017  0.971209  1
  B  B32  1  0.500000  0.103111  0.471612  1
  B  B33  1  0.500000  0.896889  0.528388  1
  Os  Os34  1  0.000000  0.637694  0.321729  1
  Os  Os35  1  0.000000  0.362306  0.678271  1
