# generated using pymatgen
data_HoEr5(Zr2Sn3)2
_symmetry_space_group_name_H-M   'P 1'
_cell_length_a   8.79426703
_cell_length_b   8.79297635
_cell_length_c   6.10312600
_cell_angle_alpha   90.00000000
_cell_angle_beta   90.00000000
_cell_angle_gamma   119.99514490
_symmetry_Int_Tables_number   1
_chemical_formula_structural   HoEr5(Zr2Sn3)2
_chemical_formula_sum   'Ho1 Er5 Zr4 Sn6'
_cell_volume   408.73305999
_cell_formula_units_Z   1
loop_
 _symmetry_equiv_pos_site_id
 _symmetry_equiv_pos_as_xyz
  1  'x, y, z'
loop_
 _atom_site_type_symbol
 _atom_site_label
 _atom_site_symmetry_multiplicity
 _atom_site_fract_x
 _atom_site_fract_y
 _atom_site_fract_z
 _atom_site_occupancy
  Ho  Ho0  1  0.000000  0.759770  0.750000  1
  Er  Er1  1  0.000000  0.240229  0.250000  1
  Er  Er2  1  0.759730  0.759752  0.250000  1
  Er  Er3  1  0.759743  0.000014  0.750000  1
  Er  Er4  1  0.240257  0.240271  0.750000  1
  Er  Er5  1  0.240270  0.000022  0.250000  1
  Zr  Zr6  1  0.333329  0.666662  0.500002  1
  Zr  Zr7  1  0.666671  0.333332  0.999998  1
  Zr  Zr8  1  0.666671  0.333332  0.500002  1
  Zr  Zr9  1  0.333329  0.666662  0.999998  1
  Sn  Sn10  1  0.399977  0.000036  0.750000  1
  Sn  Sn11  1  0.399920  0.399916  0.250000  1
  Sn  Sn12  1  0.000000  0.600071  0.250000  1
  Sn  Sn13  1  0.000000  0.399878  0.750000  1
  Sn  Sn14  1  0.600023  0.600059  0.750000  1
  Sn  Sn15  1  0.600080  0.999996  0.250000  1
