# generated using pymatgen
data_Tb4C2O
_symmetry_space_group_name_H-M   'P 1'
_cell_length_a   12.12274485
_cell_length_b   12.12274434
_cell_length_c   12.12274458
_cell_angle_alpha   17.02193633
_cell_angle_beta   17.02194574
_cell_angle_gamma   17.02194522
_symmetry_Int_Tables_number   1
_chemical_formula_structural   Tb4C2O
_chemical_formula_sum   'Tb4 C2 O1'
_cell_volume   133.19061061
_cell_formula_units_Z   1
loop_
 _symmetry_equiv_pos_site_id
 _symmetry_equiv_pos_as_xyz
  1  'x, y, z'
loop_
 _atom_site_type_symbol
 _atom_site_label
 _atom_site_symmetry_multiplicity
 _atom_site_fract_x
 _atom_site_fract_y
 _atom_site_fract_z
 _atom_site_occupancy
  Tb  Tb0  1  0.626221  0.626221  0.626221  1
  Tb  Tb1  1  0.373779  0.373779  0.373779  1
  Tb  Tb2  1  0.883049  0.883049  0.883049  1
  Tb  Tb3  1  0.116951  0.116951  0.116951  1
  C  C4  1  0.747504  0.747504  0.747504  1
  C  C5  1  0.252497  0.252496  0.252496  1
  O  O6  1  0.000000  0.000000  0.000000  1
