# generated using pymatgen
data_Tb20Ir7Ru4Au
_symmetry_space_group_name_H-M   'P 1'
_cell_length_a   10.91040962
_cell_length_b   10.91040962
_cell_length_c   6.48367127
_cell_angle_alpha   90.06776489
_cell_angle_beta   90.06776489
_cell_angle_gamma   89.66458880
_symmetry_Int_Tables_number   1
_chemical_formula_structural   Tb20Ir7Ru4Au
_chemical_formula_sum   'Tb20 Ir7 Ru4 Au1'
_cell_volume   771.78272678
_cell_formula_units_Z   1
loop_
 _symmetry_equiv_pos_site_id
 _symmetry_equiv_pos_as_xyz
  1  'x, y, z'
loop_
 _atom_site_type_symbol
 _atom_site_label
 _atom_site_symmetry_multiplicity
 _atom_site_fract_x
 _atom_site_fract_y
 _atom_site_fract_z
 _atom_site_occupancy
  Tb  Tb0  1  0.291672  0.085752  0.378533  1
  Tb  Tb1  1  0.295209  0.912708  0.879072  1
  Tb  Tb2  1  0.701223  0.083296  0.864898  1
  Tb  Tb3  1  0.703337  0.906081  0.382438  1
  Tb  Tb4  1  0.586919  0.792494  0.880535  1
  Tb  Tb5  1  0.577724  0.206870  0.379350  1
  Tb  Tb6  1  0.411694  0.792777  0.379790  1
  Tb  Tb7  1  0.411747  0.206233  0.880783  1
  Tb  Tb8  1  0.207506  0.413081  0.619465  1
  Tb  Tb9  1  0.207223  0.588306  0.120210  1
  Tb  Tb10  1  0.793130  0.422276  0.120650  1
  Tb  Tb11  1  0.793767  0.588253  0.619217  1
  Tb  Tb12  1  0.914248  0.708328  0.121467  1
  Tb  Tb13  1  0.916704  0.298777  0.635102  1
  Tb  Tb14  1  0.087292  0.704791  0.620928  1
  Tb  Tb15  1  0.093919  0.296663  0.117562  1
  Tb  Tb16  1  0.003072  0.996091  0.502829  1
  Tb  Tb17  1  0.003909  0.996928  0.997171  1
  Tb  Tb18  1  0.499332  0.499941  0.998905  1
  Tb  Tb19  1  0.500059  0.500668  0.501095  1
  Ir  Ir20  1  0.849202  0.848865  0.749786  1
  Ir  Ir21  1  0.151135  0.150798  0.750214  1
  Ir  Ir22  1  0.153216  0.846784  0.250000  1
  Ir  Ir23  1  0.653351  0.346649  0.750000  1
  Ir  Ir24  1  0.651884  0.651711  0.249876  1
  Ir  Ir25  1  0.348289  0.348116  0.250124  1
  Ir  Ir26  1  0.347501  0.652499  0.750000  1
  Ru  Ru27  1  0.500514  0.999462  0.124630  1
  Ru  Ru28  1  0.499540  0.999302  0.621854  1
  Ru  Ru29  1  0.000698  0.500460  0.878146  1
  Ru  Ru30  1  0.000538  0.499486  0.375370  1
  Au  Au31  1  0.844447  0.155553  0.250000  1
