# generated using pymatgen
data_CsRb3(MoN2)4
_symmetry_space_group_name_H-M   'P 1'
_cell_length_a   6.16748600
_cell_length_b   8.45210400
_cell_length_c   12.38032000
_cell_angle_alpha   90.00000000
_cell_angle_beta   90.00000000
_cell_angle_gamma   90.00000000
_symmetry_Int_Tables_number   1
_chemical_formula_structural   CsRb3(MoN2)4
_chemical_formula_sum   'Cs2 Rb6 Mo8 N16'
_cell_volume   645.36420670
_cell_formula_units_Z   2
loop_
 _symmetry_equiv_pos_site_id
 _symmetry_equiv_pos_as_xyz
  1  'x, y, z'
loop_
 _atom_site_type_symbol
 _atom_site_label
 _atom_site_symmetry_multiplicity
 _atom_site_fract_x
 _atom_site_fract_y
 _atom_site_fract_z
 _atom_site_occupancy
  Cs  Cs0  1  0.250000  0.867025  0.000000  1
  Cs  Cs1  1  0.750000  0.132975  0.500000  1
  Rb  Rb2  1  0.750000  0.134527  0.000000  1
  Rb  Rb3  1  0.250000  0.865473  0.500000  1
  Rb  Rb4  1  0.652908  0.381051  0.249506  1
  Rb  Rb5  1  0.152908  0.618949  0.250494  1
  Rb  Rb6  1  0.347092  0.618949  0.749506  1
  Rb  Rb7  1  0.847092  0.381051  0.750494  1
  Mo  Mo8  1  0.250000  0.367587  0.000000  1
  Mo  Mo9  1  0.750000  0.632413  0.500000  1
  Mo  Mo10  1  0.750000  0.628019  0.000000  1
  Mo  Mo11  1  0.250000  0.371981  0.500000  1
  Mo  Mo12  1  0.190264  0.116254  0.249945  1
  Mo  Mo13  1  0.690264  0.883746  0.250055  1
  Mo  Mo14  1  0.809736  0.883746  0.749945  1
  Mo  Mo15  1  0.309736  0.116254  0.750055  1
  N  N16  1  0.888763  0.056349  0.244900  1
  N  N17  1  0.388763  0.943651  0.255100  1
  N  N18  1  0.111237  0.943651  0.744900  1
  N  N19  1  0.611237  0.056349  0.755100  1
  N  N20  1  0.236367  0.243294  0.374163  1
  N  N21  1  0.736367  0.756706  0.125837  1
  N  N22  1  0.763633  0.756706  0.874163  1
  N  N23  1  0.263633  0.243294  0.625837  1
  N  N24  1  0.746172  0.763136  0.624852  1
  N  N25  1  0.246172  0.236864  0.875148  1
  N  N26  1  0.253828  0.236864  0.124852  1
  N  N27  1  0.753828  0.763136  0.375148  1
  N  N28  1  0.500357  0.502090  0.495996  1
  N  N29  1  0.000357  0.497910  0.004004  1
  N  N30  1  0.499643  0.497910  0.995996  1
  N  N31  1  0.999643  0.502090  0.504004  1
