# generated using pymatgen
data_Ac2Ge3Pt
_symmetry_space_group_name_H-M   'P 1'
_cell_length_a   4.50255200
_cell_length_b   4.48372600
_cell_length_c   7.55070200
_cell_angle_alpha   90.00000000
_cell_angle_beta   90.00000000
_cell_angle_gamma   90.00000000
_symmetry_Int_Tables_number   1
_chemical_formula_structural   Ac2Ge3Pt
_chemical_formula_sum   'Ac2 Ge3 Pt1'
_cell_volume   152.43515361
_cell_formula_units_Z   1
loop_
 _symmetry_equiv_pos_site_id
 _symmetry_equiv_pos_as_xyz
  1  'x, y, z'
loop_
 _atom_site_type_symbol
 _atom_site_label
 _atom_site_symmetry_multiplicity
 _atom_site_fract_x
 _atom_site_fract_y
 _atom_site_fract_z
 _atom_site_occupancy
  Ac  Ac0  1  0.000000  0.500000  0.004153  1
  Ac  Ac1  1  0.000000  0.000000  0.497181  1
  Ge  Ge2  1  0.500000  0.000000  0.834732  1
  Ge  Ge3  1  0.500000  0.000000  0.174753  1
  Ge  Ge4  1  0.500000  0.500000  0.660172  1
  Pt  Pt5  1  0.500000  0.500000  0.329008  1
