# generated using pymatgen
data_Dy2Ga9Co2Ni
_symmetry_space_group_name_H-M   'P 1'
_cell_length_a   7.38913383
_cell_length_b   7.38931083
_cell_length_c   9.40730917
_cell_angle_alpha   89.93431750
_cell_angle_beta   89.94538172
_cell_angle_gamma   119.78290433
_symmetry_Int_Tables_number   1
_chemical_formula_structural   Dy2Ga9Co2Ni
_chemical_formula_sum   'Dy4 Ga18 Co4 Ni2'
_cell_volume   445.79836901
_cell_formula_units_Z   2
loop_
 _symmetry_equiv_pos_site_id
 _symmetry_equiv_pos_as_xyz
  1  'x, y, z'
loop_
 _atom_site_type_symbol
 _atom_site_label
 _atom_site_symmetry_multiplicity
 _atom_site_fract_x
 _atom_site_fract_y
 _atom_site_fract_z
 _atom_site_occupancy
  Dy  Dy0  1  0.330879  0.002617  0.249834  1
  Dy  Dy1  1  0.997339  0.669094  0.750147  1
  Dy  Dy2  1  0.668373  0.996129  0.750074  1
  Dy  Dy3  1  0.003912  0.331604  0.249912  1
  Ga  Ga4  1  0.336194  0.002133  0.925614  1
  Ga  Ga5  1  0.997863  0.663764  0.074374  1
  Ga  Ga6  1  0.333890  0.998355  0.571234  1
  Ga  Ga7  1  0.001636  0.666084  0.428749  1
  Ga  Ga8  1  0.666171  0.003203  0.073983  1
  Ga  Ga9  1  0.996815  0.333839  0.926020  1
  Ga  Ga10  1  0.665988  0.001886  0.429086  1
  Ga  Ga11  1  0.998116  0.334011  0.570880  1
  Ga  Ga12  1  0.665969  0.663898  0.939040  1
  Ga  Ga13  1  0.336156  0.334071  0.060955  1
  Ga  Ga14  1  0.668009  0.667792  0.556995  1
  Ga  Ga15  1  0.332213  0.331977  0.442989  1
  Ga  Ga16  1  0.122268  0.123077  0.747690  1
  Ga  Ga17  1  0.876892  0.877670  0.252376  1
  Ga  Ga18  1  0.451487  0.663680  0.253034  1
  Ga  Ga19  1  0.336294  0.548535  0.746953  1
  Ga  Ga20  1  0.551180  0.336753  0.749126  1
  Ga  Ga21  1  0.663248  0.448763  0.250858  1
  Co  Co22  1  0.000026  0.999971  0.499993  1
  Co  Co23  1  0.328921  0.671085  0.500002  1
  Co  Co24  1  0.670225  0.329779  0.999980  1
  Co  Co25  1  0.670892  0.329102  0.500002  1
  Ni  Ni26  1  0.999716  0.000386  0.000338  1
  Ni  Ni27  1  0.329332  0.670741  0.999764  1
