# generated using pymatgen
data_NdY3Al18(OsPd2)2
_symmetry_space_group_name_H-M   'P 1'
_cell_length_a   7.62976726
_cell_length_b   7.62098925
_cell_length_c   9.54094400
_cell_angle_alpha   90.00000000
_cell_angle_beta   90.00000000
_cell_angle_gamma   119.43039542
_symmetry_Int_Tables_number   1
_chemical_formula_structural   NdY3Al18(OsPd2)2
_chemical_formula_sum   'Nd1 Y3 Al18 Os2 Pd4'
_cell_volume   483.17987543
_cell_formula_units_Z   1
loop_
 _symmetry_equiv_pos_site_id
 _symmetry_equiv_pos_as_xyz
  1  'x, y, z'
loop_
 _atom_site_type_symbol
 _atom_site_label
 _atom_site_symmetry_multiplicity
 _atom_site_fract_x
 _atom_site_fract_y
 _atom_site_fract_z
 _atom_site_occupancy
  Nd  Nd0  1  0.329319  0.005259  0.750000  1
  Y  Y1  1  0.994124  0.672311  0.250000  1
  Y  Y2  1  0.004999  0.328118  0.750000  1
  Y  Y3  1  0.672558  0.994866  0.250000  1
  Al  Al4  1  0.127030  0.127606  0.250000  1
  Al  Al5  1  0.871118  0.872169  0.750000  1
  Al  Al6  1  0.000280  0.330835  0.076043  1
  Al  Al7  1  0.997816  0.667734  0.925616  1
  Al  Al8  1  0.997816  0.667734  0.574384  1
  Al  Al9  1  0.330836  0.000561  0.422251  1
  Al  Al10  1  0.000280  0.330835  0.423957  1
  Al  Al11  1  0.671063  0.999575  0.574404  1
  Al  Al12  1  0.671063  0.999575  0.925596  1
  Al  Al13  1  0.330836  0.000561  0.077749  1
  Al  Al14  1  0.328973  0.330424  0.551853  1
  Al  Al15  1  0.670472  0.670510  0.445523  1
  Al  Al16  1  0.670472  0.670510  0.054477  1
  Al  Al17  1  0.328973  0.330424  0.948147  1
  Al  Al18  1  0.342363  0.548758  0.250000  1
  Al  Al19  1  0.659471  0.453683  0.750000  1
  Al  Al20  1  0.549129  0.343062  0.250000  1
  Al  Al21  1  0.451758  0.655928  0.750000  1
  Os  Os22  1  0.999314  0.999428  0.001104  1
  Os  Os23  1  0.999314  0.999428  0.498896  1
  Pd  Pd24  1  0.672321  0.328211  0.000575  1
  Pd  Pd25  1  0.327991  0.671841  0.000527  1
  Pd  Pd26  1  0.327991  0.671841  0.499473  1
  Pd  Pd27  1  0.672321  0.328211  0.499425  1
