# generated using pymatgen
data_Tb16In4TcRh3
_symmetry_space_group_name_H-M   'P 1'
_cell_length_a   9.67435185
_cell_length_b   9.70056380
_cell_length_c   9.67435200
_cell_angle_alpha   60.08935105
_cell_angle_beta   60.00000632
_cell_angle_gamma   60.08934895
_symmetry_Int_Tables_number   1
_chemical_formula_structural   Tb16In4TcRh3
_chemical_formula_sum   'Tb16 In4 Tc1 Rh3'
_cell_volume   642.85195608
_cell_formula_units_Z   1
loop_
 _symmetry_equiv_pos_site_id
 _symmetry_equiv_pos_as_xyz
  1  'x, y, z'
loop_
 _atom_site_type_symbol
 _atom_site_label
 _atom_site_symmetry_multiplicity
 _atom_site_fract_x
 _atom_site_fract_y
 _atom_site_fract_z
 _atom_site_occupancy
  Tb  Tb0  1  0.811026  0.809716  0.189629  1
  Tb  Tb1  1  0.810453  0.192037  0.810453  1
  Tb  Tb2  1  0.187057  0.192037  0.810453  1
  Tb  Tb3  1  0.650355  0.048935  0.650355  1
  Tb  Tb4  1  0.063321  0.062079  0.437300  1
  Tb  Tb5  1  0.444303  0.435703  0.059997  1
  Tb  Tb6  1  0.650027  0.650558  0.650027  1
  Tb  Tb7  1  0.810453  0.192037  0.187057  1
  Tb  Tb8  1  0.189629  0.809716  0.811026  1
  Tb  Tb9  1  0.049388  0.650558  0.650027  1
  Tb  Tb10  1  0.437300  0.062079  0.063321  1
  Tb  Tb11  1  0.437300  0.062079  0.437300  1
  Tb  Tb12  1  0.059997  0.435703  0.059997  1
  Tb  Tb13  1  0.650027  0.650558  0.049388  1
  Tb  Tb14  1  0.189629  0.809716  0.189629  1
  Tb  Tb15  1  0.059997  0.435703  0.444303  1
  In  In16  1  0.417878  0.417077  0.417878  1
  In  In17  1  0.417878  0.417077  0.747167  1
  In  In18  1  0.418553  0.744341  0.418553  1
  In  In19  1  0.747167  0.417077  0.417878  1
  Tc  Tc20  1  0.857264  0.428210  0.857264  1
  Rh  Rh21  1  0.857861  0.859001  0.857861  1
  Rh  Rh22  1  0.857861  0.859001  0.425277  1
  Rh  Rh23  1  0.425277  0.859001  0.857861  1
