# generated using pymatgen
data_Hf3Ti2GaSn2
_symmetry_space_group_name_H-M   'P 1'
_cell_length_a   8.18095080
_cell_length_b   8.18095109
_cell_length_c   5.51199700
_cell_angle_alpha   90.00000000
_cell_angle_beta   90.00000000
_cell_angle_gamma   120.33901435
_symmetry_Int_Tables_number   1
_chemical_formula_structural   Hf3Ti2GaSn2
_chemical_formula_sum   'Hf6 Ti4 Ga2 Sn4'
_cell_volume   318.38559765
_cell_formula_units_Z   2
loop_
 _symmetry_equiv_pos_site_id
 _symmetry_equiv_pos_as_xyz
  1  'x, y, z'
loop_
 _atom_site_type_symbol
 _atom_site_label
 _atom_site_symmetry_multiplicity
 _atom_site_fract_x
 _atom_site_fract_y
 _atom_site_fract_z
 _atom_site_occupancy
  Hf  Hf0  1  0.240338  0.011640  0.250000  1
  Hf  Hf1  1  0.759662  0.988360  0.750000  1
  Hf  Hf2  1  0.011640  0.240338  0.250000  1
  Hf  Hf3  1  0.988360  0.759662  0.750000  1
  Hf  Hf4  1  0.748778  0.748778  0.250000  1
  Hf  Hf5  1  0.251222  0.251222  0.750000  1
  Ti  Ti6  1  0.341397  0.658603  0.000000  1
  Ti  Ti7  1  0.658603  0.341397  0.000000  1
  Ti  Ti8  1  0.658603  0.341397  0.500000  1
  Ti  Ti9  1  0.341397  0.658603  0.500000  1
  Ga  Ga10  1  0.399908  0.399908  0.250000  1
  Ga  Ga11  1  0.600092  0.600092  0.750000  1
  Sn  Sn12  1  0.603070  0.004490  0.250000  1
  Sn  Sn13  1  0.396930  0.995510  0.750000  1
  Sn  Sn14  1  0.004490  0.603070  0.250000  1
  Sn  Sn15  1  0.995510  0.396930  0.750000  1
