# generated using pymatgen
data_Ho2CdSi2(PPd5)4
_symmetry_space_group_name_H-M   'P 1'
_cell_length_a   8.65725348
_cell_length_b   8.65906042
_cell_length_c   8.65906116
_cell_angle_alpha   59.98618227
_cell_angle_beta   60.00690831
_cell_angle_gamma   60.00691289
_symmetry_Int_Tables_number   1
_chemical_formula_structural   Ho2CdSi2(PPd5)4
_chemical_formula_sum   'Ho2 Cd1 Si2 P4 Pd20'
_cell_volume   458.99365961
_cell_formula_units_Z   1
loop_
 _symmetry_equiv_pos_site_id
 _symmetry_equiv_pos_as_xyz
  1  'x, y, z'
loop_
 _atom_site_type_symbol
 _atom_site_label
 _atom_site_symmetry_multiplicity
 _atom_site_fract_x
 _atom_site_fract_y
 _atom_site_fract_z
 _atom_site_occupancy
  Ho  Ho0  1  0.250000  0.250000  0.250000  1
  Ho  Ho1  1  0.750000  0.750000  0.750000  1
  Cd  Cd2  1  0.000000  0.000000  0.000000  1
  Si  Si3  1  0.735752  0.264248  0.264248  1
  Si  Si4  1  0.264248  0.735752  0.735752  1
  P  P5  1  0.266035  0.733965  0.266035  1
  P  P6  1  0.733965  0.266035  0.733965  1
  P  P7  1  0.266035  0.266035  0.733965  1
  P  P8  1  0.733965  0.733965  0.266035  1
  Pd  Pd9  1  0.383244  0.384953  0.384953  1
  Pd  Pd10  1  0.616756  0.615047  0.615047  1
  Pd  Pd11  1  0.384953  0.383244  0.846851  1
  Pd  Pd12  1  0.384953  0.846851  0.383244  1
  Pd  Pd13  1  0.615047  0.616756  0.153149  1
  Pd  Pd14  1  0.615047  0.153149  0.616756  1
  Pd  Pd15  1  0.846851  0.384953  0.384953  1
  Pd  Pd16  1  0.153149  0.615047  0.615047  1
  Pd  Pd17  1  0.343704  0.000000  0.000000  1
  Pd  Pd18  1  0.656296  0.000000  0.000000  1
  Pd  Pd19  1  0.000000  0.343704  0.656296  1
  Pd  Pd20  1  0.000000  0.656296  0.343704  1
  Pd  Pd21  1  0.002435  0.345364  0.997565  1
  Pd  Pd22  1  0.654636  0.997565  0.345364  1
  Pd  Pd23  1  0.997565  0.654636  0.002435  1
  Pd  Pd24  1  0.345364  0.002435  0.654636  1
  Pd  Pd25  1  0.002435  0.997565  0.345364  1
  Pd  Pd26  1  0.997565  0.002435  0.654636  1
  Pd  Pd27  1  0.654636  0.345364  0.997565  1
  Pd  Pd28  1  0.345364  0.654636  0.002435  1
