# generated using pymatgen
data_Yb7NbSi2N9
_symmetry_space_group_name_H-M   'P 1'
_cell_length_a   9.77316900
_cell_length_b   6.00390194
_cell_length_c   8.94684906
_cell_angle_alpha   87.97039039
_cell_angle_beta   90.00000000
_cell_angle_gamma   90.00000000
_symmetry_Int_Tables_number   1
_chemical_formula_structural   Yb7NbSi2N9
_chemical_formula_sum   'Yb14 Nb2 Si4 N18'
_cell_volume   524.64624999
_cell_formula_units_Z   2
loop_
 _symmetry_equiv_pos_site_id
 _symmetry_equiv_pos_as_xyz
  1  'x, y, z'
loop_
 _atom_site_type_symbol
 _atom_site_label
 _atom_site_symmetry_multiplicity
 _atom_site_fract_x
 _atom_site_fract_y
 _atom_site_fract_z
 _atom_site_occupancy
  Yb  Yb0  1  0.949369  0.432534  0.167655  1
  Yb  Yb1  1  0.079452  0.246784  0.495628  1
  Yb  Yb2  1  0.250000  0.092988  0.800445  1
  Yb  Yb3  1  0.449369  0.567466  0.832345  1
  Yb  Yb4  1  0.579452  0.753216  0.504372  1
  Yb  Yb5  1  0.578568  0.069091  0.831353  1
  Yb  Yb6  1  0.921432  0.069091  0.831353  1
  Yb  Yb7  1  0.421432  0.930909  0.168647  1
  Yb  Yb8  1  0.420548  0.246784  0.495628  1
  Yb  Yb9  1  0.078568  0.930909  0.168647  1
  Yb  Yb10  1  0.920548  0.753216  0.504372  1
  Yb  Yb11  1  0.050631  0.567466  0.832345  1
  Yb  Yb12  1  0.750000  0.907012  0.199555  1
  Yb  Yb13  1  0.550631  0.432534  0.167655  1
  Nb  Nb14  1  0.750000  0.279037  0.437784  1
  Nb  Nb15  1  0.250000  0.720963  0.562216  1
  Si  Si16  1  0.250000  0.323729  0.059484  1
  Si  Si17  1  0.750000  0.460185  0.722166  1
  Si  Si18  1  0.750000  0.676271  0.940516  1
  Si  Si19  1  0.250000  0.539815  0.277834  1
  N  N20  1  0.401752  0.230415  0.979520  1
  N  N21  1  0.250000  0.243144  0.258077  1
  N  N22  1  0.904375  0.113810  0.341361  1
  N  N23  1  0.605898  0.369288  0.631084  1
  N  N24  1  0.750000  0.558345  0.328663  1
  N  N25  1  0.250000  0.622215  0.082729  1
  N  N26  1  0.894102  0.369288  0.631084  1
  N  N27  1  0.394102  0.630712  0.368916  1
  N  N28  1  0.750000  0.377785  0.917271  1
  N  N29  1  0.095625  0.886190  0.658639  1
  N  N30  1  0.750000  0.756856  0.741923  1
  N  N31  1  0.105898  0.630712  0.368916  1
  N  N32  1  0.598248  0.769585  0.020480  1
  N  N33  1  0.250000  0.441655  0.671337  1
  N  N34  1  0.404375  0.886190  0.658639  1
  N  N35  1  0.595625  0.113810  0.341361  1
  N  N36  1  0.098248  0.230415  0.979520  1
  N  N37  1  0.901752  0.769585  0.020480  1
