# generated using pymatgen
data_Tb6Mn2Si24Os5Ru
_symmetry_space_group_name_H-M   'P 1'
_cell_length_a   10.10510750
_cell_length_b   10.10510956
_cell_length_c   8.11218971
_cell_angle_alpha   89.98054950
_cell_angle_beta   89.98057630
_cell_angle_gamma   132.59159988
_symmetry_Int_Tables_number   1
_chemical_formula_structural   Tb6Mn2Si24Os5Ru
_chemical_formula_sum   'Tb6 Mn2 Si24 Os5 Ru1'
_cell_volume   609.83668804
_cell_formula_units_Z   1
loop_
 _symmetry_equiv_pos_site_id
 _symmetry_equiv_pos_as_xyz
  1  'x, y, z'
loop_
 _atom_site_type_symbol
 _atom_site_label
 _atom_site_symmetry_multiplicity
 _atom_site_fract_x
 _atom_site_fract_y
 _atom_site_fract_z
 _atom_site_occupancy
  Tb  Tb0  1  0.497273  0.497273  0.497487  1
  Tb  Tb1  1  0.997754  0.997754  0.002102  1
  Tb  Tb2  1  0.501521  0.001399  0.750066  1
  Tb  Tb3  1  0.998238  0.498417  0.249954  1
  Tb  Tb4  1  0.498417  0.998238  0.249954  1
  Tb  Tb5  1  0.001399  0.501520  0.750065  1
  Mn  Mn6  1  0.875890  0.875890  0.373192  1
  Mn  Mn7  1  0.375726  0.375726  0.127046  1
  Si  Si8  1  0.796785  0.204321  0.500256  1
  Si  Si9  1  0.296930  0.704305  0.999988  1
  Si  Si10  1  0.204321  0.796785  0.500257  1
  Si  Si11  1  0.704305  0.296930  0.999988  1
  Si  Si12  1  0.334115  0.334115  0.840189  1
  Si  Si13  1  0.667802  0.667802  0.172982  1
  Si  Si14  1  0.166982  0.166982  0.325643  1
  Si  Si15  1  0.832301  0.832301  0.659456  1
  Si  Si16  1  0.123145  0.890064  0.729446  1
  Si  Si17  1  0.102885  0.875737  0.272053  1
  Si  Si18  1  0.602295  0.375421  0.227812  1
  Si  Si19  1  0.623527  0.390623  0.771113  1
  Si  Si20  1  0.875737  0.102885  0.272053  1
  Si  Si21  1  0.890064  0.123146  0.729446  1
  Si  Si22  1  0.390623  0.623528  0.771113  1
  Si  Si23  1  0.375421  0.602295  0.227812  1
  Si  Si24  1  0.346161  0.112782  0.505728  1
  Si  Si25  1  0.884855  0.657951  0.487405  1
  Si  Si26  1  0.385198  0.158158  0.013017  1
  Si  Si27  1  0.845541  0.612947  0.994482  1
  Si  Si28  1  0.657951  0.884855  0.487405  1
  Si  Si29  1  0.112782  0.346161  0.505728  1
  Si  Si30  1  0.612947  0.845541  0.994482  1
  Si  Si31  1  0.158158  0.385198  0.013017  1
  Os  Os32  1  0.671809  0.331202  0.497883  1
  Os  Os33  1  0.171909  0.831250  0.001914  1
  Os  Os34  1  0.331202  0.671809  0.497883  1
  Os  Os35  1  0.831250  0.171910  0.001913  1
  Os  Os36  1  0.128462  0.128461  0.625863  1
  Ru  Ru37  1  0.628320  0.628319  0.873813  1
