# generated using pymatgen
data_Ti8Al14Co7As
_symmetry_space_group_name_H-M   'P 1'
_cell_length_a   8.42243428
_cell_length_b   8.42239071
_cell_length_c   8.42243354
_cell_angle_alpha   120.01634056
_cell_angle_beta   119.89515795
_cell_angle_gamma   90.07684571
_symmetry_Int_Tables_number   1
_chemical_formula_structural   Ti8Al14Co7As
_chemical_formula_sum   'Ti8 Al14 Co7 As1'
_cell_volume   422.75074954
_cell_formula_units_Z   1
loop_
 _symmetry_equiv_pos_site_id
 _symmetry_equiv_pos_as_xyz
  1  'x, y, z'
loop_
 _atom_site_type_symbol
 _atom_site_label
 _atom_site_symmetry_multiplicity
 _atom_site_fract_x
 _atom_site_fract_y
 _atom_site_fract_z
 _atom_site_occupancy
  Ti  Ti0  1  0.795045  0.292172  0.081396  1
  Ti  Ti1  1  0.210775  0.292172  0.497126  1
  Ti  Ti2  1  0.207334  0.707336  0.500002  1
  Ti  Ti3  1  0.210786  0.713653  0.918610  1
  Ti  Ti4  1  0.795045  0.713653  0.502867  1
  Ti  Ti5  1  0.788676  0.288671  0.499995  1
  Ti  Ti6  1  0.380552  0.121319  0.740767  1
  Ti  Ti7  1  0.380557  0.639797  0.259239  1
  Al  Al8  1  0.160876  0.337564  0.176687  1
  Al  Al9  1  0.160868  0.984178  0.823309  1
  Al  Al10  1  0.157550  0.339035  0.818517  1
  Al  Al11  1  0.520516  0.339035  0.181485  1
  Al  Al12  1  0.838272  0.660494  0.822223  1
  Al  Al13  1  0.838267  0.016040  0.177773  1
  Al  Al14  1  0.837502  0.661339  0.176166  1
  Al  Al15  1  0.485173  0.661339  0.823837  1
  Al  Al16  1  0.380589  0.118721  0.261871  1
  Al  Al17  1  0.856852  0.118721  0.738132  1
  Al  Al18  1  0.619373  0.880085  0.260712  1
  Al  Al19  1  0.619371  0.358655  0.739284  1
  Al  Al20  1  0.620101  0.880201  0.739887  1
  Al  Al21  1  0.140312  0.880201  0.260100  1
  Co  Co22  1  0.003454  0.000461  0.502664  1
  Co  Co23  1  0.497797  0.000461  0.997008  1
  Co  Co24  1  0.497340  0.497346  0.000005  1
  Co  Co25  1  0.497802  0.500790  0.497345  1
  Co  Co26  1  0.003445  0.500790  0.002988  1
  Co  Co27  1  0.000757  0.000760  0.000004  1
  Co  Co28  1  0.497108  0.997109  0.500001  1
  As  As29  1  0.997900  0.497901  0.500001  1
