# generated using pymatgen
data_Pr4ZrSc5Ga8
_symmetry_space_group_name_H-M   'P 1'
_cell_length_a   7.43904901
_cell_length_b   7.69417936
_cell_length_c   14.73170382
_cell_angle_alpha   90.03578456
_cell_angle_beta   90.01370512
_cell_angle_gamma   89.94192650
_symmetry_Int_Tables_number   1
_chemical_formula_structural   Pr4ZrSc5Ga8
_chemical_formula_sum   'Pr8 Zr2 Sc10 Ga16'
_cell_volume   843.20346933
_cell_formula_units_Z   2
loop_
 _symmetry_equiv_pos_site_id
 _symmetry_equiv_pos_as_xyz
  1  'x, y, z'
loop_
 _atom_site_type_symbol
 _atom_site_label
 _atom_site_symmetry_multiplicity
 _atom_site_fract_x
 _atom_site_fract_y
 _atom_site_fract_z
 _atom_site_occupancy
  Pr  Pr0  1  0.012315  0.174949  0.404466  1
  Pr  Pr1  1  0.512067  0.326091  0.403626  1
  Pr  Pr2  1  0.487747  0.674471  0.904594  1
  Pr  Pr3  1  0.487933  0.673909  0.596374  1
  Pr  Pr4  1  0.987685  0.825051  0.595534  1
  Pr  Pr5  1  0.987608  0.824872  0.904550  1
  Pr  Pr6  1  0.512253  0.325529  0.095406  1
  Pr  Pr7  1  0.012392  0.175128  0.095450  1
  Zr  Zr8  1  0.330010  0.174860  0.625326  1
  Zr  Zr9  1  0.669990  0.825140  0.374674  1
  Sc  Sc10  1  0.661280  0.001102  0.750057  1
  Sc  Sc11  1  0.170908  0.674728  0.375855  1
  Sc  Sc12  1  0.829637  0.326074  0.875830  1
  Sc  Sc13  1  0.829092  0.325272  0.624145  1
  Sc  Sc14  1  0.838421  0.500789  0.249742  1
  Sc  Sc15  1  0.338720  0.998898  0.249943  1
  Sc  Sc16  1  0.329849  0.174037  0.875568  1
  Sc  Sc17  1  0.170363  0.673926  0.124170  1
  Sc  Sc18  1  0.670151  0.825963  0.124432  1
  Sc  Sc19  1  0.161579  0.499211  0.750258  1
  Ga  Ga20  1  0.286779  0.882547  0.749009  1
  Ga  Ga21  1  0.468676  0.624112  0.250699  1
  Ga  Ga22  1  0.033077  0.123839  0.749258  1
  Ga  Ga23  1  0.531324  0.375888  0.749301  1
  Ga  Ga24  1  0.156766  0.459733  0.541246  1
  Ga  Ga25  1  0.966923  0.876161  0.250742  1
  Ga  Ga26  1  0.713221  0.117453  0.250991  1
  Ga  Ga27  1  0.844132  0.538431  0.040693  1
  Ga  Ga28  1  0.344722  0.961670  0.040936  1
  Ga  Ga29  1  0.155868  0.461569  0.959307  1
  Ga  Ga30  1  0.654135  0.037888  0.540192  1
  Ga  Ga31  1  0.345865  0.962112  0.459808  1
  Ga  Ga32  1  0.843234  0.540267  0.458754  1
  Ga  Ga33  1  0.786921  0.618787  0.749792  1
  Ga  Ga34  1  0.213079  0.381213  0.250208  1
  Ga  Ga35  1  0.655278  0.038330  0.959064  1
