# generated using pymatgen
data_Nd2Dy3Y3Pt4
_symmetry_space_group_name_H-M   'P 1'
_cell_length_a   4.79645100
_cell_length_b   7.23358838
_cell_length_c   8.91942882
_cell_angle_alpha   89.88389706
_cell_angle_beta   90.00000000
_cell_angle_gamma   90.00000000
_symmetry_Int_Tables_number   1
_chemical_formula_structural   Nd2Dy3Y3Pt4
_chemical_formula_sum   'Nd2 Dy3 Y3 Pt4'
_cell_volume   309.46387314
_cell_formula_units_Z   1
loop_
 _symmetry_equiv_pos_site_id
 _symmetry_equiv_pos_as_xyz
  1  'x, y, z'
loop_
 _atom_site_type_symbol
 _atom_site_label
 _atom_site_symmetry_multiplicity
 _atom_site_fract_x
 _atom_site_fract_y
 _atom_site_fract_z
 _atom_site_occupancy
  Nd  Nd0  1  0.250000  0.992087  0.330460  1
  Nd  Nd1  1  0.250000  0.491801  0.169212  1
  Dy  Dy2  1  0.250000  0.856584  0.916428  1
  Dy  Dy3  1  0.250000  0.355995  0.583538  1
  Dy  Dy4  1  0.750000  0.142337  0.076253  1
  Y  Y5  1  0.750000  0.642830  0.423591  1
  Y  Y6  1  0.750000  0.008372  0.670776  1
  Y  Y7  1  0.750000  0.509091  0.830004  1
  Pt  Pt8  1  0.250000  0.254037  0.904059  1
  Pt  Pt9  1  0.250000  0.754064  0.597100  1
  Pt  Pt10  1  0.750000  0.747604  0.087360  1
  Pt  Pt11  1  0.750000  0.245196  0.411219  1
