# generated using pymatgen
data_Sm3Mg2CdAgSn2
_symmetry_space_group_name_H-M   'P 1'
_cell_length_a   7.57589262
_cell_length_b   7.58448006
_cell_length_c   4.61614700
_cell_angle_alpha   90.00000000
_cell_angle_beta   90.00000000
_cell_angle_gamma   120.03749548
_symmetry_Int_Tables_number   1
_chemical_formula_structural   Sm3Mg2CdAgSn2
_chemical_formula_sum   'Sm3 Mg2 Cd1 Ag1 Sn2'
_cell_volume   229.61786431
_cell_formula_units_Z   1
loop_
 _symmetry_equiv_pos_site_id
 _symmetry_equiv_pos_as_xyz
  1  'x, y, z'
loop_
 _atom_site_type_symbol
 _atom_site_label
 _atom_site_symmetry_multiplicity
 _atom_site_fract_x
 _atom_site_fract_y
 _atom_site_fract_z
 _atom_site_occupancy
  Sm  Sm0  1  0.000000  0.416670  0.500000  1
  Sm  Sm1  1  0.587835  0.586294  0.500000  1
  Sm  Sm2  1  0.412165  0.998459  0.500000  1
  Mg  Mg3  1  0.234876  0.233682  0.000000  1
  Mg  Mg4  1  0.765124  0.998806  0.000000  1
  Cd  Cd5  1  0.000000  0.762788  0.000000  1
  Ag  Ag6  1  0.000000  0.006309  0.500000  1
  Sn  Sn7  1  0.335438  0.666215  0.000000  1
  Sn  Sn8  1  0.664562  0.330776  0.000000  1
