# generated using pymatgen
data_Nd2HoGa2
_symmetry_space_group_name_H-M   'P 1'
_cell_length_a   7.69030900
_cell_length_b   7.69030900
_cell_length_c   4.56287400
_cell_angle_alpha   90.00000000
_cell_angle_beta   90.00000000
_cell_angle_gamma   90.00000000
_symmetry_Int_Tables_number   1
_chemical_formula_structural   Nd2HoGa2
_chemical_formula_sum   'Nd4 Ho2 Ga4'
_cell_volume   269.85225828
_cell_formula_units_Z   2
loop_
 _symmetry_equiv_pos_site_id
 _symmetry_equiv_pos_as_xyz
  1  'x, y, z'
loop_
 _atom_site_type_symbol
 _atom_site_label
 _atom_site_symmetry_multiplicity
 _atom_site_fract_x
 _atom_site_fract_y
 _atom_site_fract_z
 _atom_site_occupancy
  Nd  Nd0  1  0.325136  0.174865  0.499999  1
  Nd  Nd1  1  0.825136  0.325136  0.499999  1
  Nd  Nd2  1  0.174865  0.674865  0.499999  1
  Nd  Nd3  1  0.674865  0.825136  0.499999  1
  Ho  Ho4  1  0.000000  0.000000  0.000000  1
  Ho  Ho5  1  0.500000  0.500000  0.000000  1
  Ga  Ga6  1  0.619472  0.119472  0.000000  1
  Ga  Ga7  1  0.119472  0.380527  0.000000  1
  Ga  Ga8  1  0.880528  0.619472  0.000000  1
  Ga  Ga9  1  0.380527  0.880528  0.000000  1
