# generated using pymatgen
data_Li5(AgSn)2
_symmetry_space_group_name_H-M   'P 1'
_cell_length_a   4.70098300
_cell_length_b   4.70098264
_cell_length_c   8.47614600
_cell_angle_alpha   90.00000000
_cell_angle_beta   90.00000000
_cell_angle_gamma   120.00000955
_symmetry_Int_Tables_number   1
_chemical_formula_structural   Li5(AgSn)2
_chemical_formula_sum   'Li5 Ag2 Sn2'
_cell_volume   162.22072836
_cell_formula_units_Z   1
loop_
 _symmetry_equiv_pos_site_id
 _symmetry_equiv_pos_as_xyz
  1  'x, y, z'
loop_
 _atom_site_type_symbol
 _atom_site_label
 _atom_site_symmetry_multiplicity
 _atom_site_fract_x
 _atom_site_fract_y
 _atom_site_fract_z
 _atom_site_occupancy
  Li  Li0  1  0.333333  0.666667  0.111308  1
  Li  Li1  1  0.666667  0.333333  0.888692  1
  Li  Li2  1  0.333333  0.666667  0.429465  1
  Li  Li3  1  0.666667  0.333333  0.570535  1
  Li  Li4  1  0.000000  0.000000  0.000000  1
  Ag  Ag5  1  0.000000  0.000000  0.321992  1
  Ag  Ag6  1  0.000000  0.000000  0.678008  1
  Sn  Sn7  1  0.333333  0.666667  0.771341  1
  Sn  Sn8  1  0.666667  0.333333  0.228659  1
