# generated using pymatgen
data_Dy5(SiTe)2
_symmetry_space_group_name_H-M   'P 1'
_cell_length_a   8.54107911
_cell_length_b   8.54107913
_cell_length_c   7.79831800
_cell_angle_alpha   90.00000000
_cell_angle_beta   90.00000000
_cell_angle_gamma   125.92060099
_symmetry_Int_Tables_number   1
_chemical_formula_structural   Dy5(SiTe)2
_chemical_formula_sum   'Dy10 Si4 Te4'
_cell_volume   460.70263565
_cell_formula_units_Z   2
loop_
 _symmetry_equiv_pos_site_id
 _symmetry_equiv_pos_as_xyz
  1  'x, y, z'
loop_
 _atom_site_type_symbol
 _atom_site_label
 _atom_site_symmetry_multiplicity
 _atom_site_fract_x
 _atom_site_fract_y
 _atom_site_fract_z
 _atom_site_occupancy
  Dy  Dy0  1  0.041391  0.289802  0.334462  1
  Dy  Dy1  1  0.958609  0.710198  0.665538  1
  Dy  Dy2  1  0.458609  0.210198  0.834462  1
  Dy  Dy3  1  0.789802  0.541391  0.165538  1
  Dy  Dy4  1  0.541391  0.789802  0.165538  1
  Dy  Dy5  1  0.210198  0.458609  0.834462  1
  Dy  Dy6  1  0.710198  0.958609  0.665538  1
  Dy  Dy7  1  0.289802  0.041391  0.334462  1
  Dy  Dy8  1  0.000000  0.000000  0.000000  1
  Dy  Dy9  1  0.500000  0.500000  0.500000  1
  Si  Si10  1  0.367637  0.367637  0.130589  1
  Si  Si11  1  0.632363  0.632363  0.869411  1
  Si  Si12  1  0.132363  0.132363  0.630589  1
  Si  Si13  1  0.867637  0.867637  0.369411  1
  Te  Te14  1  0.794549  0.205451  0.000000  1
  Te  Te15  1  0.205451  0.794549  0.000000  1
  Te  Te16  1  0.705451  0.294549  0.500000  1
  Te  Te17  1  0.294549  0.705451  0.500000  1
