# generated using pymatgen
data_Tb4Pa2Mn5Co13P12
_symmetry_space_group_name_H-M   'P 1'
_cell_length_a   3.73471400
_cell_length_b   10.61602147
_cell_length_c   12.19563057
_cell_angle_alpha   89.96539340
_cell_angle_beta   90.00000000
_cell_angle_gamma   90.00000000
_symmetry_Int_Tables_number   1
_chemical_formula_structural   Tb4Pa2Mn5Co13P12
_chemical_formula_sum   'Tb4 Pa2 Mn5 Co13 P12'
_cell_volume   483.52988250
_cell_formula_units_Z   1
loop_
 _symmetry_equiv_pos_site_id
 _symmetry_equiv_pos_as_xyz
  1  'x, y, z'
loop_
 _atom_site_type_symbol
 _atom_site_label
 _atom_site_symmetry_multiplicity
 _atom_site_fract_x
 _atom_site_fract_y
 _atom_site_fract_z
 _atom_site_occupancy
  Tb  Tb0  1  0.500000  0.817007  0.202966  1
  Tb  Tb1  1  0.500000  0.180377  0.206374  1
  Tb  Tb2  1  0.000000  0.683087  0.795919  1
  Tb  Tb3  1  0.000000  0.318177  0.792495  1
  Pa  Pa4  1  0.000000  0.501077  0.528079  1
  Pa  Pa5  1  0.500000  0.999337  0.471326  1
  Mn  Mn6  1  0.500000  0.496878  0.155343  1
  Mn  Mn7  1  0.000000  0.999818  0.848833  1
  Mn  Mn8  1  0.000000  0.497763  0.987921  1
  Mn  Mn9  1  0.500000  0.000738  0.011648  1
  Mn  Mn10  1  0.500000  0.332907  0.997579  1
  Co  Co11  1  0.500000  0.500720  0.691587  1
  Co  Co12  1  0.000000  0.000434  0.306492  1
  Co  Co13  1  0.500000  0.666415  0.994744  1
  Co  Co14  1  0.000000  0.170462  0.005716  1
  Co  Co15  1  0.000000  0.832024  0.005517  1
  Co  Co16  1  0.500000  0.299268  0.432833  1
  Co  Co17  1  0.500000  0.701129  0.432109  1
  Co  Co18  1  0.000000  0.199622  0.567029  1
  Co  Co19  1  0.000000  0.799878  0.566647  1
  Co  Co20  1  0.500000  0.879164  0.707324  1
  Co  Co21  1  0.500000  0.119806  0.705919  1
  Co  Co22  1  0.000000  0.620941  0.291216  1
  Co  Co23  1  0.000000  0.380894  0.295594  1
  P  P24  1  0.500000  0.501300  0.878229  1
  P  P25  1  0.000000  0.000120  0.118277  1
  P  P26  1  0.500000  0.501258  0.344265  1
  P  P27  1  0.000000  0.999460  0.654731  1
  P  P28  1  0.500000  0.306350  0.615653  1
  P  P29  1  0.500000  0.694538  0.615884  1
  P  P30  1  0.000000  0.193897  0.384296  1
  P  P31  1  0.000000  0.806119  0.382360  1
  P  P32  1  0.500000  0.844720  0.895177  1
  P  P33  1  0.500000  0.153829  0.891212  1
  P  P34  1  0.000000  0.652784  0.105399  1
  P  P35  1  0.000000  0.347700  0.113304  1
