# generated using pymatgen
data_Ho2CuBRh5
_symmetry_space_group_name_H-M   'P 1'
_cell_length_a   5.84456855
_cell_length_b   5.76199325
_cell_length_c   5.76199236
_cell_angle_alpha   60.95043188
_cell_angle_beta   59.52479806
_cell_angle_gamma   59.52479567
_symmetry_Int_Tables_number   1
_chemical_formula_structural   Ho2CuBRh5
_chemical_formula_sum   'Ho2 Cu1 B1 Rh5'
_cell_volume   137.15193349
_cell_formula_units_Z   1
loop_
 _symmetry_equiv_pos_site_id
 _symmetry_equiv_pos_as_xyz
  1  'x, y, z'
loop_
 _atom_site_type_symbol
 _atom_site_label
 _atom_site_symmetry_multiplicity
 _atom_site_fract_x
 _atom_site_fract_y
 _atom_site_fract_z
 _atom_site_occupancy
  Ho  Ho0  1  0.249756  0.250244  0.250244  1
  Ho  Ho1  1  0.749756  0.750244  0.750244  1
  Cu  Cu2  1  0.738347  0.261654  0.261654  1
  B  B3  1  0.000966  0.999034  0.999034  1
  Rh  Rh4  1  0.255602  0.744399  0.255170  1
  Rh  Rh5  1  0.744829  0.744397  0.255172  1
  Rh  Rh6  1  0.255602  0.255170  0.744399  1
  Rh  Rh7  1  0.744829  0.255172  0.744397  1
  Rh  Rh8  1  0.260313  0.739688  0.739688  1
