# generated using pymatgen
data_YbPa5(Al3Os)8
_symmetry_space_group_name_H-M   'P 1'
_cell_length_a   8.87377017
_cell_length_b   8.87377148
_cell_length_c   9.43079700
_cell_angle_alpha   90.00000000
_cell_angle_beta   90.00000000
_cell_angle_gamma   119.90141740
_symmetry_Int_Tables_number   1
_chemical_formula_structural   YbPa5(Al3Os)8
_chemical_formula_sum   'Yb1 Pa5 Al24 Os8'
_cell_volume   643.76299652
_cell_formula_units_Z   1
loop_
 _symmetry_equiv_pos_site_id
 _symmetry_equiv_pos_as_xyz
  1  'x, y, z'
loop_
 _atom_site_type_symbol
 _atom_site_label
 _atom_site_symmetry_multiplicity
 _atom_site_fract_x
 _atom_site_fract_y
 _atom_site_fract_z
 _atom_site_occupancy
  Yb  Yb0  1  0.804721  0.195279  0.750000  1
  Pa  Pa1  1  0.194998  0.395173  0.250000  1
  Pa  Pa2  1  0.798155  0.607663  0.750000  1
  Pa  Pa3  1  0.604827  0.805002  0.250000  1
  Pa  Pa4  1  0.392337  0.201845  0.750000  1
  Pa  Pa5  1  0.199093  0.800907  0.250000  1
  Al  Al6  1  0.335212  0.664788  0.013281  1
  Al  Al7  1  0.670717  0.329283  0.978424  1
  Al  Al8  1  0.670717  0.329283  0.521576  1
  Al  Al9  1  0.335212  0.664788  0.486719  1
  Al  Al10  1  0.159818  0.323634  0.578750  1
  Al  Al11  1  0.837450  0.675481  0.420932  1
  Al  Al12  1  0.676366  0.840182  0.578750  1
  Al  Al13  1  0.837450  0.675481  0.079068  1
  Al  Al14  1  0.324519  0.162550  0.420932  1
  Al  Al15  1  0.159818  0.323634  0.921250  1
  Al  Al16  1  0.162238  0.837762  0.582414  1
  Al  Al17  1  0.324519  0.162550  0.079068  1
  Al  Al18  1  0.837956  0.162044  0.423669  1
  Al  Al19  1  0.676366  0.840182  0.921250  1
  Al  Al20  1  0.837956  0.162044  0.076331  1
  Al  Al21  1  0.162238  0.837762  0.917586  1
  Al  Al22  1  0.564693  0.128790  0.250000  1
  Al  Al23  1  0.443344  0.882959  0.750000  1
  Al  Al24  1  0.871210  0.435307  0.250000  1
  Al  Al25  1  0.117041  0.556656  0.750000  1
  Al  Al26  1  0.561883  0.438117  0.250000  1
  Al  Al27  1  0.434096  0.565904  0.750000  1
  Al  Al28  1  0.999898  0.000102  0.250000  1
  Al  Al29  1  0.998620  0.001380  0.750000  1
  Os  Os30  1  0.495840  0.994981  0.006157  1
  Os  Os31  1  0.005019  0.504160  0.006157  1
  Os  Os32  1  0.495840  0.994981  0.493843  1
  Os  Os33  1  0.502080  0.497920  0.996526  1
  Os  Os34  1  0.005019  0.504160  0.493843  1
  Os  Os35  1  0.502080  0.497920  0.503474  1
  Os  Os36  1  0.000331  0.999669  0.000203  1
  Os  Os37  1  0.000331  0.999669  0.499797  1
