# generated using pymatgen
data_CrCo20ReB6Mo
_symmetry_space_group_name_H-M   'P 1'
_cell_length_a   7.38050677
_cell_length_b   7.38050670
_cell_length_c   7.38050700
_cell_angle_alpha   59.99999416
_cell_angle_beta   59.99999448
_cell_angle_gamma   59.99999341
_symmetry_Int_Tables_number   1
_chemical_formula_structural   CrCo20ReB6Mo
_chemical_formula_sum   'Cr1 Co20 Re1 B6 Mo1'
_cell_volume   284.27816355
_cell_formula_units_Z   1
loop_
 _symmetry_equiv_pos_site_id
 _symmetry_equiv_pos_as_xyz
  1  'x, y, z'
loop_
 _atom_site_type_symbol
 _atom_site_label
 _atom_site_symmetry_multiplicity
 _atom_site_fract_x
 _atom_site_fract_y
 _atom_site_fract_z
 _atom_site_occupancy
  Cr  Cr0  1  0.000000  0.000000  0.000000  1
  Co  Co1  1  0.617791  0.617791  0.146628  1
  Co  Co2  1  0.617791  0.146628  0.617791  1
  Co  Co3  1  0.146628  0.617791  0.617791  1
  Co  Co4  1  0.617791  0.617791  0.617791  1
  Co  Co5  1  0.381384  0.381384  0.855846  1
  Co  Co6  1  0.381384  0.855846  0.381384  1
  Co  Co7  1  0.855846  0.381384  0.381384  1
  Co  Co8  1  0.381384  0.381384  0.381384  1
  Co  Co9  1  0.000323  0.000323  0.339236  1
  Co  Co10  1  0.660118  0.000323  0.339236  1
  Co  Co11  1  0.000323  0.660118  0.339236  1
  Co  Co12  1  0.660118  0.339236  0.000323  1
  Co  Co13  1  0.000323  0.339236  0.000323  1
  Co  Co14  1  0.000323  0.339236  0.660118  1
  Co  Co15  1  0.339236  0.660118  0.000323  1
  Co  Co16  1  0.339236  0.000323  0.660118  1
  Co  Co17  1  0.339236  0.000323  0.000323  1
  Co  Co18  1  0.000323  0.000323  0.660118  1
  Co  Co19  1  0.000323  0.660118  0.000323  1
  Co  Co20  1  0.660118  0.000323  0.000323  1
  Re  Re21  1  0.250000  0.250000  0.250000  1
  B  B22  1  0.725184  0.725184  0.274816  1
  B  B23  1  0.274816  0.725184  0.274816  1
  B  B24  1  0.725184  0.274816  0.274816  1
  B  B25  1  0.274816  0.274816  0.725184  1
  B  B26  1  0.725184  0.274816  0.725184  1
  B  B27  1  0.274816  0.725184  0.725184  1
  Mo  Mo28  1  0.750000  0.750000  0.750000  1
