# generated using pymatgen
data_Hf17ScRe6(SiW)2
_symmetry_space_group_name_H-M   'P 1'
_cell_length_a   8.65081484
_cell_length_b   8.65081417
_cell_length_c   8.60893500
_cell_angle_alpha   90.00000000
_cell_angle_beta   90.00000000
_cell_angle_gamma   120.03448455
_symmetry_Int_Tables_number   1
_chemical_formula_structural   Hf17ScRe6(SiW)2
_chemical_formula_sum   'Hf17 Sc1 Re6 Si2 W2'
_cell_volume   557.75444861
_cell_formula_units_Z   1
loop_
 _symmetry_equiv_pos_site_id
 _symmetry_equiv_pos_as_xyz
  1  'x, y, z'
loop_
 _atom_site_type_symbol
 _atom_site_label
 _atom_site_symmetry_multiplicity
 _atom_site_fract_x
 _atom_site_fract_y
 _atom_site_fract_z
 _atom_site_occupancy
  Hf  Hf0  1  0.195579  0.804421  0.453149  1
  Hf  Hf1  1  0.196546  0.391264  0.451881  1
  Hf  Hf2  1  0.608736  0.803454  0.451881  1
  Hf  Hf3  1  0.803661  0.196339  0.546794  1
  Hf  Hf4  1  0.804764  0.609589  0.548445  1
  Hf  Hf5  1  0.390411  0.195236  0.548445  1
  Hf  Hf6  1  0.803661  0.196339  0.953206  1
  Hf  Hf7  1  0.804764  0.609589  0.951555  1
  Hf  Hf8  1  0.390411  0.195236  0.951555  1
  Hf  Hf9  1  0.195579  0.804421  0.046851  1
  Hf  Hf10  1  0.196546  0.391264  0.048119  1
  Hf  Hf11  1  0.608736  0.803454  0.048119  1
  Hf  Hf12  1  0.537770  0.075035  0.250000  1
  Hf  Hf13  1  0.924965  0.462230  0.250000  1
  Hf  Hf14  1  0.460588  0.539412  0.750000  1
  Hf  Hf15  1  0.461229  0.921946  0.750000  1
  Hf  Hf16  1  0.078054  0.538771  0.750000  1
  Sc  Sc17  1  0.541876  0.458124  0.250000  1
  Re  Re18  1  0.889551  0.110449  0.250000  1
  Re  Re19  1  0.889895  0.779061  0.250000  1
  Re  Re20  1  0.220939  0.110105  0.250000  1
  Re  Re21  1  0.109712  0.890288  0.750000  1
  Re  Re22  1  0.109350  0.221004  0.750000  1
  Re  Re23  1  0.778996  0.890650  0.750000  1
  Si  Si24  1  0.331642  0.668358  0.250000  1
  Si  Si25  1  0.666274  0.333726  0.750000  1
  W  W26  1  0.999884  0.000116  0.499049  1
  W  W27  1  0.999884  0.000116  0.000951  1
