# generated using pymatgen
data_Sc5(AlTe)2
_symmetry_space_group_name_H-M   'P 1'
_cell_length_a   8.24127589
_cell_length_b   8.24127657
_cell_length_c   7.52004000
_cell_angle_alpha   90.00000000
_cell_angle_beta   90.00000000
_cell_angle_gamma   125.82401428
_symmetry_Int_Tables_number   1
_chemical_formula_structural   Sc5(AlTe)2
_chemical_formula_sum   'Sc10 Al4 Te4'
_cell_volume   414.12627114
_cell_formula_units_Z   2
loop_
 _symmetry_equiv_pos_site_id
 _symmetry_equiv_pos_as_xyz
  1  'x, y, z'
loop_
 _atom_site_type_symbol
 _atom_site_label
 _atom_site_symmetry_multiplicity
 _atom_site_fract_x
 _atom_site_fract_y
 _atom_site_fract_z
 _atom_site_occupancy
  Sc  Sc0  1  0.000000  0.000000  0.000000  1
  Sc  Sc1  1  0.500000  0.500000  0.500000  1
  Sc  Sc2  1  0.793462  0.539153  0.167196  1
  Sc  Sc3  1  0.460847  0.206538  0.832804  1
  Sc  Sc4  1  0.960847  0.706538  0.667196  1
  Sc  Sc5  1  0.293462  0.039153  0.332804  1
  Sc  Sc6  1  0.206538  0.460847  0.832804  1
  Sc  Sc7  1  0.539153  0.793462  0.167196  1
  Sc  Sc8  1  0.039153  0.293462  0.332804  1
  Sc  Sc9  1  0.706538  0.960847  0.667196  1
  Al  Al10  1  0.870937  0.870937  0.372400  1
  Al  Al11  1  0.129063  0.129063  0.627600  1
  Al  Al12  1  0.629063  0.629063  0.872400  1
  Al  Al13  1  0.370937  0.370937  0.127600  1
  Te  Te14  1  0.205712  0.794288  0.000000  1
  Te  Te15  1  0.705712  0.294288  0.500000  1
  Te  Te16  1  0.794288  0.205712  0.000000  1
  Te  Te17  1  0.294288  0.705712  0.500000  1
