# generated using pymatgen
data_Nd2Tm2Lu2FeCo17P12
_symmetry_space_group_name_H-M   'P 1'
_cell_length_a   3.69914400
_cell_length_b   10.52568300
_cell_length_c   12.18601100
_cell_angle_alpha   90.00000000
_cell_angle_beta   90.00000000
_cell_angle_gamma   90.00000000
_symmetry_Int_Tables_number   1
_chemical_formula_structural   Nd2Tm2Lu2FeCo17P12
_chemical_formula_sum   'Nd2 Tm2 Lu2 Fe1 Co17 P12'
_cell_volume   474.47473286
_cell_formula_units_Z   1
loop_
 _symmetry_equiv_pos_site_id
 _symmetry_equiv_pos_as_xyz
  1  'x, y, z'
loop_
 _atom_site_type_symbol
 _atom_site_label
 _atom_site_symmetry_multiplicity
 _atom_site_fract_x
 _atom_site_fract_y
 _atom_site_fract_z
 _atom_site_occupancy
  Nd  Nd0  1  0.000000  0.500000  0.522231  1
  Nd  Nd1  1  0.500000  0.000000  0.477232  1
  Tm  Tm2  1  0.000000  0.682110  0.795943  1
  Tm  Tm3  1  0.000000  0.317890  0.795943  1
  Lu  Lu4  1  0.500000  0.818404  0.204726  1
  Lu  Lu5  1  0.500000  0.181596  0.204726  1
  Fe  Fe6  1  0.500000  0.500000  0.155389  1
  Co  Co7  1  0.000000  0.000000  0.843343  1
  Co  Co8  1  0.500000  0.500000  0.706668  1
  Co  Co9  1  0.000000  0.000000  0.292624  1
  Co  Co10  1  0.000000  0.500000  0.986920  1
  Co  Co11  1  0.500000  0.000000  0.013807  1
  Co  Co12  1  0.500000  0.332351  0.994970  1
  Co  Co13  1  0.500000  0.667649  0.994970  1
  Co  Co14  1  0.000000  0.166606  0.006028  1
  Co  Co15  1  0.000000  0.833394  0.006028  1
  Co  Co16  1  0.500000  0.296030  0.428544  1
  Co  Co17  1  0.500000  0.703970  0.428544  1
  Co  Co18  1  0.000000  0.203513  0.571101  1
  Co  Co19  1  0.000000  0.796487  0.571101  1
  Co  Co20  1  0.500000  0.879092  0.712768  1
  Co  Co21  1  0.500000  0.120908  0.712768  1
  Co  Co22  1  0.000000  0.621966  0.287063  1
  Co  Co23  1  0.000000  0.378034  0.287063  1
  P  P24  1  0.500000  0.500000  0.883604  1
  P  P25  1  0.000000  0.000000  0.117149  1
  P  P26  1  0.500000  0.500000  0.338985  1
  P  P27  1  0.000000  0.000000  0.660431  1
  P  P28  1  0.500000  0.307917  0.618478  1
  P  P29  1  0.500000  0.692083  0.618478  1
  P  P30  1  0.000000  0.191874  0.380763  1
  P  P31  1  0.000000  0.808126  0.380763  1
  P  P32  1  0.500000  0.846419  0.893565  1
  P  P33  1  0.500000  0.153581  0.893565  1
  P  P34  1  0.000000  0.654436  0.106860  1
  P  P35  1  0.000000  0.345564  0.106860  1
