# generated using pymatgen
data_Dy6Lu6AlCo4Bi
_symmetry_space_group_name_H-M   'P 1'
_cell_length_a   8.24689091
_cell_length_b   8.24689089
_cell_length_c   8.23429300
_cell_angle_alpha   112.14522726
_cell_angle_beta   109.36596914
_cell_angle_gamma   107.00924495
_symmetry_Int_Tables_number   1
_chemical_formula_structural   Dy6Lu6AlCo4Bi
_chemical_formula_sum   'Dy6 Lu6 Al1 Co4 Bi1'
_cell_volume   429.88678559
_cell_formula_units_Z   1
loop_
 _symmetry_equiv_pos_site_id
 _symmetry_equiv_pos_as_xyz
  1  'x, y, z'
loop_
 _atom_site_type_symbol
 _atom_site_label
 _atom_site_symmetry_multiplicity
 _atom_site_fract_x
 _atom_site_fract_y
 _atom_site_fract_z
 _atom_site_occupancy
  Dy  Dy0  1  0.436785  0.229535  0.203588  1
  Dy  Dy1  1  0.563215  0.770465  0.796412  1
  Dy  Dy2  1  0.025947  0.233197  0.796412  1
  Dy  Dy3  1  0.974053  0.766803  0.203588  1
  Dy  Dy4  1  0.179387  0.281303  0.460691  1
  Dy  Dy5  1  0.820613  0.718697  0.539309  1
  Lu  Lu6  1  0.179779  0.720043  0.899822  1
  Lu  Lu7  1  0.820221  0.279957  0.100178  1
  Lu  Lu8  1  0.322306  0.639060  0.314485  1
  Lu  Lu9  1  0.677694  0.360940  0.685515  1
  Lu  Lu10  1  0.324576  0.007821  0.685515  1
  Lu  Lu11  1  0.675424  0.992179  0.314485  1
  Al  Al12  1  0.000000  0.000000  0.000000  1
  Co  Co13  1  0.340466  0.998171  0.338638  1
  Co  Co14  1  0.659534  0.001829  0.661362  1
  Co  Co15  1  0.115376  0.615376  0.500000  1
  Co  Co16  1  0.884624  0.384624  0.500000  1
  Bi  Bi17  1  0.500000  0.500000  0.000000  1
