# generated using pymatgen
data_Tb14Pr2Cd4IrPt3
_symmetry_space_group_name_H-M   'P 1'
_cell_length_a   9.77291332
_cell_length_b   9.75057828
_cell_length_c   9.73112500
_cell_angle_alpha   60.06597175
_cell_angle_beta   60.14134281
_cell_angle_gamma   60.00880429
_symmetry_Int_Tables_number   1
_chemical_formula_structural   Tb14Pr2Cd4IrPt3
_chemical_formula_sum   'Tb14 Pr2 Cd4 Ir1 Pt3'
_cell_volume   656.76461625
_cell_formula_units_Z   1
loop_
 _symmetry_equiv_pos_site_id
 _symmetry_equiv_pos_as_xyz
  1  'x, y, z'
loop_
 _atom_site_type_symbol
 _atom_site_label
 _atom_site_symmetry_multiplicity
 _atom_site_fract_x
 _atom_site_fract_y
 _atom_site_fract_z
 _atom_site_occupancy
  Tb  Tb0  1  0.353012  0.348819  0.346856  1
  Tb  Tb1  1  0.353012  0.348819  0.951313  1
  Tb  Tb2  1  0.354319  0.946584  0.349548  1
  Tb  Tb3  1  0.940721  0.353683  0.352798  1
  Tb  Tb4  1  0.807985  0.189208  0.189078  1
  Tb  Tb5  1  0.190902  0.810413  0.809158  1
  Tb  Tb6  1  0.190902  0.810413  0.189528  1
  Tb  Tb7  1  0.807985  0.189208  0.813728  1
  Tb  Tb8  1  0.192019  0.189819  0.809082  1
  Tb  Tb9  1  0.807820  0.813897  0.189141  1
  Tb  Tb10  1  0.940557  0.559971  0.561372  1
  Tb  Tb11  1  0.562029  0.940129  0.938850  1
  Tb  Tb12  1  0.562029  0.940129  0.558991  1
  Tb  Tb13  1  0.940557  0.559971  0.938100  1
  Pr  Pr14  1  0.568345  0.565674  0.932990  1
  Pr  Pr15  1  0.934559  0.934416  0.565513  1
  Cd  Cd16  1  0.581493  0.582056  0.578662  1
  Cd  Cd17  1  0.581493  0.582056  0.257788  1
  Cd  Cd18  1  0.577468  0.256423  0.583054  1
  Cd  Cd19  1  0.257645  0.577549  0.582403  1
  Ir  Ir20  1  0.572548  0.138951  0.144251  1
  Pt  Pt21  1  0.142122  0.145038  0.142401  1
  Pt  Pt22  1  0.142122  0.145038  0.570439  1
  Pt  Pt23  1  0.138353  0.571737  0.144955  1
