# generated using pymatgen
data_Ho2Pa6Ti3Si16Mo9
_symmetry_space_group_name_H-M   'P 1'
_cell_length_a   6.94281389
_cell_length_b   6.94505700
_cell_length_c   12.86581116
_cell_angle_alpha   89.94113175
_cell_angle_beta   90.27813295
_cell_angle_gamma   89.74695602
_symmetry_Int_Tables_number   1
_chemical_formula_structural   Ho2Pa6Ti3Si16Mo9
_chemical_formula_sum   'Ho2 Pa6 Ti3 Si16 Mo9'
_cell_volume   620.35304651
_cell_formula_units_Z   1
loop_
 _symmetry_equiv_pos_site_id
 _symmetry_equiv_pos_as_xyz
  1  'x, y, z'
loop_
 _atom_site_type_symbol
 _atom_site_label
 _atom_site_symmetry_multiplicity
 _atom_site_fract_x
 _atom_site_fract_y
 _atom_site_fract_z
 _atom_site_occupancy
  Ho  Ho0  1  0.338987  0.999575  0.469561  1
  Ho  Ho1  1  0.498924  0.837835  0.718695  1
  Pa  Pa2  1  0.499450  0.164282  0.217857  1
  Pa  Pa3  1  0.837131  0.497298  0.278880  1
  Pa  Pa4  1  0.161219  0.496831  0.780160  1
  Pa  Pa5  1  0.659858  0.000638  0.973268  1
  Pa  Pa6  1  0.997473  0.341992  0.530239  1
  Pa  Pa7  1  0.000852  0.660497  0.027397  1
  Ti  Ti8  1  0.166677  0.830450  0.249105  1
  Ti  Ti9  1  0.834768  0.172536  0.749993  1
  Ti  Ti10  1  0.673938  0.662106  0.498622  1
  Si  Si11  1  0.201129  0.123279  0.682702  1
  Si  Si12  1  0.380096  0.698569  0.932003  1
  Si  Si13  1  0.623357  0.297474  0.434494  1
  Si  Si14  1  0.698736  0.380957  0.065685  1
  Si  Si15  1  0.300684  0.627609  0.565641  1
  Si  Si16  1  0.801247  0.873977  0.184580  1
  Si  Si17  1  0.126915  0.199572  0.317607  1
  Si  Si18  1  0.871124  0.799915  0.814855  1
  Si  Si19  1  0.277353  0.966452  0.063729  1
  Si  Si20  1  0.536045  0.786799  0.315270  1
  Si  Si21  1  0.463058  0.210335  0.815455  1
  Si  Si22  1  0.785618  0.538007  0.685811  1
  Si  Si23  1  0.216086  0.464761  0.183257  1
  Si  Si24  1  0.713019  0.037199  0.565106  1
  Si  Si25  1  0.966325  0.278488  0.936968  1
  Si  Si26  1  0.037527  0.714692  0.435185  1
  Mo  Mo27  1  0.331576  0.331471  0.999375  1
  Mo  Mo28  1  0.161916  0.989774  0.871257  1
  Mo  Mo29  1  0.508223  0.672577  0.123279  1
  Mo  Mo30  1  0.498325  0.339051  0.627014  1
  Mo  Mo31  1  0.672926  0.503639  0.876081  1
  Mo  Mo32  1  0.335317  0.496968  0.377221  1
  Mo  Mo33  1  0.835514  0.003423  0.374929  1
  Mo  Mo34  1  0.987462  0.168044  0.130692  1
  Mo  Mo35  1  0.001144  0.832931  0.628029  1
