# generated using pymatgen
data_YbDy5Pa2(Pt2Pb)4
_symmetry_space_group_name_H-M   'P 1'
_cell_length_a   7.99795116
_cell_length_b   7.99795128
_cell_length_c   7.15887900
_cell_angle_alpha   90.00000000
_cell_angle_beta   90.00000000
_cell_angle_gamma   92.04337473
_symmetry_Int_Tables_number   1
_chemical_formula_structural   YbDy5Pa2(Pt2Pb)4
_chemical_formula_sum   'Yb1 Dy5 Pa2 Pt8 Pb4'
_cell_volume   457.64242428
_cell_formula_units_Z   1
loop_
 _symmetry_equiv_pos_site_id
 _symmetry_equiv_pos_as_xyz
  1  'x, y, z'
loop_
 _atom_site_type_symbol
 _atom_site_label
 _atom_site_symmetry_multiplicity
 _atom_site_fract_x
 _atom_site_fract_y
 _atom_site_fract_z
 _atom_site_occupancy
  Yb  Yb0  1  0.168315  0.831685  0.000000  1
  Dy  Dy1  1  0.665342  0.665294  0.000000  1
  Dy  Dy2  1  0.833788  0.166212  0.500000  1
  Dy  Dy3  1  0.334706  0.334658  0.000000  1
  Dy  Dy4  1  0.166267  0.833733  0.500000  1
  Dy  Dy5  1  0.832409  0.167591  0.000000  1
  Pa  Pa6  1  0.328288  0.329000  0.500000  1
  Pa  Pa7  1  0.671000  0.671712  0.500000  1
  Pt  Pt8  1  0.868499  0.868901  0.742536  1
  Pt  Pt9  1  0.131099  0.131501  0.742536  1
  Pt  Pt10  1  0.625798  0.374202  0.735482  1
  Pt  Pt11  1  0.625798  0.374202  0.264518  1
  Pt  Pt12  1  0.376616  0.623384  0.267002  1
  Pt  Pt13  1  0.131099  0.131501  0.257464  1
  Pt  Pt14  1  0.868499  0.868901  0.257464  1
  Pt  Pt15  1  0.376616  0.623384  0.732998  1
  Pb  Pb16  1  0.497638  0.999707  0.755803  1
  Pb  Pb17  1  0.497638  0.999707  0.244197  1
  Pb  Pb18  1  0.000293  0.502362  0.755803  1
  Pb  Pb19  1  0.000293  0.502362  0.244197  1
