# generated using pymatgen
data_Dy4RuBr4
_symmetry_space_group_name_H-M   'P 1'
_cell_length_a   9.02015413
_cell_length_b   9.02015475
_cell_length_c   6.56621251
_cell_angle_alpha   89.60336376
_cell_angle_beta   89.60336072
_cell_angle_gamma   89.39166216
_symmetry_Int_Tables_number   1
_chemical_formula_structural   Dy4RuBr4
_chemical_formula_sum   'Dy8 Ru2 Br8'
_cell_volume   534.19252564
_cell_formula_units_Z   2
loop_
 _symmetry_equiv_pos_site_id
 _symmetry_equiv_pos_as_xyz
  1  'x, y, z'
loop_
 _atom_site_type_symbol
 _atom_site_label
 _atom_site_symmetry_multiplicity
 _atom_site_fract_x
 _atom_site_fract_y
 _atom_site_fract_z
 _atom_site_occupancy
  Dy  Dy0  1  0.248398  0.902240  0.009973  1
  Dy  Dy1  1  0.751602  0.097760  0.990027  1
  Dy  Dy2  1  0.097760  0.751602  0.490027  1
  Dy  Dy3  1  0.902240  0.248398  0.509973  1
  Dy  Dy4  1  0.752355  0.903341  0.506159  1
  Dy  Dy5  1  0.247645  0.096659  0.493841  1
  Dy  Dy6  1  0.096659  0.247645  0.993841  1
  Dy  Dy7  1  0.903341  0.752355  0.006159  1
  Ru  Ru8  1  0.995183  0.004817  0.250000  1
  Ru  Ru9  1  0.004817  0.995183  0.750000  1
  Br  Br10  1  0.416486  0.818072  0.411089  1
  Br  Br11  1  0.583514  0.181928  0.588911  1
  Br  Br12  1  0.181928  0.583514  0.088911  1
  Br  Br13  1  0.818072  0.416486  0.911089  1
  Br  Br14  1  0.412000  0.188807  0.091610  1
  Br  Br15  1  0.588000  0.811193  0.908390  1
  Br  Br16  1  0.811193  0.588000  0.408390  1
  Br  Br17  1  0.188807  0.412000  0.591610  1
