# generated using pymatgen
data_TbNd2Dy5(WO6)4
_symmetry_space_group_name_H-M   'P 1'
_cell_length_a   5.45227900
_cell_length_b   7.77555639
_cell_length_c   11.56477731
_cell_angle_alpha   75.58497838
_cell_angle_beta   90.00000000
_cell_angle_gamma   90.00000000
_symmetry_Int_Tables_number   1
_chemical_formula_structural   TbNd2Dy5(WO6)4
_chemical_formula_sum   'Tb1 Nd2 Dy5 W4 O24'
_cell_volume   474.84785984
_cell_formula_units_Z   1
loop_
 _symmetry_equiv_pos_site_id
 _symmetry_equiv_pos_as_xyz
  1  'x, y, z'
loop_
 _atom_site_type_symbol
 _atom_site_label
 _atom_site_symmetry_multiplicity
 _atom_site_fract_x
 _atom_site_fract_y
 _atom_site_fract_z
 _atom_site_occupancy
  Tb  Tb0  1  0.740617  0.000000  0.750000  1
  Nd  Nd1  1  0.685218  0.500000  0.750000  1
  Nd  Nd2  1  0.314719  0.500000  0.250000  1
  Dy  Dy3  1  0.259532  0.000000  0.250000  1
  Dy  Dy4  1  0.187572  0.797636  0.576845  1
  Dy  Dy5  1  0.812489  0.797675  0.076940  1
  Dy  Dy6  1  0.187572  0.202364  0.923155  1
  Dy  Dy7  1  0.812489  0.202325  0.423060  1
  W  W8  1  0.253142  0.726710  0.884843  1
  W  W9  1  0.746842  0.726861  0.384776  1
  W  W10  1  0.253142  0.273290  0.615157  1
  W  W11  1  0.746842  0.273139  0.115224  1
  O  O12  1  0.041625  0.940479  0.896081  1
  O  O13  1  0.529864  0.847476  0.930864  1
  O  O14  1  0.959049  0.940608  0.395757  1
  O  O15  1  0.455851  0.792803  0.727901  1
  O  O16  1  0.469919  0.847713  0.430617  1
  O  O17  1  0.986617  0.717513  0.770142  1
  O  O18  1  0.543507  0.793286  0.227925  1
  O  O19  1  0.854703  0.640732  0.545674  1
  O  O20  1  0.351300  0.493103  0.887868  1
  O  O21  1  0.013501  0.717741  0.270120  1
  O  O22  1  0.351300  0.506897  0.612132  1
  O  O23  1  0.854703  0.359268  0.954326  1
  O  O24  1  0.145226  0.640655  0.045691  1
  O  O25  1  0.648750  0.493144  0.387829  1
  O  O26  1  0.986617  0.282487  0.729858  1
  O  O27  1  0.648750  0.506856  0.112171  1
  O  O28  1  0.145226  0.359345  0.454309  1
  O  O29  1  0.455851  0.207197  0.772099  1
  O  O30  1  0.013501  0.282259  0.229880  1
  O  O31  1  0.529864  0.152524  0.569136  1
  O  O32  1  0.543507  0.206714  0.272075  1
  O  O33  1  0.041625  0.059521  0.603919  1
  O  O34  1  0.469919  0.152287  0.069383  1
  O  O35  1  0.959049  0.059392  0.104243  1
