# generated using pymatgen
data_IrPdBr6
_symmetry_space_group_name_H-M   'P 1'
_cell_length_a   6.58786272
_cell_length_b   6.58786182
_cell_length_c   7.07654248
_cell_angle_alpha   81.68464749
_cell_angle_beta   81.68465523
_cell_angle_gamma   120.72451471
_symmetry_Int_Tables_number   1
_chemical_formula_structural   IrPdBr6
_chemical_formula_sum   'Ir1 Pd1 Br6'
_cell_volume   252.46948898
_cell_formula_units_Z   1
loop_
 _symmetry_equiv_pos_site_id
 _symmetry_equiv_pos_as_xyz
  1  'x, y, z'
loop_
 _atom_site_type_symbol
 _atom_site_label
 _atom_site_symmetry_multiplicity
 _atom_site_fract_x
 _atom_site_fract_y
 _atom_site_fract_z
 _atom_site_occupancy
  Ir  Ir0  1  0.834001  0.165999  0.000000  1
  Pd  Pd1  1  0.169603  0.830397  0.000000  1
  Br  Br2  1  0.920253  0.561617  0.799636  1
  Br  Br3  1  0.438383  0.079747  0.200364  1
  Br  Br4  1  0.777694  0.796421  0.209828  1
  Br  Br5  1  0.203579  0.222306  0.790172  1
  Br  Br6  1  0.586556  0.930068  0.780608  1
  Br  Br7  1  0.069932  0.413444  0.219392  1
