# generated using pymatgen
data_Tc5RuRh8
_symmetry_space_group_name_H-M   'P 1'
_cell_length_a   7.30163118
_cell_length_b   7.29593539
_cell_length_c   4.32413500
_cell_angle_alpha   90.00000000
_cell_angle_beta   90.00000000
_cell_angle_gamma   60.15330602
_symmetry_Int_Tables_number   1
_chemical_formula_structural   Tc5RuRh8
_chemical_formula_sum   'Tc5 Ru1 Rh8'
_cell_volume   199.80188469
_cell_formula_units_Z   1
loop_
 _symmetry_equiv_pos_site_id
 _symmetry_equiv_pos_as_xyz
  1  'x, y, z'
loop_
 _atom_site_type_symbol
 _atom_site_label
 _atom_site_symmetry_multiplicity
 _atom_site_fract_x
 _atom_site_fract_y
 _atom_site_fract_z
 _atom_site_occupancy
  Tc  Tc0  1  0.293610  0.569024  0.000000  1
  Tc  Tc1  1  0.426477  0.851995  0.000000  1
  Tc  Tc2  1  0.526961  0.386779  0.500000  1
  Tc  Tc3  1  0.660120  0.668079  0.500000  1
  Tc  Tc4  1  0.244301  0.801229  0.500000  1
  Ru  Ru5  1  0.707906  0.437766  0.000000  1
  Rh  Rh6  1  0.571937  0.142460  0.000000  1
  Rh  Rh7  1  0.143972  0.284020  0.000000  1
  Rh  Rh8  1  0.856393  0.716004  0.000000  1
  Rh  Rh9  1  0.998500  0.999244  0.000000  1
  Rh  Rh10  1  0.379295  0.097219  0.500000  1
  Rh  Rh11  1  0.952212  0.238995  0.500000  1
  Rh  Rh12  1  0.094910  0.521547  0.500000  1
  Rh  Rh13  1  0.809966  0.952209  0.500000  1
