# generated using pymatgen
data_Tm4InB4Ir9
_symmetry_space_group_name_H-M   'P 1'
_cell_length_a   10.91525927
_cell_length_b   10.91525881
_cell_length_c   10.91525990
_cell_angle_alpha   29.31959239
_cell_angle_beta   29.31959552
_cell_angle_gamma   29.31958930
_symmetry_Int_Tables_number   1
_chemical_formula_structural   Tm4InB4Ir9
_chemical_formula_sum   'Tm4 In1 B4 Ir9'
_cell_volume   275.94432474
_cell_formula_units_Z   1
loop_
 _symmetry_equiv_pos_site_id
 _symmetry_equiv_pos_as_xyz
  1  'x, y, z'
loop_
 _atom_site_type_symbol
 _atom_site_label
 _atom_site_symmetry_multiplicity
 _atom_site_fract_x
 _atom_site_fract_y
 _atom_site_fract_z
 _atom_site_occupancy
  Tm  Tm0  1  0.149427  0.149427  0.149427  1
  Tm  Tm1  1  0.950848  0.950848  0.950848  1
  Tm  Tm2  1  0.850573  0.850573  0.850573  1
  Tm  Tm3  1  0.049152  0.049152  0.049152  1
  In  In4  1  0.500000  0.500000  0.500000  1
  B  B5  1  0.616364  0.616364  0.616364  1
  B  B6  1  0.716615  0.716615  0.716615  1
  B  B7  1  0.383636  0.383636  0.383636  1
  B  B8  1  0.283385  0.283385  0.283385  1
  Ir  Ir9  1  0.402652  0.907024  0.402652  1
  Ir  Ir10  1  0.907024  0.402652  0.402652  1
  Ir  Ir11  1  0.500000  0.500000  0.000000  1
  Ir  Ir12  1  0.500000  0.000000  0.500000  1
  Ir  Ir13  1  0.000000  0.500000  0.500000  1
  Ir  Ir14  1  0.597348  0.092976  0.597348  1
  Ir  Ir15  1  0.597348  0.597348  0.092976  1
  Ir  Ir16  1  0.092976  0.597348  0.597348  1
  Ir  Ir17  1  0.402652  0.402652  0.907024  1
