# generated using pymatgen
data_BaLiSmSe3
_symmetry_space_group_name_H-M   'P 1'
_cell_length_a   7.38067047
_cell_length_b   7.38066994
_cell_length_c   10.97107800
_cell_angle_alpha   90.00000000
_cell_angle_beta   90.00000000
_cell_angle_gamma   145.99270327
_symmetry_Int_Tables_number   1
_chemical_formula_structural   BaLiSmSe3
_chemical_formula_sum   'Ba2 Li2 Sm2 Se6'
_cell_volume   334.26010142
_cell_formula_units_Z   2
loop_
 _symmetry_equiv_pos_site_id
 _symmetry_equiv_pos_as_xyz
  1  'x, y, z'
loop_
 _atom_site_type_symbol
 _atom_site_label
 _atom_site_symmetry_multiplicity
 _atom_site_fract_x
 _atom_site_fract_y
 _atom_site_fract_z
 _atom_site_occupancy
  Ba  Ba0  1  0.246785  0.753217  0.250000  1
  Ba  Ba1  1  0.753217  0.246785  0.750000  1
  Li  Li2  1  0.971484  0.028518  0.250000  1
  Li  Li3  1  0.028518  0.971484  0.750000  1
  Sm  Sm4  1  0.500001  0.500001  0.000000  1
  Sm  Sm5  1  0.500001  0.500001  0.500000  1
  Se  Se6  1  0.865554  0.134448  0.063371  1
  Se  Se7  1  0.569806  0.430197  0.250000  1
  Se  Se8  1  0.865554  0.134448  0.436629  1
  Se  Se9  1  0.134448  0.865554  0.563371  1
  Se  Se10  1  0.430197  0.569806  0.750000  1
  Se  Se11  1  0.134448  0.865554  0.936629  1
