# generated using pymatgen
data_CeSmSc2(CrB6)2
_symmetry_space_group_name_H-M   'P 1'
_cell_length_a   3.51802300
_cell_length_b   9.04110138
_cell_length_c   11.44576349
_cell_angle_alpha   89.96656778
_cell_angle_beta   90.00000000
_cell_angle_gamma   90.00000000
_symmetry_Int_Tables_number   1
_chemical_formula_structural   CeSmSc2(CrB6)2
_chemical_formula_sum   'Ce2 Sm2 Sc4 Cr4 B24'
_cell_volume   364.05307806
_cell_formula_units_Z   2
loop_
 _symmetry_equiv_pos_site_id
 _symmetry_equiv_pos_as_xyz
  1  'x, y, z'
loop_
 _atom_site_type_symbol
 _atom_site_label
 _atom_site_symmetry_multiplicity
 _atom_site_fract_x
 _atom_site_fract_y
 _atom_site_fract_z
 _atom_site_occupancy
  Ce  Ce0  1  0.000000  0.821499  0.085303  1
  Ce  Ce1  1  0.000000  0.178501  0.914697  1
  Sm  Sm2  1  0.000000  0.322705  0.414964  1
  Sm  Sm3  1  0.000000  0.677295  0.585036  1
  Sc  Sc4  1  0.000000  0.443733  0.130386  1
  Sc  Sc5  1  0.000000  0.556267  0.869614  1
  Sc  Sc6  1  0.000000  0.943600  0.369434  1
  Sc  Sc7  1  0.000000  0.056400  0.630566  1
  Cr  Cr8  1  0.000000  0.140720  0.181336  1
  Cr  Cr9  1  0.000000  0.859280  0.818664  1
  Cr  Cr10  1  0.000000  0.642934  0.316298  1
  Cr  Cr11  1  0.000000  0.357066  0.683702  1
  B  B12  1  0.500000  0.056030  0.069683  1
  B  B13  1  0.500000  0.943970  0.930317  1
  B  B14  1  0.500000  0.556112  0.430357  1
  B  B15  1  0.500000  0.443888  0.569643  1
  B  B16  1  0.500000  0.253419  0.084266  1
  B  B17  1  0.500000  0.746581  0.915734  1
  B  B18  1  0.500000  0.753584  0.415959  1
  B  B19  1  0.500000  0.246416  0.584041  1
  B  B20  1  0.500000  0.294133  0.234917  1
  B  B21  1  0.500000  0.705867  0.765083  1
  B  B22  1  0.500000  0.794306  0.264881  1
  B  B23  1  0.500000  0.205694  0.735119  1
  B  B24  1  0.500000  0.128893  0.316173  1
  B  B25  1  0.500000  0.871107  0.683827  1
  B  B26  1  0.500000  0.629186  0.183821  1
  B  B27  1  0.500000  0.370814  0.816179  1
  B  B28  1  0.500000  0.483535  0.285547  1
  B  B29  1  0.500000  0.516465  0.714453  1
  B  B30  1  0.500000  0.983334  0.214472  1
  B  B31  1  0.500000  0.016666  0.785528  1
  B  B32  1  0.500000  0.094946  0.474524  1
  B  B33  1  0.500000  0.905054  0.525476  1
  B  B34  1  0.500000  0.596095  0.025819  1
  B  B35  1  0.500000  0.403905  0.974181  1
