# generated using pymatgen
data_NdGd7(Pt2Pb)4
_symmetry_space_group_name_H-M   'P 1'
_cell_length_a   8.03852300
_cell_length_b   8.03852426
_cell_length_c   7.41727200
_cell_angle_alpha   90.00000000
_cell_angle_beta   90.00000000
_cell_angle_gamma   90.10406373
_symmetry_Int_Tables_number   1
_chemical_formula_structural   NdGd7(Pt2Pb)4
_chemical_formula_sum   'Nd1 Gd7 Pt8 Pb4'
_cell_volume   479.28746901
_cell_formula_units_Z   1
loop_
 _symmetry_equiv_pos_site_id
 _symmetry_equiv_pos_as_xyz
  1  'x, y, z'
loop_
 _atom_site_type_symbol
 _atom_site_label
 _atom_site_symmetry_multiplicity
 _atom_site_fract_x
 _atom_site_fract_y
 _atom_site_fract_z
 _atom_site_occupancy
  Nd  Nd0  1  0.165331  0.834669  0.000000  1
  Gd  Gd1  1  0.672995  0.672547  0.000000  1
  Gd  Gd2  1  0.335564  0.335360  0.500000  1
  Gd  Gd3  1  0.826403  0.173597  0.500000  1
  Gd  Gd4  1  0.664640  0.664436  0.500000  1
  Gd  Gd5  1  0.327453  0.327005  0.000000  1
  Gd  Gd6  1  0.172496  0.827504  0.500000  1
  Gd  Gd7  1  0.835395  0.164605  0.000000  1
  Pt  Pt8  1  0.870166  0.873359  0.737846  1
  Pt  Pt9  1  0.126641  0.129834  0.737846  1
  Pt  Pt10  1  0.627968  0.372032  0.759497  1
  Pt  Pt11  1  0.627968  0.372032  0.240503  1
  Pt  Pt12  1  0.374912  0.625088  0.244598  1
  Pt  Pt13  1  0.126641  0.129834  0.262154  1
  Pt  Pt14  1  0.870166  0.873359  0.262154  1
  Pt  Pt15  1  0.374912  0.625088  0.755402  1
  Pb  Pb16  1  0.500711  0.000537  0.749269  1
  Pb  Pb17  1  0.500711  0.000537  0.250731  1
  Pb  Pb18  1  0.999463  0.499289  0.749269  1
  Pb  Pb19  1  0.999463  0.499289  0.250731  1
