# generated using pymatgen
data_Tb4YFe3(P3Ru4)4
_symmetry_space_group_name_H-M   'P 1'
_cell_length_a   12.51266300
_cell_length_b   12.51266223
_cell_length_c   3.90027700
_cell_angle_alpha   90.00000000
_cell_angle_beta   90.00000000
_cell_angle_gamma   119.99999411
_symmetry_Int_Tables_number   1
_chemical_formula_structural   Tb4YFe3(P3Ru4)4
_chemical_formula_sum   'Tb4 Y1 Fe3 P12 Ru16'
_cell_volume   528.84156111
_cell_formula_units_Z   1
loop_
 _symmetry_equiv_pos_site_id
 _symmetry_equiv_pos_as_xyz
  1  'x, y, z'
loop_
 _atom_site_type_symbol
 _atom_site_label
 _atom_site_symmetry_multiplicity
 _atom_site_fract_x
 _atom_site_fract_y
 _atom_site_fract_z
 _atom_site_occupancy
  Tb  Tb0  1  0.000017  0.181857  0.500000  1
  Tb  Tb1  1  0.818143  0.818161  0.500000  1
  Tb  Tb2  1  0.181839  0.999983  0.500000  1
  Tb  Tb3  1  0.666667  0.333333  0.000000  1
  Y  Y4  1  0.333333  0.666667  0.000000  1
  Fe  Fe5  1  0.000058  0.716400  0.500000  1
  Fe  Fe6  1  0.283600  0.283658  0.500000  1
  Fe  Fe7  1  0.716342  0.999942  0.500000  1
  P  P8  1  0.000095  0.812918  0.000000  1
  P  P9  1  0.187082  0.187176  0.000000  1
  P  P10  1  0.812824  0.999905  0.000000  1
  P  P11  1  0.690150  0.162742  0.500000  1
  P  P12  1  0.837258  0.527408  0.500000  1
  P  P13  1  0.472592  0.309850  0.500000  1
  P  P14  1  0.162813  0.690174  0.500000  1
  P  P15  1  0.527361  0.837187  0.500000  1
  P  P16  1  0.309826  0.472639  0.500000  1
  P  P17  1  0.999998  0.373945  0.000000  1
  P  P18  1  0.626055  0.626052  0.000000  1
  P  P19  1  0.373948  0.000002  0.000000  1
  Ru  Ru20  1  0.999912  0.558210  0.000000  1
  Ru  Ru21  1  0.441790  0.441701  0.000000  1
  Ru  Ru22  1  0.558299  0.000088  0.000000  1
  Ru  Ru23  1  0.806649  0.181814  0.000000  1
  Ru  Ru24  1  0.818186  0.624836  0.000000  1
  Ru  Ru25  1  0.375164  0.193351  0.000000  1
  Ru  Ru26  1  0.181951  0.806573  0.000000  1
  Ru  Ru27  1  0.624623  0.818049  0.000000  1
  Ru  Ru28  1  0.193427  0.375377  0.000000  1
  Ru  Ru29  1  0.874069  0.363477  0.500000  1
  Ru  Ru30  1  0.636523  0.510592  0.500000  1
  Ru  Ru31  1  0.489408  0.125931  0.500000  1
  Ru  Ru32  1  0.363599  0.873910  0.500000  1
  Ru  Ru33  1  0.510311  0.636401  0.500000  1
  Ru  Ru34  1  0.126090  0.489689  0.500000  1
  Ru  Ru35  1  0.000000  0.000000  0.000000  1
