# generated using pymatgen
data_CeMnCo(Sb6Os)2
_symmetry_space_group_name_H-M   'P 1'
_cell_length_a   8.02683465
_cell_length_b   8.03793039
_cell_length_c   8.04109205
_cell_angle_alpha   109.32004428
_cell_angle_beta   109.26590130
_cell_angle_gamma   109.37839048
_symmetry_Int_Tables_number   1
_chemical_formula_structural   CeMnCo(Sb6Os)2
_chemical_formula_sum   'Ce1 Mn1 Co1 Sb12 Os2'
_cell_volume   401.57485104
_cell_formula_units_Z   1
loop_
 _symmetry_equiv_pos_site_id
 _symmetry_equiv_pos_as_xyz
  1  'x, y, z'
loop_
 _atom_site_type_symbol
 _atom_site_label
 _atom_site_symmetry_multiplicity
 _atom_site_fract_x
 _atom_site_fract_y
 _atom_site_fract_z
 _atom_site_occupancy
  Ce  Ce0  1  0.000000  0.000000  0.000000  1
  Mn  Mn1  1  0.000000  0.500000  0.000000  1
  Co  Co2  1  0.500000  0.500000  0.500000  1
  Sb  Sb3  1  0.339960  0.184006  0.842282  1
  Sb  Sb4  1  0.660040  0.815994  0.157718  1
  Sb  Sb5  1  0.665621  0.506143  0.838293  1
  Sb  Sb6  1  0.334379  0.493857  0.161707  1
  Sb  Sb7  1  0.176833  0.835209  0.331770  1
  Sb  Sb8  1  0.823167  0.164791  0.668230  1
  Sb  Sb9  1  0.505507  0.836819  0.658898  1
  Sb  Sb10  1  0.494493  0.163181  0.341102  1
  Sb  Sb11  1  0.844102  0.340345  0.176684  1
  Sb  Sb12  1  0.155898  0.659655  0.823316  1
  Sb  Sb13  1  0.836477  0.658069  0.505375  1
  Sb  Sb14  1  0.163523  0.341931  0.494625  1
  Os  Os15  1  0.000000  0.000000  0.500000  1
  Os  Os16  1  0.500000  0.000000  0.000000  1
