# generated using pymatgen
data_Rb8Er6BeBr20
_symmetry_space_group_name_H-M   'P 1'
_cell_length_a   12.24119129
_cell_length_b   12.24119123
_cell_length_c   12.24119200
_cell_angle_alpha   60.00000334
_cell_angle_beta   60.00000348
_cell_angle_gamma   60.00000061
_symmetry_Int_Tables_number   1
_chemical_formula_structural   Rb8Er6BeBr20
_chemical_formula_sum   'Rb8 Er6 Be1 Br20'
_cell_volume   1297.04816467
_cell_formula_units_Z   1
loop_
 _symmetry_equiv_pos_site_id
 _symmetry_equiv_pos_as_xyz
  1  'x, y, z'
loop_
 _atom_site_type_symbol
 _atom_site_label
 _atom_site_symmetry_multiplicity
 _atom_site_fract_x
 _atom_site_fract_y
 _atom_site_fract_z
 _atom_site_occupancy
  Rb  Rb0  1  0.358573  0.358573  0.358573  1
  Rb  Rb1  1  0.641427  0.641427  0.641427  1
  Rb  Rb2  1  0.358573  0.358573  0.924281  1
  Rb  Rb3  1  0.358573  0.924281  0.358573  1
  Rb  Rb4  1  0.641427  0.641427  0.075719  1
  Rb  Rb5  1  0.641427  0.075719  0.641427  1
  Rb  Rb6  1  0.924281  0.358573  0.358573  1
  Rb  Rb7  1  0.075719  0.641427  0.641427  1
  Er  Er8  1  0.845855  0.154145  0.154145  1
  Er  Er9  1  0.154145  0.845855  0.845855  1
  Er  Er10  1  0.154145  0.845855  0.154145  1
  Er  Er11  1  0.845855  0.154145  0.845855  1
  Er  Er12  1  0.154145  0.154145  0.845855  1
  Er  Er13  1  0.845855  0.845855  0.154145  1
  Be  Be14  1  0.000000  0.000000  0.000000  1
  Br  Br15  1  0.330154  0.000000  0.000000  1
  Br  Br16  1  0.669846  0.000000  0.000000  1
  Br  Br17  1  0.000000  0.330154  0.669846  1
  Br  Br18  1  0.000000  0.669846  0.330154  1
  Br  Br19  1  0.000000  0.330154  0.000000  1
  Br  Br20  1  0.669846  0.000000  0.330154  1
  Br  Br21  1  0.000000  0.669846  0.000000  1
  Br  Br22  1  0.330154  0.000000  0.669846  1
  Br  Br23  1  0.000000  0.000000  0.330154  1
  Br  Br24  1  0.000000  0.000000  0.669846  1
  Br  Br25  1  0.669846  0.330154  0.000000  1
  Br  Br26  1  0.330154  0.669846  0.000000  1
  Br  Br27  1  0.680523  0.319477  0.319477  1
  Br  Br28  1  0.319477  0.680523  0.680523  1
  Br  Br29  1  0.319477  0.680523  0.319477  1
  Br  Br30  1  0.680523  0.319477  0.680523  1
  Br  Br31  1  0.319477  0.319477  0.680523  1
  Br  Br32  1  0.680523  0.680523  0.319477  1
  Br  Br33  1  0.250000  0.250000  0.250000  1
  Br  Br34  1  0.750000  0.750000  0.750000  1
