# generated using pymatgen
data_Ca(Al3Pt)3
_symmetry_space_group_name_H-M   'P 1'
_cell_length_a   10.47803344
_cell_length_b   10.47803286
_cell_length_c   10.47803200
_cell_angle_alpha   41.93066977
_cell_angle_beta   41.93067332
_cell_angle_gamma   41.93067138
_symmetry_Int_Tables_number   1
_chemical_formula_structural   Ca(Al3Pt)3
_chemical_formula_sum   'Ca2 Al18 Pt6'
_cell_volume   464.59497366
_cell_formula_units_Z   2
loop_
 _symmetry_equiv_pos_site_id
 _symmetry_equiv_pos_as_xyz
  1  'x, y, z'
loop_
 _atom_site_type_symbol
 _atom_site_label
 _atom_site_symmetry_multiplicity
 _atom_site_fract_x
 _atom_site_fract_y
 _atom_site_fract_z
 _atom_site_occupancy
  Ca  Ca0  1  0.166776  0.166776  0.166776  1
  Ca  Ca1  1  0.833224  0.833224  0.833224  1
  Al  Al2  1  0.107317  0.435248  0.763757  1
  Al  Al3  1  0.435248  0.763757  0.107317  1
  Al  Al4  1  0.564752  0.892683  0.236243  1
  Al  Al5  1  0.949386  0.949386  0.949386  1
  Al  Al6  1  0.050614  0.050614  0.050614  1
  Al  Al7  1  0.296710  0.703290  0.500000  1
  Al  Al8  1  0.892683  0.236243  0.564752  1
  Al  Al9  1  0.384955  0.384955  0.384955  1
  Al  Al10  1  0.500000  0.296710  0.703290  1
  Al  Al11  1  0.236243  0.564752  0.892683  1
  Al  Al12  1  0.716958  0.716958  0.716958  1
  Al  Al13  1  0.615045  0.615045  0.615045  1
  Al  Al14  1  0.333585  0.000000  0.666415  1
  Al  Al15  1  0.703290  0.500000  0.296710  1
  Al  Al16  1  0.666415  0.333585  0.000000  1
  Al  Al17  1  0.283042  0.283042  0.283042  1
  Al  Al18  1  0.000000  0.666415  0.333585  1
  Al  Al19  1  0.763757  0.107317  0.435248  1
  Pt  Pt20  1  0.418220  0.077609  0.758608  1
  Pt  Pt21  1  0.581780  0.241392  0.922391  1
  Pt  Pt22  1  0.077609  0.758608  0.418220  1
  Pt  Pt23  1  0.758608  0.418220  0.077609  1
  Pt  Pt24  1  0.922391  0.581780  0.241392  1
  Pt  Pt25  1  0.241392  0.922391  0.581780  1
