# generated using pymatgen
data_Tm8AlPd5Pt19
_symmetry_space_group_name_H-M   'P 1'
_cell_length_a   8.33752000
_cell_length_b   8.33752000
_cell_length_c   8.33083500
_cell_angle_alpha   90.00000000
_cell_angle_beta   90.00000000
_cell_angle_gamma   90.00000000
_symmetry_Int_Tables_number   1
_chemical_formula_structural   Tm8AlPd5Pt19
_chemical_formula_sum   'Tm8 Al1 Pd5 Pt19'
_cell_volume   579.11166151
_cell_formula_units_Z   1
loop_
 _symmetry_equiv_pos_site_id
 _symmetry_equiv_pos_as_xyz
  1  'x, y, z'
loop_
 _atom_site_type_symbol
 _atom_site_label
 _atom_site_symmetry_multiplicity
 _atom_site_fract_x
 _atom_site_fract_y
 _atom_site_fract_z
 _atom_site_occupancy
  Tm  Tm0  1  0.251893  0.251893  0.747983  1
  Tm  Tm1  1  0.252572  0.747428  0.252222  1
  Tm  Tm2  1  0.747428  0.252572  0.252222  1
  Tm  Tm3  1  0.748107  0.748107  0.747983  1
  Tm  Tm4  1  0.747428  0.747428  0.252222  1
  Tm  Tm5  1  0.748107  0.251893  0.747983  1
  Tm  Tm6  1  0.251893  0.748107  0.747983  1
  Tm  Tm7  1  0.252572  0.252572  0.252222  1
  Al  Al8  1  0.000000  0.000000  0.998471  1
  Pd  Pd9  1  0.000000  0.289262  0.000752  1
  Pd  Pd10  1  0.289262  0.000000  0.000752  1
  Pd  Pd11  1  0.000000  0.000000  0.287305  1
  Pd  Pd12  1  0.000000  0.710738  0.000752  1
  Pd  Pd13  1  0.710738  0.000000  0.000752  1
  Pt  Pt14  1  0.500000  0.500000  0.747567  1
  Pt  Pt15  1  0.500000  0.252611  0.500086  1
  Pt  Pt16  1  0.252611  0.500000  0.500086  1
  Pt  Pt17  1  0.500000  0.500000  0.252283  1
  Pt  Pt18  1  0.500000  0.747389  0.500086  1
  Pt  Pt19  1  0.747389  0.500000  0.500086  1
  Pt  Pt20  1  0.000000  0.000000  0.709266  1
  Pt  Pt21  1  0.000000  0.500000  0.741501  1
  Pt  Pt22  1  0.500000  0.259061  0.999923  1
  Pt  Pt23  1  0.259612  0.000000  0.499903  1
  Pt  Pt24  1  0.000000  0.259612  0.499903  1
  Pt  Pt25  1  0.500000  0.000000  0.741501  1
  Pt  Pt26  1  0.259061  0.500000  0.999923  1
  Pt  Pt27  1  0.000000  0.500000  0.259316  1
  Pt  Pt28  1  0.500000  0.740939  0.999923  1
  Pt  Pt29  1  0.000000  0.740388  0.499903  1
  Pt  Pt30  1  0.500000  0.000000  0.259316  1
  Pt  Pt31  1  0.740388  0.000000  0.499903  1
  Pt  Pt32  1  0.740939  0.500000  0.999923  1
