# generated using pymatgen
data_Nd7PaTiPd24
_symmetry_space_group_name_H-M   'P 1'
_cell_length_a   8.50807537
_cell_length_b   8.50807537
_cell_length_c   8.50807537
_cell_angle_alpha   89.76610946
_cell_angle_beta   89.76610946
_cell_angle_gamma   89.76610946
_symmetry_Int_Tables_number   1
_chemical_formula_structural   Nd7PaTiPd24
_chemical_formula_sum   'Nd7 Pa1 Ti1 Pd24'
_cell_volume   615.86164776
_cell_formula_units_Z   1
loop_
 _symmetry_equiv_pos_site_id
 _symmetry_equiv_pos_as_xyz
  1  'x, y, z'
loop_
 _atom_site_type_symbol
 _atom_site_label
 _atom_site_symmetry_multiplicity
 _atom_site_fract_x
 _atom_site_fract_y
 _atom_site_fract_z
 _atom_site_occupancy
  Nd  Nd0  1  0.748237  0.748237  0.748237  1
  Nd  Nd1  1  0.748744  0.748744  0.251073  1
  Nd  Nd2  1  0.748744  0.251073  0.748744  1
  Nd  Nd3  1  0.250905  0.250905  0.750877  1
  Nd  Nd4  1  0.250905  0.750877  0.250905  1
  Nd  Nd5  1  0.251073  0.748744  0.748744  1
  Nd  Nd6  1  0.750877  0.250905  0.250905  1
  Pa  Pa7  1  0.250227  0.250227  0.250227  1
  Ti  Ti8  1  0.000402  0.000402  0.000402  1
  Pd  Pd9  1  0.262116  0.496567  0.007051  1
  Pd  Pd10  1  0.737939  0.499132  0.000279  1
  Pd  Pd11  1  0.007051  0.262116  0.496567  1
  Pd  Pd12  1  0.496567  0.262116  0.007051  1
  Pd  Pd13  1  0.000279  0.737939  0.499132  1
  Pd  Pd14  1  0.499132  0.737939  0.000279  1
  Pd  Pd15  1  0.496567  0.007051  0.262116  1
  Pd  Pd16  1  0.262116  0.007051  0.496567  1
  Pd  Pd17  1  0.499132  0.000279  0.737939  1
  Pd  Pd18  1  0.737939  0.000279  0.499132  1
  Pd  Pd19  1  0.007051  0.496567  0.262116  1
  Pd  Pd20  1  0.000279  0.499132  0.737939  1
  Pd  Pd21  1  0.253702  0.494875  0.494875  1
  Pd  Pd22  1  0.746927  0.499094  0.499094  1
  Pd  Pd23  1  0.494875  0.253702  0.494875  1
  Pd  Pd24  1  0.499094  0.746927  0.499094  1
  Pd  Pd25  1  0.494875  0.494875  0.253702  1
  Pd  Pd26  1  0.499094  0.499094  0.746927  1
  Pd  Pd27  1  0.297825  0.003802  0.003802  1
  Pd  Pd28  1  0.700790  0.999466  0.999466  1
  Pd  Pd29  1  0.003802  0.297825  0.003802  1
  Pd  Pd30  1  0.999466  0.700790  0.999466  1
  Pd  Pd31  1  0.003802  0.003802  0.297825  1
  Pd  Pd32  1  0.999466  0.999466  0.700790  1
