# generated using pymatgen
data_Dy15Pa(AlCo)4
_symmetry_space_group_name_H-M   'P 1'
_cell_length_a   9.37938593
_cell_length_b   9.43416369
_cell_length_c   9.37959704
_cell_angle_alpha   60.20112113
_cell_angle_beta   60.00212002
_cell_angle_gamma   60.20240845
_symmetry_Int_Tables_number   1
_chemical_formula_structural   Dy15Pa(AlCo)4
_chemical_formula_sum   'Dy15 Pa1 Al4 Co4'
_cell_volume   588.66978117
_cell_formula_units_Z   1
loop_
 _symmetry_equiv_pos_site_id
 _symmetry_equiv_pos_as_xyz
  1  'x, y, z'
loop_
 _atom_site_type_symbol
 _atom_site_label
 _atom_site_symmetry_multiplicity
 _atom_site_fract_x
 _atom_site_fract_y
 _atom_site_fract_z
 _atom_site_occupancy
  Dy  Dy0  1  0.690813  0.309788  0.690806  1
  Dy  Dy1  1  0.690857  0.309929  0.308515  1
  Dy  Dy2  1  0.939507  0.561456  0.559922  1
  Dy  Dy3  1  0.550250  0.148253  0.150770  1
  Dy  Dy4  1  0.150776  0.148261  0.550233  1
  Dy  Dy5  1  0.938020  0.933526  0.564544  1
  Dy  Dy6  1  0.307499  0.694530  0.307479  1
  Dy  Dy7  1  0.564551  0.933539  0.938010  1
  Dy  Dy8  1  0.563943  0.934095  0.563926  1
  Dy  Dy9  1  0.690014  0.694669  0.307852  1
  Dy  Dy10  1  0.559902  0.561443  0.939515  1
  Dy  Dy11  1  0.939826  0.561344  0.939802  1
  Dy  Dy12  1  0.307865  0.694672  0.690004  1
  Dy  Dy13  1  0.150142  0.147619  0.150132  1
  Dy  Dy14  1  0.308511  0.309930  0.690856  1
  Pa  Pa15  1  0.162373  0.512757  0.162459  1
  Al  Al16  1  0.923064  0.230241  0.923046  1
  Al  Al17  1  0.924272  0.920660  0.924259  1
  Al  Al18  1  0.924751  0.919407  0.231294  1
  Al  Al19  1  0.231301  0.919416  0.924739  1
  Co  Co20  1  0.342899  0.376986  0.937243  1
  Co  Co21  1  0.358730  0.923392  0.358724  1
  Co  Co22  1  0.937200  0.376938  0.342940  1
  Co  Co23  1  0.342933  0.377151  0.342932  1
