# generated using pymatgen
data_LiY19Si15Pt
_symmetry_space_group_name_H-M   'P 1'
_cell_length_a   7.37533400
_cell_length_b   7.72805595
_cell_length_c   14.63184000
_cell_angle_alpha   90.00000000
_cell_angle_beta   90.00000000
_cell_angle_gamma   90.14265285
_symmetry_Int_Tables_number   1
_chemical_formula_structural   LiY19Si15Pt
_chemical_formula_sum   'Li1 Y19 Si15 Pt1'
_cell_volume   833.96830923
_cell_formula_units_Z   1
loop_
 _symmetry_equiv_pos_site_id
 _symmetry_equiv_pos_as_xyz
  1  'x, y, z'
loop_
 _atom_site_type_symbol
 _atom_site_label
 _atom_site_symmetry_multiplicity
 _atom_site_fract_x
 _atom_site_fract_y
 _atom_site_fract_z
 _atom_site_occupancy
  Li  Li0  1  0.152346  0.479952  0.250000  1
  Y  Y1  1  0.679872  0.178671  0.621844  1
  Y  Y2  1  0.187260  0.321695  0.876956  1
  Y  Y3  1  0.314104  0.813869  0.126590  1
  Y  Y4  1  0.826286  0.674041  0.372936  1
  Y  Y5  1  0.314104  0.813869  0.373410  1
  Y  Y6  1  0.826286  0.674041  0.127064  1
  Y  Y7  1  0.679872  0.178671  0.878156  1
  Y  Y8  1  0.187260  0.321695  0.623044  1
  Y  Y9  1  0.523558  0.680201  0.592633  1
  Y  Y10  1  0.026914  0.816937  0.905587  1
  Y  Y11  1  0.467104  0.318873  0.099835  1
  Y  Y12  1  0.974842  0.191748  0.398555  1
  Y  Y13  1  0.467104  0.318873  0.400165  1
  Y  Y14  1  0.974842  0.191748  0.101445  1
  Y  Y15  1  0.523558  0.680201  0.907367  1
  Y  Y16  1  0.026914  0.816937  0.594413  1
  Y  Y17  1  0.843487  0.510801  0.750000  1
  Y  Y18  1  0.356129  0.984536  0.750000  1
  Y  Y19  1  0.643438  0.010978  0.250000  1
  Si  Si20  1  0.647798  0.970714  0.457366  1
  Si  Si21  1  0.149612  0.530453  0.036951  1
  Si  Si22  1  0.352844  0.024899  0.963246  1
  Si  Si23  1  0.853994  0.472735  0.538687  1
  Si  Si24  1  0.352844  0.024899  0.536754  1
  Si  Si25  1  0.853994  0.472735  0.961313  1
  Si  Si26  1  0.647798  0.970714  0.042634  1
  Si  Si27  1  0.149612  0.530453  0.463049  1
  Si  Si28  1  0.980132  0.101161  0.750000  1
  Si  Si29  1  0.520831  0.596167  0.250000  1
  Si  Si30  1  0.017273  0.913905  0.250000  1
  Si  Si31  1  0.741408  0.877040  0.750000  1
  Si  Si32  1  0.229636  0.631476  0.750000  1
  Si  Si33  1  0.265238  0.128425  0.250000  1
  Si  Si34  1  0.760306  0.370307  0.250000  1
  Pt  Pt35  1  0.481400  0.405582  0.750000  1
