# generated using pymatgen
data_Pr4Y(InSb)2
_symmetry_space_group_name_H-M   'P 1'
_cell_length_a   9.03064300
_cell_length_b   9.03064288
_cell_length_c   8.33633500
_cell_angle_alpha   90.00000000
_cell_angle_beta   90.00000000
_cell_angle_gamma   124.91426577
_symmetry_Int_Tables_number   1
_chemical_formula_structural   Pr4Y(InSb)2
_chemical_formula_sum   'Pr8 Y2 In4 Sb4'
_cell_volume   557.48261553
_cell_formula_units_Z   2
loop_
 _symmetry_equiv_pos_site_id
 _symmetry_equiv_pos_as_xyz
  1  'x, y, z'
loop_
 _atom_site_type_symbol
 _atom_site_label
 _atom_site_symmetry_multiplicity
 _atom_site_fract_x
 _atom_site_fract_y
 _atom_site_fract_z
 _atom_site_occupancy
  Pr  Pr0  1  0.032354  0.311645  0.332980  1
  Pr  Pr1  1  0.967646  0.688355  0.667020  1
  Pr  Pr2  1  0.467646  0.188355  0.832980  1
  Pr  Pr3  1  0.811645  0.532354  0.167020  1
  Pr  Pr4  1  0.532354  0.811645  0.167020  1
  Pr  Pr5  1  0.188355  0.467646  0.832980  1
  Pr  Pr6  1  0.688355  0.967646  0.667020  1
  Pr  Pr7  1  0.311645  0.032354  0.332980  1
  Y  Y8  1  0.000000  0.000000  0.000000  1
  Y  Y9  1  0.500000  0.500000  0.500000  1
  In  In10  1  0.372752  0.372752  0.126775  1
  In  In11  1  0.627248  0.627248  0.873225  1
  In  In12  1  0.127248  0.127248  0.626775  1
  In  In13  1  0.872752  0.872752  0.373225  1
  Sb  Sb14  1  0.800375  0.199625  0.000000  1
  Sb  Sb15  1  0.199625  0.800375  0.000000  1
  Sb  Sb16  1  0.699625  0.300375  0.500000  1
  Sb  Sb17  1  0.300375  0.699625  0.500000  1
