# generated using pymatgen
data_NaDy(PS3)2
_symmetry_space_group_name_H-M   'P 1'
_cell_length_a   7.00051242
_cell_length_b   7.18473001
_cell_length_c   9.17839000
_cell_angle_alpha   86.55485692
_cell_angle_beta   87.95709759
_cell_angle_gamma   87.71843806
_symmetry_Int_Tables_number   1
_chemical_formula_structural   NaDy(PS3)2
_chemical_formula_sum   'Na2 Dy2 P4 S12'
_cell_volume   460.18797161
_cell_formula_units_Z   2
loop_
 _symmetry_equiv_pos_site_id
 _symmetry_equiv_pos_as_xyz
  1  'x, y, z'
loop_
 _atom_site_type_symbol
 _atom_site_label
 _atom_site_symmetry_multiplicity
 _atom_site_fract_x
 _atom_site_fract_y
 _atom_site_fract_z
 _atom_site_occupancy
  Na  Na0  1  0.471708  0.397174  0.279205  1
  Na  Na1  1  0.528292  0.602826  0.720795  1
  Dy  Dy2  1  0.978538  0.117420  0.747712  1
  Dy  Dy3  1  0.021462  0.882580  0.252288  1
  P  P4  1  0.350911  0.961670  0.972684  1
  P  P5  1  0.649089  0.038330  0.027316  1
  P  P6  1  0.934631  0.393073  0.435192  1
  P  P7  1  0.065369  0.606927  0.564808  1
  S  S8  1  0.128141  0.476885  0.759265  1
  S  S9  1  0.834041  0.836300  0.951094  1
  S  S10  1  0.291123  0.700929  0.439496  1
  S  S11  1  0.871859  0.523115  0.240735  1
  S  S12  1  0.858637  0.817975  0.561864  1
  S  S13  1  0.708877  0.299071  0.560504  1
  S  S14  1  0.141363  0.182025  0.438136  1
  S  S15  1  0.349567  0.966709  0.751045  1
  S  S16  1  0.300117  0.711668  0.075059  1
  S  S17  1  0.699883  0.288332  0.924941  1
  S  S18  1  0.650433  0.033291  0.248955  1
  S  S19  1  0.165959  0.163700  0.048906  1
