# generated using pymatgen
data_Gd2Er3AgGe3
_symmetry_space_group_name_H-M   'P 1'
_cell_length_a   12.14245496
_cell_length_b   12.58003573
_cell_length_c   7.83795700
_cell_angle_alpha   90.00000000
_cell_angle_beta   90.00000000
_cell_angle_gamma   114.70937272
_symmetry_Int_Tables_number   1
_chemical_formula_structural   Gd2Er3AgGe3
_chemical_formula_sum   'Gd2 Er3 Ag1 Ge3'
_cell_volume   1087.64560530
_cell_formula_units_Z   1
loop_
 _symmetry_equiv_pos_site_id
 _symmetry_equiv_pos_as_xyz
  1  'x, y, z'
loop_
 _atom_site_type_symbol
 _atom_site_label
 _atom_site_symmetry_multiplicity
 _atom_site_fract_x
 _atom_site_fract_y
 _atom_site_fract_z
 _atom_site_occupancy
  Gd  Gd0  1  0.746967  0.750184  0.500000  1
  Gd  Gd1  1  0.247979  0.000670  0.500000  1
  Er  Er2  1  0.590822  0.001541  0.000000  1
  Er  Er3  1  0.417649  0.420702  0.000000  1
  Er  Er4  1  0.997406  0.576885  0.000000  1
  Ag  Ag5  1  0.999902  0.251683  0.500000  1
  Ge  Ge6  1  0.995412  0.002682  0.000000  1
  Ge  Ge7  1  0.671172  0.334958  0.500000  1
  Ge  Ge8  1  0.332689  0.660696  0.500000  1
