# generated using pymatgen
data_Dy5Fe3(P3Ru4)4
_symmetry_space_group_name_H-M   'P 1'
_cell_length_a   12.50204800
_cell_length_b   12.50204922
_cell_length_c   3.89548400
_cell_angle_alpha   90.00000000
_cell_angle_beta   90.00000000
_cell_angle_gamma   120.00000206
_symmetry_Int_Tables_number   1
_chemical_formula_structural   Dy5Fe3(P3Ru4)4
_chemical_formula_sum   'Dy5 Fe3 P12 Ru16'
_cell_volume   527.29592367
_cell_formula_units_Z   1
loop_
 _symmetry_equiv_pos_site_id
 _symmetry_equiv_pos_as_xyz
  1  'x, y, z'
loop_
 _atom_site_type_symbol
 _atom_site_label
 _atom_site_symmetry_multiplicity
 _atom_site_fract_x
 _atom_site_fract_y
 _atom_site_fract_z
 _atom_site_occupancy
  Dy  Dy0  1  0.181569  0.181569  0.500000  1
  Dy  Dy1  1  0.818431  0.000000  0.500000  1
  Dy  Dy2  1  0.000000  0.818431  0.500000  1
  Dy  Dy3  1  0.333333  0.666667  0.000000  1
  Dy  Dy4  1  0.666667  0.333333  0.000000  1
  Fe  Fe5  1  0.715822  0.715822  0.500000  1
  Fe  Fe6  1  0.284178  0.000000  0.500000  1
  Fe  Fe7  1  0.000000  0.284178  0.500000  1
  P  P8  1  0.813060  0.813060  0.000000  1
  P  P9  1  0.186940  0.000000  0.000000  1
  P  P10  1  0.000000  0.186940  0.000000  1
  P  P11  1  0.162369  0.473380  0.500000  1
  P  P12  1  0.526620  0.688988  0.500000  1
  P  P13  1  0.311012  0.837631  0.500000  1
  P  P14  1  0.688988  0.526620  0.500000  1
  P  P15  1  0.837631  0.311012  0.500000  1
  P  P16  1  0.473380  0.162369  0.500000  1
  P  P17  1  0.372286  0.372286  0.000000  1
  P  P18  1  0.627714  0.000000  0.000000  1
  P  P19  1  0.000000  0.627714  0.000000  1
  Ru  Ru20  1  0.556946  0.556946  0.000000  1
  Ru  Ru21  1  0.443054  0.000000  0.000000  1
  Ru  Ru22  1  0.000000  0.443054  0.000000  1
  Ru  Ru23  1  0.181244  0.375288  0.000000  1
  Ru  Ru24  1  0.624712  0.805956  0.000000  1
  Ru  Ru25  1  0.194044  0.818756  0.000000  1
  Ru  Ru26  1  0.805956  0.624712  0.000000  1
  Ru  Ru27  1  0.818756  0.194044  0.000000  1
  Ru  Ru28  1  0.375288  0.181244  0.000000  1
  Ru  Ru29  1  0.362461  0.488802  0.500000  1
  Ru  Ru30  1  0.511198  0.873659  0.500000  1
  Ru  Ru31  1  0.126341  0.637539  0.500000  1
  Ru  Ru32  1  0.873659  0.511198  0.500000  1
  Ru  Ru33  1  0.637539  0.126341  0.500000  1
  Ru  Ru34  1  0.488802  0.362461  0.500000  1
  Ru  Ru35  1  0.000000  0.000000  0.000000  1
