# generated using pymatgen
data_Al3Fe4Si
_symmetry_space_group_name_H-M   'P 1'
_cell_length_a   6.94814945
_cell_length_b   6.94815010
_cell_length_c   6.94814966
_cell_angle_alpha   33.62499379
_cell_angle_beta   33.62498612
_cell_angle_gamma   33.62499508
_symmetry_Int_Tables_number   1
_chemical_formula_structural   Al3Fe4Si
_chemical_formula_sum   'Al3 Fe4 Si1'
_cell_volume   91.62918801
_cell_formula_units_Z   1
loop_
 _symmetry_equiv_pos_site_id
 _symmetry_equiv_pos_as_xyz
  1  'x, y, z'
loop_
 _atom_site_type_symbol
 _atom_site_label
 _atom_site_symmetry_multiplicity
 _atom_site_fract_x
 _atom_site_fract_y
 _atom_site_fract_z
 _atom_site_occupancy
  Al  Al0  1  0.000000  0.000000  0.000000  1
  Al  Al1  1  0.253281  0.253281  0.253281  1
  Al  Al2  1  0.746719  0.746719  0.746719  1
  Fe  Fe3  1  0.871139  0.871139  0.871139  1
  Fe  Fe4  1  0.379017  0.379017  0.379017  1
  Fe  Fe5  1  0.128861  0.128861  0.128861  1
  Fe  Fe6  1  0.620983  0.620983  0.620983  1
  Si  Si7  1  0.500000  0.500000  0.500000  1
