# generated using pymatgen
data_HfZr8In14Co6Mo
_symmetry_space_group_name_H-M   'P 1'
_cell_length_a   9.48439254
_cell_length_b   9.49667992
_cell_length_c   9.48373862
_cell_angle_alpha   60.19585265
_cell_angle_beta   60.16659028
_cell_angle_gamma   60.18545965
_symmetry_Int_Tables_number   1
_chemical_formula_structural   HfZr8In14Co6Mo
_chemical_formula_sum   'Hf1 Zr8 In14 Co6 Mo1'
_cell_volume   606.51056462
_cell_formula_units_Z   1
loop_
 _symmetry_equiv_pos_site_id
 _symmetry_equiv_pos_as_xyz
  1  'x, y, z'
loop_
 _atom_site_type_symbol
 _atom_site_label
 _atom_site_symmetry_multiplicity
 _atom_site_fract_x
 _atom_site_fract_y
 _atom_site_fract_z
 _atom_site_occupancy
  Hf  Hf0  1  0.120326  0.641063  0.120254  1
  Zr  Zr1  1  0.364027  0.877093  0.878580  1
  Zr  Zr2  1  0.878534  0.877283  0.878477  1
  Zr  Zr3  1  0.635790  0.121873  0.122062  1
  Zr  Zr4  1  0.500033  0.499948  0.500036  1
  Zr  Zr5  1  0.878579  0.877145  0.364054  1
  Zr  Zr6  1  0.121976  0.121663  0.122013  1
  Zr  Zr7  1  0.877716  0.364603  0.877760  1
  Zr  Zr8  1  0.122057  0.121813  0.635812  1
  In  In9  1  0.500130  0.841216  0.158425  1
  In  In10  1  0.500326  0.839904  0.500242  1
  In  In11  1  0.499747  0.159691  0.499808  1
  In  In12  1  0.500140  0.499806  0.840320  1
  In  In13  1  0.159884  0.499703  0.499662  1
  In  In14  1  0.841795  0.158475  0.500061  1
  In  In15  1  0.158412  0.841234  0.500097  1
  In  In16  1  0.500059  0.158445  0.841801  1
  In  In17  1  0.158573  0.499691  0.841868  1
  In  In18  1  0.499615  0.499742  0.159876  1
  In  In19  1  0.840268  0.499839  0.500154  1
  In  In20  1  0.841860  0.499789  0.158560  1
  In  In21  1  0.248960  0.252782  0.248974  1
  In  In22  1  0.750143  0.750092  0.750168  1
  Co  Co23  1  0.777186  0.774755  0.223992  1
  Co  Co24  1  0.224361  0.774372  0.224357  1
  Co  Co25  1  0.224106  0.774637  0.777085  1
  Co  Co26  1  0.224077  0.224276  0.775864  1
  Co  Co27  1  0.775670  0.224427  0.775672  1
  Co  Co28  1  0.775792  0.224351  0.224148  1
  Mo  Mo29  1  0.999857  0.000289  0.999817  1
