# generated using pymatgen
data_Zr4Sc2Ta4Al12FeCo6
_symmetry_space_group_name_H-M   'P 1'
_cell_length_a   8.62971799
_cell_length_b   8.62971780
_cell_length_c   8.62971800
_cell_angle_alpha   59.99999924
_cell_angle_beta   59.99999995
_cell_angle_gamma   59.99999926
_symmetry_Int_Tables_number   1
_chemical_formula_structural   Zr4Sc2Ta4Al12FeCo6
_chemical_formula_sum   'Zr4 Sc2 Ta4 Al12 Fe1 Co6'
_cell_volume   454.43816645
_cell_formula_units_Z   1
loop_
 _symmetry_equiv_pos_site_id
 _symmetry_equiv_pos_as_xyz
  1  'x, y, z'
loop_
 _atom_site_type_symbol
 _atom_site_label
 _atom_site_symmetry_multiplicity
 _atom_site_fract_x
 _atom_site_fract_y
 _atom_site_fract_z
 _atom_site_occupancy
  Zr  Zr0  1  0.692096  0.693531  0.307187  1
  Zr  Zr1  1  0.304987  0.693644  0.693245  1
  Zr  Zr2  1  0.304987  0.693644  0.308123  1
  Zr  Zr3  1  0.304474  0.310454  0.692536  1
  Sc  Sc4  1  0.693512  0.307731  0.304843  1
  Sc  Sc5  1  0.693512  0.307731  0.693915  1
  Ta  Ta6  1  0.645238  0.116273  0.119245  1
  Ta  Ta7  1  0.119004  0.643204  0.118896  1
  Ta  Ta8  1  0.120017  0.118361  0.644213  1
  Ta  Ta9  1  0.120017  0.118361  0.117411  1
  Al  Al10  1  0.361908  0.878889  0.879602  1
  Al  Al11  1  0.879414  0.360220  0.880183  1
  Al  Al12  1  0.880348  0.879247  0.361041  1
  Al  Al13  1  0.880348  0.879247  0.879366  1
  Al  Al14  1  0.990596  0.335098  0.337153  1
  Al  Al15  1  0.335442  0.993269  0.335645  1
  Al  Al16  1  0.337685  0.335891  0.991070  1
  Al  Al17  1  0.337685  0.335891  0.335354  1
  Al  Al18  1  0.000535  0.666717  0.666373  1
  Al  Al19  1  0.666616  0.002289  0.665547  1
  Al  Al20  1  0.665581  0.665221  0.002905  1
  Al  Al21  1  0.665581  0.665221  0.666293  1
  Fe  Fe22  1  0.000807  0.998962  0.000115  1
  Co  Co23  1  0.495937  0.005141  0.003209  1
  Co  Co24  1  0.495937  0.005141  0.495713  1
  Co  Co25  1  0.495581  0.495849  0.004285  1
  Co  Co26  1  0.003932  0.495473  0.496419  1
  Co  Co27  1  0.003932  0.495473  0.004176  1
  Co  Co28  1  0.004294  0.003830  0.495938  1
