# generated using pymatgen
data_ErHf(GaPt)2
_symmetry_space_group_name_H-M   'P 1'
_cell_length_a   7.28071200
_cell_length_b   7.28071116
_cell_length_c   7.25879000
_cell_angle_alpha   90.00000000
_cell_angle_beta   90.00000000
_cell_angle_gamma   120.00001291
_symmetry_Int_Tables_number   1
_chemical_formula_structural   ErHf(GaPt)2
_chemical_formula_sum   'Er3 Hf3 Ga6 Pt6'
_cell_volume   333.22874815
_cell_formula_units_Z   3
loop_
 _symmetry_equiv_pos_site_id
 _symmetry_equiv_pos_as_xyz
  1  'x, y, z'
loop_
 _atom_site_type_symbol
 _atom_site_label
 _atom_site_symmetry_multiplicity
 _atom_site_fract_x
 _atom_site_fract_y
 _atom_site_fract_z
 _atom_site_occupancy
  Er  Er0  1  0.408103  0.404072  0.250000  1
  Er  Er1  1  0.995969  0.591897  0.250000  1
  Er  Er2  1  0.595928  0.004031  0.250000  1
  Hf  Hf3  1  0.606546  0.995650  0.750000  1
  Hf  Hf4  1  0.389104  0.393454  0.750000  1
  Hf  Hf5  1  0.004350  0.610896  0.750000  1
  Ga  Ga6  1  0.265726  0.001441  0.993090  1
  Ga  Ga7  1  0.265726  0.001441  0.506910  1
  Ga  Ga8  1  0.998559  0.264285  0.506910  1
  Ga  Ga9  1  0.998559  0.264285  0.993090  1
  Ga  Ga10  1  0.735715  0.734274  0.993090  1
  Ga  Ga11  1  0.735715  0.734274  0.506910  1
  Pt  Pt12  1  0.666667  0.333333  0.531739  1
  Pt  Pt13  1  0.000000  0.000000  0.750000  1
  Pt  Pt14  1  0.666667  0.333333  0.968261  1
  Pt  Pt15  1  0.333333  0.666667  0.979797  1
  Pt  Pt16  1  0.333333  0.666667  0.520203  1
  Pt  Pt17  1  0.000000  0.000000  0.250000  1
