# generated using pymatgen
data_Y2PaCoIr
_symmetry_space_group_name_H-M   'P 1'
_cell_length_a   3.73959255
_cell_length_b   6.24440130
_cell_length_c   6.04552005
_cell_angle_alpha   121.09430911
_cell_angle_beta   108.01622418
_cell_angle_gamma   89.99999690
_symmetry_Int_Tables_number   1
_chemical_formula_structural   Y2PaCoIr
_chemical_formula_sum   'Y2 Pa1 Co1 Ir1'
_cell_volume   112.72774174
_cell_formula_units_Z   1
loop_
 _symmetry_equiv_pos_site_id
 _symmetry_equiv_pos_as_xyz
  1  'x, y, z'
loop_
 _atom_site_type_symbol
 _atom_site_label
 _atom_site_symmetry_multiplicity
 _atom_site_fract_x
 _atom_site_fract_y
 _atom_site_fract_z
 _atom_site_occupancy
  Y  Y0  1  0.804058  0.307119  0.608117  1
  Y  Y1  1  0.195942  0.699003  0.391883  1
  Pa  Pa2  1  0.000000  0.983244  0.000000  1
  Co  Co3  1  0.500000  0.718091  0.000000  1
  Ir  Ir4  1  0.500000  0.292544  0.000000  1
