# generated using pymatgen
data_Yb3Tm(Ni5Sn)4
_symmetry_space_group_name_H-M   'P 1'
_cell_length_a   4.81518400
_cell_length_b   7.97282938
_cell_length_c   10.20947741
_cell_angle_alpha   90.03384535
_cell_angle_beta   90.00000000
_cell_angle_gamma   90.00000000
_symmetry_Int_Tables_number   1
_chemical_formula_structural   Yb3Tm(Ni5Sn)4
_chemical_formula_sum   'Yb3 Tm1 Ni20 Sn4'
_cell_volume   391.94830803
_cell_formula_units_Z   1
loop_
 _symmetry_equiv_pos_site_id
 _symmetry_equiv_pos_as_xyz
  1  'x, y, z'
loop_
 _atom_site_type_symbol
 _atom_site_label
 _atom_site_symmetry_multiplicity
 _atom_site_fract_x
 _atom_site_fract_y
 _atom_site_fract_z
 _atom_site_occupancy
  Yb  Yb0  1  0.750000  0.246404  0.559573  1
  Yb  Yb1  1  0.250000  0.253916  0.059023  1
  Yb  Yb2  1  0.750000  0.746207  0.940938  1
  Tm  Tm3  1  0.250000  0.752821  0.439397  1
  Ni  Ni4  1  0.750000  0.913125  0.483386  1
  Ni  Ni5  1  0.250000  0.586225  0.983430  1
  Ni  Ni6  1  0.750000  0.413258  0.016883  1
  Ni  Ni7  1  0.250000  0.087369  0.517572  1
  Ni  Ni8  1  0.250000  0.189681  0.743087  1
  Ni  Ni9  1  0.750000  0.311041  0.242750  1
  Ni  Ni10  1  0.250000  0.689015  0.757224  1
  Ni  Ni11  1  0.750000  0.810730  0.256966  1
  Ni  Ni12  1  0.750000  0.548745  0.400559  1
  Ni  Ni13  1  0.250000  0.952855  0.899180  1
  Ni  Ni14  1  0.750000  0.047732  0.100326  1
  Ni  Ni15  1  0.250000  0.453494  0.599278  1
  Ni  Ni16  1  0.498187  0.065042  0.309907  1
  Ni  Ni17  1  0.501617  0.434479  0.810042  1
  Ni  Ni18  1  0.001842  0.565491  0.190570  1
  Ni  Ni19  1  0.998542  0.934473  0.690051  1
  Ni  Ni20  1  0.501458  0.934473  0.690051  1
  Ni  Ni21  1  0.498158  0.565491  0.190570  1
  Ni  Ni22  1  0.998383  0.434479  0.810042  1
  Ni  Ni23  1  0.001813  0.065042  0.309907  1
  Sn  Sn24  1  0.750000  0.638254  0.639902  1
  Sn  Sn25  1  0.250000  0.862128  0.136867  1
  Sn  Sn26  1  0.750000  0.138603  0.861412  1
  Sn  Sn27  1  0.250000  0.359428  0.361106  1
