# generated using pymatgen
data_LiYLu8Cd3Ni
_symmetry_space_group_name_H-M   'P 1'
_cell_length_a   9.26760773
_cell_length_b   9.26760791
_cell_length_c   9.39057492
_cell_angle_alpha   89.95623295
_cell_angle_beta   90.04376622
_cell_angle_gamma   120.01312065
_symmetry_Int_Tables_number   1
_chemical_formula_structural   LiYLu8Cd3Ni
_chemical_formula_sum   'Li2 Y2 Lu16 Cd6 Ni2'
_cell_volume   698.39400877
_cell_formula_units_Z   2
loop_
 _symmetry_equiv_pos_site_id
 _symmetry_equiv_pos_as_xyz
  1  'x, y, z'
loop_
 _atom_site_type_symbol
 _atom_site_label
 _atom_site_symmetry_multiplicity
 _atom_site_fract_x
 _atom_site_fract_y
 _atom_site_fract_z
 _atom_site_occupancy
  Li  Li0  1  0.000019  0.999981  0.500041  1
  Li  Li1  1  0.000246  0.999754  0.999672  1
  Y  Y2  1  0.206904  0.415026  0.060110  1
  Y  Y3  1  0.584974  0.793096  0.060110  1
  Lu  Lu4  1  0.544212  0.455788  0.251129  1
  Lu  Lu5  1  0.543179  0.087122  0.250716  1
  Lu  Lu6  1  0.912878  0.456821  0.250716  1
  Lu  Lu7  1  0.457195  0.542805  0.748068  1
  Lu  Lu8  1  0.456169  0.913502  0.748898  1
  Lu  Lu9  1  0.086498  0.543831  0.748898  1
  Lu  Lu10  1  0.208936  0.791064  0.439661  1
  Lu  Lu11  1  0.208993  0.417986  0.440623  1
  Lu  Lu12  1  0.582014  0.791007  0.440623  1
  Lu  Lu13  1  0.791013  0.208987  0.560420  1
  Lu  Lu14  1  0.791249  0.582125  0.560451  1
  Lu  Lu15  1  0.417875  0.208751  0.560451  1
  Lu  Lu16  1  0.790358  0.209642  0.938611  1
  Lu  Lu17  1  0.791349  0.581028  0.939260  1
  Lu  Lu18  1  0.418972  0.208651  0.939260  1
  Lu  Lu19  1  0.207977  0.792023  0.060514  1
  Cd  Cd20  1  0.891695  0.108305  0.250735  1
  Cd  Cd21  1  0.892227  0.783521  0.250470  1
  Cd  Cd22  1  0.216479  0.107773  0.250470  1
  Cd  Cd23  1  0.108130  0.891870  0.749793  1
  Cd  Cd24  1  0.107995  0.216111  0.748997  1
  Cd  Cd25  1  0.783889  0.892005  0.748997  1
  Ni  Ni26  1  0.331998  0.668002  0.252555  1
  Ni  Ni27  1  0.666579  0.333421  0.749751  1
