# generated using pymatgen
data_DyEr3Al18(Os2Rh)2
_symmetry_space_group_name_H-M   'P 1'
_cell_length_a   7.54393602
_cell_length_b   7.54382316
_cell_length_c   9.57908400
_cell_angle_alpha   90.00000000
_cell_angle_beta   90.00000000
_cell_angle_gamma   119.79697580
_symmetry_Int_Tables_number   1
_chemical_formula_structural   DyEr3Al18(Os2Rh)2
_chemical_formula_sum   'Dy1 Er3 Al18 Os4 Rh2'
_cell_volume   473.07387028
_cell_formula_units_Z   1
loop_
 _symmetry_equiv_pos_site_id
 _symmetry_equiv_pos_as_xyz
  1  'x, y, z'
loop_
 _atom_site_type_symbol
 _atom_site_label
 _atom_site_symmetry_multiplicity
 _atom_site_fract_x
 _atom_site_fract_y
 _atom_site_fract_z
 _atom_site_occupancy
  Dy  Dy0  1  0.333150  0.003163  0.250000  1
  Er  Er1  1  0.996966  0.666794  0.750000  1
  Er  Er2  1  0.003023  0.333311  0.250000  1
  Er  Er3  1  0.666736  0.996908  0.750000  1
  Al  Al4  1  0.126154  0.126178  0.750000  1
  Al  Al5  1  0.873310  0.873598  0.250000  1
  Al  Al6  1  0.002888  0.335310  0.571671  1
  Al  Al7  1  0.996865  0.664377  0.428529  1
  Al  Al8  1  0.996865  0.664377  0.071471  1
  Al  Al9  1  0.335343  0.002925  0.928083  1
  Al  Al10  1  0.002888  0.335310  0.928329  1
  Al  Al11  1  0.664951  0.997116  0.071438  1
  Al  Al12  1  0.664951  0.997116  0.428562  1
  Al  Al13  1  0.335343  0.002925  0.571917  1
  Al  Al14  1  0.336822  0.337026  0.051376  1
  Al  Al15  1  0.663167  0.663173  0.948448  1
  Al  Al16  1  0.663167  0.663173  0.551552  1
  Al  Al17  1  0.336822  0.337026  0.448624  1
  Al  Al18  1  0.336497  0.547559  0.750000  1
  Al  Al19  1  0.663827  0.452988  0.250000  1
  Al  Al20  1  0.547595  0.336508  0.750000  1
  Al  Al21  1  0.452620  0.663202  0.250000  1
  Os  Os22  1  0.673401  0.327045  0.500201  1
  Os  Os23  1  0.326828  0.672960  0.500224  1
  Os  Os24  1  0.326828  0.672960  0.999776  1
  Os  Os25  1  0.673401  0.327045  0.999799  1
  Rh  Rh26  1  0.999797  0.999964  0.500139  1
  Rh  Rh27  1  0.999797  0.999964  0.999861  1
