# generated using pymatgen
data_Tm5LuAl24Ru5Pt3
_symmetry_space_group_name_H-M   'P 1'
_cell_length_a   8.77741736
_cell_length_b   8.85000780
_cell_length_c   9.48875602
_cell_angle_alpha   89.81509779
_cell_angle_beta   90.25429880
_cell_angle_gamma   120.03915316
_symmetry_Int_Tables_number   1
_chemical_formula_structural   Tm5LuAl24Ru5Pt3
_chemical_formula_sum   'Tm5 Lu1 Al24 Ru5 Pt3'
_cell_volume   638.07872640
_cell_formula_units_Z   1
loop_
 _symmetry_equiv_pos_site_id
 _symmetry_equiv_pos_as_xyz
  1  'x, y, z'
loop_
 _atom_site_type_symbol
 _atom_site_label
 _atom_site_symmetry_multiplicity
 _atom_site_fract_x
 _atom_site_fract_y
 _atom_site_fract_z
 _atom_site_occupancy
  Tm  Tm0  1  0.198219  0.810729  0.251482  1
  Tm  Tm1  1  0.388511  0.192388  0.749335  1
  Tm  Tm2  1  0.611818  0.807494  0.250630  1
  Tm  Tm3  1  0.805400  0.614594  0.749590  1
  Tm  Tm4  1  0.194693  0.385261  0.250404  1
  Lu  Lu5  1  0.800443  0.189571  0.748479  1
  Al  Al6  1  0.663961  0.327525  0.970650  1
  Al  Al7  1  0.336363  0.672287  0.028908  1
  Al  Al8  1  0.339401  0.669586  0.472374  1
  Al  Al9  1  0.660907  0.330243  0.528020  1
  Al  Al10  1  0.833532  0.158636  0.422123  1
  Al  Al11  1  0.166502  0.841313  0.578340  1
  Al  Al12  1  0.326829  0.164063  0.421403  1
  Al  Al13  1  0.166321  0.841921  0.920787  1
  Al  Al14  1  0.673358  0.836220  0.578823  1
  Al  Al15  1  0.833734  0.158060  0.078809  1
  Al  Al16  1  0.833674  0.676158  0.421547  1
  Al  Al17  1  0.674498  0.841924  0.920324  1
  Al  Al18  1  0.166032  0.323664  0.578730  1
  Al  Al19  1  0.325724  0.158415  0.079424  1
  Al  Al20  1  0.160009  0.322004  0.919449  1
  Al  Al21  1  0.839626  0.677781  0.080245  1
  Al  Al22  1  0.437397  0.561933  0.746763  1
  Al  Al23  1  0.562583  0.438054  0.253278  1
  Al  Al24  1  0.125990  0.562866  0.750514  1
  Al  Al25  1  0.873625  0.436599  0.249471  1
  Al  Al26  1  0.439216  0.878820  0.750487  1
  Al  Al27  1  0.561374  0.121578  0.249526  1
  Al  Al28  1  0.997063  0.997994  0.749848  1
  Al  Al29  1  0.002625  0.002475  0.250131  1
  Ru  Ru30  1  0.500058  0.499886  0.500056  1
  Ru  Ru31  1  0.500267  0.000110  0.999784  1
  Ru  Ru32  1  0.500292  0.000172  0.500256  1
  Ru  Ru33  1  0.999989  0.999953  0.000013  1
  Ru  Ru34  1  0.000010  0.999944  0.499992  1
  Pt  Pt35  1  0.500029  0.499950  0.000000  1
  Pt  Pt36  1  0.999970  0.499921  0.999944  1
  Pt  Pt37  1  0.999958  0.499905  0.500063  1
