# generated using pymatgen
data_LiNdCdCuPt2
_symmetry_space_group_name_H-M   'P 1'
_cell_length_a   5.18243469
_cell_length_b   5.30661860
_cell_length_c   5.30661913
_cell_angle_alpha   63.30193145
_cell_angle_beta   60.51221381
_cell_angle_gamma   60.51224005
_symmetry_Int_Tables_number   1
_chemical_formula_structural   LiNdCdCuPt2
_chemical_formula_sum   'Li1 Nd1 Cd1 Cu1 Pt2'
_cell_volume   106.37169017
_cell_formula_units_Z   1
loop_
 _symmetry_equiv_pos_site_id
 _symmetry_equiv_pos_as_xyz
  1  'x, y, z'
loop_
 _atom_site_type_symbol
 _atom_site_label
 _atom_site_symmetry_multiplicity
 _atom_site_fract_x
 _atom_site_fract_y
 _atom_site_fract_z
 _atom_site_occupancy
  Li  Li0  1  0.116298  0.630055  0.630055  1
  Nd  Nd1  1  0.262247  0.243658  0.243658  1
  Cd  Cd2  1  0.009403  0.991485  0.991485  1
  Cu  Cu3  1  0.617321  0.630187  0.630187  1
  Pt  Pt4  1  0.622366  0.627986  0.126629  1
  Pt  Pt5  1  0.622366  0.126629  0.627986  1
