# generated using pymatgen
data_Sc3AlRe2Si3
_symmetry_space_group_name_H-M   'P 1'
_cell_length_a   6.90899746
_cell_length_b   6.91696455
_cell_length_c   3.55057600
_cell_angle_alpha   90.00000000
_cell_angle_beta   90.00000000
_cell_angle_gamma   120.03814782
_symmetry_Int_Tables_number   1
_chemical_formula_structural   Sc3AlRe2Si3
_chemical_formula_sum   'Sc3 Al1 Re2 Si3'
_cell_volume   146.89024509
_cell_formula_units_Z   1
loop_
 _symmetry_equiv_pos_site_id
 _symmetry_equiv_pos_as_xyz
  1  'x, y, z'
loop_
 _atom_site_type_symbol
 _atom_site_label
 _atom_site_symmetry_multiplicity
 _atom_site_fract_x
 _atom_site_fract_y
 _atom_site_fract_z
 _atom_site_occupancy
  Sc  Sc0  1  0.403499  0.407223  0.500000  1
  Sc  Sc1  1  0.596501  0.003724  0.500000  1
  Sc  Sc2  1  0.000000  0.594274  0.500000  1
  Al  Al3  1  0.000000  0.243331  0.000000  1
  Re  Re4  1  0.255700  0.002837  0.000000  1
  Re  Re5  1  0.744300  0.747137  0.000000  1
  Si  Si6  1  0.000000  0.982700  0.500000  1
  Si  Si7  1  0.656059  0.337416  0.000000  1
  Si  Si8  1  0.343941  0.681359  0.000000  1
