# generated using pymatgen
data_Dy4Y4Si12IrRh3
_symmetry_space_group_name_H-M   'P 1'
_cell_length_a   8.17388624
_cell_length_b   8.17733502
_cell_length_c   7.93453700
_cell_angle_alpha   89.99988620
_cell_angle_beta   89.99883339
_cell_angle_gamma   120.01398222
_symmetry_Int_Tables_number   1
_chemical_formula_structural   Dy4Y4Si12IrRh3
_chemical_formula_sum   'Dy4 Y4 Si12 Ir1 Rh3'
_cell_volume   459.23120883
_cell_formula_units_Z   1
loop_
 _symmetry_equiv_pos_site_id
 _symmetry_equiv_pos_as_xyz
  1  'x, y, z'
loop_
 _atom_site_type_symbol
 _atom_site_label
 _atom_site_symmetry_multiplicity
 _atom_site_fract_x
 _atom_site_fract_y
 _atom_site_fract_z
 _atom_site_occupancy
  Dy  Dy0  1  0.983099  0.491548  0.250181  1
  Dy  Dy1  1  0.490827  0.509236  0.749859  1
  Dy  Dy2  1  0.490826  0.981590  0.749860  1
  Dy  Dy3  1  0.018419  0.509209  0.749857  1
  Y  Y4  1  0.000023  0.000012  0.248907  1
  Y  Y5  1  0.999923  0.999961  0.750304  1
  Y  Y6  1  0.508625  0.491397  0.250148  1
  Y  Y7  1  0.508630  0.017234  0.250148  1
  Si  Si8  1  0.166545  0.833366  0.499349  1
  Si  Si9  1  0.166545  0.333178  0.499348  1
  Si  Si10  1  0.666769  0.833383  0.499511  1
  Si  Si11  1  0.832777  0.167312  0.500313  1
  Si  Si12  1  0.832776  0.665466  0.500313  1
  Si  Si13  1  0.334545  0.167273  0.500446  1
  Si  Si14  1  0.832933  0.167150  0.999667  1
  Si  Si15  1  0.832933  0.665782  0.999668  1
  Si  Si16  1  0.334220  0.167110  0.999538  1
  Si  Si17  1  0.166944  0.832957  0.999552  1
  Si  Si18  1  0.166944  0.333986  0.999552  1
  Si  Si19  1  0.665982  0.832990  0.999382  1
  Ir  Ir20  1  0.332996  0.666498  0.469608  1
  Rh  Rh21  1  0.666903  0.333452  0.533698  1
  Rh  Rh22  1  0.666877  0.333441  0.965526  1
  Rh  Rh23  1  0.332939  0.666470  0.035263  1
