# generated using pymatgen
data_TbHo3(Tm3Ir2)2
_symmetry_space_group_name_H-M   'P 1'
_cell_length_a   6.43347685
_cell_length_b   7.17646978
_cell_length_c   8.43347857
_cell_angle_alpha   96.70675264
_cell_angle_beta   112.37425306
_cell_angle_gamma   89.94427324
_symmetry_Int_Tables_number   1
_chemical_formula_structural   TbHo3(Tm3Ir2)2
_chemical_formula_sum   'Tb1 Ho3 Tm6 Ir4'
_cell_volume   357.19288276
_cell_formula_units_Z   1
loop_
 _symmetry_equiv_pos_site_id
 _symmetry_equiv_pos_as_xyz
  1  'x, y, z'
loop_
 _atom_site_type_symbol
 _atom_site_label
 _atom_site_symmetry_multiplicity
 _atom_site_fract_x
 _atom_site_fract_y
 _atom_site_fract_z
 _atom_site_occupancy
  Tb  Tb0  1  0.971446  0.919316  0.184653  1
  Ho  Ho1  1  0.787327  0.581050  0.815314  1
  Ho  Ho2  1  0.028312  0.081100  0.815343  1
  Ho  Ho3  1  0.212663  0.418885  0.184394  1
  Tm  Tm4  1  0.651804  0.817140  0.440888  1
  Tm  Tm5  1  0.211627  0.682294  0.559351  1
  Tm  Tm6  1  0.348227  0.182974  0.559660  1
  Tm  Tm7  1  0.788492  0.317588  0.440873  1
  Tm  Tm8  1  0.427383  0.749884  0.999853  1
  Tm  Tm9  1  0.572149  0.250133  0.999805  1
  Ir  Ir10  1  0.823474  0.572438  0.220236  1
  Ir  Ir11  1  0.603241  0.926607  0.779698  1
  Ir  Ir12  1  0.176156  0.426729  0.779901  1
  Ir  Ir13  1  0.397701  0.073862  0.220031  1
