# generated using pymatgen
data_RbNb4AsO13
_symmetry_space_group_name_H-M   'P 1'
_cell_length_a   7.51393958
_cell_length_b   7.51394006
_cell_length_c   10.22012700
_cell_angle_alpha   90.00000000
_cell_angle_beta   90.00000000
_cell_angle_gamma   90.97440008
_symmetry_Int_Tables_number   1
_chemical_formula_structural   RbNb4AsO13
_chemical_formula_sum   'Rb2 Nb8 As2 O26'
_cell_volume   576.93768944
_cell_formula_units_Z   2
loop_
 _symmetry_equiv_pos_site_id
 _symmetry_equiv_pos_as_xyz
  1  'x, y, z'
loop_
 _atom_site_type_symbol
 _atom_site_label
 _atom_site_symmetry_multiplicity
 _atom_site_fract_x
 _atom_site_fract_y
 _atom_site_fract_z
 _atom_site_occupancy
  Rb  Rb0  1  0.438758  0.438758  0.441644  1
  Rb  Rb1  1  0.561242  0.561242  0.941644  1
  Nb  Nb2  1  0.556041  0.898085  0.252272  1
  Nb  Nb3  1  0.101915  0.443959  0.752272  1
  Nb  Nb4  1  0.443959  0.101915  0.752272  1
  Nb  Nb5  1  0.898085  0.556041  0.252272  1
  Nb  Nb6  1  0.175187  0.829965  0.501680  1
  Nb  Nb7  1  0.170035  0.824813  0.001680  1
  Nb  Nb8  1  0.829965  0.175187  0.501680  1
  Nb  Nb9  1  0.824813  0.170035  0.001680  1
  As  As10  1  0.162943  0.162943  0.248257  1
  As  As11  1  0.837057  0.837057  0.748257  1
  O  O12  1  0.661748  0.661748  0.249918  1
  O  O13  1  0.338252  0.338252  0.749918  1
  O  O14  1  0.386860  0.129849  0.251640  1
  O  O15  1  0.870151  0.613140  0.751640  1
  O  O16  1  0.613140  0.870151  0.751640  1
  O  O17  1  0.129849  0.386860  0.251640  1
  O  O18  1  0.800266  0.360267  0.384444  1
  O  O19  1  0.639522  0.199217  0.612987  1
  O  O20  1  0.800783  0.360478  0.112987  1
  O  O21  1  0.639733  0.199734  0.884444  1
  O  O22  1  0.199217  0.639522  0.612987  1
  O  O23  1  0.360267  0.800266  0.384444  1
  O  O24  1  0.199734  0.639733  0.884444  1
  O  O25  1  0.360478  0.800783  0.112987  1
  O  O26  1  0.068450  0.068450  0.388933  1
  O  O27  1  0.932156  0.932156  0.608760  1
  O  O28  1  0.067844  0.067844  0.108760  1
  O  O29  1  0.931550  0.931550  0.888933  1
  O  O30  1  0.693289  0.994563  0.387830  1
  O  O31  1  0.008983  0.307750  0.610590  1
  O  O32  1  0.692250  0.991017  0.110590  1
  O  O33  1  0.005437  0.306711  0.887830  1
  O  O34  1  0.307750  0.008983  0.610590  1
  O  O35  1  0.994563  0.693289  0.387830  1
  O  O36  1  0.306711  0.005437  0.887830  1
  O  O37  1  0.991017  0.692250  0.110590  1
