# generated using pymatgen
data_Cs2Zr11Ti(BI14)2
_symmetry_space_group_name_H-M   'P 1'
_cell_length_a   11.07872220
_cell_length_b   11.07872141
_cell_length_c   13.25550484
_cell_angle_alpha   90.37283188
_cell_angle_beta   90.37283059
_cell_angle_gamma   93.77744212
_symmetry_Int_Tables_number   1
_chemical_formula_structural   Cs2Zr11Ti(BI14)2
_chemical_formula_sum   'Cs2 Zr11 Ti1 B2 I28'
_cell_volume   1623.34699539
_cell_formula_units_Z   1
loop_
 _symmetry_equiv_pos_site_id
 _symmetry_equiv_pos_as_xyz
  1  'x, y, z'
loop_
 _atom_site_type_symbol
 _atom_site_label
 _atom_site_symmetry_multiplicity
 _atom_site_fract_x
 _atom_site_fract_y
 _atom_site_fract_z
 _atom_site_occupancy
  Cs  Cs0  1  0.999607  0.999607  0.998938  1
  Cs  Cs1  1  0.500195  0.500195  0.500645  1
  Zr  Zr2  1  0.369836  0.369836  0.903929  1
  Zr  Zr3  1  0.333143  0.544261  0.108216  1
  Zr  Zr4  1  0.129950  0.129950  0.404192  1
  Zr  Zr5  1  0.167282  0.956484  0.608209  1
  Zr  Zr6  1  0.454703  0.665615  0.892926  1
  Zr  Zr7  1  0.665615  0.454703  0.892926  1
  Zr  Zr8  1  0.956484  0.167282  0.608209  1
  Zr  Zr9  1  0.832776  0.043576  0.391730  1
  Zr  Zr10  1  0.629469  0.629469  0.096662  1
  Zr  Zr11  1  0.544261  0.333143  0.108216  1
  Zr  Zr12  1  0.043576  0.832776  0.391730  1
  Ti  Ti13  1  0.880368  0.880368  0.588779  1
  B  B14  1  0.499494  0.499494  0.000612  1
  B  B15  1  0.001784  0.001784  0.498657  1
  I  I16  1  0.464863  0.711827  0.247036  1
  I  I17  1  0.534566  0.286839  0.753950  1
  I  I18  1  0.893650  0.391784  0.750725  1
  I  I19  1  0.357594  0.107585  0.508317  1
  I  I20  1  0.349266  0.349266  0.256479  1
  I  I21  1  0.143043  0.391699  0.007167  1
  I  I22  1  0.152410  0.152410  0.757815  1
  I  I23  1  0.751250  0.248852  0.499884  1
  I  I24  1  0.647772  0.647772  0.745565  1
  I  I25  1  0.890819  0.653483  0.497120  1
  I  I26  1  0.248852  0.751250  0.499884  1
  I  I27  1  0.028748  0.793034  0.739233  1
  I  I28  1  0.607766  0.856344  0.993252  1
  I  I29  1  0.104087  0.605768  0.250962  1
  I  I30  1  0.711827  0.464863  0.247036  1
  I  I31  1  0.748539  0.249647  0.000213  1
  I  I32  1  0.391784  0.893650  0.750725  1
  I  I33  1  0.856344  0.607766  0.993252  1
  I  I34  1  0.286839  0.534566  0.753950  1
  I  I35  1  0.107585  0.357594  0.508317  1
  I  I36  1  0.249647  0.748539  0.000213  1
  I  I37  1  0.793034  0.028748  0.739233  1
  I  I38  1  0.653483  0.890819  0.497120  1
  I  I39  1  0.209817  0.963266  0.253642  1
  I  I40  1  0.847137  0.847137  0.242562  1
  I  I41  1  0.963266  0.209817  0.253642  1
  I  I42  1  0.391699  0.143043  0.007167  1
  I  I43  1  0.605768  0.104087  0.250962  1
