# generated using pymatgen
data_La5OsPt2
_symmetry_space_group_name_H-M   'P 1'
_cell_length_a   11.56281303
_cell_length_b   11.56281347
_cell_length_c   6.68951100
_cell_angle_alpha   90.10664537
_cell_angle_beta   90.10664537
_cell_angle_gamma   90.06904503
_symmetry_Int_Tables_number   1
_chemical_formula_structural   La5OsPt2
_chemical_formula_sum   'La20 Os4 Pt8'
_cell_volume   894.37484011
_cell_formula_units_Z   4
loop_
 _symmetry_equiv_pos_site_id
 _symmetry_equiv_pos_as_xyz
  1  'x, y, z'
loop_
 _atom_site_type_symbol
 _atom_site_label
 _atom_site_symmetry_multiplicity
 _atom_site_fract_x
 _atom_site_fract_y
 _atom_site_fract_z
 _atom_site_occupancy
  La  La0  1  0.298172  0.087007  0.381221  1
  La  La1  1  0.298525  0.910126  0.881334  1
  La  La2  1  0.701689  0.088439  0.880830  1
  La  La3  1  0.700930  0.912646  0.380160  1
  La  La4  1  0.588116  0.798113  0.880918  1
  La  La5  1  0.587717  0.202713  0.381196  1
  La  La6  1  0.411662  0.797574  0.381860  1
  La  La7  1  0.411579  0.200501  0.880392  1
  La  La8  1  0.201887  0.411884  0.619082  1
  La  La9  1  0.202426  0.588338  0.118140  1
  La  La10  1  0.797287  0.412283  0.118804  1
  La  La11  1  0.799499  0.588421  0.619608  1
  La  La12  1  0.912993  0.701828  0.118779  1
  La  La13  1  0.911561  0.298311  0.619170  1
  La  La14  1  0.089874  0.701475  0.618666  1
  La  La15  1  0.087354  0.299070  0.119840  1
  La  La16  1  0.999506  0.999840  0.500547  1
  La  La17  1  0.000160  0.000494  0.999453  1
  La  La18  1  0.499294  0.499877  0.001510  1
  La  La19  1  0.500123  0.500706  0.498490  1
  Os  Os20  1  0.499966  0.999576  0.126018  1
  Os  Os21  1  0.499792  0.999953  0.625471  1
  Os  Os22  1  0.000047  0.500208  0.874529  1
  Os  Os23  1  0.000424  0.500034  0.373982  1
  Pt  Pt24  1  0.347996  0.652004  0.750000  1
  Pt  Pt25  1  0.846787  0.153213  0.250000  1
  Pt  Pt26  1  0.846246  0.847665  0.750273  1
  Pt  Pt27  1  0.152335  0.153754  0.749727  1
  Pt  Pt28  1  0.153155  0.846845  0.250000  1
  Pt  Pt29  1  0.651701  0.348299  0.750000  1
  Pt  Pt30  1  0.654614  0.653419  0.249939  1
  Pt  Pt31  1  0.346581  0.345386  0.250061  1
