# generated using pymatgen
data_Nd3Y13Cd4Ni3Os
_symmetry_space_group_name_H-M   'P 1'
_cell_length_a   9.70494566
_cell_length_b   9.69561496
_cell_length_c   9.69561506
_cell_angle_alpha   59.46908932
_cell_angle_beta   59.47753235
_cell_angle_gamma   59.47754029
_symmetry_Int_Tables_number   1
_chemical_formula_structural   Nd3Y13Cd4Ni3Os
_chemical_formula_sum   'Nd3 Y13 Cd4 Ni3 Os1'
_cell_volume   637.39490782
_cell_formula_units_Z   1
loop_
 _symmetry_equiv_pos_site_id
 _symmetry_equiv_pos_as_xyz
  1  'x, y, z'
loop_
 _atom_site_type_symbol
 _atom_site_label
 _atom_site_symmetry_multiplicity
 _atom_site_fract_x
 _atom_site_fract_y
 _atom_site_fract_z
 _atom_site_occupancy
  Nd  Nd0  1  0.597820  0.600497  0.600497  1
  Nd  Nd1  1  0.600795  0.602003  0.200737  1
  Nd  Nd2  1  0.600795  0.200737  0.602003  1
  Y  Y3  1  0.199968  0.601400  0.601400  1
  Y  Y4  1  0.062084  0.437750  0.437750  1
  Y  Y5  1  0.436040  0.062132  0.062132  1
  Y  Y6  1  0.437211  0.062919  0.436303  1
  Y  Y7  1  0.062418  0.436154  0.061179  1
  Y  Y8  1  0.437211  0.436303  0.062919  1
  Y  Y9  1  0.062418  0.061179  0.436154  1
  Y  Y10  1  0.186141  0.815175  0.815175  1
  Y  Y11  1  0.809397  0.186951  0.186951  1
  Y  Y12  1  0.815766  0.185007  0.815763  1
  Y  Y13  1  0.187789  0.807346  0.187887  1
  Y  Y14  1  0.815766  0.815763  0.185007  1
  Y  Y15  1  0.187789  0.187887  0.807346  1
  Cd  Cd16  1  0.834072  0.829200  0.829200  1
  Cd  Cd17  1  0.833106  0.829924  0.504592  1
  Cd  Cd18  1  0.833106  0.504592  0.829924  1
  Cd  Cd19  1  0.504848  0.830672  0.830672  1
  Ni  Ni20  1  0.389419  0.393375  0.826977  1
  Ni  Ni21  1  0.389419  0.826977  0.393375  1
  Ni  Ni22  1  0.827841  0.391569  0.391569  1
  Os  Os23  1  0.388780  0.394487  0.394487  1
