# generated using pymatgen
data_Y2U(GaRu)3
_symmetry_space_group_name_H-M   'P 1'
_cell_length_a   6.90563000
_cell_length_b   6.90563027
_cell_length_c   3.98980100
_cell_angle_alpha   90.00000000
_cell_angle_beta   90.00000000
_cell_angle_gamma   116.27478746
_symmetry_Int_Tables_number   1
_chemical_formula_structural   Y2U(GaRu)3
_chemical_formula_sum   'Y2 U1 Ga3 Ru3'
_cell_volume   170.60666052
_cell_formula_units_Z   1
loop_
 _symmetry_equiv_pos_site_id
 _symmetry_equiv_pos_as_xyz
  1  'x, y, z'
loop_
 _atom_site_type_symbol
 _atom_site_label
 _atom_site_symmetry_multiplicity
 _atom_site_fract_x
 _atom_site_fract_y
 _atom_site_fract_z
 _atom_site_occupancy
  Y  Y0  1  0.414132  0.008779  0.500000  1
  Y  Y1  1  0.008779  0.414132  0.500000  1
  U  U2  1  0.617885  0.617885  0.500000  1
  Ga  Ga3  1  0.744739  0.032762  0.000000  1
  Ga  Ga4  1  0.032762  0.744739  0.000000  1
  Ga  Ga5  1  0.209259  0.209259  0.000000  1
  Ru  Ru6  1  0.381759  0.634766  0.000000  1
  Ru  Ru7  1  0.634766  0.381759  0.000000  1
  Ru  Ru8  1  0.955920  0.955920  0.500000  1
