# generated using pymatgen
data_Zr2Sc3P12Ru19
_symmetry_space_group_name_H-M   'P 1'
_cell_length_a   12.40386700
_cell_length_b   12.40386731
_cell_length_c   3.93451500
_cell_angle_alpha   90.00000000
_cell_angle_beta   90.00000000
_cell_angle_gamma   120.00000183
_symmetry_Int_Tables_number   1
_chemical_formula_structural   Zr2Sc3P12Ru19
_chemical_formula_sum   'Zr2 Sc3 P12 Ru19'
_cell_volume   524.24710607
_cell_formula_units_Z   1
loop_
 _symmetry_equiv_pos_site_id
 _symmetry_equiv_pos_as_xyz
  1  'x, y, z'
loop_
 _atom_site_type_symbol
 _atom_site_label
 _atom_site_symmetry_multiplicity
 _atom_site_fract_x
 _atom_site_fract_y
 _atom_site_fract_z
 _atom_site_occupancy
  Zr  Zr0  1  0.666667  0.333333  0.000000  1
  Zr  Zr1  1  0.333333  0.666667  0.000000  1
  Sc  Sc2  1  0.000000  0.183968  0.500000  1
  Sc  Sc3  1  0.816032  0.816032  0.500000  1
  Sc  Sc4  1  0.183968  0.000000  0.500000  1
  P  P5  1  0.000000  0.818656  0.000000  1
  P  P6  1  0.181344  0.181344  0.000000  1
  P  P7  1  0.818656  0.000000  0.000000  1
  P  P8  1  0.694583  0.172019  0.500000  1
  P  P9  1  0.827981  0.522564  0.500000  1
  P  P10  1  0.477436  0.305417  0.500000  1
  P  P11  1  0.172019  0.694583  0.500000  1
  P  P12  1  0.522564  0.827981  0.500000  1
  P  P13  1  0.305417  0.477436  0.500000  1
  P  P14  1  0.000000  0.370828  0.000000  1
  P  P15  1  0.629172  0.629172  0.000000  1
  P  P16  1  0.370828  0.000000  0.000000  1
  Ru  Ru17  1  0.000000  0.554978  0.000000  1
  Ru  Ru18  1  0.445022  0.445022  0.000000  1
  Ru  Ru19  1  0.554978  0.000000  0.000000  1
  Ru  Ru20  1  0.000000  0.720829  0.500000  1
  Ru  Ru21  1  0.279171  0.279171  0.500000  1
  Ru  Ru22  1  0.720829  0.000000  0.500000  1
  Ru  Ru23  1  0.810797  0.185345  0.000000  1
  Ru  Ru24  1  0.814655  0.625451  0.000000  1
  Ru  Ru25  1  0.374549  0.189203  0.000000  1
  Ru  Ru26  1  0.185345  0.810797  0.000000  1
  Ru  Ru27  1  0.625451  0.814655  0.000000  1
  Ru  Ru28  1  0.189203  0.374549  0.000000  1
  Ru  Ru29  1  0.871731  0.366655  0.500000  1
  Ru  Ru30  1  0.633345  0.505077  0.500000  1
  Ru  Ru31  1  0.494923  0.128269  0.500000  1
  Ru  Ru32  1  0.366655  0.871731  0.500000  1
  Ru  Ru33  1  0.505077  0.633345  0.500000  1
  Ru  Ru34  1  0.128269  0.494923  0.500000  1
  Ru  Ru35  1  0.000000  0.000000  0.000000  1
