# generated using pymatgen
data_Tb2Er2LuRu2
_symmetry_space_group_name_H-M   'P 1'
_cell_length_a   6.30870691
_cell_length_b   7.23612187
_cell_length_c   8.43526105
_cell_angle_alpha   96.76657223
_cell_angle_beta   111.95932818
_cell_angle_gamma   89.99999751
_symmetry_Int_Tables_number   1
_chemical_formula_structural   Tb2Er2LuRu2
_chemical_formula_sum   'Tb4 Er4 Lu2 Ru4'
_cell_volume   354.24342026
_cell_formula_units_Z   2
loop_
 _symmetry_equiv_pos_site_id
 _symmetry_equiv_pos_as_xyz
  1  'x, y, z'
loop_
 _atom_site_type_symbol
 _atom_site_label
 _atom_site_symmetry_multiplicity
 _atom_site_fract_x
 _atom_site_fract_y
 _atom_site_fract_z
 _atom_site_occupancy
  Tb  Tb0  1  0.523536  0.083052  0.813861  1
  Tb  Tb1  1  0.476464  0.916948  0.186139  1
  Tb  Tb2  1  0.709675  0.416948  0.186139  1
  Tb  Tb3  1  0.290325  0.583052  0.813861  1
  Er  Er4  1  0.297136  0.313442  0.432964  1
  Er  Er5  1  0.702864  0.686558  0.567036  1
  Er  Er6  1  0.864174  0.186558  0.567036  1
  Er  Er7  1  0.135826  0.813442  0.432964  1
  Lu  Lu8  1  0.078083  0.250000  0.000000  1
  Lu  Lu9  1  0.921917  0.750000  0.000000  1
  Ru  Ru10  1  0.319669  0.575059  0.219454  1
  Ru  Ru11  1  0.680331  0.424941  0.780546  1
  Ru  Ru12  1  0.100216  0.924941  0.780546  1
  Ru  Ru13  1  0.899784  0.075059  0.219454  1
