# generated using pymatgen
data_Ho2Sc2VSi7Pt9
_symmetry_space_group_name_H-M   'P 1'
_cell_length_a   9.97528056
_cell_length_b   9.97135073
_cell_length_c   3.95286200
_cell_angle_alpha   90.00000000
_cell_angle_beta   90.00000000
_cell_angle_gamma   119.76401547
_symmetry_Int_Tables_number   1
_chemical_formula_structural   Ho2Sc2VSi7Pt9
_chemical_formula_sum   'Ho2 Sc2 V1 Si7 Pt9'
_cell_volume   341.31016071
_cell_formula_units_Z   1
loop_
 _symmetry_equiv_pos_site_id
 _symmetry_equiv_pos_as_xyz
  1  'x, y, z'
loop_
 _atom_site_type_symbol
 _atom_site_label
 _atom_site_symmetry_multiplicity
 _atom_site_fract_x
 _atom_site_fract_y
 _atom_site_fract_z
 _atom_site_occupancy
  Ho  Ho0  1  0.000796  0.997730  0.000000  1
  Ho  Ho1  1  0.331617  0.666179  0.500000  1
  Sc  Sc2  1  0.564455  0.108690  0.500000  1
  Sc  Sc3  1  0.547348  0.438391  0.500000  1
  V  V4  1  0.886473  0.455427  0.500000  1
  Si  Si5  1  0.246448  0.199362  0.500000  1
  Si  Si6  1  0.805113  0.049236  0.500000  1
  Si  Si7  1  0.950706  0.742352  0.500000  1
  Si  Si8  1  0.554629  0.644761  0.000000  1
  Si  Si9  1  0.354172  0.910000  0.000000  1
  Si  Si10  1  0.082038  0.445571  0.000000  1
  Si  Si11  1  0.677095  0.338161  0.000000  1
  Pt  Pt12  1  0.217966  0.937053  0.500000  1
  Pt  Pt13  1  0.061273  0.284708  0.500000  1
  Pt  Pt14  1  0.719777  0.779920  0.500000  1
  Pt  Pt15  1  0.309750  0.412873  0.000000  1
  Pt  Pt16  1  0.587484  0.900579  0.000000  1
  Pt  Pt17  1  0.097166  0.688255  0.000000  1
  Pt  Pt18  1  0.389325  0.174702  0.000000  1
  Pt  Pt19  1  0.828703  0.211871  0.000000  1
  Pt  Pt20  1  0.787664  0.614180  0.000000  1
