# generated using pymatgen
data_Zr6Zn17Ag6C
_symmetry_space_group_name_H-M   'P 1'
_cell_length_a   8.81280917
_cell_length_b   8.82737735
_cell_length_c   8.82737700
_cell_angle_alpha   59.99999758
_cell_angle_beta   59.94529939
_cell_angle_gamma   59.94529492
_symmetry_Int_Tables_number   1
_chemical_formula_structural   Zr6Zn17Ag6C
_chemical_formula_sum   'Zr6 Zn17 Ag6 C1'
_cell_volume   485.18028253
_cell_formula_units_Z   1
loop_
 _symmetry_equiv_pos_site_id
 _symmetry_equiv_pos_as_xyz
  1  'x, y, z'
loop_
 _atom_site_type_symbol
 _atom_site_label
 _atom_site_symmetry_multiplicity
 _atom_site_fract_x
 _atom_site_fract_y
 _atom_site_fract_z
 _atom_site_occupancy
  Zr  Zr0  1  0.686980  0.313096  0.313096  1
  Zr  Zr1  1  0.313020  0.686904  0.686904  1
  Zr  Zr2  1  0.313020  0.686904  0.313171  1
  Zr  Zr3  1  0.686980  0.313096  0.686829  1
  Zr  Zr4  1  0.313020  0.313171  0.686904  1
  Zr  Zr5  1  0.686980  0.686829  0.313096  1
  Zn  Zn6  1  0.640698  0.119768  0.119768  1
  Zn  Zn7  1  0.359302  0.880232  0.880232  1
  Zn  Zn8  1  0.500000  0.000000  0.000000  1
  Zn  Zn9  1  0.000000  0.500000  0.500000  1
  Zn  Zn10  1  0.000000  0.500000  0.000000  1
  Zn  Zn11  1  0.500000  0.000000  0.500000  1
  Zn  Zn12  1  0.000000  0.000000  0.500000  1
  Zn  Zn13  1  0.500000  0.500000  0.000000  1
  Zn  Zn14  1  0.332918  0.331480  0.331480  1
  Zn  Zn15  1  0.667082  0.668520  0.668520  1
  Zn  Zn16  1  0.332918  0.331480  0.004123  1
  Zn  Zn17  1  0.332918  0.004123  0.331480  1
  Zn  Zn18  1  0.667082  0.668520  0.995877  1
  Zn  Zn19  1  0.667082  0.995877  0.668520  1
  Zn  Zn20  1  0.004013  0.331996  0.331996  1
  Zn  Zn21  1  0.995987  0.668004  0.668004  1
  Zn  Zn22  1  0.000000  0.000000  0.000000  1
  Ag  Ag23  1  0.121239  0.118430  0.118430  1
  Ag  Ag24  1  0.878761  0.881570  0.881570  1
  Ag  Ag25  1  0.121239  0.118430  0.641902  1
  Ag  Ag26  1  0.121239  0.641902  0.118430  1
  Ag  Ag27  1  0.878761  0.881570  0.358098  1
  Ag  Ag28  1  0.878761  0.358098  0.881570  1
  C  C29  1  0.500000  0.500000  0.500000  1
