# generated using pymatgen
data_Ce2Pr13Nd(CdIr)4
_symmetry_space_group_name_H-M   'P 1'
_cell_length_a   10.01021830
_cell_length_b   10.00965934
_cell_length_c   10.08568600
_cell_angle_alpha   59.74842886
_cell_angle_beta   59.75029476
_cell_angle_gamma   59.64026898
_symmetry_Int_Tables_number   1
_chemical_formula_structural   Ce2Pr13Nd(CdIr)4
_chemical_formula_sum   'Ce2 Pr13 Nd1 Cd4 Ir4'
_cell_volume   709.92411067
_cell_formula_units_Z   1
loop_
 _symmetry_equiv_pos_site_id
 _symmetry_equiv_pos_as_xyz
  1  'x, y, z'
loop_
 _atom_site_type_symbol
 _atom_site_label
 _atom_site_symmetry_multiplicity
 _atom_site_fract_x
 _atom_site_fract_y
 _atom_site_fract_z
 _atom_site_occupancy
  Ce  Ce0  1  0.343089  0.343015  0.344817  1
  Ce  Ce1  1  0.343089  0.343015  0.969077  1
  Pr  Pr2  1  0.953320  0.348893  0.348894  1
  Pr  Pr3  1  0.809423  0.190430  0.190974  1
  Pr  Pr4  1  0.190437  0.809463  0.809088  1
  Pr  Pr5  1  0.190437  0.809463  0.191013  1
  Pr  Pr6  1  0.809423  0.190430  0.809173  1
  Pr  Pr7  1  0.191279  0.191294  0.808714  1
  Pr  Pr8  1  0.809345  0.809454  0.190600  1
  Pr  Pr9  1  0.941826  0.559503  0.561745  1
  Pr  Pr10  1  0.559451  0.941846  0.936982  1
  Pr  Pr11  1  0.559451  0.941846  0.561721  1
  Pr  Pr12  1  0.941826  0.559503  0.936926  1
  Pr  Pr13  1  0.559404  0.559440  0.940578  1
  Pr  Pr14  1  0.937582  0.937531  0.562444  1
  Nd  Nd15  1  0.348864  0.953617  0.348760  1
  Cd  Cd16  1  0.578098  0.578205  0.582428  1
  Cd  Cd17  1  0.578098  0.578205  0.261266  1
  Cd  Cd18  1  0.576767  0.261850  0.580691  1
  Cd  Cd19  1  0.261855  0.576831  0.580656  1
  Ir  Ir20  1  0.148180  0.147813  0.134325  1
  Ir  Ir21  1  0.148180  0.147813  0.569682  1
  Ir  Ir22  1  0.153558  0.567173  0.139635  1
  Ir  Ir23  1  0.567018  0.153365  0.139809  1
