# generated using pymatgen
data_Tm16MgTl2AgPd4
_symmetry_space_group_name_H-M   'P 1'
_cell_length_a   9.53539024
_cell_length_b   9.50224673
_cell_length_c   9.56871300
_cell_angle_alpha   59.76833955
_cell_angle_beta   59.88432725
_cell_angle_gamma   59.86336268
_symmetry_Int_Tables_number   1
_chemical_formula_structural   Tm16MgTl2AgPd4
_chemical_formula_sum   'Tm16 Mg1 Tl2 Ag1 Pd4'
_cell_volume   610.81443088
_cell_formula_units_Z   1
loop_
 _symmetry_equiv_pos_site_id
 _symmetry_equiv_pos_as_xyz
  1  'x, y, z'
loop_
 _atom_site_type_symbol
 _atom_site_label
 _atom_site_symmetry_multiplicity
 _atom_site_fract_x
 _atom_site_fract_y
 _atom_site_fract_z
 _atom_site_occupancy
  Tm  Tm0  1  0.604447  0.603022  0.602736  1
  Tm  Tm1  1  0.604447  0.603022  0.189795  1
  Tm  Tm2  1  0.607184  0.187166  0.602825  1
  Tm  Tm3  1  0.177182  0.607951  0.607433  1
  Tm  Tm4  1  0.059683  0.438336  0.440415  1
  Tm  Tm5  1  0.436969  0.061243  0.062626  1
  Tm  Tm6  1  0.436969  0.061243  0.439163  1
  Tm  Tm7  1  0.059683  0.438336  0.061568  1
  Tm  Tm8  1  0.435722  0.437620  0.063329  1
  Tm  Tm9  1  0.059100  0.060069  0.440416  1
  Tm  Tm10  1  0.186621  0.817075  0.815053  1
  Tm  Tm11  1  0.815347  0.192632  0.176958  1
  Tm  Tm12  1  0.815347  0.192632  0.815061  1
  Tm  Tm13  1  0.186621  0.817075  0.181251  1
  Tm  Tm14  1  0.815995  0.817307  0.183349  1
  Tm  Tm15  1  0.184626  0.188304  0.813534  1
  Mg  Mg16  1  0.522329  0.820101  0.828785  1
  Tl  Tl17  1  0.833075  0.833935  0.839909  1
  Tl  Tl18  1  0.833075  0.833935  0.493082  1
  Ag  Ag19  1  0.832962  0.488992  0.839023  1
  Pd  Pd20  1  0.392496  0.395840  0.397999  1
  Pd  Pd21  1  0.392496  0.395840  0.813664  1
  Pd  Pd22  1  0.391930  0.813691  0.397189  1
  Pd  Pd23  1  0.815690  0.394631  0.394838  1
