# generated using pymatgen
data_Y4Al13Ga5Ir6
_symmetry_space_group_name_H-M   'P 1'
_cell_length_a   7.53263901
_cell_length_b   7.53158090
_cell_length_c   9.58204500
_cell_angle_alpha   90.00000000
_cell_angle_beta   90.00000000
_cell_angle_gamma   119.56513772
_symmetry_Int_Tables_number   1
_chemical_formula_structural   Y4Al13Ga5Ir6
_chemical_formula_sum   'Y4 Al13 Ga5 Ir6'
_cell_volume   472.83386015
_cell_formula_units_Z   1
loop_
 _symmetry_equiv_pos_site_id
 _symmetry_equiv_pos_as_xyz
  1  'x, y, z'
loop_
 _atom_site_type_symbol
 _atom_site_label
 _atom_site_symmetry_multiplicity
 _atom_site_fract_x
 _atom_site_fract_y
 _atom_site_fract_z
 _atom_site_occupancy
  Y  Y0  1  0.994671  0.670249  0.250000  1
  Y  Y1  1  0.000700  0.325920  0.750000  1
  Y  Y2  1  0.670346  0.995998  0.250000  1
  Y  Y3  1  0.330041  0.007143  0.750000  1
  Al  Al4  1  0.002451  0.334973  0.071737  1
  Al  Al5  1  0.999401  0.665469  0.927790  1
  Al  Al6  1  0.999401  0.665469  0.572210  1
  Al  Al7  1  0.334847  0.001854  0.428478  1
  Al  Al8  1  0.002451  0.334973  0.428263  1
  Al  Al9  1  0.664723  0.997898  0.572564  1
  Al  Al10  1  0.664723  0.997898  0.927436  1
  Al  Al11  1  0.334847  0.001854  0.071522  1
  Al  Al12  1  0.333875  0.334378  0.555898  1
  Al  Al13  1  0.665955  0.665924  0.447825  1
  Al  Al14  1  0.665955  0.665924  0.052175  1
  Al  Al15  1  0.333875  0.334378  0.944102  1
  Al  Al16  1  0.450768  0.661136  0.750000  1
  Ga  Ga17  1  0.128753  0.128770  0.250000  1
  Ga  Ga18  1  0.870023  0.869386  0.750000  1
  Ga  Ga19  1  0.338748  0.547047  0.250000  1
  Ga  Ga20  1  0.661644  0.454129  0.750000  1
  Ga  Ga21  1  0.547195  0.339178  0.250000  1
  Ir  Ir22  1  0.672328  0.328139  0.000261  1
  Ir  Ir23  1  0.329534  0.671686  0.997624  1
  Ir  Ir24  1  0.329534  0.671686  0.502376  1
  Ir  Ir25  1  0.672328  0.328139  0.499739  1
  Ir  Ir26  1  0.000442  0.000202  0.000030  1
  Ir  Ir27  1  0.000442  0.000202  0.499970  1
