# generated using pymatgen
data_Tb3Er2P12Ru16Pt3
_symmetry_space_group_name_H-M   'P 1'
_cell_length_a   12.60266700
_cell_length_b   12.60266881
_cell_length_c   3.99289000
_cell_angle_alpha   90.00000000
_cell_angle_beta   90.00000000
_cell_angle_gamma   120.00000313
_symmetry_Int_Tables_number   1
_chemical_formula_structural   Tb3Er2P12Ru16Pt3
_chemical_formula_sum   'Tb3 Er2 P12 Ru16 Pt3'
_cell_volume   549.21570616
_cell_formula_units_Z   1
loop_
 _symmetry_equiv_pos_site_id
 _symmetry_equiv_pos_as_xyz
  1  'x, y, z'
loop_
 _atom_site_type_symbol
 _atom_site_label
 _atom_site_symmetry_multiplicity
 _atom_site_fract_x
 _atom_site_fract_y
 _atom_site_fract_z
 _atom_site_occupancy
  Tb  Tb0  1  0.181960  0.181960  0.500000  1
  Tb  Tb1  1  0.818040  0.000000  0.500000  1
  Tb  Tb2  1  0.000000  0.818040  0.500000  1
  Er  Er3  1  0.333333  0.666667  0.000000  1
  Er  Er4  1  0.666667  0.333333  0.000000  1
  P  P5  1  0.814339  0.814339  0.000000  1
  P  P6  1  0.185661  0.000000  0.000000  1
  P  P7  1  0.000000  0.185661  0.000000  1
  P  P8  1  0.181051  0.481167  0.500000  1
  P  P9  1  0.518833  0.699884  0.500000  1
  P  P10  1  0.300116  0.818949  0.500000  1
  P  P11  1  0.699884  0.518833  0.500000  1
  P  P12  1  0.818949  0.300116  0.500000  1
  P  P13  1  0.481167  0.181051  0.500000  1
  P  P14  1  0.365445  0.365445  0.000000  1
  P  P15  1  0.634555  0.000000  0.000000  1
  P  P16  1  0.000000  0.634555  0.000000  1
  Ru  Ru17  1  0.710310  0.710310  0.500000  1
  Ru  Ru18  1  0.289690  0.000000  0.500000  1
  Ru  Ru19  1  0.000000  0.289690  0.500000  1
  Ru  Ru20  1  0.185234  0.379459  0.000000  1
  Ru  Ru21  1  0.620541  0.805775  0.000000  1
  Ru  Ru22  1  0.194225  0.814766  0.000000  1
  Ru  Ru23  1  0.805775  0.620541  0.000000  1
  Ru  Ru24  1  0.814766  0.194225  0.000000  1
  Ru  Ru25  1  0.379459  0.185234  0.000000  1
  Ru  Ru26  1  0.369597  0.494787  0.500000  1
  Ru  Ru27  1  0.505213  0.874808  0.500000  1
  Ru  Ru28  1  0.125192  0.630403  0.500000  1
  Ru  Ru29  1  0.874808  0.505213  0.500000  1
  Ru  Ru30  1  0.630403  0.125192  0.500000  1
  Ru  Ru31  1  0.494787  0.369597  0.500000  1
  Ru  Ru32  1  0.000000  0.000000  0.000000  1
  Pt  Pt33  1  0.551148  0.551148  0.000000  1
  Pt  Pt34  1  0.448852  0.000000  0.000000  1
  Pt  Pt35  1  0.000000  0.448852  0.000000  1
