# generated using pymatgen
data_GdHoB6Ru
_symmetry_space_group_name_H-M   'P 1'
_cell_length_a   3.66977800
_cell_length_b   9.16115500
_cell_length_c   11.54476700
_cell_angle_alpha   90.00000000
_cell_angle_beta   90.00000000
_cell_angle_gamma   90.00000000
_symmetry_Int_Tables_number   1
_chemical_formula_structural   GdHoB6Ru
_chemical_formula_sum   'Gd4 Ho4 B24 Ru4'
_cell_volume   388.12819825
_cell_formula_units_Z   4
loop_
 _symmetry_equiv_pos_site_id
 _symmetry_equiv_pos_as_xyz
  1  'x, y, z'
loop_
 _atom_site_type_symbol
 _atom_site_label
 _atom_site_symmetry_multiplicity
 _atom_site_fract_x
 _atom_site_fract_y
 _atom_site_fract_z
 _atom_site_occupancy
  Gd  Gd0  1  0.000000  0.322932  0.413925  1
  Gd  Gd1  1  0.000000  0.677068  0.586075  1
  Gd  Gd2  1  0.000000  0.822932  0.086075  1
  Gd  Gd3  1  0.000000  0.177068  0.913925  1
  Ho  Ho4  1  0.000000  0.944032  0.372477  1
  Ho  Ho5  1  0.000000  0.055968  0.627523  1
  Ho  Ho6  1  0.000000  0.444032  0.127523  1
  Ho  Ho7  1  0.000000  0.555968  0.872477  1
  B  B8  1  0.500000  0.554568  0.432309  1
  B  B9  1  0.500000  0.445432  0.567691  1
  B  B10  1  0.500000  0.054568  0.067691  1
  B  B11  1  0.500000  0.945432  0.932309  1
  B  B12  1  0.500000  0.748316  0.419393  1
  B  B13  1  0.500000  0.251684  0.580607  1
  B  B14  1  0.500000  0.248316  0.080607  1
  B  B15  1  0.500000  0.751684  0.919393  1
  B  B16  1  0.500000  0.791143  0.266624  1
  B  B17  1  0.500000  0.208857  0.733376  1
  B  B18  1  0.500000  0.291143  0.233376  1
  B  B19  1  0.500000  0.708857  0.766624  1
  B  B20  1  0.500000  0.631944  0.185308  1
  B  B21  1  0.500000  0.368056  0.814692  1
  B  B22  1  0.500000  0.131944  0.314692  1
  B  B23  1  0.500000  0.868056  0.685308  1
  B  B24  1  0.500000  0.984372  0.213156  1
  B  B25  1  0.500000  0.015628  0.786844  1
  B  B26  1  0.500000  0.484372  0.286844  1
  B  B27  1  0.500000  0.515628  0.713156  1
  B  B28  1  0.500000  0.607760  0.029699  1
  B  B29  1  0.500000  0.392240  0.970301  1
  B  B30  1  0.500000  0.107760  0.470301  1
  B  B31  1  0.500000  0.892240  0.529699  1
  Ru  Ru32  1  0.000000  0.638574  0.320684  1
  Ru  Ru33  1  0.000000  0.361426  0.679316  1
  Ru  Ru34  1  0.000000  0.138574  0.179316  1
  Ru  Ru35  1  0.000000  0.861426  0.820684  1
