# generated using pymatgen
data_Dy3Ta2Nb(B2Ru5)2
_symmetry_space_group_name_H-M   'P 1'
_cell_length_a   9.61170129
_cell_length_b   9.61170157
_cell_length_c   3.12228100
_cell_angle_alpha   90.00000000
_cell_angle_beta   90.00000000
_cell_angle_gamma   90.36072931
_symmetry_Int_Tables_number   1
_chemical_formula_structural   Dy3Ta2Nb(B2Ru5)2
_chemical_formula_sum   'Dy3 Ta2 Nb1 B4 Ru10'
_cell_volume   288.44560251
_cell_formula_units_Z   1
loop_
 _symmetry_equiv_pos_site_id
 _symmetry_equiv_pos_as_xyz
  1  'x, y, z'
loop_
 _atom_site_type_symbol
 _atom_site_label
 _atom_site_symmetry_multiplicity
 _atom_site_fract_x
 _atom_site_fract_y
 _atom_site_fract_z
 _atom_site_occupancy
  Dy  Dy0  1  0.824002  0.675077  0.000000  1
  Dy  Dy1  1  0.175077  0.324002  0.000000  1
  Dy  Dy2  1  0.325470  0.825470  0.000000  1
  Ta  Ta3  1  0.498187  0.502862  0.000000  1
  Ta  Ta4  1  0.002862  0.998187  0.000000  1
  Nb  Nb5  1  0.675775  0.175775  0.000000  1
  B  B6  1  0.623375  0.881363  0.000000  1
  B  B7  1  0.381363  0.123375  0.000000  1
  B  B8  1  0.119030  0.619030  0.000000  1
  B  B9  1  0.876144  0.376144  0.000000  1
  Ru  Ru10  1  0.571045  0.721965  0.500000  1
  Ru  Ru11  1  0.440846  0.280474  0.500000  1
  Ru  Ru12  1  0.069186  0.780579  0.500000  1
  Ru  Ru13  1  0.915892  0.213192  0.500000  1
  Ru  Ru14  1  0.280579  0.569186  0.500000  1
  Ru  Ru15  1  0.713192  0.415892  0.500000  1
  Ru  Ru16  1  0.221965  0.071045  0.500000  1
  Ru  Ru17  1  0.780474  0.940846  0.500000  1
  Ru  Ru18  1  0.509647  0.009647  0.500000  1
  Ru  Ru19  1  0.995887  0.495887  0.500000  1
