# generated using pymatgen
data_Yb12ErTm7Si16
_symmetry_space_group_name_H-M   'P 1'
_cell_length_a   7.36107109
_cell_length_b   7.77846905
_cell_length_c   15.02320809
_cell_angle_alpha   89.99869158
_cell_angle_beta   90.01232402
_cell_angle_gamma   90.01277670
_symmetry_Int_Tables_number   1
_chemical_formula_structural   Yb12ErTm7Si16
_chemical_formula_sum   'Yb12 Er1 Tm7 Si16'
_cell_volume   860.19675842
_cell_formula_units_Z   1
loop_
 _symmetry_equiv_pos_site_id
 _symmetry_equiv_pos_as_xyz
  1  'x, y, z'
loop_
 _atom_site_type_symbol
 _atom_site_label
 _atom_site_symmetry_multiplicity
 _atom_site_fract_x
 _atom_site_fract_y
 _atom_site_fract_z
 _atom_site_occupancy
  Yb  Yb0  1  0.972898  0.816393  0.403788  1
  Yb  Yb1  1  0.472967  0.683568  0.096231  1
  Yb  Yb2  1  0.527088  0.316421  0.596230  1
  Yb  Yb3  1  0.027049  0.183604  0.903751  1
  Yb  Yb4  1  0.027104  0.183585  0.596232  1
  Yb  Yb5  1  0.527135  0.316440  0.903747  1
  Yb  Yb6  1  0.472905  0.683583  0.403786  1
  Yb  Yb7  1  0.972836  0.816370  0.096220  1
  Yb  Yb8  1  0.352605  0.019575  0.750000  1
  Yb  Yb9  1  0.852609  0.480403  0.750011  1
  Yb  Yb10  1  0.147357  0.519679  0.250041  1
  Yb  Yb11  1  0.647471  0.980385  0.250031  1
  Er  Er12  1  0.314267  0.176650  0.121004  1
  Tm  Tm13  1  0.814386  0.323490  0.378870  1
  Tm  Tm14  1  0.185643  0.676533  0.878846  1
  Tm  Tm15  1  0.685654  0.823475  0.621163  1
  Tm  Tm16  1  0.314338  0.176492  0.378900  1
  Tm  Tm17  1  0.814359  0.323568  0.121136  1
  Tm  Tm18  1  0.185635  0.676528  0.621160  1
  Tm  Tm19  1  0.685686  0.823455  0.878821  1
  Si  Si20  1  0.856908  0.533894  0.538435  1
  Si  Si21  1  0.357003  0.965914  0.961427  1
  Si  Si22  1  0.643086  0.033877  0.461565  1
  Si  Si23  1  0.142808  0.466308  0.038326  1
  Si  Si24  1  0.143104  0.466095  0.461570  1
  Si  Si25  1  0.643365  0.033753  0.038350  1
  Si  Si26  1  0.356891  0.966108  0.538435  1
  Si  Si27  1  0.856895  0.533944  0.961572  1
  Si  Si28  1  0.977730  0.879976  0.749999  1
  Si  Si29  1  0.477726  0.620017  0.750001  1
  Si  Si30  1  0.522499  0.380195  0.250071  1
  Si  Si31  1  0.022091  0.119927  0.250127  1
  Si  Si32  1  0.249069  0.396199  0.750001  1
  Si  Si33  1  0.749074  0.103792  0.750001  1
  Si  Si34  1  0.250808  0.896013  0.250129  1
  Si  Si35  1  0.750949  0.603790  0.250026  1
