# generated using pymatgen
data_Sc3Al6GaFe3Si5
_symmetry_space_group_name_H-M   'P 1'
_cell_length_a   8.25902700
_cell_length_b   8.25902795
_cell_length_c   8.89870100
_cell_angle_alpha   90.00000000
_cell_angle_beta   90.00000000
_cell_angle_gamma   120.00000020
_symmetry_Int_Tables_number   1
_chemical_formula_structural   Sc3Al6GaFe3Si5
_chemical_formula_sum   'Sc6 Al12 Ga2 Fe6 Si10'
_cell_volume   525.67226892
_cell_formula_units_Z   2
loop_
 _symmetry_equiv_pos_site_id
 _symmetry_equiv_pos_as_xyz
  1  'x, y, z'
loop_
 _atom_site_type_symbol
 _atom_site_label
 _atom_site_symmetry_multiplicity
 _atom_site_fract_x
 _atom_site_fract_y
 _atom_site_fract_z
 _atom_site_occupancy
  Sc  Sc0  1  0.197985  0.802015  0.250000  1
  Sc  Sc1  1  0.197985  0.395969  0.250000  1
  Sc  Sc2  1  0.604031  0.802015  0.250000  1
  Sc  Sc3  1  0.802015  0.197985  0.750000  1
  Sc  Sc4  1  0.802015  0.604031  0.750000  1
  Sc  Sc5  1  0.395969  0.197985  0.750000  1
  Al  Al6  1  0.161641  0.838359  0.921941  1
  Al  Al7  1  0.161641  0.323282  0.921941  1
  Al  Al8  1  0.676718  0.838359  0.921941  1
  Al  Al9  1  0.838359  0.161641  0.078059  1
  Al  Al10  1  0.838359  0.676718  0.078059  1
  Al  Al11  1  0.323282  0.161641  0.078059  1
  Al  Al12  1  0.838359  0.161641  0.421941  1
  Al  Al13  1  0.838359  0.676718  0.421941  1
  Al  Al14  1  0.323282  0.161641  0.421941  1
  Al  Al15  1  0.161641  0.838359  0.578059  1
  Al  Al16  1  0.161641  0.323282  0.578059  1
  Al  Al17  1  0.676718  0.838359  0.578059  1
  Ga  Ga18  1  0.000000  0.000000  0.250000  1
  Ga  Ga19  1  0.000000  0.000000  0.750000  1
  Fe  Fe20  1  0.500000  0.500000  0.500000  1
  Fe  Fe21  1  0.500000  0.000000  0.500000  1
  Fe  Fe22  1  0.000000  0.500000  0.500000  1
  Fe  Fe23  1  0.500000  0.500000  0.000000  1
  Fe  Fe24  1  0.500000  0.000000  0.000000  1
  Fe  Fe25  1  0.000000  0.500000  0.000000  1
  Si  Si26  1  0.560033  0.439967  0.250000  1
  Si  Si27  1  0.560033  0.120066  0.250000  1
  Si  Si28  1  0.879934  0.439967  0.250000  1
  Si  Si29  1  0.439967  0.560033  0.750000  1
  Si  Si30  1  0.439967  0.879934  0.750000  1
  Si  Si31  1  0.120066  0.560033  0.750000  1
  Si  Si32  1  0.333333  0.666667  0.460238  1
  Si  Si33  1  0.666667  0.333333  0.539762  1
  Si  Si34  1  0.666667  0.333333  0.960238  1
  Si  Si35  1  0.333333  0.666667  0.039762  1
