# generated using pymatgen
data_Hf4TiNbGa6
_symmetry_space_group_name_H-M   'P 1'
_cell_length_a   5.53157300
_cell_length_b   8.52183100
_cell_length_c   9.08630600
_cell_angle_alpha   90.00000000
_cell_angle_beta   90.00000000
_cell_angle_gamma   90.00000000
_symmetry_Int_Tables_number   1
_chemical_formula_structural   Hf4TiNbGa6
_chemical_formula_sum   'Hf8 Ti2 Nb2 Ga12'
_cell_volume   428.32056221
_cell_formula_units_Z   2
loop_
 _symmetry_equiv_pos_site_id
 _symmetry_equiv_pos_as_xyz
  1  'x, y, z'
loop_
 _atom_site_type_symbol
 _atom_site_label
 _atom_site_symmetry_multiplicity
 _atom_site_fract_x
 _atom_site_fract_y
 _atom_site_fract_z
 _atom_site_occupancy
  Hf  Hf0  1  0.747877  0.472503  0.619128  1
  Hf  Hf1  1  0.247877  0.527497  0.380872  1
  Hf  Hf2  1  0.752123  0.972503  0.380872  1
  Hf  Hf3  1  0.252123  0.027497  0.619128  1
  Hf  Hf4  1  0.750180  0.363744  0.185533  1
  Hf  Hf5  1  0.250180  0.636256  0.814467  1
  Hf  Hf6  1  0.749820  0.863744  0.814467  1
  Hf  Hf7  1  0.249820  0.136256  0.185533  1
  Ti  Ti8  1  0.000000  0.250000  0.890510  1
  Ti  Ti9  1  0.500000  0.750000  0.109490  1
  Nb  Nb10  1  0.000000  0.750000  0.107293  1
  Nb  Nb11  1  0.500000  0.250000  0.892707  1
  Ga  Ga12  1  0.000000  0.750000  0.567351  1
  Ga  Ga13  1  0.500000  0.250000  0.432649  1
  Ga  Ga14  1  0.000000  0.250000  0.433694  1
  Ga  Ga15  1  0.500000  0.750000  0.566306  1
  Ga  Ga16  1  0.750176  0.043922  0.080765  1
  Ga  Ga17  1  0.250176  0.956078  0.919235  1
  Ga  Ga18  1  0.749824  0.543922  0.919235  1
  Ga  Ga19  1  0.249824  0.456078  0.080765  1
  Ga  Ga20  1  0.751025  0.134546  0.657494  1
  Ga  Ga21  1  0.251025  0.865454  0.342506  1
  Ga  Ga22  1  0.748975  0.634546  0.342506  1
  Ga  Ga23  1  0.248975  0.365454  0.657494  1
