# generated using pymatgen
data_GdNi3P3Ru2
_symmetry_space_group_name_H-M   'P 1'
_cell_length_a   3.74659800
_cell_length_b   10.50962300
_cell_length_c   11.84114800
_cell_angle_alpha   90.00000000
_cell_angle_beta   90.00000000
_cell_angle_gamma   90.00000000
_symmetry_Int_Tables_number   1
_chemical_formula_structural   GdNi3P3Ru2
_chemical_formula_sum   'Gd4 Ni12 P12 Ru8'
_cell_volume   466.24913983
_cell_formula_units_Z   4
loop_
 _symmetry_equiv_pos_site_id
 _symmetry_equiv_pos_as_xyz
  1  'x, y, z'
loop_
 _atom_site_type_symbol
 _atom_site_label
 _atom_site_symmetry_multiplicity
 _atom_site_fract_x
 _atom_site_fract_y
 _atom_site_fract_z
 _atom_site_occupancy
  Gd  Gd0  1  0.250000  0.586725  0.707679  1
  Gd  Gd1  1  0.250000  0.913275  0.207679  1
  Gd  Gd2  1  0.750000  0.413275  0.292321  1
  Gd  Gd3  1  0.750000  0.086725  0.792321  1
  Ni  Ni4  1  0.250000  0.224774  0.179464  1
  Ni  Ni5  1  0.250000  0.275226  0.679464  1
  Ni  Ni6  1  0.750000  0.775226  0.820536  1
  Ni  Ni7  1  0.750000  0.724774  0.320536  1
  Ni  Ni8  1  0.250000  0.884943  0.699489  1
  Ni  Ni9  1  0.250000  0.615057  0.199489  1
  Ni  Ni10  1  0.750000  0.115057  0.300511  1
  Ni  Ni11  1  0.750000  0.384943  0.800511  1
  Ni  Ni12  1  0.250000  0.463662  0.932668  1
  Ni  Ni13  1  0.250000  0.036338  0.432668  1
  Ni  Ni14  1  0.750000  0.536338  0.067332  1
  Ni  Ni15  1  0.750000  0.963662  0.567332  1
  P  P16  1  0.250000  0.421709  0.111615  1
  P  P17  1  0.250000  0.078291  0.611615  1
  P  P18  1  0.750000  0.578291  0.888385  1
  P  P19  1  0.750000  0.921709  0.388385  1
  P  P20  1  0.250000  0.274653  0.867035  1
  P  P21  1  0.250000  0.225347  0.367035  1
  P  P22  1  0.750000  0.725347  0.132965  1
  P  P23  1  0.750000  0.774653  0.632965  1
  P  P24  1  0.250000  0.601445  0.387893  1
  P  P25  1  0.250000  0.898555  0.887893  1
  P  P26  1  0.750000  0.398555  0.612107  1
  P  P27  1  0.750000  0.101445  0.112107  1
  Ru  Ru28  1  0.250000  0.706600  0.983689  1
  Ru  Ru29  1  0.250000  0.793400  0.483689  1
  Ru  Ru30  1  0.750000  0.293400  0.016311  1
  Ru  Ru31  1  0.750000  0.206600  0.516311  1
  Ru  Ru32  1  0.250000  0.402447  0.488470  1
  Ru  Ru33  1  0.250000  0.097553  0.988470  1
  Ru  Ru34  1  0.750000  0.597553  0.511530  1
  Ru  Ru35  1  0.750000  0.902447  0.011530  1
