# generated using pymatgen
data_Lu6InTe2
_symmetry_space_group_name_H-M   'P 1'
_cell_length_a   4.11418100
_cell_length_b   11.38635100
_cell_length_c   21.24508400
_cell_angle_alpha   90.00000000
_cell_angle_beta   90.00000000
_cell_angle_gamma   90.00000000
_symmetry_Int_Tables_number   1
_chemical_formula_structural   Lu6InTe2
_chemical_formula_sum   'Lu24 In4 Te8'
_cell_volume   995.23677253
_cell_formula_units_Z   4
loop_
 _symmetry_equiv_pos_site_id
 _symmetry_equiv_pos_as_xyz
  1  'x, y, z'
loop_
 _atom_site_type_symbol
 _atom_site_label
 _atom_site_symmetry_multiplicity
 _atom_site_fract_x
 _atom_site_fract_y
 _atom_site_fract_z
 _atom_site_occupancy
  Lu  Lu0  1  0.750000  0.670657  0.891123  1
  Lu  Lu1  1  0.250000  0.370356  0.469543  1
  Lu  Lu2  1  0.750000  0.870356  0.030457  1
  Lu  Lu3  1  0.750000  0.972323  0.836852  1
  Lu  Lu4  1  0.250000  0.170657  0.608877  1
  Lu  Lu5  1  0.250000  0.743607  0.270116  1
  Lu  Lu6  1  0.750000  0.109105  0.491199  1
  Lu  Lu7  1  0.750000  0.563543  0.139438  1
  Lu  Lu8  1  0.250000  0.329343  0.108877  1
  Lu  Lu9  1  0.250000  0.027677  0.163148  1
  Lu  Lu10  1  0.250000  0.472323  0.663148  1
  Lu  Lu11  1  0.250000  0.756393  0.770116  1
  Lu  Lu12  1  0.750000  0.527677  0.336852  1
  Lu  Lu13  1  0.750000  0.936457  0.639438  1
  Lu  Lu14  1  0.250000  0.609105  0.008801  1
  Lu  Lu15  1  0.750000  0.256393  0.729884  1
  Lu  Lu16  1  0.750000  0.243607  0.229884  1
  Lu  Lu17  1  0.750000  0.629644  0.530457  1
  Lu  Lu18  1  0.750000  0.829343  0.391123  1
  Lu  Lu19  1  0.250000  0.129644  0.969543  1
  Lu  Lu20  1  0.250000  0.890895  0.508801  1
  Lu  Lu21  1  0.750000  0.390895  0.991199  1
  Lu  Lu22  1  0.250000  0.436457  0.860562  1
  Lu  Lu23  1  0.250000  0.063543  0.360562  1
  In  In24  1  0.750000  0.132845  0.076077  1
  In  In25  1  0.250000  0.632845  0.423923  1
  In  In26  1  0.250000  0.867155  0.923923  1
  In  In27  1  0.750000  0.367155  0.576077  1
  Te  Te28  1  0.250000  0.770518  0.127146  1
  Te  Te29  1  0.250000  0.729482  0.627146  1
  Te  Te30  1  0.250000  0.042058  0.736640  1
  Te  Te31  1  0.750000  0.270518  0.372854  1
  Te  Te32  1  0.750000  0.542058  0.763360  1
  Te  Te33  1  0.250000  0.457942  0.236640  1
  Te  Te34  1  0.750000  0.957942  0.263360  1
  Te  Te35  1  0.750000  0.229482  0.872854  1
