# generated using pymatgen
data_Cd3Ir2Pd2PbO14
_symmetry_space_group_name_H-M   'P 1'
_cell_length_a   7.25072474
_cell_length_b   7.22004490
_cell_length_c   7.28028316
_cell_angle_alpha   60.27333922
_cell_angle_beta   60.42070490
_cell_angle_gamma   60.13987970
_symmetry_Int_Tables_number   1
_chemical_formula_structural   Cd3Ir2Pd2PbO14
_chemical_formula_sum   'Cd3 Ir2 Pd2 Pb1 O14'
_cell_volume   271.18964606
_cell_formula_units_Z   1
loop_
 _symmetry_equiv_pos_site_id
 _symmetry_equiv_pos_as_xyz
  1  'x, y, z'
loop_
 _atom_site_type_symbol
 _atom_site_label
 _atom_site_symmetry_multiplicity
 _atom_site_fract_x
 _atom_site_fract_y
 _atom_site_fract_z
 _atom_site_occupancy
  Cd  Cd0  1  0.625000  0.125000  0.125000  1
  Cd  Cd1  1  0.125000  0.625000  0.125000  1
  Cd  Cd2  1  0.125000  0.125000  0.125000  1
  Ir  Ir3  1  0.125000  0.625000  0.625000  1
  Ir  Ir4  1  0.625000  0.625000  0.125000  1
  Pd  Pd5  1  0.625000  0.125000  0.625000  1
  Pd  Pd6  1  0.625000  0.625000  0.625000  1
  Pb  Pb7  1  0.125000  0.125000  0.625000  1
  O  O8  1  0.713969  0.692870  0.290867  1
  O  O9  1  0.289045  0.296610  0.705864  1
  O  O10  1  0.712414  0.285906  0.715773  1
  O  O11  1  0.306594  0.691143  0.311120  1
  O  O12  1  0.289045  0.708482  0.705864  1
  O  O13  1  0.713969  0.302295  0.290867  1
  O  O14  1  0.536031  0.557130  0.959133  1
  O  O15  1  0.960955  0.953390  0.544136  1
  O  O16  1  0.537586  0.964094  0.534227  1
  O  O17  1  0.943406  0.558857  0.938880  1
  O  O18  1  0.960955  0.541518  0.544136  1
  O  O19  1  0.536031  0.947705  0.959133  1
  O  O20  1  0.246454  0.251215  0.251117  1
  O  O21  1  0.003546  0.998785  0.998883  1
