# generated using pymatgen
data_Ho7Tm3In8IrPt3
_symmetry_space_group_name_H-M   'P 1'
_cell_length_a   3.61166600
_cell_length_b   8.12241501
_cell_length_c   18.17549021
_cell_angle_alpha   90.00630350
_cell_angle_beta   90.00000000
_cell_angle_gamma   90.00000000
_symmetry_Int_Tables_number   1
_chemical_formula_structural   Ho7Tm3In8IrPt3
_chemical_formula_sum   'Ho7 Tm3 In8 Ir1 Pt3'
_cell_volume   533.18618313
_cell_formula_units_Z   1
loop_
 _symmetry_equiv_pos_site_id
 _symmetry_equiv_pos_as_xyz
  1  'x, y, z'
loop_
 _atom_site_type_symbol
 _atom_site_label
 _atom_site_symmetry_multiplicity
 _atom_site_fract_x
 _atom_site_fract_y
 _atom_site_fract_z
 _atom_site_occupancy
  Ho  Ho0  1  0.000000  0.616156  0.086138  1
  Ho  Ho1  1  0.000000  0.234527  0.222740  1
  Ho  Ho2  1  0.000000  0.758739  0.779640  1
  Ho  Ho3  1  0.000000  0.258284  0.721296  1
  Ho  Ho4  1  0.000000  0.750950  0.278441  1
  Ho  Ho5  1  0.000000  0.000110  0.000121  1
  Ho  Ho6  1  0.000000  0.500921  0.499270  1
  Tm  Tm7  1  0.000000  0.113810  0.411972  1
  Tm  Tm8  1  0.000000  0.884185  0.585190  1
  Tm  Tm9  1  0.000000  0.384231  0.915125  1
  In  In10  1  0.500000  0.423528  0.351156  1
  In  In11  1  0.500000  0.577310  0.648504  1
  In  In12  1  0.500000  0.077134  0.851907  1
  In  In13  1  0.500000  0.927037  0.148425  1
  In  In14  1  0.500000  0.291372  0.066943  1
  In  In15  1  0.500000  0.707731  0.933800  1
  In  In16  1  0.500000  0.208614  0.566440  1
  In  In17  1  0.500000  0.792824  0.431574  1
  Ir  Ir18  1  0.500000  0.020005  0.304274  1
  Pt  Pt19  1  0.500000  0.976026  0.695958  1
  Pt  Pt20  1  0.500000  0.476294  0.804308  1
  Pt  Pt21  1  0.500000  0.520213  0.196779  1
