# generated using pymatgen
data_Lu12Th4MgZn3Rh4
_symmetry_space_group_name_H-M   'P 1'
_cell_length_a   9.48255309
_cell_length_b   9.51263045
_cell_length_c   9.51266400
_cell_angle_alpha   60.00023720
_cell_angle_beta   59.89499416
_cell_angle_gamma   59.89477439
_symmetry_Int_Tables_number   1
_chemical_formula_structural   Lu12Th4MgZn3Rh4
_chemical_formula_sum   'Lu12 Th4 Mg1 Zn3 Rh4'
_cell_volume   605.78985456
_cell_formula_units_Z   1
loop_
 _symmetry_equiv_pos_site_id
 _symmetry_equiv_pos_as_xyz
  1  'x, y, z'
loop_
 _atom_site_type_symbol
 _atom_site_label
 _atom_site_symmetry_multiplicity
 _atom_site_fract_x
 _atom_site_fract_y
 _atom_site_fract_z
 _atom_site_occupancy
  Lu  Lu0  1  0.812966  0.187255  0.187252  1
  Lu  Lu1  1  0.185697  0.814199  0.814197  1
  Lu  Lu2  1  0.185699  0.814195  0.185909  1
  Lu  Lu3  1  0.812971  0.187253  0.812527  1
  Lu  Lu4  1  0.185700  0.185909  0.814194  1
  Lu  Lu5  1  0.812969  0.812526  0.187252  1
  Lu  Lu6  1  0.928710  0.567414  0.567414  1
  Lu  Lu7  1  0.566556  0.932950  0.932948  1
  Lu  Lu8  1  0.566557  0.932950  0.567546  1
  Lu  Lu9  1  0.928711  0.567415  0.936462  1
  Lu  Lu10  1  0.566556  0.567546  0.932950  1
  Lu  Lu11  1  0.928710  0.936463  0.567414  1
  Th  Th12  1  0.356181  0.352629  0.352636  1
  Th  Th13  1  0.356177  0.352624  0.938570  1
  Th  Th14  1  0.356188  0.938558  0.352622  1
  Th  Th15  1  0.930095  0.356634  0.356629  1
  Mg  Mg16  1  0.270698  0.576433  0.576436  1
  Zn  Zn17  1  0.583516  0.587239  0.587238  1
  Zn  Zn18  1  0.583517  0.587238  0.242008  1
  Zn  Zn19  1  0.583517  0.242009  0.587237  1
  Rh  Rh20  1  0.142574  0.144150  0.144148  1
  Rh  Rh21  1  0.142574  0.144148  0.569129  1
  Rh  Rh22  1  0.142575  0.569129  0.144148  1
  Rh  Rh23  1  0.570587  0.143138  0.143137  1
