# generated using pymatgen
data_DyY19Ir11Au
_symmetry_space_group_name_H-M   'P 1'
_cell_length_a   11.00405867
_cell_length_b   11.00469819
_cell_length_c   6.38140724
_cell_angle_alpha   89.99864559
_cell_angle_beta   89.98855091
_cell_angle_gamma   89.44437560
_symmetry_Int_Tables_number   1
_chemical_formula_structural   DyY19Ir11Au
_chemical_formula_sum   'Dy1 Y19 Ir11 Au1'
_cell_volume   772.72873872
_cell_formula_units_Z   1
loop_
 _symmetry_equiv_pos_site_id
 _symmetry_equiv_pos_as_xyz
  1  'x, y, z'
loop_
 _atom_site_type_symbol
 _atom_site_label
 _atom_site_symmetry_multiplicity
 _atom_site_fract_x
 _atom_site_fract_y
 _atom_site_fract_z
 _atom_site_occupancy
  Dy  Dy0  1  0.500845  0.501158  0.501268  1
  Y  Y1  1  0.289930  0.088069  0.377369  1
  Y  Y2  1  0.293141  0.910555  0.876756  1
  Y  Y3  1  0.703980  0.084455  0.865890  1
  Y  Y4  1  0.705065  0.904152  0.381066  1
  Y  Y5  1  0.588103  0.790863  0.879921  1
  Y  Y6  1  0.579101  0.210045  0.378496  1
  Y  Y7  1  0.410527  0.791019  0.378483  1
  Y  Y8  1  0.409443  0.207841  0.878573  1
  Y  Y9  1  0.209156  0.411992  0.620100  1
  Y  Y10  1  0.208960  0.589543  0.121535  1
  Y  Y11  1  0.789985  0.420825  0.121524  1
  Y  Y12  1  0.792128  0.590476  0.621380  1
  Y  Y13  1  0.911897  0.710100  0.122673  1
  Y  Y14  1  0.915594  0.296028  0.634052  1
  Y  Y15  1  0.089388  0.706860  0.623186  1
  Y  Y16  1  0.095920  0.294914  0.118989  1
  Y  Y17  1  0.003133  0.995645  0.501301  1
  Y  Y18  1  0.004335  0.996880  0.998730  1
  Y  Y19  1  0.498844  0.499111  0.998751  1
  Ir  Ir20  1  0.846739  0.848230  0.749561  1
  Ir  Ir21  1  0.151765  0.153258  0.750413  1
  Ir  Ir22  1  0.155609  0.844393  0.250000  1
  Ir  Ir23  1  0.655190  0.344865  0.749513  1
  Ir  Ir24  1  0.653483  0.651805  0.248786  1
  Ir  Ir25  1  0.348221  0.346505  0.252153  1
  Ir  Ir26  1  0.346521  0.653448  0.749503  1
  Ir  Ir27  1  0.500371  0.999944  0.126493  1
  Ir  Ir28  1  0.499342  0.000244  0.622257  1
  Ir  Ir29  1  0.999728  0.500667  0.877776  1
  Ir  Ir30  1  0.000050  0.499627  0.373485  1
  Au  Au31  1  0.843509  0.156483  0.250017  1
