# generated using pymatgen
data_Hf6Co4Si5Ge
_symmetry_space_group_name_H-M   'P 1'
_cell_length_a   3.82657500
_cell_length_b   5.35252111
_cell_length_c   12.86248000
_cell_angle_alpha   90.00000000
_cell_angle_beta   90.00000000
_cell_angle_gamma   110.94401031
_symmetry_Int_Tables_number   1
_chemical_formula_structural   Hf6Co4Si5Ge
_chemical_formula_sum   'Hf6 Co4 Si5 Ge1'
_cell_volume   246.04114570
_cell_formula_units_Z   1
loop_
 _symmetry_equiv_pos_site_id
 _symmetry_equiv_pos_as_xyz
  1  'x, y, z'
loop_
 _atom_site_type_symbol
 _atom_site_label
 _atom_site_symmetry_multiplicity
 _atom_site_fract_x
 _atom_site_fract_y
 _atom_site_fract_z
 _atom_site_occupancy
  Hf  Hf0  1  0.074527  0.149053  0.386779  1
  Hf  Hf1  1  0.924590  0.849181  0.617122  1
  Hf  Hf2  1  0.074527  0.149053  0.113221  1
  Hf  Hf3  1  0.924590  0.849181  0.882878  1
  Hf  Hf4  1  0.364962  0.729924  0.250000  1
  Hf  Hf5  1  0.635683  0.271367  0.750000  1
  Co  Co6  1  0.220985  0.441970  0.918286  1
  Co  Co7  1  0.780933  0.561866  0.076825  1
  Co  Co8  1  0.220985  0.441970  0.581714  1
  Co  Co9  1  0.780933  0.561866  0.423175  1
  Si  Si10  1  0.390778  0.781555  0.458148  1
  Si  Si11  1  0.609407  0.218816  0.543522  1
  Si  Si12  1  0.390778  0.781555  0.041852  1
  Si  Si13  1  0.609407  0.218816  0.956478  1
  Si  Si14  1  0.334592  0.669184  0.750000  1
  Ge  Ge15  1  0.662323  0.324645  0.250000  1
