# generated using pymatgen
data_ReOsSe4
_symmetry_space_group_name_H-M   'P 1'
_cell_length_a   6.78503779
_cell_length_b   7.07788180
_cell_length_c   7.27146411
_cell_angle_alpha   91.03560677
_cell_angle_beta   105.35886382
_cell_angle_gamma   121.43064005
_symmetry_Int_Tables_number   1
_chemical_formula_structural   ReOsSe4
_chemical_formula_sum   'Re2 Os2 Se8'
_cell_volume   282.09885974
_cell_formula_units_Z   2
loop_
 _symmetry_equiv_pos_site_id
 _symmetry_equiv_pos_as_xyz
  1  'x, y, z'
loop_
 _atom_site_type_symbol
 _atom_site_label
 _atom_site_symmetry_multiplicity
 _atom_site_fract_x
 _atom_site_fract_y
 _atom_site_fract_z
 _atom_site_occupancy
  Re  Re0  1  0.499554  0.298088  0.499301  1
  Re  Re1  1  0.500446  0.701912  0.500699  1
  Os  Os2  1  0.065029  0.282090  0.477760  1
  Os  Os3  1  0.934971  0.717910  0.522240  1
  Se  Se4  1  0.258359  0.375071  0.223213  1
  Se  Se5  1  0.741641  0.624929  0.776787  1
  Se  Se6  1  0.761615  0.371117  0.284888  1
  Se  Se7  1  0.238385  0.628883  0.715112  1
  Se  Se8  1  0.238115  0.116961  0.714445  1
  Se  Se9  1  0.761885  0.883039  0.285555  1
  Se  Se10  1  0.757770  0.132247  0.672903  1
  Se  Se11  1  0.242230  0.867753  0.327097  1
