# generated using pymatgen
data_BaIrOF5
_symmetry_space_group_name_H-M   'P 1'
_cell_length_a   5.01509800
_cell_length_b   10.45584500
_cell_length_c   10.21636400
_cell_angle_alpha   90.00000000
_cell_angle_beta   90.00000000
_cell_angle_gamma   90.00000000
_symmetry_Int_Tables_number   1
_chemical_formula_structural   BaIrOF5
_chemical_formula_sum   'Ba4 Ir4 O4 F20'
_cell_volume   535.71637145
_cell_formula_units_Z   4
loop_
 _symmetry_equiv_pos_site_id
 _symmetry_equiv_pos_as_xyz
  1  'x, y, z'
loop_
 _atom_site_type_symbol
 _atom_site_label
 _atom_site_symmetry_multiplicity
 _atom_site_fract_x
 _atom_site_fract_y
 _atom_site_fract_z
 _atom_site_occupancy
  Ba  Ba0  1  0.491721  0.000000  0.750000  1
  Ba  Ba1  1  0.508279  0.500000  0.250000  1
  Ba  Ba2  1  0.508279  0.000000  0.250000  1
  Ba  Ba3  1  0.491721  0.500000  0.750000  1
  Ir  Ir4  1  0.128953  0.250000  0.438966  1
  Ir  Ir5  1  0.871047  0.750000  0.561034  1
  Ir  Ir6  1  0.128953  0.750000  0.061034  1
  Ir  Ir7  1  0.871047  0.250000  0.938966  1
  O  O8  1  0.858812  0.250000  0.552525  1
  O  O9  1  0.141188  0.750000  0.447475  1
  O  O10  1  0.858812  0.750000  0.947475  1
  O  O11  1  0.141188  0.250000  0.052525  1
  F  F12  1  0.560415  0.750000  0.690336  1
  F  F13  1  0.439585  0.250000  0.309664  1
  F  F14  1  0.560415  0.250000  0.809664  1
  F  F15  1  0.439585  0.750000  0.190336  1
  F  F16  1  0.014855  0.109950  0.828215  1
  F  F17  1  0.985145  0.609950  0.171785  1
  F  F18  1  0.014855  0.890050  0.671785  1
  F  F19  1  0.985145  0.390050  0.328215  1
  F  F20  1  0.985145  0.890050  0.171785  1
  F  F21  1  0.014855  0.390050  0.828215  1
  F  F22  1  0.985145  0.109950  0.328215  1
  F  F23  1  0.014855  0.609950  0.671785  1
  F  F24  1  0.323481  0.109283  0.527402  1
  F  F25  1  0.676519  0.609283  0.472598  1
  F  F26  1  0.323481  0.890717  0.972598  1
  F  F27  1  0.676519  0.390717  0.027402  1
  F  F28  1  0.676519  0.890717  0.472598  1
  F  F29  1  0.323481  0.390717  0.527402  1
  F  F30  1  0.676519  0.109283  0.027402  1
  F  F31  1  0.323481  0.609283  0.972598  1
