# generated using pymatgen
data_Ho11Th5(MgRu)4
_symmetry_space_group_name_H-M   'P 1'
_cell_length_a   9.70846944
_cell_length_b   9.77273670
_cell_length_c   9.77273697
_cell_angle_alpha   59.75047008
_cell_angle_beta   60.21730596
_cell_angle_gamma   60.21730613
_symmetry_Int_Tables_number   1
_chemical_formula_structural   Ho11Th5(MgRu)4
_chemical_formula_sum   'Ho11 Th5 Mg4 Ru4'
_cell_volume   656.53194790
_cell_formula_units_Z   1
loop_
 _symmetry_equiv_pos_site_id
 _symmetry_equiv_pos_as_xyz
  1  'x, y, z'
loop_
 _atom_site_type_symbol
 _atom_site_label
 _atom_site_symmetry_multiplicity
 _atom_site_fract_x
 _atom_site_fract_y
 _atom_site_fract_z
 _atom_site_occupancy
  Ho  Ho0  1  0.186295  0.813705  0.813705  1
  Ho  Ho1  1  0.191030  0.809654  0.185410  1
  Ho  Ho2  1  0.813906  0.185410  0.809654  1
  Ho  Ho3  1  0.191030  0.185410  0.809654  1
  Ho  Ho4  1  0.813906  0.809654  0.185410  1
  Ho  Ho5  1  0.933013  0.566987  0.566987  1
  Ho  Ho6  1  0.564425  0.935575  0.935575  1
  Ho  Ho7  1  0.563397  0.935468  0.565123  1
  Ho  Ho8  1  0.936012  0.565123  0.935468  1
  Ho  Ho9  1  0.563397  0.565123  0.935468  1
  Ho  Ho10  1  0.936012  0.935468  0.565123  1
  Th  Th11  1  0.342158  0.348397  0.348397  1
  Th  Th12  1  0.346562  0.347677  0.959198  1
  Th  Th13  1  0.346562  0.959198  0.347677  1
  Th  Th14  1  0.961047  0.348397  0.348397  1
  Th  Th15  1  0.815904  0.184096  0.184096  1
  Mg  Mg16  1  0.581465  0.579605  0.579605  1
  Mg  Mg17  1  0.579819  0.581668  0.258695  1
  Mg  Mg18  1  0.579819  0.258695  0.581668  1
  Mg  Mg19  1  0.259327  0.579605  0.579605  1
  Ru  Ru20  1  0.129626  0.147130  0.147130  1
  Ru  Ru21  1  0.144587  0.142705  0.568121  1
  Ru  Ru22  1  0.144587  0.568121  0.142705  1
  Ru  Ru23  1  0.576113  0.147130  0.147130  1
