# generated using pymatgen
data_YHo7Nb12Si15Ge
_symmetry_space_group_name_H-M   'P 1'
_cell_length_a   6.87157301
_cell_length_b   7.06702529
_cell_length_c   13.43288909
_cell_angle_alpha   90.03595293
_cell_angle_beta   89.92293946
_cell_angle_gamma   90.01380384
_symmetry_Int_Tables_number   1
_chemical_formula_structural   YHo7Nb12Si15Ge
_chemical_formula_sum   'Y1 Ho7 Nb12 Si15 Ge1'
_cell_volume   652.32158375
_cell_formula_units_Z   1
loop_
 _symmetry_equiv_pos_site_id
 _symmetry_equiv_pos_as_xyz
  1  'x, y, z'
loop_
 _atom_site_type_symbol
 _atom_site_label
 _atom_site_symmetry_multiplicity
 _atom_site_fract_x
 _atom_site_fract_y
 _atom_site_fract_z
 _atom_site_occupancy
  Y  Y0  1  0.502395  0.328512  0.095562  1
  Ho  Ho1  1  0.001270  0.171281  0.404018  1
  Ho  Ho2  1  0.500737  0.673679  0.596386  1
  Ho  Ho3  1  0.997719  0.828092  0.904678  1
  Ho  Ho4  1  0.497524  0.671723  0.904467  1
  Ho  Ho5  1  0.997482  0.829073  0.595887  1
  Ho  Ho6  1  0.502902  0.326913  0.403461  1
  Ho  Ho7  1  0.002230  0.171962  0.095424  1
  Nb  Nb8  1  0.664910  0.008318  0.750166  1
  Nb  Nb9  1  0.164822  0.490850  0.751838  1
  Nb  Nb10  1  0.334683  0.991530  0.249892  1
  Nb  Nb11  1  0.835216  0.508706  0.249959  1
  Nb  Nb12  1  0.836594  0.324548  0.625828  1
  Nb  Nb13  1  0.338117  0.174677  0.874630  1
  Nb  Nb14  1  0.161515  0.675283  0.125337  1
  Nb  Nb15  1  0.661348  0.825444  0.374177  1
  Nb  Nb16  1  0.160024  0.677588  0.373001  1
  Nb  Nb17  1  0.660949  0.824884  0.125302  1
  Nb  Nb18  1  0.838254  0.324834  0.874714  1
  Nb  Nb19  1  0.340707  0.171358  0.626665  1
  Si  Si20  1  0.797484  0.626905  0.750171  1
  Si  Si21  1  0.296473  0.872006  0.750532  1
  Si  Si22  1  0.202620  0.373154  0.249919  1
  Si  Si23  1  0.703362  0.126598  0.249809  1
  Si  Si24  1  0.542993  0.377043  0.750358  1
  Si  Si25  1  0.043021  0.123268  0.750074  1
  Si  Si26  1  0.456540  0.623341  0.250057  1
  Si  Si27  1  0.955989  0.877435  0.249088  1
  Si  Si28  1  0.664551  0.037364  0.540028  1
  Si  Si29  1  0.163580  0.463086  0.959575  1
  Si  Si30  1  0.335595  0.962761  0.040294  1
  Si  Si31  1  0.832131  0.537753  0.458841  1
  Si  Si32  1  0.335486  0.962681  0.459704  1
  Si  Si33  1  0.836753  0.537313  0.040490  1
  Si  Si34  1  0.664095  0.036641  0.959486  1
  Ge  Ge35  1  0.169930  0.463399  0.540175  1
