# generated using pymatgen
data_NdBiMo2O7
_symmetry_space_group_name_H-M   'P 1'
_cell_length_a   7.51960154
_cell_length_b   7.53440352
_cell_length_c   7.59129073
_cell_angle_alpha   120.36604818
_cell_angle_beta   120.13470532
_cell_angle_gamma   89.97236568
_symmetry_Int_Tables_number   1
_chemical_formula_structural   NdBiMo2O7
_chemical_formula_sum   'Nd2 Bi2 Mo4 O14'
_cell_volume   301.87681026
_cell_formula_units_Z   2
loop_
 _symmetry_equiv_pos_site_id
 _symmetry_equiv_pos_as_xyz
  1  'x, y, z'
loop_
 _atom_site_type_symbol
 _atom_site_label
 _atom_site_symmetry_multiplicity
 _atom_site_fract_x
 _atom_site_fract_y
 _atom_site_fract_z
 _atom_site_occupancy
  Nd  Nd0  1  0.375000  0.625000  0.750000  1
  Nd  Nd1  1  0.375000  0.625000  0.250000  1
  Bi  Bi2  1  0.875000  0.625000  0.250000  1
  Bi  Bi3  1  0.375000  0.125000  0.750000  1
  Mo  Mo4  1  0.875000  0.625000  0.750000  1
  Mo  Mo5  1  0.375000  0.125000  0.250000  1
  Mo  Mo6  1  0.875000  0.125000  0.250000  1
  Mo  Mo7  1  0.875000  0.125000  0.750000  1
  O  O8  1  0.785018  0.198236  0.996541  1
  O  O9  1  0.545210  0.463304  0.497074  1
  O  O10  1  0.205313  0.208740  0.999807  1
  O  O11  1  0.958554  0.456865  0.501681  1
  O  O12  1  0.800633  0.794798  0.583907  1
  O  O13  1  0.536761  0.037337  0.086005  1
  O  O14  1  0.251624  0.748046  0.500409  1
  O  O15  1  0.949367  0.455202  0.916093  1
  O  O16  1  0.964982  0.051764  0.503459  1
  O  O17  1  0.544687  0.041260  0.500193  1
  O  O18  1  0.213239  0.212663  0.413995  1
  O  O19  1  0.498376  0.501954  0.999591  1
  O  O20  1  0.791446  0.793135  0.998319  1
  O  O21  1  0.204790  0.786696  0.002926  1
