# generated using pymatgen
data_Gd5Tm(SnIr)6
_symmetry_space_group_name_H-M   'P 1'
_cell_length_a   7.51816000
_cell_length_b   7.45290865
_cell_length_c   7.89206600
_cell_angle_alpha   90.00000000
_cell_angle_beta   90.00000000
_cell_angle_gamma   120.33402565
_symmetry_Int_Tables_number   1
_chemical_formula_structural   Gd5Tm(SnIr)6
_chemical_formula_sum   'Gd5 Tm1 Sn6 Ir6'
_cell_volume   381.66915517
_cell_formula_units_Z   1
loop_
 _symmetry_equiv_pos_site_id
 _symmetry_equiv_pos_as_xyz
  1  'x, y, z'
loop_
 _atom_site_type_symbol
 _atom_site_label
 _atom_site_symmetry_multiplicity
 _atom_site_fract_x
 _atom_site_fract_y
 _atom_site_fract_z
 _atom_site_occupancy
  Gd  Gd0  1  0.408270  0.000974  0.250000  1
  Gd  Gd1  1  0.593344  0.591940  0.750000  1
  Gd  Gd2  1  0.593059  0.593487  0.250000  1
  Gd  Gd3  1  0.998381  0.406029  0.250000  1
  Gd  Gd4  1  0.003675  0.409009  0.750000  1
  Tm  Tm5  1  0.402068  0.998888  0.750000  1
  Sn  Sn6  1  0.258944  0.258708  0.499471  1
  Sn  Sn7  1  0.258944  0.258708  0.000529  1
  Sn  Sn8  1  0.742616  0.000153  0.995824  1
  Sn  Sn9  1  0.999681  0.741096  0.499547  1
  Sn  Sn10  1  0.742616  0.000153  0.504176  1
  Sn  Sn11  1  0.999681  0.741096  0.000453  1
  Ir  Ir12  1  0.663106  0.328317  0.504448  1
  Ir  Ir13  1  0.663106  0.328317  0.995552  1
  Ir  Ir14  1  0.334460  0.671557  0.998270  1
  Ir  Ir15  1  0.334460  0.671557  0.501730  1
  Ir  Ir16  1  0.004552  0.999927  0.750000  1
  Ir  Ir17  1  0.999042  0.000084  0.250000  1
