# generated using pymatgen
data_Tb2Tm2Ga17SiRh6
_symmetry_space_group_name_H-M   'P 1'
_cell_length_a   7.55193157
_cell_length_b   7.52456044
_cell_length_c   9.47318900
_cell_angle_alpha   90.05838040
_cell_angle_beta   89.87640924
_cell_angle_gamma   119.89139846
_symmetry_Int_Tables_number   1
_chemical_formula_structural   Tb2Tm2Ga17SiRh6
_chemical_formula_sum   'Tb2 Tm2 Ga17 Si1 Rh6'
_cell_volume   466.70153603
_cell_formula_units_Z   1
loop_
 _symmetry_equiv_pos_site_id
 _symmetry_equiv_pos_as_xyz
  1  'x, y, z'
loop_
 _atom_site_type_symbol
 _atom_site_label
 _atom_site_symmetry_multiplicity
 _atom_site_fract_x
 _atom_site_fract_y
 _atom_site_fract_z
 _atom_site_occupancy
  Tb  Tb0  1  0.996103  0.663746  0.247741  1
  Tb  Tb1  1  0.003209  0.330938  0.752072  1
  Tm  Tm2  1  0.674274  0.003363  0.247697  1
  Tm  Tm3  1  0.329905  0.002397  0.749471  1
  Ga  Ga4  1  0.127760  0.127550  0.250628  1
  Ga  Ga5  1  0.872687  0.874412  0.750433  1
  Ga  Ga6  1  0.999385  0.671571  0.917970  1
  Ga  Ga7  1  0.000401  0.666082  0.579792  1
  Ga  Ga8  1  0.334640  0.998754  0.419937  1
  Ga  Ga9  1  0.000305  0.334085  0.421618  1
  Ga  Ga10  1  0.664594  0.999473  0.579346  1
  Ga  Ga11  1  0.657902  0.994631  0.918470  1
  Ga  Ga12  1  0.334094  0.998619  0.080263  1
  Ga  Ga13  1  0.333558  0.331891  0.565945  1
  Ga  Ga14  1  0.668417  0.669655  0.433808  1
  Ga  Ga15  1  0.666980  0.669288  0.068135  1
  Ga  Ga16  1  0.338939  0.332400  0.932840  1
  Ga  Ga17  1  0.339618  0.547954  0.251071  1
  Ga  Ga18  1  0.662632  0.450799  0.751069  1
  Ga  Ga19  1  0.546604  0.337643  0.250542  1
  Ga  Ga20  1  0.450926  0.660041  0.750271  1
  Si  Si21  1  0.000457  0.333766  0.074866  1
  Rh  Rh22  1  0.684470  0.329865  0.003913  1
  Rh  Rh23  1  0.314239  0.657703  0.001271  1
  Rh  Rh24  1  0.328125  0.671595  0.500001  1
  Rh  Rh25  1  0.671967  0.328313  0.499820  1
  Rh  Rh26  1  0.997845  0.013165  0.001137  1
  Rh  Rh27  1  0.999964  0.000301  0.499870  1
