# generated using pymatgen
data_Pa3Ni3Ge3Sb
_symmetry_space_group_name_H-M   'P 1'
_cell_length_a   7.90176168
_cell_length_b   7.88230092
_cell_length_c   7.87979059
_cell_angle_alpha   109.42310113
_cell_angle_beta   109.52323723
_cell_angle_gamma   109.53018478
_symmetry_Int_Tables_number   1
_chemical_formula_structural   Pa3Ni3Ge3Sb
_chemical_formula_sum   'Pa6 Ni6 Ge6 Sb2'
_cell_volume   377.51306566
_cell_formula_units_Z   2
loop_
 _symmetry_equiv_pos_site_id
 _symmetry_equiv_pos_as_xyz
  1  'x, y, z'
loop_
 _atom_site_type_symbol
 _atom_site_label
 _atom_site_symmetry_multiplicity
 _atom_site_fract_x
 _atom_site_fract_y
 _atom_site_fract_z
 _atom_site_occupancy
  Pa  Pa0  1  0.628943  0.378163  0.240882  1
  Pa  Pa1  1  0.367734  0.247884  0.629906  1
  Pa  Pa2  1  0.126601  0.747230  0.869863  1
  Pa  Pa3  1  0.756738  0.877366  0.130137  1
  Pa  Pa4  1  0.237828  0.617978  0.370094  1
  Pa  Pa5  1  0.888061  0.137280  0.759118  1
  Ni  Ni6  1  0.874070  0.248252  0.124097  1
  Ni  Ni7  1  0.367022  0.624473  0.753123  1
  Ni  Ni8  1  0.628159  0.745759  0.367275  1
  Ni  Ni9  1  0.760884  0.378484  0.632725  1
  Ni  Ni10  1  0.249973  0.124155  0.875903  1
  Ni  Ni11  1  0.113899  0.871350  0.246877  1
  Ge  Ge12  1  0.499896  0.998404  0.832637  1
  Ge  Ge13  1  0.167259  0.165767  0.167363  1
  Ge  Ge14  1  0.833222  0.497903  0.996785  1
  Ge  Ge15  1  0.000785  0.835407  0.501519  1
  Ge  Ge16  1  0.336437  0.501118  0.003215  1
  Ge  Ge17  1  0.999266  0.333888  0.498481  1
  Sb  Sb18  1  0.498719  0.001678  0.334216  1
  Sb  Sb19  1  0.664503  0.667461  0.665784  1
