# generated using pymatgen
data_TmPa5(Al3Os)8
_symmetry_space_group_name_H-M   'P 1'
_cell_length_a   8.87954811
_cell_length_b   8.87954824
_cell_length_c   9.42180900
_cell_angle_alpha   90.00000000
_cell_angle_beta   90.00000000
_cell_angle_gamma   119.98203938
_symmetry_Int_Tables_number   1
_chemical_formula_structural   TmPa5(Al3Os)8
_chemical_formula_sum   'Tm1 Pa5 Al24 Os8'
_cell_volume   643.46545246
_cell_formula_units_Z   1
loop_
 _symmetry_equiv_pos_site_id
 _symmetry_equiv_pos_as_xyz
  1  'x, y, z'
loop_
 _atom_site_type_symbol
 _atom_site_label
 _atom_site_symmetry_multiplicity
 _atom_site_fract_x
 _atom_site_fract_y
 _atom_site_fract_z
 _atom_site_occupancy
  Tm  Tm0  1  0.802289  0.197711  0.750000  1
  Pa  Pa1  1  0.196401  0.394142  0.250000  1
  Pa  Pa2  1  0.801795  0.607427  0.750000  1
  Pa  Pa3  1  0.605858  0.803599  0.250000  1
  Pa  Pa4  1  0.392573  0.198205  0.750000  1
  Pa  Pa5  1  0.197795  0.802205  0.250000  1
  Al  Al6  1  0.334346  0.665654  0.015648  1
  Al  Al7  1  0.669269  0.330731  0.978097  1
  Al  Al8  1  0.669269  0.330731  0.521903  1
  Al  Al9  1  0.334346  0.665654  0.484352  1
  Al  Al10  1  0.160402  0.323876  0.578868  1
  Al  Al11  1  0.837602  0.675405  0.421236  1
  Al  Al12  1  0.676124  0.839598  0.578868  1
  Al  Al13  1  0.837602  0.675405  0.078764  1
  Al  Al14  1  0.324595  0.162398  0.421236  1
  Al  Al15  1  0.160402  0.323876  0.921132  1
  Al  Al16  1  0.161908  0.838092  0.580883  1
  Al  Al17  1  0.324595  0.162398  0.078764  1
  Al  Al18  1  0.837702  0.162298  0.423369  1
  Al  Al19  1  0.676124  0.839598  0.921132  1
  Al  Al20  1  0.837702  0.162298  0.076631  1
  Al  Al21  1  0.161908  0.838092  0.919117  1
  Al  Al22  1  0.564322  0.127384  0.250000  1
  Al  Al23  1  0.441568  0.879348  0.750000  1
  Al  Al24  1  0.872616  0.435678  0.250000  1
  Al  Al25  1  0.120652  0.558432  0.750000  1
  Al  Al26  1  0.562903  0.437097  0.250000  1
  Al  Al27  1  0.436087  0.563913  0.750000  1
  Al  Al28  1  0.999882  0.000118  0.250000  1
  Al  Al29  1  0.998702  0.001298  0.750000  1
  Os  Os30  1  0.496893  0.996467  0.003795  1
  Os  Os31  1  0.003533  0.503107  0.003795  1
  Os  Os32  1  0.496893  0.996467  0.496205  1
  Os  Os33  1  0.501017  0.498983  0.999125  1
  Os  Os34  1  0.003533  0.503107  0.496205  1
  Os  Os35  1  0.501017  0.498983  0.500875  1
  Os  Os36  1  0.999888  0.000112  0.000173  1
  Os  Os37  1  0.999888  0.000112  0.499827  1
