# generated using pymatgen
data_Ti11NbSn9Sb
_symmetry_space_group_name_H-M   'P 1'
_cell_length_a   9.28128900
_cell_length_b   9.36758955
_cell_length_c   5.70600441
_cell_angle_alpha   90.32978533
_cell_angle_beta   90.00000000
_cell_angle_gamma   119.69571577
_symmetry_Int_Tables_number   1
_chemical_formula_structural   Ti11NbSn9Sb
_chemical_formula_sum   'Ti11 Nb1 Sn9 Sb1'
_cell_volume   430.93604509
_cell_formula_units_Z   1
loop_
 _symmetry_equiv_pos_site_id
 _symmetry_equiv_pos_as_xyz
  1  'x, y, z'
loop_
 _atom_site_type_symbol
 _atom_site_label
 _atom_site_symmetry_multiplicity
 _atom_site_fract_x
 _atom_site_fract_y
 _atom_site_fract_z
 _atom_site_occupancy
  Ti  Ti0  1  0.841513  0.683026  0.749992  1
  Ti  Ti1  1  0.158799  0.844834  0.253903  1
  Ti  Ti2  1  0.686035  0.844834  0.253903  1
  Ti  Ti3  1  0.309734  0.157802  0.746342  1
  Ti  Ti4  1  0.848068  0.157802  0.746342  1
  Ti  Ti5  1  0.155905  0.311809  0.250028  1
  Ti  Ti6  1  0.498217  0.500212  0.999370  1
  Ti  Ti7  1  0.001994  0.500212  0.999370  1
  Ti  Ti8  1  0.002253  0.500440  0.500479  1
  Ti  Ti9  1  0.500161  0.000323  0.000608  1
  Ti  Ti10  1  0.498188  0.500440  0.500479  1
  Nb  Nb11  1  0.499915  0.999832  0.498821  1
  Sn  Sn12  1  0.799297  0.206727  0.246264  1
  Sn  Sn13  1  0.407430  0.206727  0.246264  1
  Sn  Sn14  1  0.596243  0.797608  0.754377  1
  Sn  Sn15  1  0.201366  0.797608  0.754377  1
  Sn  Sn16  1  0.794186  0.588372  0.249929  1
  Sn  Sn17  1  0.666425  0.332848  0.749961  1
  Sn  Sn18  1  0.334109  0.668218  0.249492  1
  Sn  Sn19  1  0.997696  0.995392  0.499114  1
  Sn  Sn20  1  0.997786  0.995573  0.000659  1
  Sb  Sb21  1  0.204681  0.409361  0.749924  1
