# generated using pymatgen
data_Tm6As(P3Rh5)4
_symmetry_space_group_name_H-M   'P 1'
_cell_length_a   13.36999500
_cell_length_b   13.36999311
_cell_length_c   3.89517800
_cell_angle_alpha   90.00000000
_cell_angle_beta   90.00000000
_cell_angle_gamma   119.99999726
_symmetry_Int_Tables_number   1
_chemical_formula_structural   Tm6As(P3Rh5)4
_chemical_formula_sum   'Tm6 As1 P12 Rh20'
_cell_volume   603.00426042
_cell_formula_units_Z   1
loop_
 _symmetry_equiv_pos_site_id
 _symmetry_equiv_pos_as_xyz
  1  'x, y, z'
loop_
 _atom_site_type_symbol
 _atom_site_label
 _atom_site_symmetry_multiplicity
 _atom_site_fract_x
 _atom_site_fract_y
 _atom_site_fract_z
 _atom_site_occupancy
  Tm  Tm0  1  0.529132  0.716839  0.248932  1
  Tm  Tm1  1  0.283161  0.812294  0.248932  1
  Tm  Tm2  1  0.187706  0.470868  0.248932  1
  Tm  Tm3  1  0.470868  0.283161  0.751068  1
  Tm  Tm4  1  0.716839  0.187706  0.751068  1
  Tm  Tm5  1  0.812294  0.529132  0.751068  1
  As  As6  1  0.000000  0.000000  0.000000  1
  P  P7  1  0.528138  0.140346  0.250104  1
  P  P8  1  0.859654  0.387793  0.250104  1
  P  P9  1  0.612207  0.471862  0.250104  1
  P  P10  1  0.945065  0.713356  0.252938  1
  P  P11  1  0.286644  0.231710  0.252938  1
  P  P12  1  0.768290  0.054935  0.252938  1
  P  P13  1  0.387793  0.528138  0.749896  1
  P  P14  1  0.471862  0.859654  0.749896  1
  P  P15  1  0.140346  0.612207  0.749896  1
  P  P16  1  0.713356  0.768290  0.747062  1
  P  P17  1  0.231710  0.945065  0.747062  1
  P  P18  1  0.054935  0.286644  0.747062  1
  Rh  Rh19  1  0.333333  0.666667  0.752976  1
  Rh  Rh20  1  0.918143  0.251429  0.250103  1
  Rh  Rh21  1  0.748571  0.666715  0.250103  1
  Rh  Rh22  1  0.333285  0.081857  0.250103  1
  Rh  Rh23  1  0.438711  0.021983  0.750497  1
  Rh  Rh24  1  0.978017  0.416728  0.750497  1
  Rh  Rh25  1  0.583272  0.561289  0.750497  1
  Rh  Rh26  1  0.666667  0.333333  0.247024  1
  Rh  Rh27  1  0.096544  0.195717  0.254435  1
  Rh  Rh28  1  0.804283  0.900826  0.254435  1
  Rh  Rh29  1  0.099174  0.903456  0.254435  1
  Rh  Rh30  1  0.021983  0.583272  0.249503  1
  Rh  Rh31  1  0.416728  0.438711  0.249503  1
  Rh  Rh32  1  0.561289  0.978017  0.249503  1
  Rh  Rh33  1  0.666715  0.918143  0.749897  1
  Rh  Rh34  1  0.081857  0.748571  0.749897  1
  Rh  Rh35  1  0.251429  0.333285  0.749897  1
  Rh  Rh36  1  0.903456  0.804283  0.745565  1
  Rh  Rh37  1  0.195717  0.099174  0.745565  1
  Rh  Rh38  1  0.900826  0.096544  0.745565  1
