# generated using pymatgen
data_Dy4ErGa2Bi
_symmetry_space_group_name_H-M   'P 1'
_cell_length_a   8.71785983
_cell_length_b   8.71786017
_cell_length_c   8.71786063
_cell_angle_alpha   124.65548318
_cell_angle_beta   124.65548115
_cell_angle_gamma   82.10945101
_symmetry_Int_Tables_number   1
_chemical_formula_structural   Dy4ErGa2Bi
_chemical_formula_sum   'Dy8 Er2 Ga4 Bi2'
_cell_volume   431.04035272
_cell_formula_units_Z   2
loop_
 _symmetry_equiv_pos_site_id
 _symmetry_equiv_pos_as_xyz
  1  'x, y, z'
loop_
 _atom_site_type_symbol
 _atom_site_label
 _atom_site_symmetry_multiplicity
 _atom_site_fract_x
 _atom_site_fract_y
 _atom_site_fract_z
 _atom_site_occupancy
  Dy  Dy0  1  0.513258  0.013258  0.809096  1
  Dy  Dy1  1  0.204161  0.704161  0.190904  1
  Dy  Dy2  1  0.013258  0.204161  0.500000  1
  Dy  Dy3  1  0.704161  0.513258  0.500000  1
  Dy  Dy4  1  0.486742  0.986742  0.190904  1
  Dy  Dy5  1  0.795839  0.295839  0.809096  1
  Dy  Dy6  1  0.986742  0.795839  0.500000  1
  Dy  Dy7  1  0.295839  0.486742  0.500000  1
  Er  Er8  1  0.500000  0.500000  0.000000  1
  Er  Er9  1  0.000000  0.000000  0.000000  1
  Ga  Ga10  1  0.145802  0.645802  0.791602  1
  Ga  Ga11  1  0.854198  0.354198  0.208398  1
  Ga  Ga12  1  0.645802  0.854198  0.500000  1
  Ga  Ga13  1  0.354198  0.145802  0.500000  1
  Bi  Bi14  1  0.250000  0.250000  0.000000  1
  Bi  Bi15  1  0.750000  0.750000  0.000000  1
