# generated using pymatgen
data_Zr6Nb4Al12Re4Ir3
_symmetry_space_group_name_H-M   'P 1'
_cell_length_a   8.89734309
_cell_length_b   8.89734302
_cell_length_c   8.92329502
_cell_angle_alpha   60.09615965
_cell_angle_beta   60.09616069
_cell_angle_gamma   60.00000274
_symmetry_Int_Tables_number   1
_chemical_formula_structural   Zr6Nb4Al12Re4Ir3
_chemical_formula_sum   'Zr6 Nb4 Al12 Re4 Ir3'
_cell_volume   500.21952353
_cell_formula_units_Z   1
loop_
 _symmetry_equiv_pos_site_id
 _symmetry_equiv_pos_as_xyz
  1  'x, y, z'
loop_
 _atom_site_type_symbol
 _atom_site_label
 _atom_site_symmetry_multiplicity
 _atom_site_fract_x
 _atom_site_fract_y
 _atom_site_fract_z
 _atom_site_occupancy
  Zr  Zr0  1  0.705118  0.705118  0.304244  1
  Zr  Zr1  1  0.285520  0.705118  0.304244  1
  Zr  Zr2  1  0.705118  0.285520  0.304244  1
  Zr  Zr3  1  0.296928  0.296928  0.693560  1
  Zr  Zr4  1  0.712583  0.296928  0.693560  1
  Zr  Zr5  1  0.296928  0.712583  0.693560  1
  Nb  Nb6  1  0.878710  0.878710  0.363868  1
  Nb  Nb7  1  0.879292  0.362373  0.879044  1
  Nb  Nb8  1  0.362373  0.879292  0.879044  1
  Nb  Nb9  1  0.879292  0.879292  0.879044  1
  Al  Al10  1  0.120414  0.120414  0.638760  1
  Al  Al11  1  0.121013  0.637948  0.120025  1
  Al  Al12  1  0.637948  0.121013  0.120025  1
  Al  Al13  1  0.121013  0.121013  0.120025  1
  Al  Al14  1  0.656764  0.656764  0.029707  1
  Al  Al15  1  0.660988  0.012191  0.665832  1
  Al  Al16  1  0.012191  0.660988  0.665832  1
  Al  Al17  1  0.660988  0.660988  0.665832  1
  Al  Al18  1  0.338857  0.338857  0.983432  1
  Al  Al19  1  0.334829  0.000666  0.329678  1
  Al  Al20  1  0.000666  0.334829  0.329678  1
  Al  Al21  1  0.334829  0.334829  0.329678  1
  Re  Re22  1  0.000105  0.000105  0.999683  1
  Re  Re23  1  0.998506  0.998506  0.503614  1
  Re  Re24  1  0.499373  0.998506  0.503614  1
  Re  Re25  1  0.998506  0.499373  0.503614  1
  Ir  Ir26  1  0.500681  0.500681  0.998853  1
  Ir  Ir27  1  0.999786  0.500681  0.998853  1
  Ir  Ir28  1  0.500681  0.999786  0.998853  1
