# generated using pymatgen
data_Be3Si3Ir5Os
_symmetry_space_group_name_H-M   'P 1'
_cell_length_a   4.07875400
_cell_length_b   5.78370300
_cell_length_c   12.26977000
_cell_angle_alpha   90.00000000
_cell_angle_beta   90.00017301
_cell_angle_gamma   90.00000000
_symmetry_Int_Tables_number   1
_chemical_formula_structural   Be3Si3Ir5Os
_chemical_formula_sum   'Be6 Si6 Ir10 Os2'
_cell_volume   289.44757665
_cell_formula_units_Z   2
loop_
 _symmetry_equiv_pos_site_id
 _symmetry_equiv_pos_as_xyz
  1  'x, y, z'
loop_
 _atom_site_type_symbol
 _atom_site_label
 _atom_site_symmetry_multiplicity
 _atom_site_fract_x
 _atom_site_fract_y
 _atom_site_fract_z
 _atom_site_occupancy
  Be  Be0  1  0.999997  0.500000  0.995664  1
  Be  Be1  1  0.499788  0.000000  0.165258  1
  Be  Be2  1  0.999778  0.500000  0.333332  1
  Be  Be3  1  0.499997  0.000000  0.501410  1
  Be  Be4  1  0.000217  0.500000  0.671007  1
  Be  Be5  1  0.500205  0.000000  0.833332  1
  Si  Si6  1  0.000004  0.000000  0.994348  1
  Si  Si7  1  0.499843  0.500000  0.166107  1
  Si  Si8  1  0.999854  0.000000  0.333333  1
  Si  Si9  1  0.499999  0.500000  0.500561  1
  Si  Si10  1  0.000148  0.000000  0.672317  1
  Si  Si11  1  0.500142  0.500000  0.833334  1
  Ir  Ir12  1  0.500002  0.249798  0.003470  1
  Ir  Ir13  1  0.500002  0.750200  0.003470  1
  Ir  Ir14  1  0.999892  0.249356  0.168080  1
  Ir  Ir15  1  0.999892  0.750643  0.168080  1
  Ir  Ir16  1  0.499891  0.250295  0.333333  1
  Ir  Ir17  1  0.499891  0.749704  0.333333  1
  Ir  Ir18  1  0.000001  0.249358  0.498586  1
  Ir  Ir19  1  0.000001  0.750641  0.498586  1
  Ir  Ir20  1  0.500113  0.249800  0.663196  1
  Ir  Ir21  1  0.500113  0.750199  0.663196  1
  Os  Os22  1  0.000115  0.251449  0.833333  1
  Os  Os23  1  0.000115  0.748550  0.833333  1
