# generated using pymatgen
data_Hf16ReNi4Ir3N2
_symmetry_space_group_name_H-M   'P 1'
_cell_length_a   8.63859171
_cell_length_b   8.60663934
_cell_length_c   8.63859235
_cell_angle_alpha   119.98276340
_cell_angle_beta   120.18841480
_cell_angle_gamma   89.95767251
_symmetry_Int_Tables_number   1
_chemical_formula_structural   Hf16ReNi4Ir3N2
_chemical_formula_sum   'Hf16 Re1 Ni4 Ir3 N2'
_cell_volume   453.14517532
_cell_formula_units_Z   1
loop_
 _symmetry_equiv_pos_site_id
 _symmetry_equiv_pos_as_xyz
  1  'x, y, z'
loop_
 _atom_site_type_symbol
 _atom_site_label
 _atom_site_symmetry_multiplicity
 _atom_site_fract_x
 _atom_site_fract_y
 _atom_site_fract_z
 _atom_site_occupancy
  Hf  Hf0  1  0.934830  0.183159  0.748329  1
  Hf  Hf1  1  0.321632  0.571570  0.749937  1
  Hf  Hf2  1  0.931053  0.569557  0.754916  1
  Hf  Hf3  1  0.311372  0.174853  0.743730  1
  Hf  Hf4  1  0.931123  0.174853  0.363481  1
  Hf  Hf5  1  0.314641  0.569557  0.138504  1
  Hf  Hf6  1  0.057050  0.807618  0.250568  1
  Hf  Hf7  1  0.688525  0.443419  0.254895  1
  Hf  Hf8  1  0.058471  0.438770  0.245050  1
  Hf  Hf9  1  0.692298  0.813755  0.259773  1
  Hf  Hf10  1  0.053982  0.813755  0.621457  1
  Hf  Hf11  1  0.693719  0.438770  0.880300  1
  Hf  Hf12  1  0.487433  0.011628  0.024196  1
  Hf  Hf13  1  0.483844  0.452295  0.468451  1
  Hf  Hf14  1  0.482282  0.017025  0.466368  1
  Hf  Hf15  1  0.050658  0.017025  0.034744  1
  Re  Re16  1  0.707486  0.790893  0.583408  1
  Ni  Ni17  1  0.272002  0.234566  0.462564  1
  Ni  Ni18  1  0.275078  0.813596  0.038517  1
  Ni  Ni19  1  0.278416  0.227325  0.045165  1
  Ni  Ni20  1  0.682159  0.227325  0.448909  1
  Ir  Ir21  1  0.710140  0.130634  0.920496  1
  Ir  Ir22  1  0.708821  0.789361  0.915781  1
  Ir  Ir23  1  0.373581  0.789361  0.580542  1
  N  N24  1  0.998900  0.499494  0.000594  1
  N  N25  1  0.000510  0.999834  0.499325  1
