# generated using pymatgen
data_Tb6Nd2Hf12Si15Pd
_symmetry_space_group_name_H-M   'P 1'
_cell_length_a   7.29739458
_cell_length_b   7.36105670
_cell_length_c   13.49213542
_cell_angle_alpha   90.00494083
_cell_angle_beta   89.86031179
_cell_angle_gamma   90.11755469
_symmetry_Int_Tables_number   1
_chemical_formula_structural   Tb6Nd2Hf12Si15Pd
_chemical_formula_sum   'Tb6 Nd2 Hf12 Si15 Pd1'
_cell_volume   724.74708622
_cell_formula_units_Z   1
loop_
 _symmetry_equiv_pos_site_id
 _symmetry_equiv_pos_as_xyz
  1  'x, y, z'
loop_
 _atom_site_type_symbol
 _atom_site_label
 _atom_site_symmetry_multiplicity
 _atom_site_fract_x
 _atom_site_fract_y
 _atom_site_fract_z
 _atom_site_occupancy
  Tb  Tb0  1  0.157465  0.497288  0.464777  1
  Tb  Tb1  1  0.503621  0.843056  0.033266  1
  Tb  Tb2  1  0.842640  0.501692  0.964992  1
  Tb  Tb3  1  0.496994  0.154909  0.537420  1
  Tb  Tb4  1  0.344028  0.998154  0.785531  1
  Tb  Tb5  1  0.659969  0.999040  0.284151  1
  Nd  Nd6  1  0.991081  0.346028  0.215023  1
  Nd  Nd7  1  0.007728  0.655808  0.715036  1
  Hf  Hf8  1  0.174743  0.175502  0.999252  1
  Hf  Hf9  1  0.826670  0.825405  0.500377  1
  Hf  Hf10  1  0.326094  0.680627  0.249758  1
  Hf  Hf11  1  0.675086  0.323605  0.750278  1
  Hf  Hf12  1  0.150619  0.000918  0.373980  1
  Hf  Hf13  1  0.850204  0.003292  0.874387  1
  Hf  Hf14  1  0.504978  0.650042  0.624223  1
  Hf  Hf15  1  0.351925  0.493954  0.875194  1
  Hf  Hf16  1  0.492585  0.348800  0.123869  1
  Hf  Hf17  1  0.647764  0.509325  0.380544  1
  Hf  Hf18  1  0.996756  0.149779  0.626383  1
  Hf  Hf19  1  0.000667  0.847788  0.123716  1
  Si  Si20  1  0.634558  0.706668  0.818723  1
  Si  Si21  1  0.206151  0.864907  0.564977  1
  Si  Si22  1  0.137544  0.796235  0.932989  1
  Si  Si23  1  0.793609  0.134986  0.064666  1
  Si  Si24  1  0.860094  0.199606  0.436095  1
  Si  Si25  1  0.299002  0.360505  0.683959  1
  Si  Si26  1  0.700245  0.640960  0.182872  1
  Si  Si27  1  0.292007  0.044870  0.182111  1
  Si  Si28  1  0.704810  0.952226  0.685656  1
  Si  Si29  1  0.449778  0.797100  0.436001  1
  Si  Si30  1  0.206585  0.551415  0.062773  1
  Si  Si31  1  0.548273  0.204574  0.935001  1
  Si  Si32  1  0.793692  0.447737  0.565516  1
  Si  Si33  1  0.049452  0.292461  0.815398  1
  Si  Si34  1  0.949903  0.709411  0.314672  1
  Pd  Pd35  1  0.372677  0.291330  0.316434  1
