# generated using pymatgen
data_Dy15HoCdHg3Rh4
_symmetry_space_group_name_H-M   'P 1'
_cell_length_a   9.59667961
_cell_length_b   9.59062037
_cell_length_c   9.59674400
_cell_angle_alpha   59.97886939
_cell_angle_beta   59.99977114
_cell_angle_gamma   59.96028195
_symmetry_Int_Tables_number   1
_chemical_formula_structural   Dy15HoCdHg3Rh4
_chemical_formula_sum   'Dy15 Ho1 Cd1 Hg3 Rh4'
_cell_volume   624.27503208
_cell_formula_units_Z   1
loop_
 _symmetry_equiv_pos_site_id
 _symmetry_equiv_pos_as_xyz
  1  'x, y, z'
loop_
 _atom_site_type_symbol
 _atom_site_label
 _atom_site_symmetry_multiplicity
 _atom_site_fract_x
 _atom_site_fract_y
 _atom_site_fract_z
 _atom_site_occupancy
  Dy  Dy0  1  0.936478  0.937091  0.563215  1
  Dy  Dy1  1  0.562532  0.564208  0.936630  1
  Dy  Dy2  1  0.689494  0.689836  0.310336  1
  Dy  Dy3  1  0.147701  0.555200  0.148550  1
  Dy  Dy4  1  0.689098  0.312020  0.688562  1
  Dy  Dy5  1  0.149506  0.148760  0.150230  1
  Dy  Dy6  1  0.552464  0.148007  0.149764  1
  Dy  Dy7  1  0.689098  0.312020  0.310318  1
  Dy  Dy8  1  0.149506  0.148760  0.551503  1
  Dy  Dy9  1  0.310732  0.689902  0.310170  1
  Dy  Dy10  1  0.310732  0.689902  0.689197  1
  Dy  Dy11  1  0.936930  0.563654  0.563048  1
  Dy  Dy12  1  0.936930  0.563654  0.936368  1
  Dy  Dy13  1  0.562641  0.937458  0.563631  1
  Dy  Dy14  1  0.562641  0.937458  0.936271  1
  Ho  Ho15  1  0.310621  0.311599  0.688889  1
  Cd  Cd16  1  0.919606  0.241583  0.919406  1
  Hg  Hg17  1  0.914547  0.916329  0.254551  1
  Hg  Hg18  1  0.255286  0.916153  0.914281  1
  Hg  Hg19  1  0.914547  0.916329  0.914573  1
  Rh  Rh20  1  0.356826  0.357374  0.928212  1
  Rh  Rh21  1  0.356939  0.928159  0.357450  1
  Rh  Rh22  1  0.928316  0.357175  0.357254  1
  Rh  Rh23  1  0.356826  0.357374  0.357588  1
