# generated using pymatgen
data_LiTa2TiPt12
_symmetry_space_group_name_H-M   'P 1'
_cell_length_a   5.62236300
_cell_length_b   5.62236309
_cell_length_c   9.09042600
_cell_angle_alpha   90.00000000
_cell_angle_beta   90.00000000
_cell_angle_gamma   120.00000537
_symmetry_Int_Tables_number   1
_chemical_formula_structural   LiTa2TiPt12
_chemical_formula_sum   'Li1 Ta2 Ti1 Pt12'
_cell_volume   248.85857754
_cell_formula_units_Z   1
loop_
 _symmetry_equiv_pos_site_id
 _symmetry_equiv_pos_as_xyz
  1  'x, y, z'
loop_
 _atom_site_type_symbol
 _atom_site_label
 _atom_site_symmetry_multiplicity
 _atom_site_fract_x
 _atom_site_fract_y
 _atom_site_fract_z
 _atom_site_occupancy
  Li  Li0  1  0.333333  0.666667  0.250000  1
  Ta  Ta1  1  0.000000  0.000000  0.493723  1
  Ta  Ta2  1  0.000000  0.000000  0.006277  1
  Ti  Ti3  1  0.666667  0.333333  0.750000  1
  Pt  Pt4  1  0.501260  0.498740  0.502379  1
  Pt  Pt5  1  0.501260  0.002520  0.502379  1
  Pt  Pt6  1  0.997480  0.498740  0.502379  1
  Pt  Pt7  1  0.501260  0.498740  0.997621  1
  Pt  Pt8  1  0.501260  0.002520  0.997621  1
  Pt  Pt9  1  0.997480  0.498740  0.997621  1
  Pt  Pt10  1  0.831799  0.663599  0.250000  1
  Pt  Pt11  1  0.336401  0.168201  0.250000  1
  Pt  Pt12  1  0.831799  0.168201  0.250000  1
  Pt  Pt13  1  0.167191  0.334382  0.750000  1
  Pt  Pt14  1  0.665618  0.832809  0.750000  1
  Pt  Pt15  1  0.167191  0.832809  0.750000  1
