# generated using pymatgen
data_La9Nd11(CoBi2)4
_symmetry_space_group_name_H-M   'P 1'
_cell_length_a   8.43076809
_cell_length_b   9.23229882
_cell_length_c   12.72132434
_cell_angle_alpha   90.05297399
_cell_angle_beta   90.10100113
_cell_angle_gamma   90.04986483
_symmetry_Int_Tables_number   1
_chemical_formula_structural   La9Nd11(CoBi2)4
_chemical_formula_sum   'La9 Nd11 Co4 Bi8'
_cell_volume   990.16665239
_cell_formula_units_Z   1
loop_
 _symmetry_equiv_pos_site_id
 _symmetry_equiv_pos_as_xyz
  1  'x, y, z'
loop_
 _atom_site_type_symbol
 _atom_site_label
 _atom_site_symmetry_multiplicity
 _atom_site_fract_x
 _atom_site_fract_y
 _atom_site_fract_z
 _atom_site_occupancy
  La  La0  1  0.855713  0.749950  0.805169  1
  La  La1  1  0.143869  0.250043  0.195205  1
  La  La2  1  0.356680  0.250682  0.694618  1
  La  La3  1  0.644598  0.750108  0.303648  1
  La  La4  1  0.381954  0.748952  0.688490  1
  La  La5  1  0.615883  0.251233  0.313371  1
  La  La6  1  0.883371  0.249534  0.813434  1
  La  La7  1  0.116931  0.750023  0.186870  1
  La  La8  1  0.680943  0.030748  0.562285  1
  Nd  Nd9  1  0.954180  0.749213  0.502984  1
  Nd  Nd10  1  0.048234  0.250078  0.496647  1
  Nd  Nd11  1  0.453261  0.250126  0.997185  1
  Nd  Nd12  1  0.545629  0.749725  0.003299  1
  Nd  Nd13  1  0.317394  0.965016  0.435521  1
  Nd  Nd14  1  0.181316  0.966231  0.936514  1
  Nd  Nd15  1  0.319760  0.535751  0.436274  1
  Nd  Nd16  1  0.818843  0.033242  0.063188  1
  Nd  Nd17  1  0.681339  0.466419  0.563394  1
  Nd  Nd18  1  0.818866  0.466225  0.063495  1
  Nd  Nd19  1  0.180886  0.533817  0.936330  1
  Co  Co20  1  0.565750  0.752796  0.507383  1
  Co  Co21  1  0.434244  0.251863  0.493376  1
  Co  Co22  1  0.062852  0.249775  0.994517  1
  Co  Co23  1  0.937134  0.749639  0.005532  1
  Bi  Bi24  1  0.575308  0.493801  0.827766  1
  Bi  Bi25  1  0.424795  0.505961  0.172398  1
  Bi  Bi26  1  0.074160  0.505192  0.672979  1
  Bi  Bi27  1  0.425084  0.994378  0.172623  1
  Bi  Bi28  1  0.925664  0.494197  0.327344  1
  Bi  Bi29  1  0.573719  0.005671  0.828510  1
  Bi  Bi30  1  0.925109  0.005636  0.326775  1
  Bi  Bi31  1  0.076532  0.993978  0.672876  1
