# generated using pymatgen
data_Lu5GaBiRh
_symmetry_space_group_name_H-M   'P 1'
_cell_length_a   8.50730291
_cell_length_b   8.50730300
_cell_length_c   8.65337842
_cell_angle_alpha   125.67360946
_cell_angle_beta   125.67359926
_cell_angle_gamma   79.25952469
_symmetry_Int_Tables_number   1
_chemical_formula_structural   Lu5GaBiRh
_chemical_formula_sum   'Lu10 Ga2 Bi2 Rh2'
_cell_volume   401.92366522
_cell_formula_units_Z   2
loop_
 _symmetry_equiv_pos_site_id
 _symmetry_equiv_pos_as_xyz
  1  'x, y, z'
loop_
 _atom_site_type_symbol
 _atom_site_label
 _atom_site_symmetry_multiplicity
 _atom_site_fract_x
 _atom_site_fract_y
 _atom_site_fract_z
 _atom_site_occupancy
  Lu  Lu0  1  0.000000  0.000000  0.000000  1
  Lu  Lu1  1  0.500000  0.500000  0.000000  1
  Lu  Lu2  1  0.782293  0.282293  0.792441  1
  Lu  Lu3  1  0.217707  0.717707  0.207559  1
  Lu  Lu4  1  0.489853  0.989853  0.207559  1
  Lu  Lu5  1  0.306395  0.462565  0.500000  1
  Lu  Lu6  1  0.037435  0.193605  0.500000  1
  Lu  Lu7  1  0.510147  0.010147  0.792441  1
  Lu  Lu8  1  0.693605  0.537435  0.500000  1
  Lu  Lu9  1  0.962565  0.806395  0.500000  1
  Ga  Ga10  1  0.137613  0.637613  0.775226  1
  Ga  Ga11  1  0.862387  0.362387  0.224774  1
  Bi  Bi12  1  0.250000  0.250000  0.000000  1
  Bi  Bi13  1  0.750000  0.750000  0.000000  1
  Rh  Rh14  1  0.636312  0.863688  0.500000  1
  Rh  Rh15  1  0.363688  0.136312  0.500000  1
