# generated using pymatgen
data_Tb3DyZn4(IrRh)2
_symmetry_space_group_name_H-M   'P 1'
_cell_length_a   4.05608700
_cell_length_b   7.00979505
_cell_length_c   8.12302917
_cell_angle_alpha   90.00466327
_cell_angle_beta   90.00000000
_cell_angle_gamma   90.00000000
_symmetry_Int_Tables_number   1
_chemical_formula_structural   Tb3DyZn4(IrRh)2
_chemical_formula_sum   'Tb3 Dy1 Zn4 Ir2 Rh2'
_cell_volume   230.95671510
_cell_formula_units_Z   1
loop_
 _symmetry_equiv_pos_site_id
 _symmetry_equiv_pos_as_xyz
  1  'x, y, z'
loop_
 _atom_site_type_symbol
 _atom_site_label
 _atom_site_symmetry_multiplicity
 _atom_site_fract_x
 _atom_site_fract_y
 _atom_site_fract_z
 _atom_site_occupancy
  Tb  Tb0  1  0.250000  0.539014  0.184878  1
  Tb  Tb1  1  0.750000  0.461010  0.814971  1
  Tb  Tb2  1  0.250000  0.036243  0.317050  1
  Dy  Dy3  1  0.750000  0.963763  0.683136  1
  Zn  Zn4  1  0.250000  0.135120  0.935211  1
  Zn  Zn5  1  0.750000  0.864633  0.064203  1
  Zn  Zn6  1  0.250000  0.637637  0.565444  1
  Zn  Zn7  1  0.750000  0.362566  0.434888  1
  Ir  Ir8  1  0.750000  0.742704  0.377257  1
  Ir  Ir9  1  0.250000  0.256714  0.623492  1
  Rh  Rh10  1  0.750000  0.244079  0.120930  1
  Rh  Rh11  1  0.250000  0.756518  0.878539  1
