# generated using pymatgen
data_TbDy15Cd2(Co2Hg)2
_symmetry_space_group_name_H-M   'P 1'
_cell_length_a   9.47383176
_cell_length_b   9.47655700
_cell_length_c   9.47383302
_cell_angle_alpha   60.02650476
_cell_angle_beta   60.06612936
_cell_angle_gamma   60.02649945
_symmetry_Int_Tables_number   1
_chemical_formula_structural   TbDy15Cd2(Co2Hg)2
_chemical_formula_sum   'Tb1 Dy15 Cd2 Co4 Hg2'
_cell_volume   601.97378743
_cell_formula_units_Z   1
loop_
 _symmetry_equiv_pos_site_id
 _symmetry_equiv_pos_as_xyz
  1  'x, y, z'
loop_
 _atom_site_type_symbol
 _atom_site_label
 _atom_site_symmetry_multiplicity
 _atom_site_fract_x
 _atom_site_fract_y
 _atom_site_fract_z
 _atom_site_occupancy
  Tb  Tb0  1  0.152298  0.540548  0.152298  1
  Dy  Dy1  1  0.689559  0.312061  0.689559  1
  Dy  Dy2  1  0.689726  0.311032  0.312033  1
  Dy  Dy3  1  0.938796  0.560831  0.562512  1
  Dy  Dy4  1  0.542353  0.152178  0.151359  1
  Dy  Dy5  1  0.151359  0.152178  0.542353  1
  Dy  Dy6  1  0.938543  0.937704  0.561595  1
  Dy  Dy7  1  0.312255  0.689084  0.312255  1
  Dy  Dy8  1  0.561595  0.937704  0.938543  1
  Dy  Dy9  1  0.561537  0.938497  0.561537  1
  Dy  Dy10  1  0.688529  0.688354  0.313798  1
  Dy  Dy11  1  0.562512  0.560831  0.938796  1
  Dy  Dy12  1  0.938404  0.560549  0.938404  1
  Dy  Dy13  1  0.313798  0.688354  0.688529  1
  Dy  Dy14  1  0.154015  0.154209  0.154015  1
  Dy  Dy15  1  0.312033  0.311032  0.689726  1
  Cd  Cd16  1  0.919843  0.919873  0.241184  1
  Cd  Cd17  1  0.241184  0.919873  0.919843  1
  Co  Co18  1  0.358633  0.358035  0.922072  1
  Co  Co19  1  0.358344  0.922443  0.358344  1
  Co  Co20  1  0.922072  0.358035  0.358633  1
  Co  Co21  1  0.359275  0.358333  0.359275  1
  Hg  Hg22  1  0.916379  0.252644  0.916379  1
  Hg  Hg23  1  0.916955  0.915619  0.916955  1
