# generated using pymatgen
data_Ho4Co(Si2Ir)5
_symmetry_space_group_name_H-M   'P 1'
_cell_length_a   8.10248833
_cell_length_b   8.07423941
_cell_length_c   8.07423956
_cell_angle_alpha   138.15918134
_cell_angle_beta   104.41347152
_cell_angle_gamma   90.29750295
_symmetry_Int_Tables_number   1
_chemical_formula_structural   Ho4Co(Si2Ir)5
_chemical_formula_sum   'Ho4 Co1 Si10 Ir5'
_cell_volume   326.07599409
_cell_formula_units_Z   1
loop_
 _symmetry_equiv_pos_site_id
 _symmetry_equiv_pos_as_xyz
  1  'x, y, z'
loop_
 _atom_site_type_symbol
 _atom_site_label
 _atom_site_symmetry_multiplicity
 _atom_site_fract_x
 _atom_site_fract_y
 _atom_site_fract_z
 _atom_site_occupancy
  Ho  Ho0  1  0.599818  0.868566  0.731252  1
  Ho  Ho1  1  0.136895  0.367778  0.769115  1
  Ho  Ho2  1  0.859861  0.631167  0.228695  1
  Ho  Ho3  1  0.399966  0.131386  0.268579  1
  Co  Co4  1  0.758293  0.140917  0.617375  1
  Si  Si5  1  0.772320  0.030597  0.267708  1
  Si  Si6  1  0.221429  0.974753  0.749760  1
  Si  Si7  1  0.772320  0.504612  0.741723  1
  Si  Si8  1  0.942953  0.107092  0.835861  1
  Si  Si9  1  0.046356  0.891924  0.154432  1
  Si  Si10  1  0.515744  0.245753  0.741508  1
  Si  Si11  1  0.515744  0.774235  0.269990  1
  Si  Si12  1  0.734593  0.391721  0.342872  1
  Si  Si13  1  0.260122  0.605000  0.655122  1
  Si  Si14  1  0.221429  0.471669  0.246677  1
  Ir  Ir15  1  0.996375  0.248499  0.247596  1
  Ir  Ir16  1  0.996375  0.748779  0.747876  1
  Ir  Ir17  1  0.250679  0.862100  0.388580  1
  Ir  Ir18  1  0.526388  0.640546  0.885843  1
  Ir  Ir19  1  0.472340  0.362905  0.109435  1
