# generated using pymatgen
data_NdAlGaBRu2
_symmetry_space_group_name_H-M   'P 1'
_cell_length_a   4.20767500
_cell_length_b   4.20767500
_cell_length_c   5.58248800
_cell_angle_alpha   90.00000000
_cell_angle_beta   90.00000000
_cell_angle_gamma   90.00000000
_symmetry_Int_Tables_number   1
_chemical_formula_structural   NdAlGaBRu2
_chemical_formula_sum   'Nd1 Al1 Ga1 B1 Ru2'
_cell_volume   98.83532016
_cell_formula_units_Z   1
loop_
 _symmetry_equiv_pos_site_id
 _symmetry_equiv_pos_as_xyz
  1  'x, y, z'
loop_
 _atom_site_type_symbol
 _atom_site_label
 _atom_site_symmetry_multiplicity
 _atom_site_fract_x
 _atom_site_fract_y
 _atom_site_fract_z
 _atom_site_occupancy
  Nd  Nd0  1  0.000000  0.000000  0.496943  1
  Al  Al1  1  0.499999  0.499999  0.741593  1
  Ga  Ga2  1  0.499999  0.499999  0.270293  1
  B  B3  1  0.000000  0.000000  0.997862  1
  Ru  Ru4  1  0.499999  0.000000  0.996655  1
  Ru  Ru5  1  0.000000  0.499999  0.996655  1
