# generated using pymatgen
data_Rb12In8As11P
_symmetry_space_group_name_H-M   'P 1'
_cell_length_a   10.73696851
_cell_length_b   10.75781533
_cell_length_c   15.58876137
_cell_angle_alpha   89.95740232
_cell_angle_beta   90.02051086
_cell_angle_gamma   141.72589712
_symmetry_Int_Tables_number   1
_chemical_formula_structural   Rb12In8As11P
_chemical_formula_sum   'Rb12 In8 As11 P1'
_cell_volume   1115.33526357
_cell_formula_units_Z   1
loop_
 _symmetry_equiv_pos_site_id
 _symmetry_equiv_pos_as_xyz
  1  'x, y, z'
loop_
 _atom_site_type_symbol
 _atom_site_label
 _atom_site_symmetry_multiplicity
 _atom_site_fract_x
 _atom_site_fract_y
 _atom_site_fract_z
 _atom_site_occupancy
  Rb  Rb0  1  0.610382  0.926046  0.676053  1
  Rb  Rb1  1  0.574399  0.889612  0.176856  1
  Rb  Rb2  1  0.074006  0.390519  0.323491  1
  Rb  Rb3  1  0.110269  0.425692  0.823108  1
  Rb  Rb4  1  0.648545  0.648574  0.862134  1
  Rb  Rb5  1  0.425603  0.110371  0.823000  1
  Rb  Rb6  1  0.351469  0.351562  0.137794  1
  Rb  Rb7  1  0.925739  0.610382  0.676787  1
  Rb  Rb8  1  0.149068  0.148821  0.637487  1
  Rb  Rb9  1  0.889779  0.574174  0.178381  1
  Rb  Rb10  1  0.851928  0.850943  0.362351  1
  Rb  Rb11  1  0.390289  0.075001  0.323522  1
  In  In12  1  0.233632  0.758542  0.498894  1
  In  In13  1  0.261280  0.738461  0.000107  1
  In  In14  1  0.738807  0.261765  0.999945  1
  In  In15  1  0.915955  0.083788  0.000020  1
  In  In16  1  0.761747  0.240937  0.499053  1
  In  In17  1  0.083936  0.916105  0.000032  1
  In  In18  1  0.415981  0.583913  0.499972  1
  In  In19  1  0.589318  0.419004  0.498823  1
  As  As20  1  0.049066  0.398936  0.093083  1
  As  As21  1  0.657003  0.655761  0.613117  1
  As  As22  1  0.398632  0.048622  0.093144  1
  As  As23  1  0.601340  0.951465  0.906929  1
  As  As24  1  0.950925  0.601231  0.906960  1
  As  As25  1  0.449517  0.099818  0.591705  1
  As  As26  1  0.547740  0.899465  0.406763  1
  As  As27  1  0.156209  0.156193  0.886160  1
  As  As28  1  0.101070  0.451469  0.592505  1
  As  As29  1  0.843828  0.843722  0.113905  1
  As  As30  1  0.345488  0.344947  0.386125  1
  P  P31  1  0.897051  0.544160  0.411792  1
