# generated using pymatgen
data_Tb3In3NiIrRh
_symmetry_space_group_name_H-M   'P 1'
_cell_length_a   7.59913000
_cell_length_b   7.59913119
_cell_length_c   3.81366700
_cell_angle_alpha   90.00000000
_cell_angle_beta   90.00000000
_cell_angle_gamma   119.99999482
_symmetry_Int_Tables_number   1
_chemical_formula_structural   Tb3In3NiIrRh
_chemical_formula_sum   'Tb3 In3 Ni1 Ir1 Rh1'
_cell_volume   190.72219637
_cell_formula_units_Z   1
loop_
 _symmetry_equiv_pos_site_id
 _symmetry_equiv_pos_as_xyz
  1  'x, y, z'
loop_
 _atom_site_type_symbol
 _atom_site_label
 _atom_site_symmetry_multiplicity
 _atom_site_fract_x
 _atom_site_fract_y
 _atom_site_fract_z
 _atom_site_occupancy
  Tb  Tb0  1  0.001847  0.589569  0.500000  1
  Tb  Tb1  1  0.587721  0.998153  0.500000  1
  Tb  Tb2  1  0.410431  0.412279  0.500000  1
  In  In3  1  0.748898  0.748664  0.000000  1
  In  In4  1  0.999766  0.251102  0.000000  1
  In  In5  1  0.251336  0.000234  0.000000  1
  Ni  Ni6  1  0.000000  0.000000  0.500000  1
  Ir  Ir7  1  0.333333  0.666667  0.000000  1
  Rh  Rh8  1  0.666667  0.333333  0.000000  1
