# generated using pymatgen
data_Np2Al9CrPd2
_symmetry_space_group_name_H-M   'P 1'
_cell_length_a   7.57377158
_cell_length_b   7.57377333
_cell_length_c   9.44971100
_cell_angle_alpha   90.00000000
_cell_angle_beta   90.00000000
_cell_angle_gamma   117.17309801
_symmetry_Int_Tables_number   1
_chemical_formula_structural   Np2Al9CrPd2
_chemical_formula_sum   'Np4 Al18 Cr2 Pd4'
_cell_volume   482.22851784
_cell_formula_units_Z   2
loop_
 _symmetry_equiv_pos_site_id
 _symmetry_equiv_pos_as_xyz
  1  'x, y, z'
loop_
 _atom_site_type_symbol
 _atom_site_label
 _atom_site_symmetry_multiplicity
 _atom_site_fract_x
 _atom_site_fract_y
 _atom_site_fract_z
 _atom_site_occupancy
  Np  Np0  1  0.992764  0.700092  0.250000  1
  Np  Np1  1  0.007236  0.299908  0.750000  1
  Np  Np2  1  0.700092  0.992764  0.250000  1
  Np  Np3  1  0.299908  0.007236  0.750000  1
  Al  Al4  1  0.145044  0.145044  0.250000  1
  Al  Al5  1  0.854956  0.854956  0.750000  1
  Al  Al6  1  0.004267  0.345007  0.081582  1
  Al  Al7  1  0.995733  0.654993  0.918418  1
  Al  Al8  1  0.995733  0.654993  0.581582  1
  Al  Al9  1  0.345007  0.004267  0.418418  1
  Al  Al10  1  0.004267  0.345007  0.418418  1
  Al  Al11  1  0.654993  0.995733  0.581582  1
  Al  Al12  1  0.654993  0.995733  0.918418  1
  Al  Al13  1  0.345007  0.004267  0.081582  1
  Al  Al14  1  0.330945  0.330945  0.543775  1
  Al  Al15  1  0.669055  0.669055  0.456225  1
  Al  Al16  1  0.669055  0.669055  0.043775  1
  Al  Al17  1  0.330945  0.330945  0.956225  1
  Al  Al18  1  0.347330  0.562700  0.250000  1
  Al  Al19  1  0.652670  0.437300  0.750000  1
  Al  Al20  1  0.562700  0.347330  0.250000  1
  Al  Al21  1  0.437300  0.652670  0.750000  1
  Cr  Cr22  1  0.000000  0.000000  0.000000  1
  Cr  Cr23  1  0.000000  0.000000  0.500000  1
  Pd  Pd24  1  0.672542  0.327458  0.000000  1
  Pd  Pd25  1  0.327458  0.672542  0.000000  1
  Pd  Pd26  1  0.327458  0.672542  0.500000  1
  Pd  Pd27  1  0.672542  0.327458  0.500000  1
