# generated using pymatgen
data_HfZr17(CuP2)4
_symmetry_space_group_name_H-M   'P 1'
_cell_length_a   12.13828803
_cell_length_b   12.13828803
_cell_length_c   3.69655300
_cell_angle_alpha   90.00000000
_cell_angle_beta   90.00000000
_cell_angle_gamma   90.00835485
_symmetry_Int_Tables_number   1
_chemical_formula_structural   HfZr17(CuP2)4
_chemical_formula_sum   'Hf1 Zr17 Cu4 P8'
_cell_volume   544.64285451
_cell_formula_units_Z   1
loop_
 _symmetry_equiv_pos_site_id
 _symmetry_equiv_pos_as_xyz
  1  'x, y, z'
loop_
 _atom_site_type_symbol
 _atom_site_label
 _atom_site_symmetry_multiplicity
 _atom_site_fract_x
 _atom_site_fract_y
 _atom_site_fract_z
 _atom_site_occupancy
  Hf  Hf0  1  0.095934  0.404066  0.000000  1
  Zr  Zr1  1  0.999932  0.000108  0.000000  1
  Zr  Zr2  1  0.499892  0.500068  0.000000  1
  Zr  Zr3  1  0.100859  0.180268  0.500000  1
  Zr  Zr4  1  0.179590  0.899063  0.500000  1
  Zr  Zr5  1  0.820548  0.100898  0.500000  1
  Zr  Zr6  1  0.899293  0.820104  0.500000  1
  Zr  Zr7  1  0.399102  0.679452  0.500000  1
  Zr  Zr8  1  0.600937  0.320410  0.500000  1
  Zr  Zr9  1  0.679896  0.600707  0.500000  1
  Zr  Zr10  1  0.319732  0.399141  0.500000  1
  Zr  Zr11  1  0.404000  0.904094  0.000000  1
  Zr  Zr12  1  0.595906  0.096000  0.000000  1
  Zr  Zr13  1  0.904502  0.595498  0.000000  1
  Zr  Zr14  1  0.382292  0.117708  0.500000  1
  Zr  Zr15  1  0.117313  0.616277  0.500000  1
  Zr  Zr16  1  0.883723  0.382687  0.500000  1
  Zr  Zr17  1  0.617519  0.882481  0.500000  1
  Cu  Cu18  1  0.254378  0.245622  0.000000  1
  Cu  Cu19  1  0.244645  0.744529  0.000000  1
  Cu  Cu20  1  0.755471  0.255355  0.000000  1
  Cu  Cu21  1  0.744858  0.755142  0.000000  1
  P  P22  1  0.224729  0.054222  0.000000  1
  P  P23  1  0.053945  0.774761  0.000000  1
  P  P24  1  0.946699  0.225772  0.000000  1
  P  P25  1  0.775153  0.946093  0.000000  1
  P  P26  1  0.274228  0.553301  0.000000  1
  P  P27  1  0.725239  0.446055  0.000000  1
  P  P28  1  0.553907  0.724847  0.000000  1
  P  P29  1  0.445778  0.275271  0.000000  1
