# generated using pymatgen
data_DyHoEr6(Si3Rh)4
_symmetry_space_group_name_H-M   'P 1'
_cell_length_a   8.14726500
_cell_length_b   8.14726522
_cell_length_c   7.83841600
_cell_angle_alpha   90.00000000
_cell_angle_beta   90.00000000
_cell_angle_gamma   119.99999506
_symmetry_Int_Tables_number   1
_chemical_formula_structural   DyHoEr6(Si3Rh)4
_chemical_formula_sum   'Dy1 Ho1 Er6 Si12 Rh4'
_cell_volume   450.59115097
_cell_formula_units_Z   1
loop_
 _symmetry_equiv_pos_site_id
 _symmetry_equiv_pos_as_xyz
  1  'x, y, z'
loop_
 _atom_site_type_symbol
 _atom_site_label
 _atom_site_symmetry_multiplicity
 _atom_site_fract_x
 _atom_site_fract_y
 _atom_site_fract_z
 _atom_site_occupancy
  Dy  Dy0  1  0.000000  0.000000  0.750000  1
  Ho  Ho1  1  0.000000  0.000000  0.250000  1
  Er  Er2  1  0.492173  0.507827  0.250000  1
  Er  Er3  1  0.492173  0.984345  0.250000  1
  Er  Er4  1  0.015655  0.507827  0.250000  1
  Er  Er5  1  0.507914  0.492086  0.750000  1
  Er  Er6  1  0.984172  0.492086  0.750000  1
  Er  Er7  1  0.507914  0.015828  0.750000  1
  Si  Si8  1  0.833015  0.166985  0.500954  1
  Si  Si9  1  0.833015  0.666031  0.500954  1
  Si  Si10  1  0.333969  0.166985  0.500954  1
  Si  Si11  1  0.833015  0.166985  0.999046  1
  Si  Si12  1  0.833015  0.666031  0.999046  1
  Si  Si13  1  0.333969  0.166985  0.999046  1
  Si  Si14  1  0.166978  0.833022  0.001164  1
  Si  Si15  1  0.666045  0.833022  0.001164  1
  Si  Si16  1  0.166978  0.333955  0.001164  1
  Si  Si17  1  0.166978  0.833022  0.498836  1
  Si  Si18  1  0.666045  0.833022  0.498836  1
  Si  Si19  1  0.166978  0.333955  0.498836  1
  Rh  Rh20  1  0.666667  0.333333  0.468253  1
  Rh  Rh21  1  0.666667  0.333333  0.031747  1
  Rh  Rh22  1  0.333333  0.666667  0.968330  1
  Rh  Rh23  1  0.333333  0.666667  0.531670  1
