# generated using pymatgen
data_HoEr7Ti3Si16Tc9
_symmetry_space_group_name_H-M   'P 1'
_cell_length_a   6.77276574
_cell_length_b   6.77315847
_cell_length_c   12.89748102
_cell_angle_alpha   90.02834090
_cell_angle_beta   89.96306482
_cell_angle_gamma   89.55213037
_symmetry_Int_Tables_number   1
_chemical_formula_structural   HoEr7Ti3Si16Tc9
_chemical_formula_sum   'Ho1 Er7 Ti3 Si16 Tc9'
_cell_volume   591.62807614
_cell_formula_units_Z   1
loop_
 _symmetry_equiv_pos_site_id
 _symmetry_equiv_pos_as_xyz
  1  'x, y, z'
loop_
 _atom_site_type_symbol
 _atom_site_label
 _atom_site_symmetry_multiplicity
 _atom_site_fract_x
 _atom_site_fract_y
 _atom_site_fract_z
 _atom_site_occupancy
  Ho  Ho0  1  0.337362  0.994859  0.468597  1
  Er  Er1  1  0.507185  0.835600  0.718190  1
  Er  Er2  1  0.489255  0.166144  0.216377  1
  Er  Er3  1  0.835600  0.507109  0.281837  1
  Er  Er4  1  0.166108  0.489220  0.783587  1
  Er  Er5  1  0.659590  0.007601  0.969333  1
  Er  Er6  1  0.994689  0.337604  0.531400  1
  Er  Er7  1  0.007592  0.659600  0.030646  1
  Ti  Ti8  1  0.157028  0.843507  0.248808  1
  Ti  Ti9  1  0.843541  0.157049  0.751126  1
  Ti  Ti10  1  0.658070  0.658010  0.499997  1
  Si  Si11  1  0.206387  0.121609  0.680393  1
  Si  Si12  1  0.386330  0.693522  0.931450  1
  Si  Si13  1  0.621740  0.296336  0.431389  1
  Si  Si14  1  0.693538  0.386342  0.068556  1
  Si  Si15  1  0.296198  0.621419  0.568647  1
  Si  Si16  1  0.793527  0.880384  0.180942  1
  Si  Si17  1  0.121459  0.206559  0.319601  1
  Si  Si18  1  0.880381  0.793556  0.819054  1
  Si  Si19  1  0.267305  0.986862  0.053573  1
  Si  Si20  1  0.520702  0.782848  0.308201  1
  Si  Si21  1  0.479651  0.220595  0.810103  1
  Si  Si22  1  0.782969  0.520592  0.691715  1
  Si  Si23  1  0.220578  0.479666  0.189917  1
  Si  Si24  1  0.724983  0.019687  0.555836  1
  Si  Si25  1  0.986858  0.267297  0.946432  1
  Si  Si26  1  0.019573  0.724667  0.444209  1
  Tc  Tc27  1  0.337785  0.337788  0.999997  1
  Tc  Tc28  1  0.181026  0.989261  0.863257  1
  Tc  Tc29  1  0.498372  0.693632  0.117100  1
  Tc  Tc30  1  0.501399  0.318374  0.617753  1
  Tc  Tc31  1  0.693670  0.498352  0.882888  1
  Tc  Tc32  1  0.318245  0.501274  0.382292  1
  Tc  Tc33  1  0.819781  0.002325  0.363821  1
  Tc  Tc34  1  0.989244  0.181051  0.136758  1
  Tc  Tc35  1  0.002281  0.819700  0.636221  1
