# generated using pymatgen
data_CsSm(AuO2)4
_symmetry_space_group_name_H-M   'P 1'
_cell_length_a   6.23311400
_cell_length_b   7.19317600
_cell_length_c   5.68701900
_cell_angle_alpha   90.00000000
_cell_angle_beta   90.00000000
_cell_angle_gamma   90.00000000
_symmetry_Int_Tables_number   1
_chemical_formula_structural   CsSm(AuO2)4
_chemical_formula_sum   'Cs1 Sm1 Au4 O8'
_cell_volume   254.98253573
_cell_formula_units_Z   1
loop_
 _symmetry_equiv_pos_site_id
 _symmetry_equiv_pos_as_xyz
  1  'x, y, z'
loop_
 _atom_site_type_symbol
 _atom_site_label
 _atom_site_symmetry_multiplicity
 _atom_site_fract_x
 _atom_site_fract_y
 _atom_site_fract_z
 _atom_site_occupancy
  Cs  Cs0  1  0.000000  0.500000  0.500000  1
  Sm  Sm1  1  0.500000  0.000000  0.000000  1
  Au  Au2  1  0.000000  0.806579  0.000000  1
  Au  Au3  1  0.000000  0.193421  0.000000  1
  Au  Au4  1  0.230104  0.000000  0.500000  1
  Au  Au5  1  0.769896  0.000000  0.500000  1
  O  O6  1  0.249748  0.192099  0.235653  1
  O  O7  1  0.249748  0.192099  0.764347  1
  O  O8  1  0.249748  0.807901  0.235653  1
  O  O9  1  0.249748  0.807901  0.764347  1
  O  O10  1  0.750252  0.807901  0.235653  1
  O  O11  1  0.750252  0.192099  0.764347  1
  O  O12  1  0.750252  0.807901  0.764347  1
  O  O13  1  0.750252  0.192099  0.235653  1
