# generated using pymatgen
data_Yb(Tm3Ir2)3
_symmetry_space_group_name_H-M   'P 1'
_cell_length_a   10.73493306
_cell_length_b   10.76816800
_cell_length_c   6.30471868
_cell_angle_alpha   90.00000000
_cell_angle_beta   90.24744901
_cell_angle_gamma   90.00000000
_symmetry_Int_Tables_number   1
_chemical_formula_structural   Yb(Tm3Ir2)3
_chemical_formula_sum   'Yb2 Tm18 Ir12'
_cell_volume   728.79070657
_cell_formula_units_Z   2
loop_
 _symmetry_equiv_pos_site_id
 _symmetry_equiv_pos_as_xyz
  1  'x, y, z'
loop_
 _atom_site_type_symbol
 _atom_site_label
 _atom_site_symmetry_multiplicity
 _atom_site_fract_x
 _atom_site_fract_y
 _atom_site_fract_z
 _atom_site_occupancy
  Yb  Yb0  1  0.289031  0.087719  0.374266  1
  Yb  Yb1  1  0.289031  0.912281  0.874266  1
  Tm  Tm2  1  0.708619  0.086240  0.878011  1
  Tm  Tm3  1  0.708619  0.913760  0.378011  1
  Tm  Tm4  1  0.586922  0.792578  0.876746  1
  Tm  Tm5  1  0.586922  0.207422  0.376746  1
  Tm  Tm6  1  0.412724  0.792758  0.377877  1
  Tm  Tm7  1  0.412724  0.207242  0.877877  1
  Tm  Tm8  1  0.209266  0.413442  0.623594  1
  Tm  Tm9  1  0.209266  0.586558  0.123594  1
  Tm  Tm10  1  0.791501  0.412651  0.121736  1
  Tm  Tm11  1  0.791501  0.587349  0.621736  1
  Tm  Tm12  1  0.912894  0.709283  0.123760  1
  Tm  Tm13  1  0.912894  0.290717  0.623760  1
  Tm  Tm14  1  0.087294  0.708505  0.621848  1
  Tm  Tm15  1  0.087294  0.291495  0.121848  1
  Tm  Tm16  1  0.000451  0.999554  0.499738  1
  Tm  Tm17  1  0.000451  0.000446  0.999738  1
  Tm  Tm18  1  0.500118  0.499864  0.999140  1
  Tm  Tm19  1  0.500118  0.500136  0.499140  1
  Ir  Ir20  1  0.848318  0.153725  0.250138  1
  Ir  Ir21  1  0.848318  0.846275  0.750138  1
  Ir  Ir22  1  0.148065  0.159617  0.754149  1
  Ir  Ir23  1  0.148065  0.840383  0.254149  1
  Ir  Ir24  1  0.652278  0.345854  0.750350  1
  Ir  Ir25  1  0.652278  0.654146  0.250350  1
  Ir  Ir26  1  0.347402  0.351249  0.246596  1
  Ir  Ir27  1  0.347402  0.648751  0.746596  1
  Ir  Ir28  1  0.504973  0.000264  0.123424  1
  Ir  Ir29  1  0.504973  0.999736  0.623424  1
  Ir  Ir30  1  0.000146  0.500326  0.878627  1
  Ir  Ir31  1  0.000146  0.499674  0.378627  1
