# generated using pymatgen
data_TbY8HoRu4
_symmetry_space_group_name_H-M   'P 1'
_cell_length_a   6.39090039
_cell_length_b   7.30403175
_cell_length_c   8.53621507
_cell_angle_alpha   96.72321448
_cell_angle_beta   111.98355579
_cell_angle_gamma   89.99999462
_symmetry_Int_Tables_number   1
_chemical_formula_structural   TbY8HoRu4
_chemical_formula_sum   'Tb1 Y8 Ho1 Ru4'
_cell_volume   366.53638447
_cell_formula_units_Z   1
loop_
 _symmetry_equiv_pos_site_id
 _symmetry_equiv_pos_as_xyz
  1  'x, y, z'
loop_
 _atom_site_type_symbol
 _atom_site_label
 _atom_site_symmetry_multiplicity
 _atom_site_fract_x
 _atom_site_fract_y
 _atom_site_fract_z
 _atom_site_occupancy
  Tb  Tb0  1  0.422102  0.750000  0.000000  1
  Y  Y1  1  0.979349  0.915640  0.186387  1
  Y  Y2  1  0.792963  0.584360  0.813613  1
  Y  Y3  1  0.020241  0.085231  0.813630  1
  Y  Y4  1  0.206612  0.414769  0.186370  1
  Y  Y5  1  0.640686  0.814687  0.434123  1
  Y  Y6  1  0.206563  0.685313  0.565877  1
  Y  Y7  1  0.359850  0.185577  0.566372  1
  Y  Y8  1  0.793478  0.314423  0.433628  1
  Ho  Ho9  1  0.576934  0.250000  0.000000  1
  Ru  Ru10  1  0.823099  0.574741  0.219386  1
  Ru  Ru11  1  0.603714  0.925259  0.780614  1
  Ru  Ru12  1  0.177322  0.424351  0.780237  1
  Ru  Ru13  1  0.397085  0.075649  0.219763  1
