# generated using pymatgen
data_Lu12Mn(InTc)2
_symmetry_space_group_name_H-M   'P 1'
_cell_length_a   8.25050063
_cell_length_b   8.25050192
_cell_length_c   8.25050109
_cell_angle_alpha   108.65206912
_cell_angle_beta   108.65207631
_cell_angle_gamma   111.12223691
_symmetry_Int_Tables_number   1
_chemical_formula_structural   Lu12Mn(InTc)2
_chemical_formula_sum   'Lu12 Mn1 In2 Tc2'
_cell_volume   432.06361525
_cell_formula_units_Z   1
loop_
 _symmetry_equiv_pos_site_id
 _symmetry_equiv_pos_as_xyz
  1  'x, y, z'
loop_
 _atom_site_type_symbol
 _atom_site_label
 _atom_site_symmetry_multiplicity
 _atom_site_fract_x
 _atom_site_fract_y
 _atom_site_fract_z
 _atom_site_occupancy
  Lu  Lu0  1  0.304678  0.304678  0.611309  1
  Lu  Lu1  1  0.693369  0.693369  0.388691  1
  Lu  Lu2  1  0.693369  0.304678  0.000000  1
  Lu  Lu3  1  0.304678  0.693369  0.000000  1
  Lu  Lu4  1  0.189919  0.430521  0.240602  1
  Lu  Lu5  1  0.808472  0.569739  0.761267  1
  Lu  Lu6  1  0.189919  0.949315  0.759398  1
  Lu  Lu7  1  0.949315  0.189919  0.759398  1
  Lu  Lu8  1  0.808472  0.047206  0.238733  1
  Lu  Lu9  1  0.047206  0.808472  0.238733  1
  Lu  Lu10  1  0.430521  0.189919  0.240602  1
  Lu  Lu11  1  0.569739  0.808472  0.761267  1
  Mn  Mn12  1  0.632112  0.632112  0.000000  1
  In  In13  1  0.998214  0.498214  0.500000  1
  In  In14  1  0.498214  0.998214  0.500000  1
  Tc  Tc15  1  0.381691  0.381691  0.000000  1
  Tc  Tc16  1  0.000114  0.000114  0.000000  1
