# generated using pymatgen
data_SbIr3Se7
_symmetry_space_group_name_H-M   'P 1'
_cell_length_a   6.14194589
_cell_length_b   6.14194707
_cell_length_c   6.14194637
_cell_angle_alpha   91.48438192
_cell_angle_beta   91.48439181
_cell_angle_gamma   91.48438516
_symmetry_Int_Tables_number   1
_chemical_formula_structural   SbIr3Se7
_chemical_formula_sum   'Sb1 Ir3 Se7'
_cell_volume   231.45838782
_cell_formula_units_Z   1
loop_
 _symmetry_equiv_pos_site_id
 _symmetry_equiv_pos_as_xyz
  1  'x, y, z'
loop_
 _atom_site_type_symbol
 _atom_site_label
 _atom_site_symmetry_multiplicity
 _atom_site_fract_x
 _atom_site_fract_y
 _atom_site_fract_z
 _atom_site_occupancy
  Sb  Sb0  1  0.625642  0.625642  0.625642  1
  Ir  Ir1  1  0.498589  0.004065  0.497799  1
  Ir  Ir2  1  0.004065  0.497799  0.498589  1
  Ir  Ir3  1  0.497799  0.498589  0.004065  1
  Se  Se4  1  0.608741  0.884430  0.124474  1
  Se  Se5  1  0.884430  0.124474  0.608741  1
  Se  Se6  1  0.124474  0.608741  0.884430  1
  Se  Se7  1  0.374280  0.374280  0.374280  1
  Se  Se8  1  0.876246  0.389221  0.116513  1
  Se  Se9  1  0.116513  0.876246  0.389221  1
  Se  Se10  1  0.389221  0.116513  0.876246  1
