# generated using pymatgen
data_Ta5NbGa4(FeC)2
_symmetry_space_group_name_H-M   'P 1'
_cell_length_a   8.19559585
_cell_length_b   8.19559541
_cell_length_c   8.19298837
_cell_angle_alpha   59.95341798
_cell_angle_beta   59.95342514
_cell_angle_gamma   59.94520026
_symmetry_Int_Tables_number   1
_chemical_formula_structural   Ta5NbGa4(FeC)2
_chemical_formula_sum   'Ta10 Nb2 Ga8 Fe4 C4'
_cell_volume   388.68907735
_cell_formula_units_Z   2
loop_
 _symmetry_equiv_pos_site_id
 _symmetry_equiv_pos_as_xyz
  1  'x, y, z'
loop_
 _atom_site_type_symbol
 _atom_site_label
 _atom_site_symmetry_multiplicity
 _atom_site_fract_x
 _atom_site_fract_y
 _atom_site_fract_z
 _atom_site_occupancy
  Ta  Ta0  1  0.693709  0.305567  0.306190  1
  Ta  Ta1  1  0.305138  0.694512  0.304986  1
  Ta  Ta2  1  0.695062  0.694984  0.305279  1
  Ta  Ta3  1  0.305407  0.304671  0.694148  1
  Ta  Ta4  1  0.555016  0.554938  0.944721  1
  Ta  Ta5  1  0.946605  0.552859  0.553855  1
  Ta  Ta6  1  0.555488  0.944862  0.945014  1
  Ta  Ta7  1  0.945329  0.944593  0.555852  1
  Ta  Ta8  1  0.697141  0.303395  0.696145  1
  Ta  Ta9  1  0.944433  0.556291  0.943810  1
  Nb  Nb10  1  0.554642  0.944608  0.555376  1
  Nb  Nb11  1  0.305392  0.695358  0.694624  1
  Ga  Ga12  1  0.917292  0.915150  0.916608  1
  Ga  Ga13  1  0.998536  0.333907  0.332549  1
  Ga  Ga14  1  0.333759  0.999025  0.334464  1
  Ga  Ga15  1  0.332732  0.334845  0.998754  1
  Ga  Ga16  1  0.916093  0.251464  0.917451  1
  Ga  Ga17  1  0.915155  0.917268  0.251246  1
  Ga  Ga18  1  0.250975  0.916241  0.915536  1
  Ga  Ga19  1  0.334850  0.332708  0.333392  1
  Fe  Fe20  1  0.125188  0.124812  0.125000  1
  Fe  Fe21  1  0.625227  0.126469  0.121625  1
  Fe  Fe22  1  0.123531  0.624773  0.128375  1
  Fe  Fe23  1  0.120460  0.129540  0.625000  1
  C  C24  1  0.627664  0.622336  0.625000  1
  C  C25  1  0.124237  0.624294  0.624337  1
  C  C26  1  0.625706  0.125763  0.625663  1
  C  C27  1  0.625233  0.624767  0.125000  1
