# generated using pymatgen
data_MgNbP7Ru12
_symmetry_space_group_name_H-M   'P 1'
_cell_length_a   9.37466500
_cell_length_b   9.37466421
_cell_length_c   3.88683900
_cell_angle_alpha   90.00000000
_cell_angle_beta   90.00000000
_cell_angle_gamma   119.99999830
_symmetry_Int_Tables_number   1
_chemical_formula_structural   MgNbP7Ru12
_chemical_formula_sum   'Mg1 Nb1 P7 Ru12'
_cell_volume   295.82758564
_cell_formula_units_Z   1
loop_
 _symmetry_equiv_pos_site_id
 _symmetry_equiv_pos_as_xyz
  1  'x, y, z'
loop_
 _atom_site_type_symbol
 _atom_site_label
 _atom_site_symmetry_multiplicity
 _atom_site_fract_x
 _atom_site_fract_y
 _atom_site_fract_z
 _atom_site_occupancy
  Mg  Mg0  1  0.333333  0.666667  0.000000  1
  Nb  Nb1  1  0.666667  0.333333  0.500000  1
  P  P2  1  0.598528  0.720765  0.500000  1
  P  P3  1  0.000000  0.000000  0.000000  1
  P  P4  1  0.279235  0.877763  0.500000  1
  P  P5  1  0.122237  0.401472  0.500000  1
  P  P6  1  0.888533  0.573765  0.000000  1
  P  P7  1  0.426235  0.314767  0.000000  1
  P  P8  1  0.685233  0.111467  0.000000  1
  Ru  Ru9  1  0.553228  0.953670  0.500000  1
  Ru  Ru10  1  0.400441  0.446772  0.500000  1
  Ru  Ru11  1  0.914214  0.122740  0.500000  1
  Ru  Ru12  1  0.208526  0.085786  0.500000  1
  Ru  Ru13  1  0.877260  0.791474  0.500000  1
  Ru  Ru14  1  0.724906  0.886785  0.000000  1
  Ru  Ru15  1  0.113215  0.838120  0.000000  1
  Ru  Ru16  1  0.161880  0.275094  0.000000  1
  Ru  Ru17  1  0.429618  0.079544  0.000000  1
  Ru  Ru18  1  0.920456  0.350075  0.000000  1
  Ru  Ru19  1  0.649925  0.570382  0.000000  1
  Ru  Ru20  1  0.046330  0.599559  0.500000  1
