# generated using pymatgen
data_Tm6InGaOs
_symmetry_space_group_name_H-M   'P 1'
_cell_length_a   8.47970354
_cell_length_b   8.48039952
_cell_length_c   8.47970410
_cell_angle_alpha   113.45033388
_cell_angle_beta   110.76572514
_cell_angle_gamma   104.32639437
_symmetry_Int_Tables_number   1
_chemical_formula_structural   Tm6InGaOs
_chemical_formula_sum   'Tm12 In2 Ga2 Os2'
_cell_volume   466.34638940
_cell_formula_units_Z   2
loop_
 _symmetry_equiv_pos_site_id
 _symmetry_equiv_pos_as_xyz
  1  'x, y, z'
loop_
 _atom_site_type_symbol
 _atom_site_label
 _atom_site_symmetry_multiplicity
 _atom_site_fract_x
 _atom_site_fract_y
 _atom_site_fract_z
 _atom_site_occupancy
  Tm  Tm0  1  0.440038  0.236998  0.202959  1
  Tm  Tm1  1  0.559962  0.763002  0.797041  1
  Tm  Tm2  1  0.034038  0.236998  0.796960  1
  Tm  Tm3  1  0.965962  0.763002  0.203040  1
  Tm  Tm4  1  0.190599  0.273726  0.464363  1
  Tm  Tm5  1  0.809401  0.726274  0.535637  1
  Tm  Tm6  1  0.190638  0.726274  0.916873  1
  Tm  Tm7  1  0.809362  0.273726  0.083127  1
  Tm  Tm8  1  0.336357  0.645732  0.309375  1
  Tm  Tm9  1  0.663643  0.354268  0.690625  1
  Tm  Tm10  1  0.336380  0.027051  0.690671  1
  Tm  Tm11  1  0.663620  0.972949  0.309329  1
  In  In12  1  0.500000  0.500000  0.000000  1
  In  In13  1  0.000000  0.000000  0.000000  1
  Ga  Ga14  1  0.118793  0.618829  0.500036  1
  Ga  Ga15  1  0.881207  0.381171  0.499964  1
  Os  Os16  1  0.335099  0.000000  0.335099  1
  Os  Os17  1  0.664901  0.000000  0.664901  1
