# generated using pymatgen
data_Sc4TiOs7
_symmetry_space_group_name_H-M   'P 1'
_cell_length_a   5.27852700
_cell_length_b   5.27852597
_cell_length_c   8.45527400
_cell_angle_alpha   90.00000000
_cell_angle_beta   90.00000000
_cell_angle_gamma   120.00001271
_symmetry_Int_Tables_number   1
_chemical_formula_structural   Sc4TiOs7
_chemical_formula_sum   'Sc4 Ti1 Os7'
_cell_volume   204.02513407
_cell_formula_units_Z   1
loop_
 _symmetry_equiv_pos_site_id
 _symmetry_equiv_pos_as_xyz
  1  'x, y, z'
loop_
 _atom_site_type_symbol
 _atom_site_label
 _atom_site_symmetry_multiplicity
 _atom_site_fract_x
 _atom_site_fract_y
 _atom_site_fract_z
 _atom_site_occupancy
  Sc  Sc0  1  0.333333  0.666667  0.438730  1
  Sc  Sc1  1  0.666667  0.333333  0.561270  1
  Sc  Sc2  1  0.666667  0.333333  0.927004  1
  Sc  Sc3  1  0.333333  0.666667  0.072996  1
  Ti  Ti4  1  0.000000  0.000000  0.000000  1
  Os  Os5  1  0.173054  0.346107  0.750926  1
  Os  Os6  1  0.173054  0.826946  0.750926  1
  Os  Os7  1  0.346107  0.173054  0.249074  1
  Os  Os8  1  0.826946  0.653893  0.249074  1
  Os  Os9  1  0.653893  0.826946  0.750926  1
  Os  Os10  1  0.826946  0.173054  0.249074  1
  Os  Os11  1  0.000000  0.000000  0.500000  1
