# generated using pymatgen
data_TbTm3Hg2
_symmetry_space_group_name_H-M   'P 1'
_cell_length_a   5.04033800
_cell_length_b   7.05983408
_cell_length_c   9.14078683
_cell_angle_alpha   89.90678698
_cell_angle_beta   90.00000000
_cell_angle_gamma   90.00000000
_symmetry_Int_Tables_number   1
_chemical_formula_structural   TbTm3Hg2
_chemical_formula_sum   'Tb2 Tm6 Hg4'
_cell_volume   325.26487117
_cell_formula_units_Z   2
loop_
 _symmetry_equiv_pos_site_id
 _symmetry_equiv_pos_as_xyz
  1  'x, y, z'
loop_
 _atom_site_type_symbol
 _atom_site_label
 _atom_site_symmetry_multiplicity
 _atom_site_fract_x
 _atom_site_fract_y
 _atom_site_fract_z
 _atom_site_occupancy
  Tb  Tb0  1  0.750000  0.014794  0.691545  1
  Tb  Tb1  1  0.250000  0.985206  0.308455  1
  Tm  Tm2  1  0.750000  0.664089  0.423589  1
  Tm  Tm3  1  0.250000  0.335911  0.576411  1
  Tm  Tm4  1  0.750000  0.167832  0.074310  1
  Tm  Tm5  1  0.250000  0.832168  0.925690  1
  Tm  Tm6  1  0.750000  0.515298  0.808744  1
  Tm  Tm7  1  0.250000  0.484702  0.191256  1
  Hg  Hg8  1  0.750000  0.242571  0.397210  1
  Hg  Hg9  1  0.250000  0.757429  0.602790  1
  Hg  Hg10  1  0.750000  0.739995  0.100127  1
  Hg  Hg11  1  0.250000  0.260005  0.899873  1
