# generated using pymatgen
data_Y5(InSb)2
_symmetry_space_group_name_H-M   'P 1'
_cell_length_a   8.83414345
_cell_length_b   8.83414236
_cell_length_c   8.11758300
_cell_angle_alpha   90.00000000
_cell_angle_beta   90.00000000
_cell_angle_gamma   125.13596668
_symmetry_Int_Tables_number   1
_chemical_formula_structural   Y5(InSb)2
_chemical_formula_sum   'Y10 In4 Sb4'
_cell_volume   518.07976807
_cell_formula_units_Z   2
loop_
 _symmetry_equiv_pos_site_id
 _symmetry_equiv_pos_as_xyz
  1  'x, y, z'
loop_
 _atom_site_type_symbol
 _atom_site_label
 _atom_site_symmetry_multiplicity
 _atom_site_fract_x
 _atom_site_fract_y
 _atom_site_fract_z
 _atom_site_occupancy
  Y  Y0  1  0.032707  0.307959  0.333875  1
  Y  Y1  1  0.967293  0.692041  0.666125  1
  Y  Y2  1  0.467293  0.192041  0.833875  1
  Y  Y3  1  0.807959  0.532707  0.166125  1
  Y  Y4  1  0.532707  0.807959  0.166125  1
  Y  Y5  1  0.192041  0.467293  0.833875  1
  Y  Y6  1  0.692041  0.967293  0.666125  1
  Y  Y7  1  0.307959  0.032707  0.333875  1
  Y  Y8  1  0.000000  0.000000  0.000000  1
  Y  Y9  1  0.500000  0.500000  0.500000  1
  In  In10  1  0.370406  0.370406  0.128539  1
  In  In11  1  0.629594  0.629594  0.871461  1
  In  In12  1  0.129594  0.129594  0.628539  1
  In  In13  1  0.870406  0.870406  0.371461  1
  Sb  Sb14  1  0.797357  0.202643  0.000000  1
  Sb  Sb15  1  0.202643  0.797357  0.000000  1
  Sb  Sb16  1  0.702643  0.297357  0.500000  1
  Sb  Sb17  1  0.297357  0.702643  0.500000  1
