# generated using pymatgen
data_Ti6Al8Si8Ir7
_symmetry_space_group_name_H-M   'P 1'
_cell_length_a   8.44056277
_cell_length_b   8.44056270
_cell_length_c   8.44056400
_cell_angle_alpha   60.00000273
_cell_angle_beta   60.00000301
_cell_angle_gamma   60.00000626
_symmetry_Int_Tables_number   1
_chemical_formula_structural   Ti6Al8Si8Ir7
_chemical_formula_sum   'Ti6 Al8 Si8 Ir7'
_cell_volume   425.20593015
_cell_formula_units_Z   1
loop_
 _symmetry_equiv_pos_site_id
 _symmetry_equiv_pos_as_xyz
  1  'x, y, z'
loop_
 _atom_site_type_symbol
 _atom_site_label
 _atom_site_symmetry_multiplicity
 _atom_site_fract_x
 _atom_site_fract_y
 _atom_site_fract_z
 _atom_site_occupancy
  Ti  Ti0  1  0.191680  0.808320  0.808320  1
  Ti  Ti1  1  0.808320  0.191680  0.191680  1
  Ti  Ti2  1  0.808320  0.191680  0.808320  1
  Ti  Ti3  1  0.808320  0.808320  0.191680  1
  Ti  Ti4  1  0.191680  0.808320  0.191680  1
  Ti  Ti5  1  0.191680  0.191680  0.808320  1
  Al  Al6  1  0.621139  0.621139  0.621139  1
  Al  Al7  1  0.621139  0.621139  0.136581  1
  Al  Al8  1  0.136581  0.621139  0.621139  1
  Al  Al9  1  0.621139  0.136581  0.621139  1
  Al  Al10  1  0.378861  0.378861  0.378861  1
  Al  Al11  1  0.378861  0.378861  0.863419  1
  Al  Al12  1  0.378861  0.863419  0.378861  1
  Al  Al13  1  0.863419  0.378861  0.378861  1
  Si  Si14  1  0.848989  0.848989  0.848989  1
  Si  Si15  1  0.848989  0.848989  0.453033  1
  Si  Si16  1  0.453033  0.848989  0.848989  1
  Si  Si17  1  0.848989  0.453033  0.848989  1
  Si  Si18  1  0.151011  0.151011  0.151011  1
  Si  Si19  1  0.151011  0.151011  0.546967  1
  Si  Si20  1  0.151011  0.546967  0.151011  1
  Si  Si21  1  0.546967  0.151011  0.151011  1
  Ir  Ir22  1  0.500000  0.500000  0.500000  1
  Ir  Ir23  1  0.000000  0.500000  0.500000  1
  Ir  Ir24  1  0.500000  0.000000  0.000000  1
  Ir  Ir25  1  0.500000  0.000000  0.500000  1
  Ir  Ir26  1  0.500000  0.500000  0.000000  1
  Ir  Ir27  1  0.000000  0.500000  0.000000  1
  Ir  Ir28  1  0.000000  0.000000  0.500000  1
