# generated using pymatgen
data_Hf3Zr3Al16Pt5Rh2
_symmetry_space_group_name_H-M   'P 1'
_cell_length_a   8.74855761
_cell_length_b   8.75060653
_cell_length_c   8.74538439
_cell_angle_alpha   60.15132130
_cell_angle_beta   60.02765797
_cell_angle_gamma   59.96855467
_symmetry_Int_Tables_number   1
_chemical_formula_structural   Hf3Zr3Al16Pt5Rh2
_chemical_formula_sum   'Hf3 Zr3 Al16 Pt5 Rh2'
_cell_volume   473.93636253
_cell_formula_units_Z   1
loop_
 _symmetry_equiv_pos_site_id
 _symmetry_equiv_pos_as_xyz
  1  'x, y, z'
loop_
 _atom_site_type_symbol
 _atom_site_label
 _atom_site_symmetry_multiplicity
 _atom_site_fract_x
 _atom_site_fract_y
 _atom_site_fract_z
 _atom_site_occupancy
  Hf  Hf0  1  0.317071  0.315432  0.684569  1
  Hf  Hf1  1  0.681926  0.317613  0.682384  1
  Hf  Hf2  1  0.684128  0.683526  0.316476  1
  Zr  Zr3  1  0.686693  0.313289  0.314449  1
  Zr  Zr4  1  0.314433  0.685545  0.686713  1
  Zr  Zr5  1  0.314265  0.685988  0.314014  1
  Al  Al6  1  0.335903  0.334949  0.335402  1
  Al  Al7  1  0.337939  0.332135  0.992338  1
  Al  Al8  1  0.992775  0.335451  0.335790  1
  Al  Al9  1  0.337573  0.993204  0.332071  1
  Al  Al10  1  0.664017  0.664210  0.664551  1
  Al  Al11  1  0.662848  0.667930  0.006797  1
  Al  Al12  1  0.662410  0.007664  0.667865  1
  Al  Al13  1  0.006256  0.664598  0.665050  1
  Al  Al14  1  0.123922  0.116734  0.116381  1
  Al  Al15  1  0.118918  0.117861  0.644138  1
  Al  Al16  1  0.643159  0.116480  0.116321  1
  Al  Al17  1  0.118968  0.644028  0.117776  1
  Al  Al18  1  0.875959  0.883679  0.883520  1
  Al  Al19  1  0.880771  0.882224  0.355974  1
  Al  Al20  1  0.880916  0.355865  0.882139  1
  Al  Al21  1  0.357038  0.883620  0.883265  1
  Pt  Pt22  1  0.999783  0.499246  0.500755  1
  Pt  Pt23  1  0.000305  0.499698  0.000279  1
  Pt  Pt24  1  0.999794  0.000165  0.500843  1
  Pt  Pt25  1  0.500284  0.999722  0.500301  1
  Pt  Pt26  1  0.500801  0.499157  0.999837  1
  Rh  Rh27  1  0.000363  0.999696  0.000288  1
  Rh  Rh28  1  0.500781  0.000289  0.999714  1
