# generated using pymatgen
data_La8Si13Ir3
_symmetry_space_group_name_H-M   'P 1'
_cell_length_a   8.26130800
_cell_length_b   8.26130972
_cell_length_c   8.59297600
_cell_angle_alpha   90.00000000
_cell_angle_beta   90.00000000
_cell_angle_gamma   120.00000114
_symmetry_Int_Tables_number   1
_chemical_formula_structural   La8Si13Ir3
_chemical_formula_sum   'La8 Si13 Ir3'
_cell_volume   507.89266827
_cell_formula_units_Z   1
loop_
 _symmetry_equiv_pos_site_id
 _symmetry_equiv_pos_as_xyz
  1  'x, y, z'
loop_
 _atom_site_type_symbol
 _atom_site_label
 _atom_site_symmetry_multiplicity
 _atom_site_fract_x
 _atom_site_fract_y
 _atom_site_fract_z
 _atom_site_occupancy
  La  La0  1  0.499424  0.500576  0.752723  1
  La  La1  1  0.499868  0.500132  0.247554  1
  La  La2  1  0.001152  0.500576  0.752723  1
  La  La3  1  0.000267  0.500132  0.247554  1
  La  La4  1  0.499424  0.998848  0.752723  1
  La  La5  1  0.499868  0.999733  0.247554  1
  La  La6  1  0.000000  0.000000  0.751190  1
  La  La7  1  0.000000  0.000000  0.248080  1
  Si  Si8  1  0.833350  0.166650  0.999861  1
  Si  Si9  1  0.166206  0.833794  0.999832  1
  Si  Si10  1  0.333297  0.166650  0.999861  1
  Si  Si11  1  0.168395  0.831605  0.501488  1
  Si  Si12  1  0.667586  0.833794  0.999832  1
  Si  Si13  1  0.836254  0.163746  0.498804  1
  Si  Si14  1  0.833350  0.666703  0.999861  1
  Si  Si15  1  0.663210  0.831605  0.501488  1
  Si  Si16  1  0.166206  0.332414  0.999832  1
  Si  Si17  1  0.327490  0.163746  0.498804  1
  Si  Si18  1  0.168395  0.336790  0.501488  1
  Si  Si19  1  0.836254  0.672510  0.498804  1
  Si  Si20  1  0.666667  0.333333  0.502019  1
  Ir  Ir21  1  0.666667  0.333333  0.000343  1
  Ir  Ir22  1  0.333333  0.666667  0.000858  1
  Ir  Ir23  1  0.333333  0.666667  0.496721  1
