# generated using pymatgen
data_Rb2NaCoO4
_symmetry_space_group_name_H-M   'P 1'
_cell_length_a   6.04065600
_cell_length_b   6.02826629
_cell_length_c   7.93122582
_cell_angle_alpha   87.42459273
_cell_angle_beta   90.00000000
_cell_angle_gamma   90.00000000
_symmetry_Int_Tables_number   1
_chemical_formula_structural   Rb2NaCoO4
_chemical_formula_sum   'Rb4 Na2 Co2 O8'
_cell_volume   288.52135745
_cell_formula_units_Z   2
loop_
 _symmetry_equiv_pos_site_id
 _symmetry_equiv_pos_as_xyz
  1  'x, y, z'
loop_
 _atom_site_type_symbol
 _atom_site_label
 _atom_site_symmetry_multiplicity
 _atom_site_fract_x
 _atom_site_fract_y
 _atom_site_fract_z
 _atom_site_occupancy
  Rb  Rb0  1  0.750000  0.203646  0.513619  1
  Rb  Rb1  1  0.250000  0.796354  0.486381  1
  Rb  Rb2  1  0.250000  0.371284  0.172816  1
  Rb  Rb3  1  0.750000  0.628716  0.827184  1
  Na  Na4  1  0.250000  0.876809  0.965158  1
  Na  Na5  1  0.750000  0.123191  0.034842  1
  Co  Co6  1  0.750000  0.704452  0.255656  1
  Co  Co7  1  0.250000  0.295548  0.744344  1
  O  O8  1  0.976579  0.841045  0.173740  1
  O  O9  1  0.476579  0.158955  0.826260  1
  O  O10  1  0.023421  0.158955  0.826260  1
  O  O11  1  0.523421  0.841045  0.173740  1
  O  O12  1  0.250000  0.560456  0.811396  1
  O  O13  1  0.250000  0.292344  0.531081  1
  O  O14  1  0.750000  0.439544  0.188604  1
  O  O15  1  0.750000  0.707656  0.468919  1
