# generated using pymatgen
data_V3Ni2AsN
_symmetry_space_group_name_H-M   'P 1'
_cell_length_a   7.67586116
_cell_length_b   7.67556879
_cell_length_c   7.67546500
_cell_angle_alpha   59.99920111
_cell_angle_beta   59.99928698
_cell_angle_gamma   59.99961098
_symmetry_Int_Tables_number   1
_chemical_formula_structural   V3Ni2AsN
_chemical_formula_sum   'V12 Ni8 As4 N4'
_cell_volume   319.75779272
_cell_formula_units_Z   4
loop_
 _symmetry_equiv_pos_site_id
 _symmetry_equiv_pos_as_xyz
  1  'x, y, z'
loop_
 _atom_site_type_symbol
 _atom_site_label
 _atom_site_symmetry_multiplicity
 _atom_site_fract_x
 _atom_site_fract_y
 _atom_site_fract_z
 _atom_site_occupancy
  V  V0  1  0.819860  0.820030  0.180065  1
  V  V1  1  0.180074  0.180041  0.819876  1
  V  V2  1  0.820041  0.180041  0.819840  1
  V  V3  1  0.180042  0.820065  0.180065  1
  V  V4  1  0.180061  0.820121  0.819754  1
  V  V5  1  0.819970  0.180035  0.180091  1
  V  V6  1  0.430140  0.429970  0.069935  1
  V  V7  1  0.069926  0.069959  0.430124  1
  V  V8  1  0.429959  0.069959  0.430160  1
  V  V9  1  0.069958  0.429935  0.069935  1
  V  V10  1  0.069939  0.429879  0.430246  1
  V  V11  1  0.430030  0.069965  0.069909  1
  Ni  Ni12  1  0.752210  0.415883  0.415970  1
  Ni  Ni13  1  0.415876  0.752303  0.415926  1
  Ni  Ni14  1  0.415968  0.415915  0.752136  1
  Ni  Ni15  1  0.415940  0.415896  0.415992  1
  Ni  Ni16  1  0.497790  0.834117  0.834030  1
  Ni  Ni17  1  0.834124  0.497697  0.834074  1
  Ni  Ni18  1  0.834032  0.834085  0.497864  1
  Ni  Ni19  1  0.834060  0.834104  0.834008  1
  As  As20  1  0.125000  0.625000  0.625000  1
  As  As21  1  0.625000  0.125000  0.625000  1
  As  As22  1  0.625000  0.625000  0.125000  1
  As  As23  1  0.625000  0.625000  0.625000  1
  N  N24  1  0.625000  0.125000  0.125000  1
  N  N25  1  0.125000  0.625000  0.125000  1
  N  N26  1  0.125000  0.125000  0.625000  1
  N  N27  1  0.125000  0.125000  0.125000  1
