# generated using pymatgen
data_Li2GdDyB28
_symmetry_space_group_name_H-M   'P 1'
_cell_length_a   7.26898246
_cell_length_b   7.26898205
_cell_length_c   7.26898224
_cell_angle_alpha   132.35608202
_cell_angle_beta   110.87782214
_cell_angle_gamma   88.27443334
_symmetry_Int_Tables_number   1
_chemical_formula_structural   Li2GdDyB28
_chemical_formula_sum   'Li2 Gd1 Dy1 B28'
_cell_volume   252.62630534
_cell_formula_units_Z   1
loop_
 _symmetry_equiv_pos_site_id
 _symmetry_equiv_pos_as_xyz
  1  'x, y, z'
loop_
 _atom_site_type_symbol
 _atom_site_label
 _atom_site_symmetry_multiplicity
 _atom_site_fract_x
 _atom_site_fract_y
 _atom_site_fract_z
 _atom_site_occupancy
  Li  Li0  1  0.000167  0.999869  0.500035  1
  Li  Li1  1  0.000167  0.500131  0.000298  1
  Gd  Gd2  1  0.619944  0.250000  0.369944  1
  Dy  Dy3  1  0.378606  0.750000  0.628606  1
  B  B4  1  0.638468  0.665923  0.972546  1
  B  B5  1  0.361440  0.334110  0.027329  1
  B  B6  1  0.193219  0.165890  0.027329  1
  B  B7  1  0.806623  0.834077  0.972546  1
  B  B8  1  0.778289  0.148987  0.629302  1
  B  B9  1  0.222234  0.850980  0.371254  1
  B  B10  1  0.020275  0.649020  0.371254  1
  B  B11  1  0.980316  0.351013  0.629302  1
  B  B12  1  0.916196  0.089017  0.827179  1
  B  B13  1  0.084295  0.911052  0.173243  1
  B  B14  1  0.762191  0.588948  0.173243  1
  B  B15  1  0.238161  0.410983  0.827179  1
  B  B16  1  0.398178  0.400512  0.681552  1
  B  B17  1  0.601498  0.282619  0.001232  1
  B  B18  1  0.218613  0.899734  0.001232  1
  B  B19  1  0.781040  0.783374  0.681552  1
  B  B20  1  0.601498  0.600266  0.318879  1
  B  B21  1  0.398178  0.716626  0.997666  1
  B  B22  1  0.781040  0.099488  0.997666  1
  B  B23  1  0.218613  0.217381  0.318879  1
  B  B24  1  0.033459  0.829814  0.703347  1
  B  B25  1  0.966753  0.670257  0.796888  1
  B  B26  1  0.626631  0.330135  0.796888  1
  B  B27  1  0.373534  0.169889  0.703347  1
  B  B28  1  0.966753  0.169865  0.296497  1
  B  B29  1  0.033459  0.330111  0.203645  1
  B  B30  1  0.373534  0.670186  0.203645  1
  B  B31  1  0.626631  0.829743  0.296497  1
