# generated using pymatgen
data_PrInAu5
_symmetry_space_group_name_H-M   'P 1'
_cell_length_a   5.86065104
_cell_length_b   5.86065048
_cell_length_c   5.86065247
_cell_angle_alpha   102.83966735
_cell_angle_beta   102.84011163
_cell_angle_gamma   123.74828324
_symmetry_Int_Tables_number   1
_chemical_formula_structural   PrInAu5
_chemical_formula_sum   'Pr1 In1 Au5'
_cell_volume   147.61111576
_cell_formula_units_Z   1
loop_
 _symmetry_equiv_pos_site_id
 _symmetry_equiv_pos_as_xyz
  1  'x, y, z'
loop_
 _atom_site_type_symbol
 _atom_site_label
 _atom_site_symmetry_multiplicity
 _atom_site_fract_x
 _atom_site_fract_y
 _atom_site_fract_z
 _atom_site_occupancy
  Pr  Pr0  1  0.000000  0.000000  0.000000  1
  In  In1  1  0.750000  0.250000  0.500000  1
  Au  Au2  1  0.306026  0.693973  0.000000  1
  Au  Au3  1  0.693974  0.306027  0.000000  1
  Au  Au4  1  0.693973  0.693973  0.387946  1
  Au  Au5  1  0.306027  0.306027  0.612054  1
  Au  Au6  1  0.250000  0.750000  0.500000  1
