# generated using pymatgen
data_Ba8Sr3Ca(OsO6)4
_symmetry_space_group_name_H-M   'P 1'
_cell_length_a   6.12874581
_cell_length_b   10.43295063
_cell_length_c   10.57637557
_cell_angle_alpha   98.79042969
_cell_angle_beta   106.78659082
_cell_angle_gamma   90.02030773
_symmetry_Int_Tables_number   1
_chemical_formula_structural   Ba8Sr3Ca(OsO6)4
_chemical_formula_sum   'Ba8 Sr3 Ca1 Os4 O24'
_cell_volume   639.13275369
_cell_formula_units_Z   1
loop_
 _symmetry_equiv_pos_site_id
 _symmetry_equiv_pos_as_xyz
  1  'x, y, z'
loop_
 _atom_site_type_symbol
 _atom_site_label
 _atom_site_symmetry_multiplicity
 _atom_site_fract_x
 _atom_site_fract_y
 _atom_site_fract_z
 _atom_site_occupancy
  Ba  Ba0  1  0.313549  0.934443  0.126106  1
  Ba  Ba1  1  0.061101  0.189157  0.624093  1
  Ba  Ba2  1  0.817184  0.435709  0.131510  1
  Ba  Ba3  1  0.560256  0.681437  0.622785  1
  Ba  Ba4  1  0.439744  0.318563  0.377215  1
  Ba  Ba5  1  0.182816  0.564291  0.868490  1
  Ba  Ba6  1  0.938899  0.810843  0.375907  1
  Ba  Ba7  1  0.686451  0.065557  0.873894  1
  Sr  Sr8  1  0.751027  0.749917  0.001436  1
  Sr  Sr9  1  0.500000  0.000000  0.500000  1
  Sr  Sr10  1  0.248973  0.250083  0.998564  1
  Ca  Ca11  1  0.000000  0.500000  0.500000  1
  Os  Os12  1  0.377866  0.622921  0.253322  1
  Os  Os13  1  0.123347  0.872054  0.748227  1
  Os  Os14  1  0.876653  0.127946  0.251773  1
  Os  Os15  1  0.622134  0.377079  0.746678  1
  O  O16  1  0.824878  0.446745  0.656314  1
  O  O17  1  0.579484  0.695281  0.167089  1
  O  O18  1  0.330473  0.942971  0.665527  1
  O  O19  1  0.080526  0.198272  0.166465  1
  O  O20  1  0.350696  0.422818  0.611180  1
  O  O21  1  0.113072  0.667064  0.115771  1
  O  O22  1  0.863296  0.919089  0.611083  1
  O  O23  1  0.615274  0.173070  0.113030  1
  O  O24  1  0.626005  0.544833  0.855003  1
  O  O25  1  0.379634  0.791396  0.361154  1
  O  O26  1  0.125507  0.040884  0.858159  1
  O  O27  1  0.883942  0.298370  0.362988  1
  O  O28  1  0.420516  0.304719  0.832911  1
  O  O29  1  0.175122  0.553255  0.343686  1
  O  O30  1  0.919474  0.801728  0.833535  1
  O  O31  1  0.669527  0.057029  0.334473  1
  O  O32  1  0.886928  0.332936  0.884229  1
  O  O33  1  0.649304  0.577182  0.388820  1
  O  O34  1  0.384726  0.826930  0.886970  1
  O  O35  1  0.136704  0.080911  0.388917  1
  O  O36  1  0.620366  0.208604  0.638846  1
  O  O37  1  0.373995  0.455167  0.144997  1
  O  O38  1  0.116058  0.701630  0.637012  1
  O  O39  1  0.874493  0.959116  0.141841  1
