# generated using pymatgen
data_Cs3BiTe3
_symmetry_space_group_name_H-M   'P 1'
_cell_length_a   11.48772400
_cell_length_b   11.48772400
_cell_length_c   11.48772400
_cell_angle_alpha   90.00000000
_cell_angle_beta   90.00000000
_cell_angle_gamma   90.00000000
_symmetry_Int_Tables_number   1
_chemical_formula_structural   Cs3BiTe3
_chemical_formula_sum   'Cs12 Bi4 Te12'
_cell_volume   1516.00969431
_cell_formula_units_Z   4
loop_
 _symmetry_equiv_pos_site_id
 _symmetry_equiv_pos_as_xyz
  1  'x, y, z'
loop_
 _atom_site_type_symbol
 _atom_site_label
 _atom_site_symmetry_multiplicity
 _atom_site_fract_x
 _atom_site_fract_y
 _atom_site_fract_z
 _atom_site_occupancy
  Cs  Cs0  1  0.320957  0.320957  0.320957  1
  Cs  Cs1  1  0.179043  0.679043  0.820957  1
  Cs  Cs2  1  0.820957  0.179043  0.679043  1
  Cs  Cs3  1  0.679043  0.820957  0.179043  1
  Cs  Cs4  1  0.572783  0.572783  0.572783  1
  Cs  Cs5  1  0.927217  0.427217  0.072783  1
  Cs  Cs6  1  0.072783  0.927217  0.427217  1
  Cs  Cs7  1  0.427217  0.072783  0.927217  1
  Cs  Cs8  1  0.813838  0.813838  0.813838  1
  Cs  Cs9  1  0.686162  0.186162  0.313838  1
  Cs  Cs10  1  0.313838  0.686162  0.186162  1
  Cs  Cs11  1  0.186162  0.313838  0.686162  1
  Bi  Bi12  1  0.025702  0.025702  0.025702  1
  Bi  Bi13  1  0.474298  0.974298  0.525702  1
  Bi  Bi14  1  0.525702  0.474298  0.974298  1
  Bi  Bi15  1  0.974298  0.525702  0.474298  1
  Te  Te16  1  0.213609  0.605979  0.496772  1
  Te  Te17  1  0.496772  0.213609  0.605979  1
  Te  Te18  1  0.605979  0.496772  0.213609  1
  Te  Te19  1  0.894021  0.503228  0.713609  1
  Te  Te20  1  0.996772  0.286391  0.394021  1
  Te  Te21  1  0.394021  0.996772  0.286391  1
  Te  Te22  1  0.003228  0.786391  0.105979  1
  Te  Te23  1  0.503228  0.713609  0.894021  1
  Te  Te24  1  0.105979  0.003228  0.786391  1
  Te  Te25  1  0.713609  0.894021  0.503228  1
  Te  Te26  1  0.786391  0.105979  0.003228  1
  Te  Te27  1  0.286391  0.394021  0.996772  1
