# generated using pymatgen
data_Pr2GaIrI
_symmetry_space_group_name_H-M   'P 1'
_cell_length_a   4.38220600
_cell_length_b   4.38220451
_cell_length_c   17.35299500
_cell_angle_alpha   90.00000000
_cell_angle_beta   90.00000000
_cell_angle_gamma   120.00001125
_symmetry_Int_Tables_number   1
_chemical_formula_structural   Pr2GaIrI
_chemical_formula_sum   'Pr4 Ga2 Ir2 I2'
_cell_volume   288.59609791
_cell_formula_units_Z   2
loop_
 _symmetry_equiv_pos_site_id
 _symmetry_equiv_pos_as_xyz
  1  'x, y, z'
loop_
 _atom_site_type_symbol
 _atom_site_label
 _atom_site_symmetry_multiplicity
 _atom_site_fract_x
 _atom_site_fract_y
 _atom_site_fract_z
 _atom_site_occupancy
  Pr  Pr0  1  0.000000  0.000000  0.396351  1
  Pr  Pr1  1  0.000000  0.000000  0.896351  1
  Pr  Pr2  1  0.000000  0.000000  0.606190  1
  Pr  Pr3  1  0.000000  0.000000  0.106190  1
  Ga  Ga4  1  0.333333  0.666667  0.502291  1
  Ga  Ga5  1  0.666667  0.333333  0.002291  1
  Ir  Ir6  1  0.666667  0.333333  0.497114  1
  Ir  Ir7  1  0.333333  0.666667  0.997114  1
  I  I8  1  0.333333  0.666667  0.248054  1
  I  I9  1  0.666667  0.333333  0.748054  1
