# generated using pymatgen
data_Eu2MnN3
_symmetry_space_group_name_H-M   'P 1'
_cell_length_a   6.07464409
_cell_length_b   6.07464445
_cell_length_c   11.97061900
_cell_angle_alpha   90.00000000
_cell_angle_beta   90.00000000
_cell_angle_gamma   125.76397747
_symmetry_Int_Tables_number   1
_chemical_formula_structural   Eu2MnN3
_chemical_formula_sum   'Eu8 Mn4 N12'
_cell_volume   358.43477252
_cell_formula_units_Z   4
loop_
 _symmetry_equiv_pos_site_id
 _symmetry_equiv_pos_as_xyz
  1  'x, y, z'
loop_
 _atom_site_type_symbol
 _atom_site_label
 _atom_site_symmetry_multiplicity
 _atom_site_fract_x
 _atom_site_fract_y
 _atom_site_fract_z
 _atom_site_occupancy
  Eu  Eu0  1  0.053376  0.946624  0.857388  1
  Eu  Eu1  1  0.946624  0.053376  0.142612  1
  Eu  Eu2  1  0.446624  0.553376  0.357388  1
  Eu  Eu3  1  0.553376  0.446624  0.642612  1
  Eu  Eu4  1  0.642612  0.357388  0.079334  1
  Eu  Eu5  1  0.357388  0.642612  0.920666  1
  Eu  Eu6  1  0.857388  0.142612  0.579334  1
  Eu  Eu7  1  0.142612  0.857388  0.420666  1
  Mn  Mn8  1  0.741577  0.258423  0.838576  1
  Mn  Mn9  1  0.258423  0.741577  0.161424  1
  Mn  Mn10  1  0.758423  0.241577  0.338576  1
  Mn  Mn11  1  0.241577  0.758423  0.661424  1
  N  N12  1  0.577545  0.422455  0.867959  1
  N  N13  1  0.422455  0.577545  0.132041  1
  N  N14  1  0.922455  0.077545  0.367959  1
  N  N15  1  0.077545  0.922455  0.632041  1
  N  N16  1  0.526301  0.973699  0.750000  1
  N  N17  1  0.973699  0.526301  0.250000  1
  N  N18  1  0.473699  0.026301  0.250000  1
  N  N19  1  0.026301  0.473699  0.750000  1
  N  N20  1  0.843244  0.156756  0.958486  1
  N  N21  1  0.156756  0.843244  0.041514  1
  N  N22  1  0.656756  0.343244  0.458486  1
  N  N23  1  0.343244  0.656756  0.541514  1
