# generated using pymatgen
data_La6Pr10MgCd3Ir4
_symmetry_space_group_name_H-M   'P 1'
_cell_length_a   10.05324853
_cell_length_b   10.10525345
_cell_length_c   10.10525810
_cell_angle_alpha   59.64620666
_cell_angle_beta   60.29704815
_cell_angle_gamma   60.29710334
_symmetry_Int_Tables_number   1
_chemical_formula_structural   La6Pr10MgCd3Ir4
_chemical_formula_sum   'La6 Pr10 Mg1 Cd3 Ir4'
_cell_volume   727.17127431
_cell_formula_units_Z   1
loop_
 _symmetry_equiv_pos_site_id
 _symmetry_equiv_pos_as_xyz
  1  'x, y, z'
loop_
 _atom_site_type_symbol
 _atom_site_label
 _atom_site_symmetry_multiplicity
 _atom_site_fract_x
 _atom_site_fract_y
 _atom_site_fract_z
 _atom_site_occupancy
  La  La0  1  0.345494  0.348069  0.348069  1
  La  La1  1  0.348295  0.345298  0.958989  1
  La  La2  1  0.348295  0.958989  0.345298  1
  La  La3  1  0.959466  0.347726  0.347726  1
  La  La4  1  0.811748  0.188364  0.188364  1
  La  La5  1  0.185884  0.813064  0.813066  1
  Pr  Pr6  1  0.191541  0.808675  0.191622  1
  Pr  Pr7  1  0.808730  0.189795  0.809256  1
  Pr  Pr8  1  0.191540  0.191622  0.808675  1
  Pr  Pr9  1  0.808730  0.809257  0.189794  1
  Pr  Pr10  1  0.937187  0.563918  0.563919  1
  Pr  Pr11  1  0.561602  0.937354  0.937355  1
  Pr  Pr12  1  0.562318  0.939032  0.562428  1
  Pr  Pr13  1  0.939049  0.560998  0.938650  1
  Pr  Pr14  1  0.562318  0.562428  0.939032  1
  Pr  Pr15  1  0.939050  0.938650  0.560998  1
  Mg  Mg16  1  0.576273  0.574626  0.574626  1
  Cd  Cd17  1  0.580461  0.581995  0.257758  1
  Cd  Cd18  1  0.580461  0.257758  0.581995  1
  Cd  Cd19  1  0.257255  0.580582  0.580582  1
  Ir  Ir20  1  0.137578  0.144103  0.144103  1
  Ir  Ir21  1  0.145376  0.137048  0.575598  1
  Ir  Ir22  1  0.145376  0.575598  0.137048  1
  Ir  Ir23  1  0.575970  0.145047  0.145047  1
