# generated using pymatgen
data_BiSbI18
_symmetry_space_group_name_H-M   'P 1'
_cell_length_a   10.46057839
_cell_length_b   10.49355639
_cell_length_c   10.44537889
_cell_angle_alpha   88.58935980
_cell_angle_beta   88.70519336
_cell_angle_gamma   88.48392716
_symmetry_Int_Tables_number   1
_chemical_formula_structural   BiSbI18
_chemical_formula_sum   'Bi1 Sb1 I18'
_cell_volume   1145.55029953
_cell_formula_units_Z   1
loop_
 _symmetry_equiv_pos_site_id
 _symmetry_equiv_pos_as_xyz
  1  'x, y, z'
loop_
 _atom_site_type_symbol
 _atom_site_label
 _atom_site_symmetry_multiplicity
 _atom_site_fract_x
 _atom_site_fract_y
 _atom_site_fract_z
 _atom_site_occupancy
  Bi  Bi0  1  0.000000  0.000000  0.000000  1
  Sb  Sb1  1  0.500000  0.500000  0.500000  1
  I  I2  1  0.792600  0.465107  0.502777  1
  I  I3  1  0.501360  0.791532  0.464190  1
  I  I4  1  0.465304  0.502680  0.792885  1
  I  I5  1  0.207400  0.534893  0.497223  1
  I  I6  1  0.498640  0.208468  0.535810  1
  I  I7  1  0.534696  0.497320  0.207115  1
  I  I8  1  0.896377  0.379009  0.748360  1
  I  I9  1  0.746340  0.894788  0.379156  1
  I  I10  1  0.379386  0.747234  0.896299  1
  I  I11  1  0.103623  0.620991  0.251640  1
  I  I12  1  0.253660  0.105212  0.620844  1
  I  I13  1  0.620614  0.252766  0.103701  1
  I  I14  1  0.016267  0.978908  0.701454  1
  I  I15  1  0.702137  0.015927  0.976792  1
  I  I16  1  0.977010  0.703035  0.013579  1
  I  I17  1  0.983733  0.021092  0.298546  1
  I  I18  1  0.297863  0.984073  0.023208  1
  I  I19  1  0.022990  0.296965  0.986421  1
