# generated using pymatgen
data_Th3Zn3PtAu2
_symmetry_space_group_name_H-M   'P 1'
_cell_length_a   7.55761200
_cell_length_b   7.55761115
_cell_length_c   4.05462800
_cell_angle_alpha   90.00000000
_cell_angle_beta   90.00000000
_cell_angle_gamma   120.00000373
_symmetry_Int_Tables_number   1
_chemical_formula_structural   Th3Zn3PtAu2
_chemical_formula_sum   'Th3 Zn3 Pt1 Au2'
_cell_volume   200.56297611
_cell_formula_units_Z   1
loop_
 _symmetry_equiv_pos_site_id
 _symmetry_equiv_pos_as_xyz
  1  'x, y, z'
loop_
 _atom_site_type_symbol
 _atom_site_label
 _atom_site_symmetry_multiplicity
 _atom_site_fract_x
 _atom_site_fract_y
 _atom_site_fract_z
 _atom_site_occupancy
  Th  Th0  1  0.407839  0.417650  0.500000  1
  Th  Th1  1  0.582350  0.990189  0.500000  1
  Th  Th2  1  0.009811  0.592161  0.500000  1
  Zn  Zn3  1  0.751163  0.752452  0.000000  1
  Zn  Zn4  1  0.247548  0.998710  0.000000  1
  Zn  Zn5  1  0.001290  0.248837  0.000000  1
  Pt  Pt6  1  0.333333  0.666667  0.000000  1
  Au  Au7  1  0.666667  0.333333  0.000000  1
  Au  Au8  1  0.000000  0.000000  0.500000  1
