# generated using pymatgen
data_Nd5Sm7Fe2Br17
_symmetry_space_group_name_H-M   'P 1'
_cell_length_a   9.47907624
_cell_length_b   11.36112791
_cell_length_c   11.42769879
_cell_angle_alpha   93.32856795
_cell_angle_beta   105.03211823
_cell_angle_gamma   114.14989668
_symmetry_Int_Tables_number   1
_chemical_formula_structural   Nd5Sm7Fe2Br17
_chemical_formula_sum   'Nd5 Sm7 Fe2 Br17'
_cell_volume   1065.55806548
_cell_formula_units_Z   1
loop_
 _symmetry_equiv_pos_site_id
 _symmetry_equiv_pos_as_xyz
  1  'x, y, z'
loop_
 _atom_site_type_symbol
 _atom_site_label
 _atom_site_symmetry_multiplicity
 _atom_site_fract_x
 _atom_site_fract_y
 _atom_site_fract_z
 _atom_site_occupancy
  Nd  Nd0  1  0.060282  0.516750  0.320488  1
  Nd  Nd1  1  0.983611  0.806517  0.582111  1
  Nd  Nd2  1  0.640595  0.238578  0.286425  1
  Nd  Nd3  1  0.020267  0.190378  0.423737  1
  Nd  Nd4  1  0.226380  0.672735  0.989126  1
  Sm  Sm5  1  0.258698  0.992881  0.893237  1
  Sm  Sm6  1  0.360534  0.761385  0.712261  1
  Sm  Sm7  1  0.939309  0.482551  0.677731  1
  Sm  Sm8  1  0.745319  0.011726  0.109506  1
  Sm  Sm9  1  0.151986  0.286289  0.146964  1
  Sm  Sm10  1  0.769523  0.326171  0.006217  1
  Sm  Sm11  1  0.842158  0.712129  0.852879  1
  Fe  Fe12  1  0.103514  0.738656  0.786206  1
  Fe  Fe13  1  0.896471  0.261650  0.213462  1
  Br  Br14  1  0.792541  0.525350  0.424911  1
  Br  Br15  1  0.651040  0.425553  0.760678  1
  Br  Br16  1  0.847037  0.900528  0.326274  1
  Br  Br17  1  0.322229  0.214543  0.362353  1
  Br  Br18  1  0.153972  0.097469  0.677280  1
  Br  Br19  1  0.580336  0.049230  0.849868  1
  Br  Br20  1  0.765302  0.189367  0.538817  1
  Br  Br21  1  0.546044  0.711597  0.947525  1
  Br  Br22  1  0.352101  0.572613  0.237274  1
  Br  Br23  1  0.209216  0.476082  0.581332  1
  Br  Br24  1  0.050240  0.372325  0.899507  1
  Br  Br25  1  0.452980  0.289826  0.046060  1
  Br  Br26  1  0.000080  0.999745  0.999146  1
  Br  Br27  1  0.242905  0.816301  0.468932  1
  Br  Br28  1  0.417617  0.949396  0.146636  1
  Br  Br29  1  0.675913  0.785735  0.638563  1
  Br  Br30  1  0.941798  0.625945  0.094493  1
