# generated using pymatgen
data_Li4Tb(NdSn2)2
_symmetry_space_group_name_H-M   'P 1'
_cell_length_a   8.77667592
_cell_length_b   8.77667539
_cell_length_c   8.77667487
_cell_angle_alpha   148.75647423
_cell_angle_beta   132.81535808
_cell_angle_gamma   57.68264505
_symmetry_Int_Tables_number   1
_chemical_formula_structural   Li4Tb(NdSn2)2
_chemical_formula_sum   'Li4 Tb1 Nd2 Sn4'
_cell_volume   255.30105613
_cell_formula_units_Z   1
loop_
 _symmetry_equiv_pos_site_id
 _symmetry_equiv_pos_as_xyz
  1  'x, y, z'
loop_
 _atom_site_type_symbol
 _atom_site_label
 _atom_site_symmetry_multiplicity
 _atom_site_fract_x
 _atom_site_fract_y
 _atom_site_fract_z
 _atom_site_occupancy
  Li  Li0  1  0.863472  0.672173  0.191299  1
  Li  Li1  1  0.480872  0.672173  0.808701  1
  Li  Li2  1  0.519128  0.327827  0.191299  1
  Li  Li3  1  0.136528  0.327827  0.808701  1
  Tb  Tb4  1  0.500000  0.000000  0.500000  1
  Nd  Nd5  1  0.129365  0.129365  0.000000  1
  Nd  Nd6  1  0.870635  0.870635  0.000000  1
  Sn  Sn7  1  0.795888  0.500000  0.295888  1
  Sn  Sn8  1  0.204112  0.500000  0.704112  1
  Sn  Sn9  1  0.710056  0.210056  0.500000  1
  Sn  Sn10  1  0.289944  0.789944  0.500000  1
