# generated using pymatgen
data_Tm3Lu5B24IrW3
_symmetry_space_group_name_H-M   'P 1'
_cell_length_a   3.56466000
_cell_length_b   9.17870442
_cell_length_c   11.56507216
_cell_angle_alpha   90.11437105
_cell_angle_beta   90.00000000
_cell_angle_gamma   90.00000000
_symmetry_Int_Tables_number   1
_chemical_formula_structural   Tm3Lu5B24IrW3
_chemical_formula_sum   'Tm3 Lu5 B24 Ir1 W3'
_cell_volume   378.39638512
_cell_formula_units_Z   1
loop_
 _symmetry_equiv_pos_site_id
 _symmetry_equiv_pos_as_xyz
  1  'x, y, z'
loop_
 _atom_site_type_symbol
 _atom_site_label
 _atom_site_symmetry_multiplicity
 _atom_site_fract_x
 _atom_site_fract_y
 _atom_site_fract_z
 _atom_site_occupancy
  Tm  Tm0  1  0.500000  0.317257  0.414559  1
  Tm  Tm1  1  0.500000  0.679979  0.588842  1
  Tm  Tm2  1  0.500000  0.179428  0.912481  1
  Lu  Lu3  1  0.500000  0.823978  0.082427  1
  Lu  Lu4  1  0.500000  0.444335  0.128513  1
  Lu  Lu5  1  0.500000  0.556092  0.873392  1
  Lu  Lu6  1  0.500000  0.054210  0.626683  1
  Lu  Lu7  1  0.500000  0.942589  0.371715  1
  B  B8  1  0.000000  0.098924  0.471500  1
  B  B9  1  0.000000  0.895321  0.526624  1
  B  B10  1  0.000000  0.399507  0.973074  1
  B  B11  1  0.000000  0.603367  0.030481  1
  B  B12  1  0.000000  0.130455  0.318837  1
  B  B13  1  0.000000  0.868153  0.682053  1
  B  B14  1  0.000000  0.369871  0.817131  1
  B  B15  1  0.000000  0.631868  0.183868  1
  B  B16  1  0.000000  0.051349  0.065155  1
  B  B17  1  0.000000  0.949041  0.935496  1
  B  B18  1  0.000000  0.449424  0.562774  1
  B  B19  1  0.000000  0.555140  0.433156  1
  B  B20  1  0.000000  0.483057  0.287891  1
  B  B21  1  0.000000  0.522460  0.713068  1
  B  B22  1  0.000000  0.022016  0.786005  1
  B  B23  1  0.000000  0.976152  0.212540  1
  B  B24  1  0.000000  0.253457  0.078852  1
  B  B25  1  0.000000  0.748220  0.923169  1
  B  B26  1  0.000000  0.246038  0.577212  1
  B  B27  1  0.000000  0.749905  0.419966  1
  B  B28  1  0.000000  0.297057  0.238160  1
  B  B29  1  0.000000  0.704163  0.764609  1
  B  B30  1  0.000000  0.204752  0.735521  1
  B  B31  1  0.000000  0.791446  0.264541  1
  Ir  Ir32  1  0.500000  0.638963  0.320252  1
  W  W33  1  0.500000  0.139587  0.181152  1
  W  W34  1  0.500000  0.860940  0.820445  1
  W  W35  1  0.500000  0.361495  0.677856  1
