# generated using pymatgen
data_Ti20Ga7AsSe4
_symmetry_space_group_name_H-M   'P 1'
_cell_length_a   6.71552173
_cell_length_b   7.92712948
_cell_length_c   9.87901979
_cell_angle_alpha   89.93773519
_cell_angle_beta   89.88806810
_cell_angle_gamma   90.07235458
_symmetry_Int_Tables_number   1
_chemical_formula_structural   Ti20Ga7AsSe4
_chemical_formula_sum   'Ti20 Ga7 As1 Se4'
_cell_volume   525.90600899
_cell_formula_units_Z   1
loop_
 _symmetry_equiv_pos_site_id
 _symmetry_equiv_pos_as_xyz
  1  'x, y, z'
loop_
 _atom_site_type_symbol
 _atom_site_label
 _atom_site_symmetry_multiplicity
 _atom_site_fract_x
 _atom_site_fract_y
 _atom_site_fract_z
 _atom_site_occupancy
  Ti  Ti0  1  0.813642  0.556440  0.057565  1
  Ti  Ti1  1  0.684771  0.940723  0.561974  1
  Ti  Ti2  1  0.186434  0.058784  0.938048  1
  Ti  Ti3  1  0.315425  0.441947  0.439655  1
  Ti  Ti4  1  0.185460  0.444576  0.937513  1
  Ti  Ti5  1  0.315029  0.057673  0.439543  1
  Ti  Ti6  1  0.814603  0.942603  0.061128  1
  Ti  Ti7  1  0.681281  0.556180  0.564262  1
  Ti  Ti8  1  0.171016  0.750425  0.224935  1
  Ti  Ti9  1  0.330479  0.745453  0.724165  1
  Ti  Ti10  1  0.826945  0.254530  0.776332  1
  Ti  Ti11  1  0.671864  0.250131  0.274225  1
  Ti  Ti12  1  0.484943  0.747905  0.004374  1
  Ti  Ti13  1  0.012615  0.749984  0.503859  1
  Ti  Ti14  1  0.516312  0.252349  0.996171  1
  Ti  Ti15  1  0.985139  0.249539  0.496482  1
  Ti  Ti16  1  0.666358  0.748951  0.285286  1
  Ti  Ti17  1  0.836339  0.748825  0.786581  1
  Ti  Ti18  1  0.334135  0.253059  0.713117  1
  Ti  Ti19  1  0.166566  0.248922  0.214333  1
  Ga  Ga20  1  0.937575  0.505606  0.324448  1
  Ga  Ga21  1  0.561818  0.993468  0.825049  1
  Ga  Ga22  1  0.062600  0.006860  0.675720  1
  Ga  Ga23  1  0.436537  0.493299  0.177087  1
  Ga  Ga24  1  0.062311  0.493928  0.672994  1
  Ga  Ga25  1  0.438361  0.006255  0.174320  1
  Ga  Ga26  1  0.937615  0.993552  0.325072  1
  As  As27  1  0.563479  0.509071  0.826785  1
  Se  Se28  1  0.397414  0.749953  0.469309  1
  Se  Se29  1  0.100378  0.751580  0.971778  1
  Se  Se30  1  0.601236  0.248054  0.527768  1
  Se  Se31  1  0.901321  0.249376  0.030128  1
