# generated using pymatgen
data_Y5HoAl24Os7Pt
_symmetry_space_group_name_H-M   'P 1'
_cell_length_a   8.85330002
_cell_length_b   8.84429956
_cell_length_c   9.57699072
_cell_angle_alpha   90.37698256
_cell_angle_beta   90.00429122
_cell_angle_gamma   120.03880036
_symmetry_Int_Tables_number   1
_chemical_formula_structural   Y5HoAl24Os7Pt
_chemical_formula_sum   'Y5 Ho1 Al24 Os7 Pt1'
_cell_volume   649.15095886
_cell_formula_units_Z   1
loop_
 _symmetry_equiv_pos_site_id
 _symmetry_equiv_pos_as_xyz
  1  'x, y, z'
loop_
 _atom_site_type_symbol
 _atom_site_label
 _atom_site_symmetry_multiplicity
 _atom_site_fract_x
 _atom_site_fract_y
 _atom_site_fract_z
 _atom_site_occupancy
  Y  Y0  1  0.194461  0.388826  0.251605  1
  Y  Y1  1  0.805626  0.610995  0.748394  1
  Y  Y2  1  0.614492  0.804518  0.250764  1
  Y  Y3  1  0.385442  0.195273  0.749193  1
  Y  Y4  1  0.190061  0.804596  0.250785  1
  Ho  Ho5  1  0.809892  0.196633  0.748816  1
  Al  Al6  1  0.331462  0.662858  0.020483  1
  Al  Al7  1  0.668534  0.336841  0.979129  1
  Al  Al8  1  0.666531  0.332939  0.517888  1
  Al  Al9  1  0.333552  0.666979  0.482409  1
  Al  Al10  1  0.163239  0.326858  0.575210  1
  Al  Al11  1  0.836367  0.672830  0.425144  1
  Al  Al12  1  0.674350  0.838213  0.576601  1
  Al  Al13  1  0.836547  0.673169  0.074519  1
  Al  Al14  1  0.325947  0.162242  0.423782  1
  Al  Al15  1  0.163012  0.326495  0.925075  1
  Al  Al16  1  0.163776  0.837868  0.576435  1
  Al  Al17  1  0.324826  0.166822  0.076661  1
  Al  Al18  1  0.836311  0.162108  0.424082  1
  Al  Al19  1  0.675404  0.833534  0.923014  1
  Al  Al20  1  0.841978  0.166701  0.076268  1
  Al  Al21  1  0.158034  0.833227  0.923183  1
  Al  Al22  1  0.562067  0.124030  0.252154  1
  Al  Al23  1  0.438418  0.876238  0.747988  1
  Al  Al24  1  0.878203  0.438458  0.249031  1
  Al  Al25  1  0.121626  0.561134  0.750993  1
  Al  Al26  1  0.560358  0.438493  0.249057  1
  Al  Al27  1  0.439664  0.561497  0.750965  1
  Al  Al28  1  0.000019  0.000115  0.250162  1
  Al  Al29  1  0.999214  0.000588  0.749891  1
  Os  Os30  1  0.999693  0.499534  0.999563  1
  Os  Os31  1  0.500403  0.000189  0.500402  1
  Os  Os32  1  0.500099  0.499871  0.999911  1
  Os  Os33  1  0.999810  0.499603  0.500393  1
  Os  Os34  1  0.500052  0.499959  0.500098  1
  Os  Os35  1  0.000119  0.999831  0.000020  1
  Os  Os36  1  0.000149  0.999827  0.500064  1
  Pt  Pt37  1  0.500262  0.000106  0.999867  1
