# generated using pymatgen
data_EuAlBO4
_symmetry_space_group_name_H-M   'P 1'
_cell_length_a   5.90427700
_cell_length_b   8.63807507
_cell_length_c   9.03306139
_cell_angle_alpha   61.43622796
_cell_angle_beta   90.00000000
_cell_angle_gamma   90.00000000
_symmetry_Int_Tables_number   1
_chemical_formula_structural   EuAlBO4
_chemical_formula_sum   'Eu4 Al4 B4 O16'
_cell_volume   404.62653550
_cell_formula_units_Z   4
loop_
 _symmetry_equiv_pos_site_id
 _symmetry_equiv_pos_as_xyz
  1  'x, y, z'
loop_
 _atom_site_type_symbol
 _atom_site_label
 _atom_site_symmetry_multiplicity
 _atom_site_fract_x
 _atom_site_fract_y
 _atom_site_fract_z
 _atom_site_occupancy
  Eu  Eu0  1  0.503061  0.049766  0.189044  1
  Eu  Eu1  1  0.003060  0.761191  0.189044  1
  Eu  Eu2  1  0.003060  0.238809  0.810956  1
  Eu  Eu3  1  0.503061  0.950234  0.810956  1
  Al  Al4  1  0.237167  0.286552  0.406704  1
  Al  Al5  1  0.737168  0.306745  0.406704  1
  Al  Al6  1  0.737168  0.693256  0.593295  1
  Al  Al7  1  0.237167  0.713449  0.593295  1
  B  B8  1  0.977618  0.159200  0.222669  1
  B  B9  1  0.477619  0.618131  0.222669  1
  B  B10  1  0.477619  0.381868  0.777332  1
  B  B11  1  0.977618  0.840800  0.777332  1
  O  O12  1  0.955554  0.077729  0.124441  1
  O  O13  1  0.455554  0.797830  0.124441  1
  O  O14  1  0.781878  0.218914  0.265261  1
  O  O15  1  0.281877  0.515826  0.265261  1
  O  O16  1  0.188661  0.181653  0.278800  1
  O  O17  1  0.688660  0.539546  0.278800  1
  O  O18  1  0.989761  0.728768  0.478282  1
  O  O19  1  0.489760  0.792951  0.478282  1
  O  O20  1  0.489760  0.207050  0.521718  1
  O  O21  1  0.989761  0.271232  0.521718  1
  O  O22  1  0.688660  0.460453  0.721201  1
  O  O23  1  0.188661  0.818346  0.721201  1
  O  O24  1  0.281877  0.484175  0.734738  1
  O  O25  1  0.781878  0.781087  0.734738  1
  O  O26  1  0.455554  0.202169  0.875559  1
  O  O27  1  0.955554  0.922272  0.875559  1
