# generated using pymatgen
data_Tb10BeCo3Te4
_symmetry_space_group_name_H-M   'P 1'
_cell_length_a   7.84597814
_cell_length_b   7.84597819
_cell_length_c   15.07576300
_cell_angle_alpha   90.00000000
_cell_angle_beta   90.00000000
_cell_angle_gamma   150.61571679
_symmetry_Int_Tables_number   1
_chemical_formula_structural   Tb10BeCo3Te4
_chemical_formula_sum   'Tb10 Be1 Co3 Te4'
_cell_volume   455.36364321
_cell_formula_units_Z   1
loop_
 _symmetry_equiv_pos_site_id
 _symmetry_equiv_pos_as_xyz
  1  'x, y, z'
loop_
 _atom_site_type_symbol
 _atom_site_label
 _atom_site_symmetry_multiplicity
 _atom_site_fract_x
 _atom_site_fract_y
 _atom_site_fract_z
 _atom_site_occupancy
  Tb  Tb0  1  0.959702  0.040298  0.121298  1
  Tb  Tb1  1  0.039443  0.960557  0.874795  1
  Tb  Tb2  1  0.039443  0.960557  0.625205  1
  Tb  Tb3  1  0.959702  0.040298  0.378702  1
  Tb  Tb4  1  0.740981  0.259019  0.629116  1
  Tb  Tb5  1  0.258584  0.741416  0.369980  1
  Tb  Tb6  1  0.258584  0.741416  0.130020  1
  Tb  Tb7  1  0.740981  0.259019  0.870884  1
  Tb  Tb8  1  0.602427  0.397573  0.250000  1
  Tb  Tb9  1  0.393961  0.606039  0.750000  1
  Be  Be10  1  0.404023  0.595977  0.250000  1
  Co  Co11  1  0.591101  0.408899  0.750000  1
  Co  Co12  1  0.829708  0.170292  0.250000  1
  Co  Co13  1  0.180973  0.819027  0.750000  1
  Te  Te14  1  0.615844  0.384156  0.040098  1
  Te  Te15  1  0.384350  0.615650  0.962143  1
  Te  Te16  1  0.384350  0.615650  0.537857  1
  Te  Te17  1  0.615844  0.384156  0.459902  1
