# generated using pymatgen
data_Y2Fe3Ni6P7W3
_symmetry_space_group_name_H-M   'P 1'
_cell_length_a   9.07090800
_cell_length_b   9.07090647
_cell_length_c   3.70466800
_cell_angle_alpha   90.00000000
_cell_angle_beta   90.00000000
_cell_angle_gamma   120.00000557
_symmetry_Int_Tables_number   1
_chemical_formula_structural   Y2Fe3Ni6P7W3
_chemical_formula_sum   'Y2 Fe3 Ni6 P7 W3'
_cell_volume   263.98627790
_cell_formula_units_Z   1
loop_
 _symmetry_equiv_pos_site_id
 _symmetry_equiv_pos_as_xyz
  1  'x, y, z'
loop_
 _atom_site_type_symbol
 _atom_site_label
 _atom_site_symmetry_multiplicity
 _atom_site_fract_x
 _atom_site_fract_y
 _atom_site_fract_z
 _atom_site_occupancy
  Y  Y0  1  0.000000  0.000000  0.000000  1
  Y  Y1  1  0.333333  0.666667  0.500000  1
  Fe  Fe2  1  0.822099  0.210517  0.000000  1
  Fe  Fe3  1  0.789483  0.611584  0.000000  1
  Fe  Fe4  1  0.388416  0.177901  0.000000  1
  Ni  Ni5  1  0.098858  0.702723  0.000000  1
  Ni  Ni6  1  0.297277  0.396136  0.000000  1
  Ni  Ni7  1  0.603864  0.901142  0.000000  1
  Ni  Ni8  1  0.054887  0.279959  0.500000  1
  Ni  Ni9  1  0.720041  0.774927  0.500000  1
  Ni  Ni10  1  0.225073  0.945113  0.500000  1
  P  P11  1  0.077412  0.443719  0.000000  1
  P  P12  1  0.556281  0.633694  0.000000  1
  P  P13  1  0.366306  0.922588  0.000000  1
  P  P14  1  0.789336  0.048576  0.500000  1
  P  P15  1  0.951424  0.740759  0.500000  1
  P  P16  1  0.259241  0.210664  0.500000  1
  P  P17  1  0.666667  0.333333  0.000000  1
  W  W18  1  0.887388  0.452934  0.500000  1
  W  W19  1  0.547066  0.434454  0.500000  1
  W  W20  1  0.565546  0.112612  0.500000  1
