# generated using pymatgen
data_BaSiPd4
_symmetry_space_group_name_H-M   'P 1'
_cell_length_a   6.60172100
_cell_length_b   5.77058400
_cell_length_c   12.54282200
_cell_angle_alpha   90.00000000
_cell_angle_beta   90.00000000
_cell_angle_gamma   90.00000000
_symmetry_Int_Tables_number   1
_chemical_formula_structural   BaSiPd4
_chemical_formula_sum   'Ba4 Si4 Pd16'
_cell_volume   477.82865742
_cell_formula_units_Z   4
loop_
 _symmetry_equiv_pos_site_id
 _symmetry_equiv_pos_as_xyz
  1  'x, y, z'
loop_
 _atom_site_type_symbol
 _atom_site_label
 _atom_site_symmetry_multiplicity
 _atom_site_fract_x
 _atom_site_fract_y
 _atom_site_fract_z
 _atom_site_occupancy
  Ba  Ba0  1  0.190136  0.250000  0.336229  1
  Ba  Ba1  1  0.690136  0.250000  0.163771  1
  Ba  Ba2  1  0.809864  0.750000  0.663771  1
  Ba  Ba3  1  0.309864  0.750000  0.836229  1
  Si  Si4  1  0.095999  0.250000  0.948187  1
  Si  Si5  1  0.595999  0.250000  0.551813  1
  Si  Si6  1  0.904001  0.750000  0.051813  1
  Si  Si7  1  0.404001  0.750000  0.448187  1
  Pd  Pd8  1  0.095086  0.250000  0.759348  1
  Pd  Pd9  1  0.595086  0.250000  0.740652  1
  Pd  Pd10  1  0.904914  0.750000  0.240652  1
  Pd  Pd11  1  0.404914  0.750000  0.259348  1
  Pd  Pd12  1  0.448315  0.250000  0.947579  1
  Pd  Pd13  1  0.948315  0.250000  0.552421  1
  Pd  Pd14  1  0.551685  0.750000  0.052421  1
  Pd  Pd15  1  0.051685  0.750000  0.447579  1
  Pd  Pd16  1  0.314914  0.004950  0.591630  1
  Pd  Pd17  1  0.814914  0.495050  0.908370  1
  Pd  Pd18  1  0.685086  0.504950  0.408370  1
  Pd  Pd19  1  0.185086  0.995050  0.091630  1
  Pd  Pd20  1  0.685086  0.995050  0.408370  1
  Pd  Pd21  1  0.185086  0.504950  0.091630  1
  Pd  Pd22  1  0.314914  0.495050  0.591630  1
  Pd  Pd23  1  0.814914  0.004950  0.908370  1
