# generated using pymatgen
data_Hf6Al6Co5Pt
_symmetry_space_group_name_H-M   'P 1'
_cell_length_a   6.96592200
_cell_length_b   6.96592164
_cell_length_c   6.77918900
_cell_angle_alpha   90.00000000
_cell_angle_beta   90.00000000
_cell_angle_gamma   120.00000170
_symmetry_Int_Tables_number   1
_chemical_formula_structural   Hf6Al6Co5Pt
_chemical_formula_sum   'Hf6 Al6 Co5 Pt1'
_cell_volume   284.88235994
_cell_formula_units_Z   1
loop_
 _symmetry_equiv_pos_site_id
 _symmetry_equiv_pos_as_xyz
  1  'x, y, z'
loop_
 _atom_site_type_symbol
 _atom_site_label
 _atom_site_symmetry_multiplicity
 _atom_site_fract_x
 _atom_site_fract_y
 _atom_site_fract_z
 _atom_site_occupancy
  Hf  Hf0  1  0.600071  0.009788  0.744727  1
  Hf  Hf1  1  0.990212  0.590282  0.744727  1
  Hf  Hf2  1  0.409718  0.399929  0.744727  1
  Hf  Hf3  1  0.988731  0.589554  0.255321  1
  Hf  Hf4  1  0.600823  0.011269  0.255321  1
  Hf  Hf5  1  0.410446  0.399177  0.255321  1
  Al  Al6  1  0.760015  0.756494  0.999932  1
  Al  Al7  1  0.243506  0.003521  0.999932  1
  Al  Al8  1  0.996479  0.239985  0.999932  1
  Al  Al9  1  0.735597  0.742040  0.500010  1
  Al  Al10  1  0.257960  0.993558  0.500010  1
  Al  Al11  1  0.006442  0.264403  0.500010  1
  Co  Co12  1  0.000000  0.000000  0.730583  1
  Co  Co13  1  0.000000  0.000000  0.269403  1
  Co  Co14  1  0.666667  0.333333  0.998835  1
  Co  Co15  1  0.666667  0.333333  0.501199  1
  Co  Co16  1  0.333333  0.666667  0.498746  1
  Pt  Pt17  1  0.333333  0.666667  0.001264  1
