# generated using pymatgen
data_Ho8Sc2Bi5As
_symmetry_space_group_name_H-M   'P 1'
_cell_length_a   8.02920900
_cell_length_b   9.31614900
_cell_length_c   11.90723000
_cell_angle_alpha   90.00000000
_cell_angle_beta   90.00000000
_cell_angle_gamma   90.00000000
_symmetry_Int_Tables_number   1
_chemical_formula_structural   Ho8Sc2Bi5As
_chemical_formula_sum   'Ho16 Sc4 Bi10 As2'
_cell_volume   890.67637147
_cell_formula_units_Z   2
loop_
 _symmetry_equiv_pos_site_id
 _symmetry_equiv_pos_as_xyz
  1  'x, y, z'
loop_
 _atom_site_type_symbol
 _atom_site_label
 _atom_site_symmetry_multiplicity
 _atom_site_fract_x
 _atom_site_fract_y
 _atom_site_fract_z
 _atom_site_occupancy
  Ho  Ho0  1  0.166906  0.750000  0.711771  1
  Ho  Ho1  1  0.666906  0.750000  0.788229  1
  Ho  Ho2  1  0.816806  0.250000  0.278871  1
  Ho  Ho3  1  0.316806  0.250000  0.221129  1
  Ho  Ho4  1  0.308669  0.451431  0.940064  1
  Ho  Ho5  1  0.808669  0.048569  0.559936  1
  Ho  Ho6  1  0.689690  0.929932  0.056530  1
  Ho  Ho7  1  0.189690  0.570068  0.443470  1
  Ho  Ho8  1  0.689690  0.570068  0.056530  1
  Ho  Ho9  1  0.189690  0.929932  0.443470  1
  Ho  Ho10  1  0.308669  0.048569  0.940064  1
  Ho  Ho11  1  0.808669  0.451431  0.559936  1
  Ho  Ho12  1  0.352831  0.750000  0.206230  1
  Ho  Ho13  1  0.852831  0.750000  0.293770  1
  Ho  Ho14  1  0.647612  0.250000  0.783063  1
  Ho  Ho15  1  0.147612  0.250000  0.716937  1
  Sc  Sc16  1  0.035869  0.750000  0.986645  1
  Sc  Sc17  1  0.535869  0.750000  0.513355  1
  Sc  Sc18  1  0.979710  0.250000  0.009387  1
  Sc  Sc19  1  0.479710  0.250000  0.490613  1
  Bi  Bi20  1  0.432827  0.001060  0.669320  1
  Bi  Bi21  1  0.932827  0.498940  0.830680  1
  Bi  Bi22  1  0.564611  0.504458  0.331371  1
  Bi  Bi23  1  0.064611  0.995542  0.168629  1
  Bi  Bi24  1  0.564611  0.995542  0.331371  1
  Bi  Bi25  1  0.064611  0.504458  0.168629  1
  Bi  Bi26  1  0.432827  0.498940  0.669320  1
  Bi  Bi27  1  0.932827  0.001060  0.830680  1
  Bi  Bi28  1  0.596880  0.250000  0.041185  1
  Bi  Bi29  1  0.096880  0.250000  0.458815  1
  As  As30  1  0.411788  0.750000  0.965809  1
  As  As31  1  0.911788  0.750000  0.534191  1
