# generated using pymatgen
data_Tm9Sc11Sn16
_symmetry_space_group_name_H-M   'P 1'
_cell_length_a   7.72687179
_cell_length_b   7.92596394
_cell_length_c   14.90309500
_cell_angle_alpha   90.09306454
_cell_angle_beta   90.08640857
_cell_angle_gamma   90.06079898
_symmetry_Int_Tables_number   1
_chemical_formula_structural   Tm9Sc11Sn16
_chemical_formula_sum   'Tm9 Sc11 Sn16'
_cell_volume   912.70610504
_cell_formula_units_Z   1
loop_
 _symmetry_equiv_pos_site_id
 _symmetry_equiv_pos_as_xyz
  1  'x, y, z'
loop_
 _atom_site_type_symbol
 _atom_site_label
 _atom_site_symmetry_multiplicity
 _atom_site_fract_x
 _atom_site_fract_y
 _atom_site_fract_z
 _atom_site_occupancy
  Tm  Tm0  1  0.852070  0.662969  0.876253  1
  Tm  Tm1  1  0.514035  0.322267  0.905354  1
  Tm  Tm2  1  0.014027  0.177859  0.592467  1
  Tm  Tm3  1  0.486272  0.677589  0.406003  1
  Tm  Tm4  1  0.985650  0.822400  0.096398  1
  Tm  Tm5  1  0.487544  0.676964  0.095226  1
  Tm  Tm6  1  0.986419  0.822450  0.405365  1
  Tm  Tm7  1  0.512838  0.321364  0.593190  1
  Tm  Tm8  1  0.013902  0.178185  0.905269  1
  Sc  Sc9  1  0.350313  0.837692  0.872455  1
  Sc  Sc10  1  0.850025  0.661493  0.625571  1
  Sc  Sc11  1  0.649576  0.160714  0.373522  1
  Sc  Sc12  1  0.149179  0.338570  0.126873  1
  Sc  Sc13  1  0.646869  0.160270  0.129627  1
  Sc  Sc14  1  0.149534  0.338888  0.373683  1
  Sc  Sc15  1  0.351158  0.840042  0.624389  1
  Sc  Sc16  1  0.181214  0.504312  0.749396  1
  Sc  Sc17  1  0.680202  0.995287  0.749109  1
  Sc  Sc18  1  0.819069  0.494223  0.251005  1
  Sc  Sc19  1  0.318855  0.004621  0.249832  1
  Sn  Sn20  1  0.308815  0.041791  0.042255  1
  Sn  Sn21  1  0.810133  0.457746  0.457582  1
  Sn  Sn22  1  0.691137  0.957249  0.541493  1
  Sn  Sn23  1  0.198950  0.541743  0.959359  1
  Sn  Sn24  1  0.685419  0.965201  0.959515  1
  Sn  Sn25  1  0.189775  0.542816  0.541776  1
  Sn  Sn26  1  0.309869  0.042929  0.456744  1
  Sn  Sn27  1  0.807928  0.452683  0.046218  1
  Sn  Sn28  1  0.541618  0.623692  0.746753  1
  Sn  Sn29  1  0.045932  0.879568  0.746769  1
  Sn  Sn30  1  0.455282  0.375489  0.251444  1
  Sn  Sn31  1  0.956438  0.124484  0.250537  1
  Sn  Sn32  1  0.320875  0.150998  0.749077  1
  Sn  Sn33  1  0.820243  0.347143  0.748194  1
  Sn  Sn34  1  0.679087  0.848496  0.250994  1
  Sn  Sn35  1  0.179750  0.649815  0.250307  1
