# generated using pymatgen
data_LuZr4(Re5Tc3)3
_symmetry_space_group_name_H-M   'P 1'
_cell_length_a   8.49671416
_cell_length_b   8.49671347
_cell_length_c   8.49671300
_cell_angle_alpha   109.51470773
_cell_angle_beta   109.51471533
_cell_angle_gamma   109.51470107
_symmetry_Int_Tables_number   1
_chemical_formula_structural   LuZr4(Re5Tc3)3
_chemical_formula_sum   'Lu1 Zr4 Re15 Tc9'
_cell_volume   471.44367742
_cell_formula_units_Z   1
loop_
 _symmetry_equiv_pos_site_id
 _symmetry_equiv_pos_as_xyz
  1  'x, y, z'
loop_
 _atom_site_type_symbol
 _atom_site_label
 _atom_site_symmetry_multiplicity
 _atom_site_fract_x
 _atom_site_fract_y
 _atom_site_fract_z
 _atom_site_occupancy
  Lu  Lu0  1  0.999255  0.999255  0.999255  1
  Zr  Zr1  1  0.625560  0.999767  0.999767  1
  Zr  Zr2  1  0.999767  0.625560  0.999767  1
  Zr  Zr3  1  0.999767  0.999767  0.625560  1
  Zr  Zr4  1  0.372480  0.372480  0.372480  1
  Re  Re5  1  0.604460  0.604460  0.278629  1
  Re  Re6  1  0.278629  0.604460  0.604460  1
  Re  Re7  1  0.604460  0.278629  0.604460  1
  Re  Re8  1  0.377449  0.195690  0.000899  1
  Re  Re9  1  0.180759  0.805372  0.805372  1
  Re  Re10  1  0.377449  0.000899  0.195690  1
  Re  Re11  1  0.195690  0.377449  0.000899  1
  Re  Re12  1  0.000899  0.377449  0.195690  1
  Re  Re13  1  0.805372  0.180759  0.805372  1
  Re  Re14  1  0.805372  0.805372  0.180759  1
  Re  Re15  1  0.000899  0.195690  0.377449  1
  Re  Re16  1  0.195690  0.000899  0.377449  1
  Re  Re17  1  0.621626  0.621626  0.815614  1
  Re  Re18  1  0.815614  0.621626  0.621626  1
  Re  Re19  1  0.621626  0.815614  0.621626  1
  Tc  Tc20  1  0.396567  0.676926  0.001056  1
  Tc  Tc21  1  0.720891  0.323591  0.323591  1
  Tc  Tc22  1  0.396567  0.001056  0.676926  1
  Tc  Tc23  1  0.676926  0.396567  0.001056  1
  Tc  Tc24  1  0.001056  0.396567  0.676926  1
  Tc  Tc25  1  0.323591  0.720891  0.323591  1
  Tc  Tc26  1  0.323591  0.323591  0.720891  1
  Tc  Tc27  1  0.001056  0.676926  0.396567  1
  Tc  Tc28  1  0.676926  0.001056  0.396567  1
