# generated using pymatgen
data_TbHo9(RuRh)2
_symmetry_space_group_name_H-M   'P 1'
_cell_length_a   6.36644330
_cell_length_b   7.24791385
_cell_length_c   8.50602200
_cell_angle_alpha   96.73280361
_cell_angle_beta   111.91600470
_cell_angle_gamma   89.99520675
_symmetry_Int_Tables_number   1
_chemical_formula_structural   TbHo9(RuRh)2
_chemical_formula_sum   'Tb1 Ho9 Ru2 Rh2'
_cell_volume   361.21437194
_cell_formula_units_Z   1
loop_
 _symmetry_equiv_pos_site_id
 _symmetry_equiv_pos_as_xyz
  1  'x, y, z'
loop_
 _atom_site_type_symbol
 _atom_site_label
 _atom_site_symmetry_multiplicity
 _atom_site_fract_x
 _atom_site_fract_y
 _atom_site_fract_z
 _atom_site_occupancy
  Tb  Tb0  1  0.981033  0.918206  0.188590  1
  Ho  Ho1  1  0.792963  0.582177  0.811559  1
  Ho  Ho2  1  0.023435  0.085300  0.813718  1
  Ho  Ho3  1  0.209381  0.414696  0.185580  1
  Ho  Ho4  1  0.641830  0.815866  0.434552  1
  Ho  Ho5  1  0.207658  0.684180  0.565866  1
  Ho  Ho6  1  0.355865  0.187778  0.563723  1
  Ho  Ho7  1  0.792584  0.312568  0.437067  1
  Ho  Ho8  1  0.419949  0.749644  0.999709  1
  Ho  Ho9  1  0.576837  0.250193  0.999727  1
  Ru  Ru10  1  0.176675  0.425459  0.779049  1
  Ru  Ru11  1  0.398133  0.075223  0.220433  1
  Rh  Rh12  1  0.822406  0.575215  0.221976  1
  Rh  Rh13  1  0.601251  0.923493  0.778451  1
