# generated using pymatgen
data_LiZr12Tc6Ir5
_symmetry_space_group_name_H-M   'P 1'
_cell_length_a   4.66287000
_cell_length_b   6.55667000
_cell_length_c   14.07338600
_cell_angle_alpha   90.00000000
_cell_angle_beta   90.00039609
_cell_angle_gamma   90.00000000
_symmetry_Int_Tables_number   1
_chemical_formula_structural   LiZr12Tc6Ir5
_chemical_formula_sum   'Li1 Zr12 Tc6 Ir5'
_cell_volume   430.26422062
_cell_formula_units_Z   1
loop_
 _symmetry_equiv_pos_site_id
 _symmetry_equiv_pos_as_xyz
  1  'x, y, z'
loop_
 _atom_site_type_symbol
 _atom_site_label
 _atom_site_symmetry_multiplicity
 _atom_site_fract_x
 _atom_site_fract_y
 _atom_site_fract_z
 _atom_site_occupancy
  Li  Li0  1  0.000000  0.500000  0.000000  1
  Zr  Zr1  1  0.500000  0.251706  0.000000  1
  Zr  Zr2  1  0.500000  0.748295  0.000000  1
  Zr  Zr3  1  0.999981  0.250430  0.166234  1
  Zr  Zr4  1  0.999981  0.749569  0.166234  1
  Zr  Zr5  1  0.499986  0.250887  0.332883  1
  Zr  Zr6  1  0.499986  0.749114  0.332883  1
  Zr  Zr7  1  0.000000  0.250342  0.500000  1
  Zr  Zr8  1  0.000000  0.749657  0.500000  1
  Zr  Zr9  1  0.500014  0.250887  0.667116  1
  Zr  Zr10  1  0.500014  0.749114  0.667116  1
  Zr  Zr11  1  0.000019  0.250430  0.833766  1
  Zr  Zr12  1  0.000019  0.749569  0.833766  1
  Tc  Tc13  1  0.000000  0.000000  0.000000  1
  Tc  Tc14  1  0.499973  0.500000  0.166902  1
  Tc  Tc15  1  0.999987  0.000000  0.332967  1
  Tc  Tc16  1  0.500000  0.500000  0.500000  1
  Tc  Tc17  1  0.000013  0.000000  0.667033  1
  Tc  Tc18  1  0.500027  0.500000  0.833098  1
  Ir  Ir19  1  0.499981  0.000000  0.167825  1
  Ir  Ir20  1  0.999984  0.500000  0.334156  1
  Ir  Ir21  1  0.500000  0.000000  0.500000  1
  Ir  Ir22  1  0.000016  0.500000  0.665844  1
  Ir  Ir23  1  0.500019  0.000000  0.832175  1
