# generated using pymatgen
data_K4Ti(TeS)2
_symmetry_space_group_name_H-M   'P 1'
_cell_length_a   8.51948000
_cell_length_b   10.25513100
_cell_length_c   14.95656500
_cell_angle_alpha   90.00000000
_cell_angle_beta   90.00000000
_cell_angle_gamma   90.00000000
_symmetry_Int_Tables_number   1
_chemical_formula_structural   K4Ti(TeS)2
_chemical_formula_sum   'K16 Ti4 Te8 S8'
_cell_volume   1306.73090604
_cell_formula_units_Z   4
loop_
 _symmetry_equiv_pos_site_id
 _symmetry_equiv_pos_as_xyz
  1  'x, y, z'
loop_
 _atom_site_type_symbol
 _atom_site_label
 _atom_site_symmetry_multiplicity
 _atom_site_fract_x
 _atom_site_fract_y
 _atom_site_fract_z
 _atom_site_occupancy
  K  K0  1  0.500000  0.500000  0.500000  1
  K  K1  1  0.141862  0.461104  0.274629  1
  K  K2  1  0.141862  0.038896  0.274629  1
  K  K3  1  0.987601  0.750000  0.442040  1
  K  K4  1  0.012399  0.250000  0.557960  1
  K  K5  1  0.641862  0.961104  0.225371  1
  K  K6  1  0.358138  0.038896  0.774629  1
  K  K7  1  0.858138  0.961104  0.725371  1
  K  K8  1  0.358138  0.461104  0.774629  1
  K  K9  1  0.000000  0.500000  0.000000  1
  K  K10  1  0.487601  0.250000  0.057960  1
  K  K11  1  0.641862  0.538896  0.225371  1
  K  K12  1  0.512399  0.750000  0.942040  1
  K  K13  1  0.000000  0.000000  0.000000  1
  K  K14  1  0.858138  0.538896  0.725371  1
  K  K15  1  0.500000  0.000000  0.500000  1
  Ti  Ti16  1  0.735986  0.250000  0.839698  1
  Ti  Ti17  1  0.764014  0.250000  0.339698  1
  Ti  Ti18  1  0.235986  0.750000  0.660302  1
  Ti  Ti19  1  0.264014  0.750000  0.160302  1
  Te  Te20  1  0.549485  0.750000  0.668962  1
  Te  Te21  1  0.450515  0.250000  0.331038  1
  Te  Te22  1  0.370657  0.750000  0.329164  1
  Te  Te23  1  0.129343  0.750000  0.829164  1
  Te  Te24  1  0.049485  0.250000  0.831038  1
  Te  Te25  1  0.950515  0.750000  0.168962  1
  Te  Te26  1  0.629343  0.250000  0.670836  1
  Te  Te27  1  0.870657  0.250000  0.170836  1
  S  S28  1  0.844351  0.433528  0.406496  1
  S  S29  1  0.655649  0.066472  0.906496  1
  S  S30  1  0.344351  0.933528  0.093504  1
  S  S31  1  0.344351  0.566472  0.093504  1
  S  S32  1  0.155649  0.566472  0.593504  1
  S  S33  1  0.844351  0.066472  0.406496  1
  S  S34  1  0.155649  0.933528  0.593504  1
  S  S35  1  0.655649  0.433528  0.906496  1
