# generated using pymatgen
data_HoLuNi12P7
_symmetry_space_group_name_H-M   'P 1'
_cell_length_a   9.03761500
_cell_length_b   9.03761459
_cell_length_c   3.66719600
_cell_angle_alpha   90.00000000
_cell_angle_beta   90.00000000
_cell_angle_gamma   119.99999782
_symmetry_Int_Tables_number   1
_chemical_formula_structural   HoLuNi12P7
_chemical_formula_sum   'Ho1 Lu1 Ni12 P7'
_cell_volume   259.40146059
_cell_formula_units_Z   1
loop_
 _symmetry_equiv_pos_site_id
 _symmetry_equiv_pos_as_xyz
  1  'x, y, z'
loop_
 _atom_site_type_symbol
 _atom_site_label
 _atom_site_symmetry_multiplicity
 _atom_site_fract_x
 _atom_site_fract_y
 _atom_site_fract_z
 _atom_site_occupancy
  Ho  Ho0  1  0.666667  0.333333  0.500000  1
  Lu  Lu1  1  0.333333  0.666667  0.000000  1
  Ni  Ni2  1  0.617405  0.571192  0.000000  1
  Ni  Ni3  1  0.848695  0.726266  0.500000  1
  Ni  Ni4  1  0.953788  0.382595  0.000000  1
  Ni  Ni5  1  0.273734  0.122429  0.500000  1
  Ni  Ni6  1  0.121478  0.213578  0.000000  1
  Ni  Ni7  1  0.092100  0.878522  0.000000  1
  Ni  Ni8  1  0.786422  0.907900  0.000000  1
  Ni  Ni9  1  0.369854  0.433878  0.500000  1
  Ni  Ni10  1  0.566122  0.935976  0.500000  1
  Ni  Ni11  1  0.064024  0.630146  0.500000  1
  Ni  Ni12  1  0.877571  0.151305  0.500000  1
  Ni  Ni13  1  0.428808  0.046212  0.000000  1
  P  P14  1  0.000000  0.000000  0.500000  1
  P  P15  1  0.705638  0.110997  0.000000  1
  P  P16  1  0.113704  0.409090  0.500000  1
  P  P17  1  0.590910  0.704614  0.500000  1
  P  P18  1  0.295386  0.886296  0.500000  1
  P  P19  1  0.889003  0.594640  0.000000  1
  P  P20  1  0.405360  0.294362  0.000000  1
