# generated using pymatgen
data_Na8Ga3Sn9Au4
_symmetry_space_group_name_H-M   'P 1'
_cell_length_a   9.56424422
_cell_length_b   9.56424409
_cell_length_c   7.65750170
_cell_angle_alpha   89.93170452
_cell_angle_beta   90.06829449
_cell_angle_gamma   120.51986913
_symmetry_Int_Tables_number   1
_chemical_formula_structural   Na8Ga3Sn9Au4
_chemical_formula_sum   'Na8 Ga3 Sn9 Au4'
_cell_volume   603.41991721
_cell_formula_units_Z   1
loop_
 _symmetry_equiv_pos_site_id
 _symmetry_equiv_pos_as_xyz
  1  'x, y, z'
loop_
 _atom_site_type_symbol
 _atom_site_label
 _atom_site_symmetry_multiplicity
 _atom_site_fract_x
 _atom_site_fract_y
 _atom_site_fract_z
 _atom_site_occupancy
  Na  Na0  1  0.525900  0.064974  0.251691  1
  Na  Na1  1  0.070015  0.540921  0.747361  1
  Na  Na2  1  0.470950  0.529050  0.749406  1
  Na  Na3  1  0.538286  0.461714  0.251160  1
  Na  Na4  1  0.459079  0.929985  0.747361  1
  Na  Na5  1  0.935026  0.474100  0.251691  1
  Na  Na6  1  0.001312  0.998688  0.735142  1
  Na  Na7  1  0.003089  0.996911  0.242291  1
  Ga  Ga8  1  0.168978  0.831022  0.068316  1
  Ga  Ga9  1  0.833075  0.657887  0.564800  1
  Ga  Ga10  1  0.342113  0.166925  0.564800  1
  Sn  Sn11  1  0.829864  0.170136  0.944665  1
  Sn  Sn12  1  0.844276  0.667463  0.931919  1
  Sn  Sn13  1  0.827163  0.172837  0.556463  1
  Sn  Sn14  1  0.332537  0.155724  0.931919  1
  Sn  Sn15  1  0.657325  0.824222  0.060785  1
  Sn  Sn16  1  0.665004  0.822449  0.448945  1
  Sn  Sn17  1  0.177551  0.334996  0.448945  1
  Sn  Sn18  1  0.165368  0.834632  0.438379  1
  Sn  Sn19  1  0.175778  0.342675  0.060785  1
  Au  Au20  1  0.330928  0.669072  0.445753  1
  Au  Au21  1  0.658681  0.341319  0.554619  1
  Au  Au22  1  0.664302  0.335698  0.948797  1
  Au  Au23  1  0.323399  0.676601  0.054005  1
