# generated using pymatgen
data_Dy4NiAg
_symmetry_space_group_name_H-M   'P 1'
_cell_length_a   9.43573606
_cell_length_b   9.43573566
_cell_length_c   9.42193200
_cell_angle_alpha   60.04838099
_cell_angle_beta   60.04838240
_cell_angle_gamma   60.06946090
_symmetry_Int_Tables_number   1
_chemical_formula_structural   Dy4NiAg
_chemical_formula_sum   'Dy16 Ni4 Ag4'
_cell_volume   593.91121156
_cell_formula_units_Z   4
loop_
 _symmetry_equiv_pos_site_id
 _symmetry_equiv_pos_as_xyz
  1  'x, y, z'
loop_
 _atom_site_type_symbol
 _atom_site_label
 _atom_site_symmetry_multiplicity
 _atom_site_fract_x
 _atom_site_fract_y
 _atom_site_fract_z
 _atom_site_occupancy
  Dy  Dy0  1  0.600236  0.600236  0.600154  1
  Dy  Dy1  1  0.600236  0.600236  0.199376  1
  Dy  Dy2  1  0.600877  0.198000  0.600562  1
  Dy  Dy3  1  0.198000  0.600877  0.600562  1
  Dy  Dy4  1  0.061130  0.438840  0.439118  1
  Dy  Dy5  1  0.438840  0.061130  0.060911  1
  Dy  Dy6  1  0.438840  0.061130  0.439118  1
  Dy  Dy7  1  0.061130  0.438840  0.060911  1
  Dy  Dy8  1  0.439224  0.439224  0.060776  1
  Dy  Dy9  1  0.061338  0.061338  0.438662  1
  Dy  Dy10  1  0.185547  0.813908  0.814385  1
  Dy  Dy11  1  0.813908  0.185547  0.186158  1
  Dy  Dy12  1  0.813908  0.185547  0.814385  1
  Dy  Dy13  1  0.185547  0.813908  0.186158  1
  Dy  Dy14  1  0.813753  0.813753  0.186247  1
  Dy  Dy15  1  0.185759  0.185759  0.814241  1
  Ni  Ni16  1  0.392925  0.392925  0.393435  1
  Ni  Ni17  1  0.392925  0.392925  0.820716  1
  Ni  Ni18  1  0.392547  0.821241  0.393106  1
  Ni  Ni19  1  0.821241  0.392547  0.393106  1
  Ag  Ag20  1  0.831896  0.505452  0.831326  1
  Ag  Ag21  1  0.505452  0.831896  0.831326  1
  Ag  Ag22  1  0.832369  0.832369  0.832064  1
  Ag  Ag23  1  0.832369  0.832369  0.503197  1
