# generated using pymatgen
data_Tb3NdSe6
_symmetry_space_group_name_H-M   'P 1'
_cell_length_a   4.15686100
_cell_length_b   11.65486872
_cell_length_c   11.93974894
_cell_angle_alpha   71.06911618
_cell_angle_beta   90.00000000
_cell_angle_gamma   90.00000000
_symmetry_Int_Tables_number   1
_chemical_formula_structural   Tb3NdSe6
_chemical_formula_sum   'Tb6 Nd2 Se12'
_cell_volume   547.16484447
_cell_formula_units_Z   2
loop_
 _symmetry_equiv_pos_site_id
 _symmetry_equiv_pos_as_xyz
  1  'x, y, z'
loop_
 _atom_site_type_symbol
 _atom_site_label
 _atom_site_symmetry_multiplicity
 _atom_site_fract_x
 _atom_site_fract_y
 _atom_site_fract_z
 _atom_site_occupancy
  Tb  Tb0  1  0.750000  0.181479  0.998068  1
  Tb  Tb1  1  0.250000  0.818521  0.001932  1
  Tb  Tb2  1  0.750000  0.937115  0.667637  1
  Tb  Tb3  1  0.250000  0.062885  0.332363  1
  Tb  Tb4  1  0.750000  0.659557  0.415495  1
  Tb  Tb5  1  0.250000  0.340443  0.584505  1
  Nd  Nd6  1  0.750000  0.547057  0.805903  1
  Nd  Nd7  1  0.250000  0.452943  0.194097  1
  Se  Se8  1  0.750000  0.979660  0.886972  1
  Se  Se9  1  0.250000  0.020340  0.113028  1
  Se  Se10  1  0.750000  0.304858  0.749472  1
  Se  Se11  1  0.250000  0.695142  0.250528  1
  Se  Se12  1  0.750000  0.895025  0.439453  1
  Se  Se13  1  0.250000  0.104975  0.560547  1
  Se  Se14  1  0.750000  0.417110  0.403472  1
  Se  Se15  1  0.250000  0.582890  0.596528  1
  Se  Se16  1  0.750000  0.240198  0.225968  1
  Se  Se17  1  0.250000  0.759802  0.774032  1
  Se  Se18  1  0.750000  0.615542  0.035784  1
  Se  Se19  1  0.250000  0.384458  0.964216  1
