# generated using pymatgen
data_Y20(OsPd3)3
_symmetry_space_group_name_H-M   'P 1'
_cell_length_a   11.16992800
_cell_length_b   11.16992800
_cell_length_c   6.35765700
_cell_angle_alpha   90.00000000
_cell_angle_beta   90.00000000
_cell_angle_gamma   90.00000000
_symmetry_Int_Tables_number   1
_chemical_formula_structural   Y20(OsPd3)3
_chemical_formula_sum   'Y20 Os3 Pd9'
_cell_volume   793.22764434
_cell_formula_units_Z   1
loop_
 _symmetry_equiv_pos_site_id
 _symmetry_equiv_pos_as_xyz
  1  'x, y, z'
loop_
 _atom_site_type_symbol
 _atom_site_label
 _atom_site_symmetry_multiplicity
 _atom_site_fract_x
 _atom_site_fract_y
 _atom_site_fract_z
 _atom_site_occupancy
  Y  Y0  1  0.298510  0.085643  0.360252  1
  Y  Y1  1  0.298458  0.916918  0.861438  1
  Y  Y2  1  0.701542  0.083082  0.861438  1
  Y  Y3  1  0.701490  0.914357  0.360252  1
  Y  Y4  1  0.583082  0.798458  0.861438  1
  Y  Y5  1  0.585643  0.201490  0.360252  1
  Y  Y6  1  0.414357  0.798510  0.360252  1
  Y  Y7  1  0.416918  0.201542  0.861438  1
  Y  Y8  1  0.207182  0.412866  0.648852  1
  Y  Y9  1  0.205448  0.586699  0.132920  1
  Y  Y10  1  0.794552  0.413301  0.132920  1
  Y  Y11  1  0.792818  0.587134  0.648852  1
  Y  Y12  1  0.913301  0.705448  0.132920  1
  Y  Y13  1  0.912866  0.292818  0.648852  1
  Y  Y14  1  0.087134  0.707182  0.648852  1
  Y  Y15  1  0.086699  0.294552  0.132920  1
  Y  Y16  1  0.000000  0.000000  0.495829  1
  Y  Y17  1  0.000000  0.000000  0.996569  1
  Y  Y18  1  0.500000  0.500000  0.996569  1
  Y  Y19  1  0.500000  0.500000  0.495829  1
  Os  Os20  1  0.500000  0.000000  0.114119  1
  Os  Os21  1  0.500000  0.000000  0.612959  1
  Os  Os22  1  0.000000  0.500000  0.888544  1
  Pd  Pd23  1  0.848828  0.157932  0.247986  1
  Pd  Pd24  1  0.845176  0.845293  0.749791  1
  Pd  Pd25  1  0.154824  0.154707  0.749791  1
  Pd  Pd26  1  0.151172  0.842068  0.247986  1
  Pd  Pd27  1  0.654707  0.345176  0.749791  1
  Pd  Pd28  1  0.657932  0.651172  0.247986  1
  Pd  Pd29  1  0.342068  0.348828  0.247986  1
  Pd  Pd30  1  0.345293  0.654824  0.749791  1
  Pd  Pd31  1  0.000000  0.500000  0.394621  1
