# generated using pymatgen
data_La2Re3Si4Tc
_symmetry_space_group_name_H-M   'P 1'
_cell_length_a   4.16753450
_cell_length_b   4.25155460
_cell_length_c   10.94176691
_cell_angle_alpha   101.20271836
_cell_angle_beta   100.97854828
_cell_angle_gamma   90.00000313
_symmetry_Int_Tables_number   1
_chemical_formula_structural   La2Re3Si4Tc
_chemical_formula_sum   'La2 Re3 Si4 Tc1'
_cell_volume   186.55928273
_cell_formula_units_Z   1
loop_
 _symmetry_equiv_pos_site_id
 _symmetry_equiv_pos_as_xyz
  1  'x, y, z'
loop_
 _atom_site_type_symbol
 _atom_site_label
 _atom_site_symmetry_multiplicity
 _atom_site_fract_x
 _atom_site_fract_y
 _atom_site_fract_z
 _atom_site_occupancy
  La  La0  1  0.837244  0.087243  0.174487  1
  La  La1  1  0.162911  0.912911  0.825824  1
  Re  Re2  1  0.964668  0.714667  0.429335  1
  Re  Re3  1  0.035680  0.285681  0.571362  1
  Re  Re4  1  0.538267  0.788265  0.576531  1
  Si  Si5  1  0.278436  0.528435  0.056871  1
  Si  Si6  1  0.396252  0.646250  0.292501  1
  Si  Si7  1  0.603731  0.353730  0.707461  1
  Si  Si8  1  0.721566  0.471565  0.943129  1
  Tc  Tc9  1  0.461250  0.211249  0.422497  1
