# generated using pymatgen
data_Li3Cr2Co5Ni4P7
_symmetry_space_group_name_H-M   'P 1'
_cell_length_a   8.97063049
_cell_length_b   8.96467334
_cell_length_c   3.54219400
_cell_angle_alpha   90.00000000
_cell_angle_beta   90.00000000
_cell_angle_gamma   119.51085991
_symmetry_Int_Tables_number   1
_chemical_formula_structural   Li3Cr2Co5Ni4P7
_chemical_formula_sum   'Li3 Cr2 Co5 Ni4 P7'
_cell_volume   247.90196724
_cell_formula_units_Z   1
loop_
 _symmetry_equiv_pos_site_id
 _symmetry_equiv_pos_as_xyz
  1  'x, y, z'
loop_
 _atom_site_type_symbol
 _atom_site_label
 _atom_site_symmetry_multiplicity
 _atom_site_fract_x
 _atom_site_fract_y
 _atom_site_fract_z
 _atom_site_occupancy
  Li  Li0  1  0.225396  0.101442  0.500000  1
  Li  Li1  1  0.332776  0.668101  0.000000  1
  Li  Li2  1  0.666237  0.333606  0.500000  1
  Cr  Cr3  1  0.874492  0.782061  0.500000  1
  Cr  Cr4  1  0.904389  0.120290  0.500000  1
  Co  Co5  1  0.721395  0.881184  0.000000  1
  Co  Co6  1  0.166981  0.282968  0.000000  1
  Co  Co7  1  0.116639  0.835014  0.000000  1
  Co  Co8  1  0.624799  0.572860  0.000000  1
  Co  Co9  1  0.561639  0.947697  0.500000  1
  Ni  Ni10  1  0.935325  0.370655  0.000000  1
  Ni  Ni11  1  0.434303  0.061734  0.000000  1
  Ni  Ni12  1  0.390638  0.438929  0.500000  1
  Ni  Ni13  1  0.048463  0.606787  0.500000  1
  P  P14  1  0.585000  0.714535  0.500000  1
  P  P15  1  0.120782  0.403605  0.500000  1
  P  P16  1  0.289171  0.873381  0.500000  1
  P  P17  1  0.000299  0.001499  0.000000  1
  P  P18  1  0.873700  0.584989  0.000000  1
  P  P19  1  0.700679  0.115608  0.000000  1
  P  P20  1  0.426899  0.303057  0.000000  1
