# generated using pymatgen
data_Pr16Dy3HoSn16
_symmetry_space_group_name_H-M   'P 1'
_cell_length_a   8.27787201
_cell_length_b   8.43783907
_cell_length_c   16.03434200
_cell_angle_alpha   90.00000000
_cell_angle_beta   90.00000000
_cell_angle_gamma   89.99602155
_symmetry_Int_Tables_number   1
_chemical_formula_structural   Pr16Dy3HoSn16
_chemical_formula_sum   'Pr16 Dy3 Ho1 Sn16'
_cell_volume   1119.95632496
_cell_formula_units_Z   1
loop_
 _symmetry_equiv_pos_site_id
 _symmetry_equiv_pos_as_xyz
  1  'x, y, z'
loop_
 _atom_site_type_symbol
 _atom_site_label
 _atom_site_symmetry_multiplicity
 _atom_site_fract_x
 _atom_site_fract_y
 _atom_site_fract_z
 _atom_site_occupancy
  Pr  Pr0  1  0.367840  0.836266  0.878601  1
  Pr  Pr1  1  0.868020  0.663600  0.621371  1
  Pr  Pr2  1  0.632072  0.163697  0.378626  1
  Pr  Pr3  1  0.132066  0.336323  0.121305  1
  Pr  Pr4  1  0.632072  0.163697  0.121374  1
  Pr  Pr5  1  0.132066  0.336323  0.378695  1
  Pr  Pr6  1  0.367840  0.836266  0.621399  1
  Pr  Pr7  1  0.868020  0.663600  0.878629  1
  Pr  Pr8  1  0.520574  0.319826  0.901758  1
  Pr  Pr9  1  0.020676  0.180298  0.598232  1
  Pr  Pr10  1  0.479377  0.680238  0.401797  1
  Pr  Pr11  1  0.979352  0.819779  0.098230  1
  Pr  Pr12  1  0.479377  0.680238  0.098203  1
  Pr  Pr13  1  0.979352  0.819779  0.401770  1
  Pr  Pr14  1  0.520574  0.319826  0.598242  1
  Pr  Pr15  1  0.020676  0.180298  0.901768  1
  Dy  Dy16  1  0.698908  0.998205  0.750000  1
  Dy  Dy17  1  0.801061  0.498174  0.250000  1
  Dy  Dy18  1  0.301063  0.001845  0.250000  1
  Ho  Ho19  1  0.199093  0.501822  0.750000  1
  Sn  Sn20  1  0.292411  0.034519  0.042973  1
  Sn  Sn21  1  0.792391  0.465431  0.457031  1
  Sn  Sn22  1  0.707603  0.965488  0.543014  1
  Sn  Sn23  1  0.207598  0.534425  0.956834  1
  Sn  Sn24  1  0.707603  0.965488  0.956986  1
  Sn  Sn25  1  0.207598  0.534425  0.543166  1
  Sn  Sn26  1  0.292411  0.034519  0.457027  1
  Sn  Sn27  1  0.792391  0.465431  0.042969  1
  Sn  Sn28  1  0.564782  0.616889  0.750000  1
  Sn  Sn29  1  0.065094  0.882901  0.750000  1
  Sn  Sn30  1  0.434900  0.383069  0.250000  1
  Sn  Sn31  1  0.934955  0.116995  0.250000  1
  Sn  Sn32  1  0.327615  0.147398  0.750000  1
  Sn  Sn33  1  0.827723  0.352980  0.750000  1
  Sn  Sn34  1  0.672379  0.852902  0.250000  1
  Sn  Sn35  1  0.172467  0.647036  0.250000  1
