# generated using pymatgen
data_Dy(TaBr3)6
_symmetry_space_group_name_H-M   'P 1'
_cell_length_a   10.70340508
_cell_length_b   10.70340425
_cell_length_c   10.70340335
_cell_angle_alpha   56.02874695
_cell_angle_beta   56.02874997
_cell_angle_gamma   56.02875249
_symmetry_Int_Tables_number   1
_chemical_formula_structural   Dy(TaBr3)6
_chemical_formula_sum   'Dy1 Ta6 Br18'
_cell_volume   787.30189617
_cell_formula_units_Z   1
loop_
 _symmetry_equiv_pos_site_id
 _symmetry_equiv_pos_as_xyz
  1  'x, y, z'
loop_
 _atom_site_type_symbol
 _atom_site_label
 _atom_site_symmetry_multiplicity
 _atom_site_fract_x
 _atom_site_fract_y
 _atom_site_fract_z
 _atom_site_occupancy
  Dy  Dy0  1  0.000000  0.000000  0.000000  1
  Ta  Ta1  1  0.413050  0.309855  0.642328  1
  Ta  Ta2  1  0.357672  0.586950  0.690145  1
  Ta  Ta3  1  0.690145  0.357672  0.586950  1
  Ta  Ta4  1  0.309855  0.642328  0.413050  1
  Ta  Ta5  1  0.642328  0.413050  0.309855  1
  Ta  Ta6  1  0.586950  0.690145  0.357672  1
  Br  Br7  1  0.568733  0.161964  0.441327  1
  Br  Br8  1  0.223778  0.370752  0.907696  1
  Br  Br9  1  0.907696  0.223778  0.370752  1
  Br  Br10  1  0.370752  0.907696  0.223778  1
  Br  Br11  1  0.776222  0.629248  0.092304  1
  Br  Br12  1  0.092304  0.776222  0.629248  1
  Br  Br13  1  0.699823  0.958451  0.161735  1
  Br  Br14  1  0.958451  0.161735  0.699823  1
  Br  Br15  1  0.161735  0.699823  0.958451  1
  Br  Br16  1  0.300177  0.041549  0.838265  1
  Br  Br17  1  0.041549  0.838265  0.300177  1
  Br  Br18  1  0.838265  0.300177  0.041549  1
  Br  Br19  1  0.558673  0.431267  0.838036  1
  Br  Br20  1  0.161964  0.441327  0.568733  1
  Br  Br21  1  0.441327  0.568733  0.161964  1
  Br  Br22  1  0.431267  0.838036  0.558673  1
  Br  Br23  1  0.838036  0.558673  0.431267  1
  Br  Br24  1  0.629248  0.092304  0.776222  1
