# generated using pymatgen
data_La6NdNi16
_symmetry_space_group_name_H-M   'P 1'
_cell_length_a   7.28445942
_cell_length_b   7.28445753
_cell_length_c   8.92793261
_cell_angle_alpha   114.07668337
_cell_angle_beta   114.07668617
_cell_angle_gamma   89.99999810
_symmetry_Int_Tables_number   1
_chemical_formula_structural   La6NdNi16
_chemical_formula_sum   'La6 Nd1 Ni16'
_cell_volume   386.94888763
_cell_formula_units_Z   1
loop_
 _symmetry_equiv_pos_site_id
 _symmetry_equiv_pos_as_xyz
  1  'x, y, z'
loop_
 _atom_site_type_symbol
 _atom_site_label
 _atom_site_symmetry_multiplicity
 _atom_site_fract_x
 _atom_site_fract_y
 _atom_site_fract_z
 _atom_site_occupancy
  La  La0  1  0.405201  0.405201  0.207342  1
  La  La1  1  0.802141  0.802141  0.207342  1
  La  La2  1  0.750000  0.250000  0.499999  1
  La  La3  1  0.250000  0.750000  0.499999  1
  La  La4  1  0.594799  0.197859  0.792658  1
  La  La5  1  0.197859  0.594799  0.792658  1
  Nd  Nd6  1  0.000000  0.000000  0.000000  1
  Ni  Ni7  1  0.698296  0.182263  0.130478  1
  Ni  Ni8  1  0.948216  0.432184  0.130478  1
  Ni  Ni9  1  0.182263  0.698296  0.130478  1
  Ni  Ni10  1  0.432184  0.948216  0.130478  1
  Ni  Ni11  1  0.303206  0.066506  0.369714  1
  Ni  Ni12  1  0.066506  0.303206  0.369714  1
  Ni  Ni13  1  0.836358  0.560434  0.396793  1
  Ni  Ni14  1  0.560434  0.836358  0.396793  1
  Ni  Ni15  1  0.163642  0.163642  0.603208  1
  Ni  Ni16  1  0.439566  0.439566  0.603208  1
  Ni  Ni17  1  0.696792  0.696792  0.630285  1
  Ni  Ni18  1  0.933493  0.933493  0.630285  1
  Ni  Ni19  1  0.301705  0.051784  0.869522  1
  Ni  Ni20  1  0.051784  0.301705  0.869522  1
  Ni  Ni21  1  0.817737  0.567817  0.869522  1
  Ni  Ni22  1  0.567817  0.817737  0.869522  1
