# generated using pymatgen
data_Re2Bi2NO7
_symmetry_space_group_name_H-M   'P 1'
_cell_length_a   7.89483943
_cell_length_b   7.89483912
_cell_length_c   5.64483302
_cell_angle_alpha   90.00690457
_cell_angle_beta   89.99309508
_cell_angle_gamma   151.67097683
_symmetry_Int_Tables_number   1
_chemical_formula_structural   Re2Bi2NO7
_chemical_formula_sum   'Re2 Bi2 N1 O7'
_cell_volume   166.95720217
_cell_formula_units_Z   1
loop_
 _symmetry_equiv_pos_site_id
 _symmetry_equiv_pos_as_xyz
  1  'x, y, z'
loop_
 _atom_site_type_symbol
 _atom_site_label
 _atom_site_symmetry_multiplicity
 _atom_site_fract_x
 _atom_site_fract_y
 _atom_site_fract_z
 _atom_site_occupancy
  Re  Re0  1  0.079161  0.920839  0.757615  1
  Re  Re1  1  0.920839  0.079161  0.242385  1
  Bi  Bi2  1  0.306542  0.693458  0.742363  1
  Bi  Bi3  1  0.693458  0.306542  0.257637  1
  N  N4  1  0.000000  0.000000  0.000000  1
  O  O5  1  0.184548  0.815452  0.973982  1
  O  O6  1  0.815452  0.184548  0.026018  1
  O  O7  1  0.814289  0.185711  0.491601  1
  O  O8  1  0.185711  0.814289  0.508399  1
  O  O9  1  0.000000  0.000000  0.500000  1
  O  O10  1  0.586826  0.413174  0.745721  1
  O  O11  1  0.413174  0.586826  0.254279  1
