# generated using pymatgen
data_Hg2ClO5
_symmetry_space_group_name_H-M   'P 1'
_cell_length_a   8.03484831
_cell_length_b   9.40388140
_cell_length_c   9.06911371
_cell_angle_alpha   114.36508206
_cell_angle_beta   102.79954810
_cell_angle_gamma   89.65825093
_symmetry_Int_Tables_number   1
_chemical_formula_structural   Hg2ClO5
_chemical_formula_sum   'Hg8 Cl4 O20'
_cell_volume   605.88643910
_cell_formula_units_Z   4
loop_
 _symmetry_equiv_pos_site_id
 _symmetry_equiv_pos_as_xyz
  1  'x, y, z'
loop_
 _atom_site_type_symbol
 _atom_site_label
 _atom_site_symmetry_multiplicity
 _atom_site_fract_x
 _atom_site_fract_y
 _atom_site_fract_z
 _atom_site_occupancy
  Hg  Hg0  1  0.348718  0.619943  0.408884  1
  Hg  Hg1  1  0.707785  0.662171  0.824378  1
  Hg  Hg2  1  0.651282  0.380057  0.591116  1
  Hg  Hg3  1  0.323522  0.973543  0.795736  1
  Hg  Hg4  1  0.292215  0.337829  0.175622  1
  Hg  Hg5  1  0.676478  0.026457  0.204264  1
  Hg  Hg6  1  0.000000  0.000000  0.000000  1
  Hg  Hg7  1  0.500000  0.000000  0.500000  1
  Cl  Cl8  1  0.897062  0.760662  0.477315  1
  Cl  Cl9  1  0.714661  0.325215  0.996185  1
  Cl  Cl10  1  0.285339  0.674785  0.003815  1
  Cl  Cl11  1  0.102938  0.239338  0.522685  1
  O  O12  1  0.204554  0.125365  0.566388  1
  O  O13  1  0.444078  0.853642  0.607135  1
  O  O14  1  0.107774  0.709018  0.961449  1
  O  O15  1  0.238045  0.090737  0.008960  1
  O  O16  1  0.012758  0.162713  0.343708  1
  O  O17  1  0.987242  0.837287  0.656292  1
  O  O18  1  0.356323  0.760844  0.185429  1
  O  O19  1  0.761955  0.909263  0.991040  1
  O  O20  1  0.892226  0.290982  0.038551  1
  O  O21  1  0.706222  0.491622  0.046131  1
  O  O22  1  0.023554  0.713337  0.377414  1
  O  O23  1  0.293778  0.508378  0.953869  1
  O  O24  1  0.795446  0.874635  0.433612  1
  O  O25  1  0.784917  0.626800  0.449178  1
  O  O26  1  0.215083  0.373200  0.550822  1
  O  O27  1  0.643677  0.239156  0.814571  1
  O  O28  1  0.555922  0.146358  0.392865  1
  O  O29  1  0.611824  0.267992  0.081010  1
  O  O30  1  0.976446  0.286663  0.622586  1
  O  O31  1  0.388176  0.732008  0.918990  1
