# generated using pymatgen
data_Ag5Pd2Au
_symmetry_space_group_name_H-M   'P 1'
_cell_length_a   5.76192695
_cell_length_b   5.76192685
_cell_length_c   4.82719300
_cell_angle_alpha   90.00000000
_cell_angle_beta   90.00000000
_cell_angle_gamma   120.09428448
_symmetry_Int_Tables_number   1
_chemical_formula_structural   Ag5Pd2Au
_chemical_formula_sum   'Ag5 Pd2 Au1'
_cell_volume   138.65878405
_cell_formula_units_Z   1
loop_
 _symmetry_equiv_pos_site_id
 _symmetry_equiv_pos_as_xyz
  1  'x, y, z'
loop_
 _atom_site_type_symbol
 _atom_site_label
 _atom_site_symmetry_multiplicity
 _atom_site_fract_x
 _atom_site_fract_y
 _atom_site_fract_z
 _atom_site_occupancy
  Ag  Ag0  1  0.335503  0.167940  0.750000  1
  Ag  Ag1  1  0.832060  0.664497  0.750000  1
  Ag  Ag2  1  0.167918  0.832082  0.250000  1
  Ag  Ag3  1  0.664192  0.832048  0.250000  1
  Ag  Ag4  1  0.167952  0.335808  0.250000  1
  Pd  Pd5  1  0.666943  0.333057  0.250000  1
  Pd  Pd6  1  0.333380  0.666620  0.750000  1
  Au  Au7  1  0.832052  0.167948  0.750000  1
