# generated using pymatgen
data_TbInCuPt3
_symmetry_space_group_name_H-M   'P 1'
_cell_length_a   5.47576423
_cell_length_b   5.47576355
_cell_length_c   5.21758446
_cell_angle_alpha   58.34916707
_cell_angle_beta   58.34916935
_cell_angle_gamma   59.99999680
_symmetry_Int_Tables_number   1
_chemical_formula_structural   TbInCuPt3
_chemical_formula_sum   'Tb1 In1 Cu1 Pt3'
_cell_volume   107.78145960
_cell_formula_units_Z   1
loop_
 _symmetry_equiv_pos_site_id
 _symmetry_equiv_pos_as_xyz
  1  'x, y, z'
loop_
 _atom_site_type_symbol
 _atom_site_label
 _atom_site_symmetry_multiplicity
 _atom_site_fract_x
 _atom_site_fract_y
 _atom_site_fract_z
 _atom_site_occupancy
  Tb  Tb0  1  0.001753  0.001753  0.994742  1
  In  In1  1  0.252097  0.252097  0.243710  1
  Cu  Cu2  1  0.624329  0.624329  0.127013  1
  Pt  Pt3  1  0.623332  0.125158  0.628178  1
  Pt  Pt4  1  0.125158  0.623332  0.628178  1
  Pt  Pt5  1  0.623332  0.623332  0.628178  1
