# generated using pymatgen
data_Nd7Ho(SiI6)2
_symmetry_space_group_name_H-M   'P 1'
_cell_length_a   4.32279100
_cell_length_b   14.44644451
_cell_length_c   15.20559305
_cell_angle_alpha   90.38854142
_cell_angle_beta   90.00000000
_cell_angle_gamma   90.00000000
_symmetry_Int_Tables_number   1
_chemical_formula_structural   Nd7Ho(SiI6)2
_chemical_formula_sum   'Nd7 Ho1 Si2 I12'
_cell_volume   949.55164331
_cell_formula_units_Z   1
loop_
 _symmetry_equiv_pos_site_id
 _symmetry_equiv_pos_as_xyz
  1  'x, y, z'
loop_
 _atom_site_type_symbol
 _atom_site_label
 _atom_site_symmetry_multiplicity
 _atom_site_fract_x
 _atom_site_fract_y
 _atom_site_fract_z
 _atom_site_occupancy
  Nd  Nd0  1  0.500000  0.114961  0.346859  1
  Nd  Nd1  1  0.500000  0.885765  0.653796  1
  Nd  Nd2  1  0.500000  0.613593  0.152114  1
  Nd  Nd3  1  0.000000  0.115114  0.577526  1
  Nd  Nd4  1  0.000000  0.886794  0.424227  1
  Nd  Nd5  1  0.000000  0.612570  0.923917  1
  Nd  Nd6  1  0.000000  0.386416  0.074677  1
  Ho  Ho7  1  0.500000  0.387109  0.848485  1
  Si  Si8  1  0.500000  0.001051  0.500752  1
  Si  Si9  1  0.500000  0.498124  0.997427  1
  I  I10  1  0.500000  0.243231  0.160357  1
  I  I11  1  0.500000  0.755261  0.837670  1
  I  I12  1  0.500000  0.743432  0.338175  1
  I  I13  1  0.500000  0.258468  0.666816  1
  I  I14  1  0.000000  0.259549  0.415190  1
  I  I15  1  0.000000  0.741068  0.585617  1
  I  I16  1  0.000000  0.758353  0.085925  1
  I  I17  1  0.000000  0.247905  0.906847  1
  I  I18  1  0.000000  0.997983  0.240338  1
  I  I19  1  0.000000  0.002338  0.760633  1
  I  I20  1  0.000000  0.498305  0.259021  1
  I  I21  1  0.000000  0.492611  0.743631  1
