# generated using pymatgen
data_K4Rb2Zn2O5
_symmetry_space_group_name_H-M   'P 1'
_cell_length_a   6.83398500
_cell_length_b   6.83398500
_cell_length_c   12.00292800
_cell_angle_alpha   90.00000000
_cell_angle_beta   90.00000000
_cell_angle_gamma   90.00000000
_symmetry_Int_Tables_number   1
_chemical_formula_structural   K4Rb2Zn2O5
_chemical_formula_sum   'K8 Rb4 Zn4 O10'
_cell_volume   560.57695917
_cell_formula_units_Z   2
loop_
 _symmetry_equiv_pos_site_id
 _symmetry_equiv_pos_as_xyz
  1  'x, y, z'
loop_
 _atom_site_type_symbol
 _atom_site_label
 _atom_site_symmetry_multiplicity
 _atom_site_fract_x
 _atom_site_fract_y
 _atom_site_fract_z
 _atom_site_occupancy
  K  K0  1  0.500000  0.000000  0.250000  1
  K  K1  1  0.500000  0.000000  0.750000  1
  K  K2  1  0.000000  0.000000  0.779819  1
  K  K3  1  0.500000  0.500000  0.279819  1
  K  K4  1  0.500000  0.500000  0.720181  1
  K  K5  1  0.000000  0.000000  0.220181  1
  K  K6  1  0.000000  0.500000  0.250000  1
  K  K7  1  0.000000  0.500000  0.750000  1
  Rb  Rb8  1  0.322692  0.322692  0.000000  1
  Rb  Rb9  1  0.177308  0.822692  0.500000  1
  Rb  Rb10  1  0.822692  0.177308  0.500000  1
  Rb  Rb11  1  0.677308  0.677308  0.000000  1
  Zn  Zn12  1  0.202245  0.797755  0.000000  1
  Zn  Zn13  1  0.702245  0.702245  0.500000  1
  Zn  Zn14  1  0.297755  0.297755  0.500000  1
  Zn  Zn15  1  0.797755  0.202245  0.000000  1
  O  O16  1  0.500000  0.500000  0.500000  1
  O  O17  1  0.000000  0.000000  0.000000  1
  O  O18  1  0.789719  0.789719  0.358582  1
  O  O19  1  0.210281  0.210281  0.358582  1
  O  O20  1  0.789719  0.789719  0.641418  1
  O  O21  1  0.289719  0.710281  0.858582  1
  O  O22  1  0.710281  0.289719  0.858582  1
  O  O23  1  0.710281  0.289719  0.141418  1
  O  O24  1  0.210281  0.210281  0.641418  1
  O  O25  1  0.289719  0.710281  0.141418  1
