# generated using pymatgen
data_TbThC
_symmetry_space_group_name_H-M   'P 1'
_cell_length_a   6.69023926
_cell_length_b   6.69023910
_cell_length_c   6.69023873
_cell_angle_alpha   31.41652298
_cell_angle_beta   31.41652062
_cell_angle_gamma   31.41651774
_symmetry_Int_Tables_number   1
_chemical_formula_structural   TbThC
_chemical_formula_sum   'Tb1 Th1 C1'
_cell_volume   72.22465178
_cell_formula_units_Z   1
loop_
 _symmetry_equiv_pos_site_id
 _symmetry_equiv_pos_as_xyz
  1  'x, y, z'
loop_
 _atom_site_type_symbol
 _atom_site_label
 _atom_site_symmetry_multiplicity
 _atom_site_fract_x
 _atom_site_fract_y
 _atom_site_fract_z
 _atom_site_occupancy
  Tb  Tb0  1  0.260460  0.260460  0.260460  1
  Th  Th1  1  0.741199  0.741199  0.741199  1
  C  C2  1  0.998341  0.998341  0.998341  1
