# generated using pymatgen
data_EuErBi2O7
_symmetry_space_group_name_H-M   'P 1'
_cell_length_a   6.63513510
_cell_length_b   6.72417984
_cell_length_c   7.80158300
_cell_angle_alpha   106.66470530
_cell_angle_beta   89.56514396
_cell_angle_gamma   98.52900623
_symmetry_Int_Tables_number   1
_chemical_formula_structural   EuErBi2O7
_chemical_formula_sum   'Eu2 Er2 Bi4 O14'
_cell_volume   329.54278074
_cell_formula_units_Z   2
loop_
 _symmetry_equiv_pos_site_id
 _symmetry_equiv_pos_as_xyz
  1  'x, y, z'
loop_
 _atom_site_type_symbol
 _atom_site_label
 _atom_site_symmetry_multiplicity
 _atom_site_fract_x
 _atom_site_fract_y
 _atom_site_fract_z
 _atom_site_occupancy
  Eu  Eu0  1  0.261140  0.533119  0.883002  1
  Eu  Eu1  1  0.738860  0.466881  0.116998  1
  Er  Er2  1  0.460797  0.004828  0.251082  1
  Er  Er3  1  0.539203  0.995172  0.748918  1
  Bi  Bi4  1  0.000000  0.000000  0.500000  1
  Bi  Bi5  1  0.000000  0.000000  0.000000  1
  Bi  Bi6  1  0.726558  0.461048  0.612972  1
  Bi  Bi7  1  0.273442  0.538952  0.387028  1
  O  O8  1  0.449449  0.657548  0.174216  1
  O  O9  1  0.550551  0.342452  0.825784  1
  O  O10  1  0.304649  0.935113  0.949722  1
  O  O11  1  0.695351  0.064887  0.050278  1
  O  O12  1  0.302398  0.925108  0.515257  1
  O  O13  1  0.697602  0.074892  0.484743  1
  O  O14  1  0.538674  0.355091  0.343142  1
  O  O15  1  0.461326  0.644909  0.656858  1
  O  O16  1  0.933480  0.667508  0.953089  1
  O  O17  1  0.066520  0.332492  0.046911  1
  O  O18  1  0.084447  0.324831  0.623020  1
  O  O19  1  0.915553  0.675169  0.376980  1
  O  O20  1  0.873422  0.930781  0.733076  1
  O  O21  1  0.126578  0.069219  0.266924  1
