# generated using pymatgen
data_Ba4LaU3O14
_symmetry_space_group_name_H-M   'P 1'
_cell_length_a   8.25319584
_cell_length_b   8.25319609
_cell_length_c   8.21786390
_cell_angle_alpha   120.42517521
_cell_angle_beta   118.68143912
_cell_angle_gamma   91.02395086
_symmetry_Int_Tables_number   1
_chemical_formula_structural   Ba4LaU3O14
_chemical_formula_sum   'Ba4 La1 U3 O14'
_cell_volume   397.46966257
_cell_formula_units_Z   1
loop_
 _symmetry_equiv_pos_site_id
 _symmetry_equiv_pos_as_xyz
  1  'x, y, z'
loop_
 _atom_site_type_symbol
 _atom_site_label
 _atom_site_symmetry_multiplicity
 _atom_site_fract_x
 _atom_site_fract_y
 _atom_site_fract_z
 _atom_site_occupancy
  Ba  Ba0  1  0.000000  0.000000  0.000000  1
  Ba  Ba1  1  0.500000  0.500000  0.000000  1
  Ba  Ba2  1  0.500000  0.000000  0.000000  1
  Ba  Ba3  1  0.500000  0.500000  0.500000  1
  La  La4  1  0.000000  0.500000  0.000000  1
  U  U5  1  0.000000  0.000000  0.500000  1
  U  U6  1  0.000000  0.500000  0.500000  1
  U  U7  1  0.500000  0.000000  0.500000  1
  O  O8  1  0.892616  0.771809  0.164426  1
  O  O9  1  0.694765  0.930211  0.383880  1
  O  O10  1  0.625892  0.918010  0.723265  1
  O  O11  1  0.656988  0.304962  0.746936  1
  O  O12  1  0.343012  0.695038  0.253064  1
  O  O13  1  0.305235  0.069789  0.616120  1
  O  O14  1  0.694744  0.402627  0.276735  1
  O  O15  1  0.046330  0.810885  0.616120  1
  O  O16  1  0.058026  0.410051  0.253064  1
  O  O17  1  0.107384  0.228191  0.835574  1
  O  O18  1  0.374108  0.081990  0.276735  1
  O  O19  1  0.953670  0.189115  0.383880  1
  O  O20  1  0.941974  0.589949  0.746936  1
  O  O21  1  0.305256  0.597373  0.723265  1
