# generated using pymatgen
data_YbLu3(B4Ru)4
_symmetry_space_group_name_H-M   'P 1'
_cell_length_a   3.51585100
_cell_length_b   5.92257553
_cell_length_c   11.44250898
_cell_angle_alpha   89.91748649
_cell_angle_beta   90.00000000
_cell_angle_gamma   90.00000000
_symmetry_Int_Tables_number   1
_chemical_formula_structural   YbLu3(B4Ru)4
_chemical_formula_sum   'Yb1 Lu3 B16 Ru4'
_cell_volume   238.26589414
_cell_formula_units_Z   1
loop_
 _symmetry_equiv_pos_site_id
 _symmetry_equiv_pos_as_xyz
  1  'x, y, z'
loop_
 _atom_site_type_symbol
 _atom_site_label
 _atom_site_symmetry_multiplicity
 _atom_site_fract_x
 _atom_site_fract_y
 _atom_site_fract_z
 _atom_site_occupancy
  Yb  Yb0  1  0.500000  0.870214  0.649698  1
  Lu  Lu1  1  0.500000  0.628516  0.150042  1
  Lu  Lu2  1  0.500000  0.370889  0.848906  1
  Lu  Lu3  1  0.500000  0.128747  0.350849  1
  B  B4  1  0.000000  0.975894  0.192798  1
  B  B5  1  0.000000  0.025461  0.808008  1
  B  B6  1  0.000000  0.475218  0.307164  1
  B  B7  1  0.000000  0.523428  0.692290  1
  B  B8  1  0.000000  0.790947  0.314232  1
  B  B9  1  0.000000  0.211133  0.685872  1
  B  B10  1  0.000000  0.290533  0.186306  1
  B  B11  1  0.000000  0.710221  0.814179  1
  B  B12  1  0.000000  0.865023  0.469276  1
  B  B13  1  0.000000  0.134882  0.529762  1
  B  B14  1  0.000000  0.365119  0.030281  1
  B  B15  1  0.000000  0.634532  0.970341  1
  B  B16  1  0.000000  0.886536  0.047769  1
  B  B17  1  0.000000  0.113079  0.952800  1
  B  B18  1  0.000000  0.386793  0.452754  1
  B  B19  1  0.000000  0.613146  0.546933  1
  Ru  Ru20  1  0.500000  0.640158  0.406333  1
  Ru  Ru21  1  0.500000  0.359976  0.591236  1
  Ru  Ru22  1  0.500000  0.141367  0.093018  1
  Ru  Ru23  1  0.500000  0.858189  0.909151  1
