# generated using pymatgen
data_Sm4Sn4As2Rh7
_symmetry_space_group_name_H-M   'P 1'
_cell_length_a   7.57805157
_cell_length_b   7.57805305
_cell_length_c   7.57901882
_cell_angle_alpha   109.24814699
_cell_angle_beta   109.24816034
_cell_angle_gamma   109.91314757
_symmetry_Int_Tables_number   1
_chemical_formula_structural   Sm4Sn4As2Rh7
_chemical_formula_sum   'Sm4 Sn4 As2 Rh7'
_cell_volume   335.05352091
_cell_formula_units_Z   1
loop_
 _symmetry_equiv_pos_site_id
 _symmetry_equiv_pos_as_xyz
  1  'x, y, z'
loop_
 _atom_site_type_symbol
 _atom_site_label
 _atom_site_symmetry_multiplicity
 _atom_site_fract_x
 _atom_site_fract_y
 _atom_site_fract_z
 _atom_site_occupancy
  Sm  Sm0  1  0.457688  0.457688  0.461223  1
  Sm  Sm1  1  0.006913  0.506913  0.013825  1
  Sm  Sm2  1  0.506913  0.006913  0.013825  1
  Sm  Sm3  1  0.003535  0.003535  0.461223  1
  Sn  Sn4  1  0.700481  0.989505  0.689986  1
  Sn  Sn5  1  0.669280  0.669280  0.977892  1
  Sn  Sn6  1  0.308612  0.308612  0.977892  1
  Sn  Sn7  1  0.989505  0.700481  0.689986  1
  As  As8  1  0.994068  0.342510  0.336578  1
  As  As9  1  0.342510  0.994068  0.336578  1
  Rh  Rh10  1  0.503052  0.749024  0.252075  1
  Rh  Rh11  1  0.752383  0.252383  0.504765  1
  Rh  Rh12  1  0.252383  0.752383  0.504765  1
  Rh  Rh13  1  0.237348  0.503659  0.741005  1
  Rh  Rh14  1  0.022649  0.022649  0.045298  1
  Rh  Rh15  1  0.503659  0.237348  0.741005  1
  Rh  Rh16  1  0.749024  0.503052  0.252075  1
