# generated using pymatgen
data_Al5Zn(Pd2Pt3)2
_symmetry_space_group_name_H-M   'P 1'
_cell_length_a   4.09400100
_cell_length_b   5.44577119
_cell_length_c   10.63691037
_cell_angle_alpha   89.54421771
_cell_angle_beta   90.00000000
_cell_angle_gamma   90.00000000
_symmetry_Int_Tables_number   1
_chemical_formula_structural   Al5Zn(Pd2Pt3)2
_chemical_formula_sum   'Al5 Zn1 Pd4 Pt6'
_cell_volume   237.14233572
_cell_formula_units_Z   1
loop_
 _symmetry_equiv_pos_site_id
 _symmetry_equiv_pos_as_xyz
  1  'x, y, z'
loop_
 _atom_site_type_symbol
 _atom_site_label
 _atom_site_symmetry_multiplicity
 _atom_site_fract_x
 _atom_site_fract_y
 _atom_site_fract_z
 _atom_site_occupancy
  Al  Al0  1  0.000000  0.999315  0.000266  1
  Al  Al1  1  0.000000  0.493121  0.497620  1
  Al  Al2  1  0.500000  0.838433  0.640878  1
  Al  Al3  1  0.500000  0.668100  0.144932  1
  Al  Al4  1  0.500000  0.332108  0.858681  1
  Zn  Zn5  1  0.500000  0.167520  0.360065  1
  Pd  Pd6  1  0.000000  0.993360  0.503417  1
  Pd  Pd7  1  0.000000  0.501135  0.998546  1
  Pd  Pd8  1  0.000000  0.411015  0.263743  1
  Pd  Pd9  1  0.000000  0.594013  0.731308  1
  Pt  Pt10  1  0.500000  0.196114  0.103755  1
  Pt  Pt11  1  0.500000  0.805085  0.892370  1
  Pt  Pt12  1  0.500000  0.685807  0.395130  1
  Pt  Pt13  1  0.500000  0.313279  0.609269  1
  Pt  Pt14  1  0.000000  0.908514  0.231456  1
  Pt  Pt15  1  0.000000  0.093081  0.768564  1
