# generated using pymatgen
data_Yb2Zr3Si7Pt9
_symmetry_space_group_name_H-M   'P 1'
_cell_length_a   10.08488800
_cell_length_b   10.08488832
_cell_length_c   3.98313200
_cell_angle_alpha   90.00000000
_cell_angle_beta   90.00000000
_cell_angle_gamma   120.00000549
_symmetry_Int_Tables_number   1
_chemical_formula_structural   Yb2Zr3Si7Pt9
_chemical_formula_sum   'Yb2 Zr3 Si7 Pt9'
_cell_volume   350.83061077
_cell_formula_units_Z   1
loop_
 _symmetry_equiv_pos_site_id
 _symmetry_equiv_pos_as_xyz
  1  'x, y, z'
loop_
 _atom_site_type_symbol
 _atom_site_label
 _atom_site_symmetry_multiplicity
 _atom_site_fract_x
 _atom_site_fract_y
 _atom_site_fract_z
 _atom_site_occupancy
  Yb  Yb0  1  0.000000  0.000000  0.000000  1
  Yb  Yb1  1  0.333333  0.666667  0.500000  1
  Zr  Zr2  1  0.895637  0.459128  0.500000  1
  Zr  Zr3  1  0.563489  0.104363  0.500000  1
  Zr  Zr4  1  0.540872  0.436511  0.500000  1
  Si  Si5  1  0.240913  0.192401  0.500000  1
  Si  Si6  1  0.807599  0.048514  0.500000  1
  Si  Si7  1  0.951486  0.759087  0.500000  1
  Si  Si8  1  0.554817  0.647437  0.000000  1
  Si  Si9  1  0.352563  0.907379  0.000000  1
  Si  Si10  1  0.092621  0.445183  0.000000  1
  Si  Si11  1  0.666667  0.333333  0.000000  1
  Pt  Pt12  1  0.220583  0.937987  0.500000  1
  Pt  Pt13  1  0.062013  0.282597  0.500000  1
  Pt  Pt14  1  0.717403  0.779417  0.500000  1
  Pt  Pt15  1  0.311694  0.410177  0.000000  1
  Pt  Pt16  1  0.589823  0.901517  0.000000  1
  Pt  Pt17  1  0.098483  0.688306  0.000000  1
  Pt  Pt18  1  0.384619  0.171424  0.000000  1
  Pt  Pt19  1  0.828576  0.213194  0.000000  1
  Pt  Pt20  1  0.786806  0.615381  0.000000  1
