# generated using pymatgen
data_Tb2(ZrPb)3
_symmetry_space_group_name_H-M   'P 1'
_cell_length_a   8.82951300
_cell_length_b   8.88172069
_cell_length_c   6.10425000
_cell_angle_alpha   90.00000000
_cell_angle_beta   90.00000000
_cell_angle_gamma   119.80575476
_symmetry_Int_Tables_number   1
_chemical_formula_structural   Tb2(ZrPb)3
_chemical_formula_sum   'Tb4 Zr6 Pb6'
_cell_volume   415.37805208
_cell_formula_units_Z   2
loop_
 _symmetry_equiv_pos_site_id
 _symmetry_equiv_pos_as_xyz
  1  'x, y, z'
loop_
 _atom_site_type_symbol
 _atom_site_label
 _atom_site_symmetry_multiplicity
 _atom_site_fract_x
 _atom_site_fract_y
 _atom_site_fract_z
 _atom_site_occupancy
  Tb  Tb0  1  0.758110  0.756153  0.250000  1
  Tb  Tb1  1  0.001957  0.243847  0.250000  1
  Tb  Tb2  1  0.763825  0.000000  0.750000  1
  Tb  Tb3  1  0.237548  0.000000  0.250000  1
  Zr  Zr4  1  0.331682  0.666583  0.501237  1
  Zr  Zr5  1  0.665100  0.333417  0.501237  1
  Zr  Zr6  1  0.000841  0.750955  0.750000  1
  Zr  Zr7  1  0.331682  0.666583  0.998763  1
  Zr  Zr8  1  0.249887  0.249045  0.750000  1
  Zr  Zr9  1  0.665100  0.333417  0.998763  1
  Pb  Pb10  1  0.606427  0.604217  0.750000  1
  Pb  Pb11  1  0.388920  0.000000  0.750000  1
  Pb  Pb12  1  0.599789  0.000000  0.250000  1
  Pb  Pb13  1  0.002210  0.395783  0.750000  1
  Pb  Pb14  1  0.397578  0.398234  0.250000  1
  Pb  Pb15  1  0.999344  0.601766  0.250000  1
