# generated using pymatgen
data_Tb4Y11Lu5Sn16
_symmetry_space_group_name_H-M   'P 1'
_cell_length_a   7.98978503
_cell_length_b   8.14181028
_cell_length_c   15.41738600
_cell_angle_alpha   90.02623479
_cell_angle_beta   89.95918193
_cell_angle_gamma   90.05974364
_symmetry_Int_Tables_number   1
_chemical_formula_structural   Tb4Y11Lu5Sn16
_chemical_formula_sum   'Tb4 Y11 Lu5 Sn16'
_cell_volume   1002.92031087
_cell_formula_units_Z   1
loop_
 _symmetry_equiv_pos_site_id
 _symmetry_equiv_pos_as_xyz
  1  'x, y, z'
loop_
 _atom_site_type_symbol
 _atom_site_label
 _atom_site_symmetry_multiplicity
 _atom_site_fract_x
 _atom_site_fract_y
 _atom_site_fract_z
 _atom_site_occupancy
  Tb  Tb0  1  0.481442  0.680376  0.095011  1
  Tb  Tb1  1  0.981035  0.820612  0.403399  1
  Tb  Tb2  1  0.519215  0.320889  0.597307  1
  Tb  Tb3  1  0.018775  0.178399  0.903155  1
  Y  Y4  1  0.865228  0.662385  0.623228  1
  Y  Y5  1  0.634308  0.162363  0.377609  1
  Y  Y6  1  0.135512  0.337419  0.120989  1
  Y  Y7  1  0.634361  0.163198  0.122726  1
  Y  Y8  1  0.134171  0.337264  0.377722  1
  Y  Y9  1  0.365953  0.837429  0.622886  1
  Y  Y10  1  0.866024  0.662073  0.878012  1
  Y  Y11  1  0.518977  0.320145  0.903507  1
  Y  Y12  1  0.019842  0.179077  0.597362  1
  Y  Y13  1  0.480894  0.679695  0.403853  1
  Y  Y14  1  0.980205  0.820343  0.096535  1
  Lu  Lu15  1  0.364541  0.838386  0.875759  1
  Lu  Lu16  1  0.197129  0.503577  0.750766  1
  Lu  Lu17  1  0.696074  0.996325  0.750429  1
  Lu  Lu18  1  0.803704  0.496475  0.250147  1
  Lu  Lu19  1  0.303501  0.003086  0.249386  1
  Sn  Sn20  1  0.295416  0.035025  0.040370  1
  Sn  Sn21  1  0.794416  0.463694  0.457788  1
  Sn  Sn22  1  0.706138  0.963744  0.542894  1
  Sn  Sn23  1  0.207574  0.540058  0.956627  1
  Sn  Sn24  1  0.700720  0.962036  0.957362  1
  Sn  Sn25  1  0.205341  0.536419  0.542872  1
  Sn  Sn26  1  0.294312  0.036419  0.457587  1
  Sn  Sn27  1  0.794589  0.463279  0.042610  1
  Sn  Sn28  1  0.561083  0.619134  0.750994  1
  Sn  Sn29  1  0.062358  0.881861  0.751058  1
  Sn  Sn30  1  0.438002  0.383038  0.249945  1
  Sn  Sn31  1  0.938478  0.117469  0.249487  1
  Sn  Sn32  1  0.329098  0.149368  0.750745  1
  Sn  Sn33  1  0.828632  0.349808  0.750354  1
  Sn  Sn34  1  0.671398  0.849688  0.249862  1
  Sn  Sn35  1  0.171555  0.649447  0.249654  1
