# generated using pymatgen
data_ReTc2Te4I
_symmetry_space_group_name_H-M   'P 1'
_cell_length_a   12.80105500
_cell_length_b   7.06996145
_cell_length_c   12.19537315
_cell_angle_alpha   67.09472067
_cell_angle_beta   90.00000000
_cell_angle_gamma   90.00000000
_symmetry_Int_Tables_number   1
_chemical_formula_structural   ReTc2Te4I
_chemical_formula_sum   'Re4 Tc8 Te16 I4'
_cell_volume   1016.68881354
_cell_formula_units_Z   4
loop_
 _symmetry_equiv_pos_site_id
 _symmetry_equiv_pos_as_xyz
  1  'x, y, z'
loop_
 _atom_site_type_symbol
 _atom_site_label
 _atom_site_symmetry_multiplicity
 _atom_site_fract_x
 _atom_site_fract_y
 _atom_site_fract_z
 _atom_site_occupancy
  Re  Re0  1  0.566747  0.022992  0.356272  1
  Re  Re1  1  0.933253  0.022992  0.856272  1
  Re  Re2  1  0.433253  0.977008  0.643728  1
  Re  Re3  1  0.066747  0.977008  0.143728  1
  Tc  Tc4  1  0.365418  0.970130  0.437090  1
  Tc  Tc5  1  0.134582  0.970130  0.937090  1
  Tc  Tc6  1  0.634582  0.029870  0.562910  1
  Tc  Tc7  1  0.865418  0.029870  0.062910  1
  Tc  Tc8  1  0.517413  0.711428  0.558986  1
  Tc  Tc9  1  0.982587  0.711428  0.058986  1
  Tc  Tc10  1  0.482587  0.288572  0.441014  1
  Tc  Tc11  1  0.017413  0.288572  0.941014  1
  Te  Te12  1  0.447214  0.717318  0.339984  1
  Te  Te13  1  0.052786  0.717318  0.839984  1
  Te  Te14  1  0.552786  0.282682  0.660016  1
  Te  Te15  1  0.947214  0.282682  0.160016  1
  Te  Te16  1  0.320580  0.655337  0.644142  1
  Te  Te17  1  0.179420  0.655337  0.144142  1
  Te  Te18  1  0.679420  0.344663  0.355858  1
  Te  Te19  1  0.820580  0.344663  0.855858  1
  Te  Te20  1  0.415034  0.283978  0.231603  1
  Te  Te21  1  0.084966  0.283978  0.731603  1
  Te  Te22  1  0.584966  0.716022  0.768397  1
  Te  Te23  1  0.915034  0.716022  0.268397  1
  Te  Te24  1  0.716199  0.759319  0.481209  1
  Te  Te25  1  0.783801  0.759319  0.981209  1
  Te  Te26  1  0.283801  0.240681  0.518791  1
  Te  Te27  1  0.216199  0.240681  0.018791  1
  I  I28  1  0.153688  0.916618  0.371772  1
  I  I29  1  0.346312  0.916618  0.871772  1
  I  I30  1  0.846312  0.083382  0.628228  1
  I  I31  1  0.653688  0.083382  0.128228  1
