# generated using pymatgen
data_Gd4Si5Rh9
_symmetry_space_group_name_H-M   'P 1'
_cell_length_a   11.73218156
_cell_length_b   11.73218134
_cell_length_c   11.73218200
_cell_angle_alpha   27.31986778
_cell_angle_beta   27.31986985
_cell_angle_gamma   27.31986972
_symmetry_Int_Tables_number   1
_chemical_formula_structural   Gd4Si5Rh9
_chemical_formula_sum   'Gd4 Si5 Rh9'
_cell_volume   300.16196119
_cell_formula_units_Z   1
loop_
 _symmetry_equiv_pos_site_id
 _symmetry_equiv_pos_as_xyz
  1  'x, y, z'
loop_
 _atom_site_type_symbol
 _atom_site_label
 _atom_site_symmetry_multiplicity
 _atom_site_fract_x
 _atom_site_fract_y
 _atom_site_fract_z
 _atom_site_occupancy
  Gd  Gd0  1  0.948404  0.948404  0.948404  1
  Gd  Gd1  1  0.850877  0.850877  0.850877  1
  Gd  Gd2  1  0.149123  0.149123  0.149123  1
  Gd  Gd3  1  0.051596  0.051596  0.051596  1
  Si  Si4  1  0.278322  0.278322  0.278322  1
  Si  Si5  1  0.500000  0.500000  0.500000  1
  Si  Si6  1  0.388047  0.388047  0.388047  1
  Si  Si7  1  0.721678  0.721678  0.721678  1
  Si  Si8  1  0.611953  0.611953  0.611953  1
  Rh  Rh9  1  0.608065  0.608065  0.108555  1
  Rh  Rh10  1  0.891445  0.391935  0.391935  1
  Rh  Rh11  1  0.500000  0.000000  0.500000  1
  Rh  Rh12  1  0.391935  0.891445  0.391935  1
  Rh  Rh13  1  0.500000  0.500000  0.000000  1
  Rh  Rh14  1  0.108555  0.608065  0.608065  1
  Rh  Rh15  1  0.000000  0.500000  0.500000  1
  Rh  Rh16  1  0.391935  0.391935  0.891445  1
  Rh  Rh17  1  0.608065  0.108555  0.608065  1
