# generated using pymatgen
data_Tm3P6Ru2Rh7
_symmetry_space_group_name_H-M   'P 1'
_cell_length_a   3.90573200
_cell_length_b   11.20050700
_cell_length_c   12.61366000
_cell_angle_alpha   90.00000000
_cell_angle_beta   90.00000000
_cell_angle_gamma   90.00000000
_symmetry_Int_Tables_number   1
_chemical_formula_structural   Tm3P6Ru2Rh7
_chemical_formula_sum   'Tm6 P12 Ru4 Rh14'
_cell_volume   551.79942324
_cell_formula_units_Z   2
loop_
 _symmetry_equiv_pos_site_id
 _symmetry_equiv_pos_as_xyz
  1  'x, y, z'
loop_
 _atom_site_type_symbol
 _atom_site_label
 _atom_site_symmetry_multiplicity
 _atom_site_fract_x
 _atom_site_fract_y
 _atom_site_fract_z
 _atom_site_occupancy
  Tm  Tm0  1  0.000000  0.500000  0.521335  1
  Tm  Tm1  1  0.500000  0.000000  0.478665  1
  Tm  Tm2  1  0.500000  0.818365  0.205233  1
  Tm  Tm3  1  0.500000  0.181635  0.205233  1
  Tm  Tm4  1  0.000000  0.681635  0.794767  1
  Tm  Tm5  1  0.000000  0.318365  0.794767  1
  P  P6  1  0.500000  0.500000  0.879039  1
  P  P7  1  0.000000  0.000000  0.120961  1
  P  P8  1  0.500000  0.500000  0.348708  1
  P  P9  1  0.000000  0.000000  0.651292  1
  P  P10  1  0.500000  0.315354  0.619963  1
  P  P11  1  0.500000  0.684646  0.619963  1
  P  P12  1  0.000000  0.184646  0.380037  1
  P  P13  1  0.000000  0.815354  0.380037  1
  P  P14  1  0.500000  0.847990  0.891209  1
  P  P15  1  0.500000  0.152010  0.891209  1
  P  P16  1  0.000000  0.652010  0.108791  1
  P  P17  1  0.000000  0.347990  0.108791  1
  Ru  Ru18  1  0.500000  0.500000  0.160272  1
  Ru  Ru19  1  0.000000  0.000000  0.839728  1
  Ru  Ru20  1  0.000000  0.500000  0.988388  1
  Ru  Ru21  1  0.500000  0.000000  0.011612  1
  Rh  Rh22  1  0.500000  0.500000  0.699259  1
  Rh  Rh23  1  0.000000  0.000000  0.300741  1
  Rh  Rh24  1  0.500000  0.330996  0.986441  1
  Rh  Rh25  1  0.500000  0.669004  0.986441  1
  Rh  Rh26  1  0.000000  0.169004  0.013559  1
  Rh  Rh27  1  0.000000  0.830996  0.013559  1
  Rh  Rh28  1  0.500000  0.296679  0.431448  1
  Rh  Rh29  1  0.500000  0.703321  0.431448  1
  Rh  Rh30  1  0.000000  0.203321  0.568552  1
  Rh  Rh31  1  0.000000  0.796679  0.568552  1
  Rh  Rh32  1  0.500000  0.873728  0.710948  1
  Rh  Rh33  1  0.500000  0.126272  0.710948  1
  Rh  Rh34  1  0.000000  0.626272  0.289052  1
  Rh  Rh35  1  0.000000  0.373728  0.289052  1
