# generated using pymatgen
data_Sr8Yb5Tm7Pt16
_symmetry_space_group_name_H-M   'P 1'
_cell_length_a   7.69488272
_cell_length_b   7.80182964
_cell_length_c   14.77092862
_cell_angle_alpha   90.01866502
_cell_angle_beta   89.97305051
_cell_angle_gamma   90.04219391
_symmetry_Int_Tables_number   1
_chemical_formula_structural   Sr8Yb5Tm7Pt16
_chemical_formula_sum   'Sr8 Yb5 Tm7 Pt16'
_cell_volume   886.75996676
_cell_formula_units_Z   1
loop_
 _symmetry_equiv_pos_site_id
 _symmetry_equiv_pos_as_xyz
  1  'x, y, z'
loop_
 _atom_site_type_symbol
 _atom_site_label
 _atom_site_symmetry_multiplicity
 _atom_site_fract_x
 _atom_site_fract_y
 _atom_site_fract_z
 _atom_site_occupancy
  Sr  Sr0  1  0.500122  0.325700  0.904001  1
  Sr  Sr1  1  0.998615  0.175396  0.596296  1
  Sr  Sr2  1  0.500932  0.675698  0.404021  1
  Sr  Sr3  1  0.000674  0.823594  0.094777  1
  Sr  Sr4  1  0.500742  0.675478  0.095574  1
  Sr  Sr5  1  0.000935  0.824319  0.404050  1
  Sr  Sr6  1  0.499532  0.324470  0.596593  1
  Sr  Sr7  1  0.999079  0.176683  0.903850  1
  Yb  Yb8  1  0.839494  0.666300  0.877272  1
  Yb  Yb9  1  0.176279  0.493963  0.750791  1
  Yb  Yb10  1  0.679348  0.005750  0.750473  1
  Yb  Yb11  1  0.821832  0.507151  0.249743  1
  Yb  Yb12  1  0.321370  0.992572  0.249687  1
  Tm  Tm13  1  0.340231  0.833694  0.875549  1
  Tm  Tm14  1  0.840291  0.666420  0.624050  1
  Tm  Tm15  1  0.659046  0.166954  0.375712  1
  Tm  Tm16  1  0.160033  0.332483  0.124349  1
  Tm  Tm17  1  0.660117  0.166631  0.124357  1
  Tm  Tm18  1  0.159589  0.332787  0.375729  1
  Tm  Tm19  1  0.340102  0.832356  0.624243  1
  Pt  Pt20  1  0.333820  0.048066  0.044201  1
  Pt  Pt21  1  0.836869  0.451404  0.456178  1
  Pt  Pt22  1  0.662856  0.950965  0.543229  1
  Pt  Pt23  1  0.170107  0.545867  0.958677  1
  Pt  Pt24  1  0.658573  0.961806  0.957768  1
  Pt  Pt25  1  0.162583  0.547853  0.543072  1
  Pt  Pt26  1  0.337150  0.048560  0.456328  1
  Pt  Pt27  1  0.839681  0.448515  0.046663  1
  Pt  Pt28  1  0.541727  0.638826  0.748190  1
  Pt  Pt29  1  0.048159  0.862161  0.745853  1
  Pt  Pt30  1  0.455502  0.360128  0.250057  1
  Pt  Pt31  1  0.955615  0.138787  0.250740  1
  Pt  Pt32  1  0.306187  0.115516  0.750928  1
  Pt  Pt33  1  0.800371  0.383423  0.746942  1
  Pt  Pt34  1  0.696067  0.886344  0.250025  1
  Pt  Pt35  1  0.196373  0.613377  0.250033  1
