# generated using pymatgen
data_Dy4Tm4ReTc3C8
_symmetry_space_group_name_H-M   'P 1'
_cell_length_a   5.05536600
_cell_length_b   6.55680860
_cell_length_c   9.79711907
_cell_angle_alpha   90.03128927
_cell_angle_beta   90.00000000
_cell_angle_gamma   90.00000000
_symmetry_Int_Tables_number   1
_chemical_formula_structural   Dy4Tm4ReTc3C8
_chemical_formula_sum   'Dy4 Tm4 Re1 Tc3 C8'
_cell_volume   324.74571631
_cell_formula_units_Z   1
loop_
 _symmetry_equiv_pos_site_id
 _symmetry_equiv_pos_as_xyz
  1  'x, y, z'
loop_
 _atom_site_type_symbol
 _atom_site_label
 _atom_site_symmetry_multiplicity
 _atom_site_fract_x
 _atom_site_fract_y
 _atom_site_fract_z
 _atom_site_occupancy
  Dy  Dy0  1  0.250000  0.465336  0.214513  1
  Dy  Dy1  1  0.250000  0.964653  0.284625  1
  Dy  Dy2  1  0.750000  0.534116  0.785290  1
  Dy  Dy3  1  0.750000  0.033905  0.714525  1
  Tm  Tm4  1  0.250000  0.826754  0.941086  1
  Tm  Tm5  1  0.250000  0.326035  0.558316  1
  Tm  Tm6  1  0.750000  0.172999  0.058103  1
  Tm  Tm7  1  0.750000  0.674612  0.441237  1
  Re  Re8  1  0.750000  0.218128  0.367274  1
  Tc  Tc9  1  0.250000  0.282354  0.866819  1
  Tc  Tc10  1  0.250000  0.782036  0.632791  1
  Tc  Tc11  1  0.750000  0.718479  0.132975  1
  C  C12  1  0.250000  0.050958  0.740420  1
  C  C13  1  0.250000  0.550619  0.759160  1
  C  C14  1  0.750000  0.950824  0.260575  1
  C  C15  1  0.750000  0.449145  0.241157  1
  C  C16  1  0.250000  0.673301  0.450458  1
  C  C17  1  0.250000  0.173850  0.049380  1
  C  C18  1  0.750000  0.325826  0.550647  1
  C  C19  1  0.750000  0.826068  0.950653  1
