# generated using pymatgen
data_Tb2Al8ZnRu5
_symmetry_space_group_name_H-M   'P 1'
_cell_length_a   8.03168133
_cell_length_b   8.03168038
_cell_length_c   8.03168086
_cell_angle_alpha   134.81022211
_cell_angle_beta   134.81021734
_cell_angle_gamma   65.82521807
_symmetry_Int_Tables_number   1
_chemical_formula_structural   Tb2Al8ZnRu5
_chemical_formula_sum   'Tb2 Al8 Zn1 Ru5'
_cell_volume   256.82911745
_cell_formula_units_Z   1
loop_
 _symmetry_equiv_pos_site_id
 _symmetry_equiv_pos_as_xyz
  1  'x, y, z'
loop_
 _atom_site_type_symbol
 _atom_site_label
 _atom_site_symmetry_multiplicity
 _atom_site_fract_x
 _atom_site_fract_y
 _atom_site_fract_z
 _atom_site_occupancy
  Tb  Tb0  1  0.000000  0.500000  0.500000  1
  Tb  Tb1  1  0.500000  0.000000  0.500000  1
  Al  Al2  1  0.439005  0.863531  0.000000  1
  Al  Al3  1  0.136469  0.136469  0.575474  1
  Al  Al4  1  0.863531  0.439005  0.000000  1
  Al  Al5  1  0.863531  0.863531  0.424526  1
  Al  Al6  1  0.560995  0.136469  0.000000  1
  Al  Al7  1  0.136469  0.560995  0.000000  1
  Al  Al8  1  0.560995  0.560995  0.424526  1
  Al  Al9  1  0.439005  0.439005  0.575474  1
  Zn  Zn10  1  0.000000  0.000000  0.000000  1
  Ru  Ru11  1  0.191315  0.191315  0.000000  1
  Ru  Ru12  1  0.808685  0.808685  0.000000  1
  Ru  Ru13  1  0.250000  0.750000  0.500000  1
  Ru  Ru14  1  0.750000  0.250000  0.500000  1
  Ru  Ru15  1  0.500000  0.500000  0.000000  1
