# generated using pymatgen
data_Sr4Tm2NbRuO12
_symmetry_space_group_name_H-M   'P 1'
_cell_length_a   5.81651847
_cell_length_b   5.86301302
_cell_length_c   8.24771059
_cell_angle_alpha   90.19990287
_cell_angle_beta   90.23279373
_cell_angle_gamma   90.02283861
_symmetry_Int_Tables_number   1
_chemical_formula_structural   Sr4Tm2NbRuO12
_chemical_formula_sum   'Sr4 Tm2 Nb1 Ru1 O12'
_cell_volume   281.26203746
_cell_formula_units_Z   1
loop_
 _symmetry_equiv_pos_site_id
 _symmetry_equiv_pos_as_xyz
  1  'x, y, z'
loop_
 _atom_site_type_symbol
 _atom_site_label
 _atom_site_symmetry_multiplicity
 _atom_site_fract_x
 _atom_site_fract_y
 _atom_site_fract_z
 _atom_site_occupancy
  Sr  Sr0  1  0.007831  0.031591  0.252320  1
  Sr  Sr1  1  0.494205  0.534081  0.253622  1
  Sr  Sr2  1  0.505796  0.465920  0.746378  1
  Sr  Sr3  1  0.992169  0.968409  0.747680  1
  Tm  Tm4  1  0.500000  0.000000  0.000000  1
  Tm  Tm5  1  0.999999  0.499999  0.500000  1
  Nb  Nb6  1  0.000000  0.499999  0.000000  1
  Ru  Ru7  1  0.500001  0.000000  0.500000  1
  O  O8  1  0.275261  0.297816  0.038653  1
  O  O9  1  0.199881  0.777162  0.039927  1
  O  O10  1  0.926020  0.482403  0.238989  1
  O  O11  1  0.571809  0.983046  0.264556  1
  O  O12  1  0.299422  0.271682  0.462024  1
  O  O13  1  0.229745  0.796993  0.462645  1
  O  O14  1  0.770254  0.203007  0.537355  1
  O  O15  1  0.700578  0.728319  0.537976  1
  O  O16  1  0.428191  0.016953  0.735444  1
  O  O17  1  0.073982  0.517598  0.761011  1
  O  O18  1  0.800118  0.222838  0.960074  1
  O  O19  1  0.724740  0.702184  0.961347  1
