# generated using pymatgen
data_La4Nd6CoRu3
_symmetry_space_group_name_H-M   'P 1'
_cell_length_a   9.09491737
_cell_length_b   9.07601092
_cell_length_c   7.27640509
_cell_angle_alpha   85.03847977
_cell_angle_beta   84.98901895
_cell_angle_gamma   42.81990426
_symmetry_Int_Tables_number   1
_chemical_formula_structural   La4Nd6CoRu3
_chemical_formula_sum   'La4 Nd6 Co1 Ru3'
_cell_volume   406.46598724
_cell_formula_units_Z   1
loop_
 _symmetry_equiv_pos_site_id
 _symmetry_equiv_pos_as_xyz
  1  'x, y, z'
loop_
 _atom_site_type_symbol
 _atom_site_label
 _atom_site_symmetry_multiplicity
 _atom_site_fract_x
 _atom_site_fract_y
 _atom_site_fract_z
 _atom_site_occupancy
  La  La0  1  0.018409  0.792451  0.897535  1
  La  La1  1  0.202958  0.987068  0.592285  1
  La  La2  1  0.984933  0.203200  0.091999  1
  La  La3  1  0.802495  0.009857  0.405120  1
  Nd  Nd4  1  0.355417  0.216134  0.821925  1
  Nd  Nd5  1  0.781433  0.645484  0.681468  1
  Nd  Nd6  1  0.642304  0.789224  0.181365  1
  Nd  Nd7  1  0.212131  0.360679  0.327599  1
  Nd  Nd8  1  0.569056  0.428792  0.747175  1
  Nd  Nd9  1  0.428203  0.570838  0.250464  1
  Co  Co10  1  0.169582  0.606886  0.588593  1
  Ru  Ru11  1  0.384937  0.836475  0.915003  1
  Ru  Ru12  1  0.833394  0.389442  0.416436  1
  Ru  Ru13  1  0.614749  0.163469  0.083034  1
