# generated using pymatgen
data_Hf5Fe19P12
_symmetry_space_group_name_H-M   'P 1'
_cell_length_a   11.73917400
_cell_length_b   11.73917458
_cell_length_c   3.59827300
_cell_angle_alpha   90.00000000
_cell_angle_beta   90.00000000
_cell_angle_gamma   120.00000399
_symmetry_Int_Tables_number   1
_chemical_formula_structural   Hf5Fe19P12
_chemical_formula_sum   'Hf5 Fe19 P12'
_cell_volume   429.43736128
_cell_formula_units_Z   1
loop_
 _symmetry_equiv_pos_site_id
 _symmetry_equiv_pos_as_xyz
  1  'x, y, z'
loop_
 _atom_site_type_symbol
 _atom_site_label
 _atom_site_symmetry_multiplicity
 _atom_site_fract_x
 _atom_site_fract_y
 _atom_site_fract_z
 _atom_site_occupancy
  Hf  Hf0  1  0.333333  0.666667  0.500000  1
  Hf  Hf1  1  0.666667  0.333333  0.500000  1
  Hf  Hf2  1  0.813834  0.000000  0.000000  1
  Hf  Hf3  1  0.000000  0.813834  0.000000  1
  Hf  Hf4  1  0.186166  0.186166  0.000000  1
  Fe  Fe5  1  0.622810  0.803473  0.500000  1
  Fe  Fe6  1  0.196527  0.819337  0.500000  1
  Fe  Fe7  1  0.180663  0.377190  0.500000  1
  Fe  Fe8  1  0.377190  0.180663  0.500000  1
  Fe  Fe9  1  0.803473  0.622810  0.500000  1
  Fe  Fe10  1  0.819337  0.196527  0.500000  1
  Fe  Fe11  1  0.282908  0.000000  0.000000  1
  Fe  Fe12  1  0.000000  0.282908  0.000000  1
  Fe  Fe13  1  0.717092  0.717092  0.000000  1
  Fe  Fe14  1  0.443378  0.000000  0.500000  1
  Fe  Fe15  1  0.000000  0.443378  0.500000  1
  Fe  Fe16  1  0.556622  0.556622  0.500000  1
  Fe  Fe17  1  0.515296  0.875406  0.000000  1
  Fe  Fe18  1  0.124594  0.639891  0.000000  1
  Fe  Fe19  1  0.360109  0.484704  0.000000  1
  Fe  Fe20  1  0.484704  0.360109  0.000000  1
  Fe  Fe21  1  0.875406  0.515296  0.000000  1
  Fe  Fe22  1  0.639891  0.124594  0.000000  1
  Fe  Fe23  1  0.000000  0.000000  0.500000  1
  P  P24  1  0.180323  0.000000  0.500000  1
  P  P25  1  0.000000  0.180323  0.500000  1
  P  P26  1  0.819677  0.819677  0.500000  1
  P  P27  1  0.518441  0.686115  0.000000  1
  P  P28  1  0.313885  0.832326  0.000000  1
  P  P29  1  0.167674  0.481559  0.000000  1
  P  P30  1  0.481559  0.167674  0.000000  1
  P  P31  1  0.686115  0.518441  0.000000  1
  P  P32  1  0.832326  0.313885  0.000000  1
  P  P33  1  0.632731  0.000000  0.500000  1
  P  P34  1  0.000000  0.632731  0.500000  1
  P  P35  1  0.367269  0.367269  0.500000  1
