# generated using pymatgen
data_Ca20(Ga3Bi)3
_symmetry_space_group_name_H-M   'P 1'
_cell_length_a   8.13544500
_cell_length_b   8.13544500
_cell_length_c   14.58442800
_cell_angle_alpha   90.00000000
_cell_angle_beta   90.00000000
_cell_angle_gamma   90.00000000
_symmetry_Int_Tables_number   1
_chemical_formula_structural   Ca20(Ga3Bi)3
_chemical_formula_sum   'Ca20 Ga9 Bi3'
_cell_volume   965.27715401
_cell_formula_units_Z   1
loop_
 _symmetry_equiv_pos_site_id
 _symmetry_equiv_pos_as_xyz
  1  'x, y, z'
loop_
 _atom_site_type_symbol
 _atom_site_label
 _atom_site_symmetry_multiplicity
 _atom_site_fract_x
 _atom_site_fract_y
 _atom_site_fract_z
 _atom_site_occupancy
  Ca  Ca0  1  0.678100  0.167947  0.108470  1
  Ca  Ca1  1  0.172175  0.671900  0.611839  1
  Ca  Ca2  1  0.321900  0.832053  0.108470  1
  Ca  Ca3  1  0.827825  0.328100  0.611839  1
  Ca  Ca4  1  0.832053  0.678100  0.108470  1
  Ca  Ca5  1  0.328100  0.172175  0.611839  1
  Ca  Ca6  1  0.167947  0.321900  0.108470  1
  Ca  Ca7  1  0.671900  0.827825  0.611839  1
  Ca  Ca8  1  0.832053  0.321900  0.891530  1
  Ca  Ca9  1  0.328100  0.827825  0.388161  1
  Ca  Ca10  1  0.167947  0.678100  0.891530  1
  Ca  Ca11  1  0.671900  0.172175  0.388161  1
  Ca  Ca12  1  0.678100  0.832053  0.891530  1
  Ca  Ca13  1  0.172175  0.328100  0.388161  1
  Ca  Ca14  1  0.321900  0.167947  0.891530  1
  Ca  Ca15  1  0.827825  0.671900  0.388161  1
  Ca  Ca16  1  0.500000  0.500000  0.754973  1
  Ca  Ca17  1  0.000000  0.000000  0.246960  1
  Ca  Ca18  1  0.000000  0.000000  0.753040  1
  Ca  Ca19  1  0.500000  0.500000  0.245027  1
  Ga  Ga20  1  0.613537  0.114828  0.750879  1
  Ga  Ga21  1  0.114828  0.613537  0.249121  1
  Ga  Ga22  1  0.885172  0.386463  0.249121  1
  Ga  Ga23  1  0.386463  0.885172  0.750879  1
  Ga  Ga24  1  0.885172  0.613537  0.750879  1
  Ga  Ga25  1  0.386463  0.114828  0.249121  1
  Ga  Ga26  1  0.114828  0.386463  0.750879  1
  Ga  Ga27  1  0.613537  0.885172  0.249121  1
  Ga  Ga28  1  0.000000  0.000000  0.000000  1
  Bi  Bi29  1  0.500000  0.500000  0.500000  1
  Bi  Bi30  1  0.500000  0.500000  0.000000  1
  Bi  Bi31  1  0.000000  0.000000  0.500000  1
