# generated using pymatgen
data_U8Ta8Nb4Si15Ge
_symmetry_space_group_name_H-M   'P 1'
_cell_length_a   6.85777121
_cell_length_b   7.07667469
_cell_length_c   13.29427803
_cell_angle_alpha   90.00189716
_cell_angle_beta   90.00748843
_cell_angle_gamma   90.02583832
_symmetry_Int_Tables_number   1
_chemical_formula_structural   U8Ta8Nb4Si15Ge
_chemical_formula_sum   'U8 Ta8 Nb4 Si15 Ge1'
_cell_volume   645.17411285
_cell_formula_units_Z   1
loop_
 _symmetry_equiv_pos_site_id
 _symmetry_equiv_pos_as_xyz
  1  'x, y, z'
loop_
 _atom_site_type_symbol
 _atom_site_label
 _atom_site_symmetry_multiplicity
 _atom_site_fract_x
 _atom_site_fract_y
 _atom_site_fract_z
 _atom_site_occupancy
  U  U0  1  0.498673  0.668876  0.592790  1
  U  U1  1  0.998238  0.831146  0.907434  1
  U  U2  1  0.499040  0.331557  0.091612  1
  U  U3  1  0.004271  0.165830  0.409874  1
  U  U4  1  0.498649  0.331760  0.408441  1
  U  U5  1  0.003782  0.165608  0.090111  1
  U  U6  1  0.499090  0.668651  0.907201  1
  U  U7  1  0.998673  0.831230  0.592583  1
  Ta  Ta8  1  0.337202  0.827600  0.376135  1
  Ta  Ta9  1  0.837165  0.675769  0.123479  1
  Ta  Ta10  1  0.662604  0.173392  0.875705  1
  Ta  Ta11  1  0.162814  0.326957  0.624236  1
  Ta  Ta12  1  0.832373  0.499825  0.749948  1
  Ta  Ta13  1  0.332555  0.000111  0.750010  1
  Ta  Ta14  1  0.170645  0.502046  0.249960  1
  Ta  Ta15  1  0.666132  0.996635  0.250032  1
  Nb  Nb16  1  0.662690  0.173288  0.624231  1
  Nb  Nb17  1  0.162884  0.326989  0.875843  1
  Nb  Nb18  1  0.337062  0.827731  0.123792  1
  Nb  Nb19  1  0.837084  0.675483  0.376588  1
  Si  Si20  1  0.663315  0.961768  0.458943  1
  Si  Si21  1  0.162990  0.539564  0.041339  1
  Si  Si22  1  0.336560  0.038468  0.957844  1
  Si  Si23  1  0.835642  0.460788  0.541272  1
  Si  Si24  1  0.335836  0.038415  0.541939  1
  Si  Si25  1  0.834933  0.460688  0.959000  1
  Si  Si26  1  0.664092  0.961811  0.040859  1
  Si  Si27  1  0.163731  0.539639  0.458929  1
  Si  Si28  1  0.457510  0.377983  0.749825  1
  Si  Si29  1  0.957505  0.122449  0.750136  1
  Si  Si30  1  0.541252  0.624524  0.249815  1
  Si  Si31  1  0.042245  0.878014  0.250143  1
  Si  Si32  1  0.699820  0.870495  0.750055  1
  Si  Si33  1  0.200231  0.629569  0.749866  1
  Si  Si34  1  0.299732  0.130367  0.250086  1
  Ge  Ge35  1  0.802979  0.364975  0.249943  1
