# generated using pymatgen
data_Y3Ho(Er2C5)2
_symmetry_space_group_name_H-M   'P 1'
_cell_length_a   3.65478100
_cell_length_b   6.55053461
_cell_length_c   11.86566726
_cell_angle_alpha   89.97520146
_cell_angle_beta   90.00000000
_cell_angle_gamma   90.00000000
_symmetry_Int_Tables_number   1
_chemical_formula_structural   Y3Ho(Er2C5)2
_chemical_formula_sum   'Y3 Ho1 Er4 C10'
_cell_volume   284.07317753
_cell_formula_units_Z   1
loop_
 _symmetry_equiv_pos_site_id
 _symmetry_equiv_pos_as_xyz
  1  'x, y, z'
loop_
 _atom_site_type_symbol
 _atom_site_label
 _atom_site_symmetry_multiplicity
 _atom_site_fract_x
 _atom_site_fract_y
 _atom_site_fract_z
 _atom_site_occupancy
  Y  Y0  1  0.000000  0.250992  0.043918  1
  Y  Y1  1  0.500000  0.609054  0.697060  1
  Y  Y2  1  0.500000  0.393253  0.302683  1
  Ho  Ho3  1  0.500000  0.106353  0.803353  1
  Er  Er4  1  0.000000  0.250591  0.544108  1
  Er  Er5  1  0.000000  0.736086  0.458299  1
  Er  Er6  1  0.000000  0.763626  0.957519  1
  Er  Er7  1  0.500000  0.891321  0.195136  1
  C  C8  1  0.500000  0.488270  0.499297  1
  C  C9  1  0.500000  0.007656  0.999094  1
  C  C10  1  0.000000  0.355179  0.737404  1
  C  C11  1  0.000000  0.638338  0.264949  1
  C  C12  1  0.000000  0.866266  0.764598  1
  C  C13  1  0.000000  0.140048  0.239089  1
  C  C14  1  0.000000  0.423436  0.843197  1
  C  C15  1  0.000000  0.617142  0.152885  1
  C  C16  1  0.000000  0.071440  0.344813  1
  C  C17  1  0.000000  0.890947  0.652598  1
