# generated using pymatgen
data_Hf12Tc5NiOs6
_symmetry_space_group_name_H-M   'P 1'
_cell_length_a   4.59190200
_cell_length_b   6.50976600
_cell_length_c   13.80008500
_cell_angle_alpha   90.00000000
_cell_angle_beta   90.00002078
_cell_angle_gamma   90.00000000
_symmetry_Int_Tables_number   1
_chemical_formula_structural   Hf12Tc5NiOs6
_chemical_formula_sum   'Hf12 Tc5 Ni1 Os6'
_cell_volume   412.51500454
_cell_formula_units_Z   1
loop_
 _symmetry_equiv_pos_site_id
 _symmetry_equiv_pos_as_xyz
  1  'x, y, z'
loop_
 _atom_site_type_symbol
 _atom_site_label
 _atom_site_symmetry_multiplicity
 _atom_site_fract_x
 _atom_site_fract_y
 _atom_site_fract_z
 _atom_site_occupancy
  Hf  Hf0  1  0.500000  0.252748  0.000000  1
  Hf  Hf1  1  0.500000  0.747253  0.000000  1
  Hf  Hf2  1  0.000002  0.251725  0.167364  1
  Hf  Hf3  1  0.000002  0.748276  0.167364  1
  Hf  Hf4  1  0.500002  0.250424  0.333501  1
  Hf  Hf5  1  0.500002  0.749576  0.333501  1
  Hf  Hf6  1  0.000000  0.250262  0.500000  1
  Hf  Hf7  1  0.000000  0.749738  0.500000  1
  Hf  Hf8  1  0.499998  0.250424  0.666499  1
  Hf  Hf9  1  0.499998  0.749576  0.666499  1
  Hf  Hf10  1  0.999998  0.251725  0.832636  1
  Hf  Hf11  1  0.999998  0.748276  0.832636  1
  Tc  Tc12  1  0.499999  0.500000  0.165569  1
  Tc  Tc13  1  0.000004  0.000000  0.332070  1
  Tc  Tc14  1  0.500000  0.500000  0.500000  1
  Tc  Tc15  1  0.999996  0.000000  0.667930  1
  Tc  Tc16  1  0.500001  0.500000  0.834431  1
  Ni  Ni17  1  0.000000  0.000000  0.000000  1
  Os  Os18  1  0.000000  0.500000  0.000000  1
  Os  Os19  1  0.500004  0.000000  0.163992  1
  Os  Os20  1  0.000000  0.500000  0.332548  1
  Os  Os21  1  0.500000  0.000000  0.500000  1
  Os  Os22  1  0.000000  0.500000  0.667452  1
  Os  Os23  1  0.499996  0.000000  0.836008  1
