# generated using pymatgen
data_Sm3MnAlCo9B4
_symmetry_space_group_name_H-M   'P 1'
_cell_length_a   5.16370900
_cell_length_b   5.16370947
_cell_length_c   9.62910400
_cell_angle_alpha   90.00000000
_cell_angle_beta   90.00000000
_cell_angle_gamma   119.99999060
_symmetry_Int_Tables_number   1
_chemical_formula_structural   Sm3MnAlCo9B4
_chemical_formula_sum   'Sm3 Mn1 Al1 Co9 B4'
_cell_volume   222.35152319
_cell_formula_units_Z   1
loop_
 _symmetry_equiv_pos_site_id
 _symmetry_equiv_pos_as_xyz
  1  'x, y, z'
loop_
 _atom_site_type_symbol
 _atom_site_label
 _atom_site_symmetry_multiplicity
 _atom_site_fract_x
 _atom_site_fract_y
 _atom_site_fract_z
 _atom_site_occupancy
  Sm  Sm0  1  0.000000  0.000000  0.000000  1
  Sm  Sm1  1  0.000000  0.000000  0.659233  1
  Sm  Sm2  1  0.000000  0.000000  0.340767  1
  Mn  Mn3  1  0.666667  0.333333  0.000000  1
  Al  Al4  1  0.333333  0.666667  0.000000  1
  Co  Co5  1  0.500087  0.499913  0.500000  1
  Co  Co6  1  0.500087  0.000173  0.500000  1
  Co  Co7  1  0.999827  0.499913  0.500000  1
  Co  Co8  1  0.500672  0.499328  0.792221  1
  Co  Co9  1  0.500672  0.001344  0.792221  1
  Co  Co10  1  0.998656  0.499328  0.792221  1
  Co  Co11  1  0.500672  0.499328  0.207779  1
  Co  Co12  1  0.500672  0.001344  0.207779  1
  Co  Co13  1  0.998656  0.499328  0.207779  1
  B  B14  1  0.666667  0.333333  0.649872  1
  B  B15  1  0.333333  0.666667  0.650195  1
  B  B16  1  0.333333  0.666667  0.349805  1
  B  B17  1  0.666667  0.333333  0.350128  1
