# generated using pymatgen
data_CaPr4Si12Ir19
_symmetry_space_group_name_H-M   'P 1'
_cell_length_a   12.91995700
_cell_length_b   12.92077704
_cell_length_c   4.03603500
_cell_angle_alpha   90.00000000
_cell_angle_beta   90.00000000
_cell_angle_gamma   119.99790824
_symmetry_Int_Tables_number   1
_chemical_formula_structural   CaPr4Si12Ir19
_chemical_formula_sum   'Ca1 Pr4 Si12 Ir19'
_cell_volume   583.50476865
_cell_formula_units_Z   1
loop_
 _symmetry_equiv_pos_site_id
 _symmetry_equiv_pos_as_xyz
  1  'x, y, z'
loop_
 _atom_site_type_symbol
 _atom_site_label
 _atom_site_symmetry_multiplicity
 _atom_site_fract_x
 _atom_site_fract_y
 _atom_site_fract_z
 _atom_site_occupancy
  Ca  Ca0  1  0.185180  0.000000  0.500000  1
  Pr  Pr1  1  0.000627  0.184464  0.500000  1
  Pr  Pr2  1  0.816163  0.815536  0.500000  1
  Pr  Pr3  1  0.666741  0.334090  0.000000  1
  Pr  Pr4  1  0.332650  0.665910  0.000000  1
  Si  Si5  1  0.478391  0.310671  0.500000  1
  Si  Si6  1  0.815529  0.000000  0.000000  1
  Si  Si7  1  0.185205  0.182164  0.000000  1
  Si  Si8  1  0.003040  0.817836  0.000000  1
  Si  Si9  1  0.368300  0.000000  0.000000  1
  Si  Si10  1  0.687917  0.167607  0.500000  1
  Si  Si11  1  0.833534  0.521865  0.500000  1
  Si  Si12  1  0.520311  0.832393  0.500000  1
  Si  Si13  1  0.167721  0.689329  0.500000  1
  Si  Si14  1  0.311670  0.478135  0.500000  1
  Si  Si15  1  0.000110  0.369934  0.000000  1
  Si  Si16  1  0.630176  0.630066  0.000000  1
  Ir  Ir17  1  0.804212  0.182155  0.000000  1
  Ir  Ir18  1  0.378303  0.194665  0.000000  1
  Ir  Ir19  1  0.637849  0.512613  0.500000  1
  Ir  Ir20  1  0.874496  0.361743  0.500000  1
  Ir  Ir21  1  0.361934  0.875273  0.500000  1
  Ir  Ir22  1  0.512753  0.638257  0.500000  1
  Ir  Ir23  1  0.125235  0.487387  0.500000  1
  Ir  Ir24  1  0.818164  0.622880  0.000000  1
  Ir  Ir25  1  0.622058  0.817845  0.000000  1
  Ir  Ir26  1  0.183638  0.805335  0.000000  1
  Ir  Ir27  1  0.195285  0.377120  0.000000  1
  Ir  Ir28  1  0.000352  0.716382  0.500000  1
  Ir  Ir29  1  0.283971  0.283618  0.500000  1
  Ir  Ir30  1  0.714691  0.000000  0.500000  1
  Ir  Ir31  1  0.998560  0.551673  0.000000  1
  Ir  Ir32  1  0.446887  0.448327  0.000000  1
  Ir  Ir33  1  0.552162  0.000000  0.000000  1
  Ir  Ir34  1  0.999523  0.000000  0.000000  1
  Ir  Ir35  1  0.486662  0.124727  0.500000  1
