# generated using pymatgen
data_Sc10In8CoPt3
_symmetry_space_group_name_H-M   'P 1'
_cell_length_a   3.38868600
_cell_length_b   7.73583009
_cell_length_c   17.54153954
_cell_angle_alpha   90.06133547
_cell_angle_beta   90.00000000
_cell_angle_gamma   90.00000000
_symmetry_Int_Tables_number   1
_chemical_formula_structural   Sc10In8CoPt3
_chemical_formula_sum   'Sc10 In8 Co1 Pt3'
_cell_volume   459.83890149
_cell_formula_units_Z   1
loop_
 _symmetry_equiv_pos_site_id
 _symmetry_equiv_pos_as_xyz
  1  'x, y, z'
loop_
 _atom_site_type_symbol
 _atom_site_label
 _atom_site_symmetry_multiplicity
 _atom_site_fract_x
 _atom_site_fract_y
 _atom_site_fract_z
 _atom_site_occupancy
  Sc  Sc0  1  0.500000  0.499570  0.497914  1
  Sc  Sc1  1  0.500000  0.998649  0.001939  1
  Sc  Sc2  1  0.500000  0.874250  0.414901  1
  Sc  Sc3  1  0.500000  0.124013  0.582043  1
  Sc  Sc4  1  0.500000  0.624198  0.918427  1
  Sc  Sc5  1  0.500000  0.380485  0.090474  1
  Sc  Sc6  1  0.500000  0.260219  0.274838  1
  Sc  Sc7  1  0.500000  0.752462  0.720984  1
  Sc  Sc8  1  0.500000  0.253334  0.778670  1
  Sc  Sc9  1  0.500000  0.731648  0.220222  1
  In  In10  1  0.000000  0.203474  0.432378  1
  In  In11  1  0.000000  0.795404  0.564185  1
  In  In12  1  0.000000  0.296989  0.937346  1
  In  In13  1  0.000000  0.701053  0.069860  1
  In  In14  1  0.000000  0.567196  0.348906  1
  In  In15  1  0.000000  0.429554  0.646337  1
  In  In16  1  0.000000  0.929703  0.853636  1
  In  In17  1  0.000000  0.074848  0.148680  1
  Co  Co18  1  0.000000  0.464607  0.194208  1
  Pt  Pt19  1  0.000000  0.963115  0.303942  1
  Pt  Pt20  1  0.000000  0.037536  0.694246  1
  Pt  Pt21  1  0.000000  0.537695  0.805864  1
