# generated using pymatgen
data_Dy7Pa(ReB6)4
_symmetry_space_group_name_H-M   'P 1'
_cell_length_a   3.69706200
_cell_length_b   9.18325399
_cell_length_c   11.55293489
_cell_angle_alpha   90.17749137
_cell_angle_beta   90.00000000
_cell_angle_gamma   90.00000000
_symmetry_Int_Tables_number   1
_chemical_formula_structural   Dy7Pa(ReB6)4
_chemical_formula_sum   'Dy7 Pa1 Re4 B24'
_cell_volume   392.23249627
_cell_formula_units_Z   1
loop_
 _symmetry_equiv_pos_site_id
 _symmetry_equiv_pos_as_xyz
  1  'x, y, z'
loop_
 _atom_site_type_symbol
 _atom_site_label
 _atom_site_symmetry_multiplicity
 _atom_site_fract_x
 _atom_site_fract_y
 _atom_site_fract_z
 _atom_site_occupancy
  Dy  Dy0  1  0.000000  0.678876  0.586765  1
  Dy  Dy1  1  0.000000  0.823771  0.085520  1
  Dy  Dy2  1  0.000000  0.175433  0.913402  1
  Dy  Dy3  1  0.000000  0.942626  0.371622  1
  Dy  Dy4  1  0.000000  0.055416  0.629152  1
  Dy  Dy5  1  0.000000  0.443366  0.127736  1
  Dy  Dy6  1  0.000000  0.557132  0.870110  1
  Pa  Pa7  1  0.000000  0.323664  0.414021  1
  Re  Re8  1  0.000000  0.635556  0.322272  1
  Re  Re9  1  0.000000  0.362146  0.676007  1
  Re  Re10  1  0.000000  0.140896  0.181552  1
  Re  Re11  1  0.000000  0.861754  0.821176  1
  B  B12  1  0.500000  0.552553  0.432162  1
  B  B13  1  0.500000  0.445749  0.566916  1
  B  B14  1  0.500000  0.053914  0.067704  1
  B  B15  1  0.500000  0.947056  0.933536  1
  B  B16  1  0.500000  0.748098  0.418604  1
  B  B17  1  0.500000  0.251399  0.580826  1
  B  B18  1  0.500000  0.248273  0.080995  1
  B  B19  1  0.500000  0.751642  0.918911  1
  B  B20  1  0.500000  0.791157  0.266236  1
  B  B21  1  0.500000  0.208363  0.734204  1
  B  B22  1  0.500000  0.291707  0.234565  1
  B  B23  1  0.500000  0.708457  0.765849  1
  B  B24  1  0.500000  0.631322  0.185362  1
  B  B25  1  0.500000  0.369112  0.813608  1
  B  B26  1  0.500000  0.132422  0.314742  1
  B  B27  1  0.500000  0.868437  0.686267  1
  B  B28  1  0.500000  0.983271  0.212355  1
  B  B29  1  0.500000  0.017110  0.788209  1
  B  B30  1  0.500000  0.483051  0.287703  1
  B  B31  1  0.500000  0.517136  0.712473  1
  B  B32  1  0.500000  0.602472  0.028150  1
  B  B33  1  0.500000  0.397584  0.970639  1
  B  B34  1  0.500000  0.106353  0.470594  1
  B  B35  1  0.500000  0.892724  0.530055  1
