# generated using pymatgen
data_Sc10In2Bi3Pb
_symmetry_space_group_name_H-M   'P 1'
_cell_length_a   6.16621800
_cell_length_b   8.50915805
_cell_length_c   8.50921000
_cell_angle_alpha   119.85444009
_cell_angle_beta   89.99964691
_cell_angle_gamma   90.00003437
_symmetry_Int_Tables_number   1
_chemical_formula_structural   Sc10In2Bi3Pb
_chemical_formula_sum   'Sc10 In2 Bi3 Pb1'
_cell_volume   387.22240381
_cell_formula_units_Z   1
loop_
 _symmetry_equiv_pos_site_id
 _symmetry_equiv_pos_as_xyz
  1  'x, y, z'
loop_
 _atom_site_type_symbol
 _atom_site_label
 _atom_site_symmetry_multiplicity
 _atom_site_fract_x
 _atom_site_fract_y
 _atom_site_fract_z
 _atom_site_occupancy
  Sc  Sc0  1  0.496461  0.330349  0.660713  1
  Sc  Sc1  1  0.496459  0.673890  0.341286  1
  Sc  Sc2  1  0.003547  0.673895  0.341289  1
  Sc  Sc3  1  0.003526  0.330343  0.660727  1
  Sc  Sc4  1  0.749987  0.231778  0.996065  1
  Sc  Sc5  1  0.750029  0.768793  0.762945  1
  Sc  Sc6  1  0.749993  0.001958  0.236499  1
  Sc  Sc7  1  0.249988  0.767990  0.000549  1
  Sc  Sc8  1  0.250013  0.231252  0.241484  1
  Sc  Sc9  1  0.249976  0.990810  0.758960  1
  In  In10  1  0.249994  0.603783  0.606375  1
  In  In11  1  0.249998  0.998959  0.395108  1
  Bi  Bi12  1  0.750008  0.607494  0.999627  1
  Bi  Bi13  1  0.750011  0.395945  0.392373  1
  Bi  Bi14  1  0.249999  0.389193  0.001523  1
  Pb  Pb15  1  0.750005  0.003566  0.604477  1
