# generated using pymatgen
data_Ac7Pr(TlSi2)4
_symmetry_space_group_name_H-M   'P 1'
_cell_length_a   4.55554900
_cell_length_b   8.00225573
_cell_length_c   15.29713400
_cell_angle_alpha   90.21764163
_cell_angle_beta   90.00000000
_cell_angle_gamma   90.00000000
_symmetry_Int_Tables_number   1
_chemical_formula_structural   Ac7Pr(TlSi2)4
_chemical_formula_sum   'Ac7 Pr1 Tl4 Si8'
_cell_volume   557.64791965
_cell_formula_units_Z   1
loop_
 _symmetry_equiv_pos_site_id
 _symmetry_equiv_pos_as_xyz
  1  'x, y, z'
loop_
 _atom_site_type_symbol
 _atom_site_label
 _atom_site_symmetry_multiplicity
 _atom_site_fract_x
 _atom_site_fract_y
 _atom_site_fract_z
 _atom_site_occupancy
  Ac  Ac0  1  0.500000  0.747805  0.034049  1
  Ac  Ac1  1  0.500000  0.244261  0.961505  1
  Ac  Ac2  1  0.500000  0.254978  0.469011  1
  Ac  Ac3  1  0.500000  0.751829  0.535951  1
  Ac  Ac4  1  0.500000  0.618301  0.283595  1
  Ac  Ac5  1  0.500000  0.385326  0.719057  1
  Ac  Ac6  1  0.500000  0.118550  0.214783  1
  Pr  Pr7  1  0.500000  0.882963  0.783887  1
  Tl  Tl8  1  0.000000  0.942607  0.377006  1
  Tl  Tl9  1  0.000000  0.051739  0.628381  1
  Tl  Tl10  1  0.000000  0.440306  0.122381  1
  Tl  Tl11  1  0.000000  0.570324  0.875074  1
  Si  Si12  1  0.000000  0.550322  0.426654  1
  Si  Si13  1  0.000000  0.460156  0.578076  1
  Si  Si14  1  0.000000  0.043916  0.070268  1
  Si  Si15  1  0.000000  0.939295  0.920145  1
  Si  Si16  1  0.000000  0.831249  0.181545  1
  Si  Si17  1  0.000000  0.155112  0.812880  1
  Si  Si18  1  0.000000  0.329765  0.319337  1
  Si  Si19  1  0.000000  0.681195  0.686419  1
