# generated using pymatgen
data_Pr2Dy5Y(CdIr)2
_symmetry_space_group_name_H-M   'P 1'
_cell_length_a   9.73398003
_cell_length_b   9.73472349
_cell_length_c   9.73472403
_cell_angle_alpha   59.99493960
_cell_angle_beta   60.00253104
_cell_angle_gamma   60.00252315
_symmetry_Int_Tables_number   1
_chemical_formula_structural   Pr2Dy5Y(CdIr)2
_chemical_formula_sum   'Pr4 Dy10 Y2 Cd4 Ir4'
_cell_volume   652.26292237
_cell_formula_units_Z   2
loop_
 _symmetry_equiv_pos_site_id
 _symmetry_equiv_pos_as_xyz
  1  'x, y, z'
loop_
 _atom_site_type_symbol
 _atom_site_label
 _atom_site_symmetry_multiplicity
 _atom_site_fract_x
 _atom_site_fract_y
 _atom_site_fract_z
 _atom_site_occupancy
  Pr  Pr0  1  0.561116  0.938884  0.561116  1
  Pr  Pr1  1  0.938884  0.561116  0.938884  1
  Pr  Pr2  1  0.561116  0.561116  0.938884  1
  Pr  Pr3  1  0.938884  0.938884  0.561116  1
  Dy  Dy4  1  0.349621  0.347091  0.347091  1
  Dy  Dy5  1  0.347091  0.349621  0.956195  1
  Dy  Dy6  1  0.347091  0.956195  0.349621  1
  Dy  Dy7  1  0.956195  0.347091  0.347091  1
  Dy  Dy8  1  0.812899  0.187101  0.187101  1
  Dy  Dy9  1  0.187101  0.812899  0.812899  1
  Dy  Dy10  1  0.189287  0.810713  0.189287  1
  Dy  Dy11  1  0.810713  0.189287  0.810713  1
  Dy  Dy12  1  0.189287  0.189287  0.810713  1
  Dy  Dy13  1  0.810713  0.810713  0.189287  1
  Y  Y14  1  0.945581  0.554419  0.554419  1
  Y  Y15  1  0.554419  0.945581  0.945581  1
  Cd  Cd16  1  0.583490  0.578461  0.578461  1
  Cd  Cd17  1  0.578461  0.583490  0.259587  1
  Cd  Cd18  1  0.578461  0.259587  0.583490  1
  Cd  Cd19  1  0.259587  0.578461  0.578461  1
  Ir  Ir20  1  0.145439  0.139362  0.139362  1
  Ir  Ir21  1  0.139362  0.145439  0.575836  1
  Ir  Ir22  1  0.139362  0.575836  0.145439  1
  Ir  Ir23  1  0.575836  0.139362  0.139362  1
