# generated using pymatgen
data_Lu12Ir3Pd
_symmetry_space_group_name_H-M   'P 1'
_cell_length_a   6.32967137
_cell_length_b   7.09027932
_cell_length_c   8.97552400
_cell_angle_alpha   90.00000000
_cell_angle_beta   90.00000000
_cell_angle_gamma   90.13757133
_symmetry_Int_Tables_number   1
_chemical_formula_structural   Lu12Ir3Pd
_chemical_formula_sum   'Lu12 Ir3 Pd1'
_cell_volume   402.81261971
_cell_formula_units_Z   1
loop_
 _symmetry_equiv_pos_site_id
 _symmetry_equiv_pos_as_xyz
  1  'x, y, z'
loop_
 _atom_site_type_symbol
 _atom_site_label
 _atom_site_symmetry_multiplicity
 _atom_site_fract_x
 _atom_site_fract_y
 _atom_site_fract_z
 _atom_site_occupancy
  Lu  Lu0  1  0.330705  0.676077  0.057591  1
  Lu  Lu1  1  0.177020  0.185810  0.442653  1
  Lu  Lu2  1  0.676721  0.318540  0.561699  1
  Lu  Lu3  1  0.820555  0.819843  0.936052  1
  Lu  Lu4  1  0.676721  0.318540  0.938301  1
  Lu  Lu5  1  0.820555  0.819843  0.563948  1
  Lu  Lu6  1  0.330705  0.676077  0.442409  1
  Lu  Lu7  1  0.177020  0.185810  0.057347  1
  Lu  Lu8  1  0.873504  0.525244  0.250000  1
  Lu  Lu9  1  0.617141  0.033518  0.250000  1
  Lu  Lu10  1  0.119979  0.469304  0.750000  1
  Lu  Lu11  1  0.376188  0.967934  0.750000  1
  Ir  Ir12  1  0.460096  0.388537  0.250000  1
  Ir  Ir13  1  0.962964  0.111569  0.750000  1
  Ir  Ir14  1  0.533687  0.611069  0.750000  1
  Pd  Pd15  1  0.046439  0.892284  0.250000  1
