# generated using pymatgen
data_Pr2Dy3YTa2O14
_symmetry_space_group_name_H-M   'P 1'
_cell_length_a   6.52179715
_cell_length_b   6.52566790
_cell_length_c   7.63377600
_cell_angle_alpha   90.00000000
_cell_angle_beta   90.00000000
_cell_angle_gamma   109.33358076
_symmetry_Int_Tables_number   1
_chemical_formula_structural   Pr2Dy3YTa2O14
_chemical_formula_sum   'Pr2 Dy3 Y1 Ta2 O14'
_cell_volume   306.56520139
_cell_formula_units_Z   1
loop_
 _symmetry_equiv_pos_site_id
 _symmetry_equiv_pos_as_xyz
  1  'x, y, z'
loop_
 _atom_site_type_symbol
 _atom_site_label
 _atom_site_symmetry_multiplicity
 _atom_site_fract_x
 _atom_site_fract_y
 _atom_site_fract_z
 _atom_site_occupancy
  Pr  Pr0  1  0.500005  0.499964  0.499864  1
  Pr  Pr1  1  0.500005  0.499964  0.000136  1
  Dy  Dy2  1  0.533141  0.000778  0.750000  1
  Dy  Dy3  1  0.000767  0.533090  0.250000  1
  Dy  Dy4  1  0.466923  0.999244  0.250000  1
  Y  Y5  1  0.999519  0.467150  0.750000  1
  Ta  Ta6  1  0.000020  0.999995  0.499908  1
  Ta  Ta7  1  0.000020  0.999995  0.000092  1
  O  O8  1  0.680638  0.931846  0.468098  1
  O  O9  1  0.931618  0.680934  0.531398  1
  O  O10  1  0.680638  0.931846  0.031902  1
  O  O11  1  0.931618  0.680934  0.968602  1
  O  O12  1  0.319323  0.068139  0.531950  1
  O  O13  1  0.068287  0.319246  0.467791  1
  O  O14  1  0.319323  0.068139  0.968050  1
  O  O15  1  0.068287  0.319246  0.032209  1
  O  O16  1  0.937210  0.062284  0.750000  1
  O  O17  1  0.062817  0.937326  0.250000  1
  O  O18  1  0.363167  0.637059  0.750000  1
  O  O19  1  0.637053  0.362953  0.250000  1
  O  O20  1  0.643389  0.356074  0.750000  1
  O  O21  1  0.356233  0.643793  0.250000  1
