# generated using pymatgen
data_Be8VRe2Si
_symmetry_space_group_name_H-M   'P 1'
_cell_length_a   4.34822800
_cell_length_b   4.34822808
_cell_length_c   7.02983500
_cell_angle_alpha   90.00000000
_cell_angle_beta   90.00000000
_cell_angle_gamma   119.99999940
_symmetry_Int_Tables_number   1
_chemical_formula_structural   Be8VRe2Si
_chemical_formula_sum   'Be8 V1 Re2 Si1'
_cell_volume   115.10664358
_cell_formula_units_Z   1
loop_
 _symmetry_equiv_pos_site_id
 _symmetry_equiv_pos_as_xyz
  1  'x, y, z'
loop_
 _atom_site_type_symbol
 _atom_site_label
 _atom_site_symmetry_multiplicity
 _atom_site_fract_x
 _atom_site_fract_y
 _atom_site_fract_z
 _atom_site_occupancy
  Be  Be0  1  0.000000  0.000000  0.986525  1
  Be  Be1  1  0.000000  0.000000  0.498263  1
  Be  Be2  1  0.830911  0.661823  0.252629  1
  Be  Be3  1  0.171216  0.828784  0.748486  1
  Be  Be4  1  0.657568  0.828784  0.748486  1
  Be  Be5  1  0.338177  0.169089  0.252629  1
  Be  Be6  1  0.830911  0.169089  0.252629  1
  Be  Be7  1  0.171216  0.342432  0.748486  1
  V  V8  1  0.333333  0.666667  0.064124  1
  Re  Re9  1  0.666667  0.333333  0.944256  1
  Re  Re10  1  0.333333  0.666667  0.437789  1
  Si  Si11  1  0.666667  0.333333  0.565699  1
