# generated using pymatgen
data_Tb6Y4Si5As
_symmetry_space_group_name_H-M   'P 1'
_cell_length_a   8.47839414
_cell_length_b   8.49119828
_cell_length_c   6.36618200
_cell_angle_alpha   90.00000000
_cell_angle_beta   90.00000000
_cell_angle_gamma   119.92944233
_symmetry_Int_Tables_number   1
_chemical_formula_structural   Tb6Y4Si5As
_chemical_formula_sum   'Tb6 Y4 Si5 As1'
_cell_volume   397.19210228
_cell_formula_units_Z   1
loop_
 _symmetry_equiv_pos_site_id
 _symmetry_equiv_pos_as_xyz
  1  'x, y, z'
loop_
 _atom_site_type_symbol
 _atom_site_label
 _atom_site_symmetry_multiplicity
 _atom_site_fract_x
 _atom_site_fract_y
 _atom_site_fract_z
 _atom_site_occupancy
  Tb  Tb0  1  0.996722  0.753324  0.750000  1
  Tb  Tb1  1  0.757593  0.999977  0.750000  1
  Tb  Tb2  1  0.333039  0.664082  0.498964  1
  Tb  Tb3  1  0.668945  0.335914  0.001044  1
  Tb  Tb4  1  0.668945  0.335914  0.498956  1
  Tb  Tb5  1  0.333039  0.664082  0.001036  1
  Y  Y6  1  0.000194  0.244316  0.250000  1
  Y  Y7  1  0.755842  0.755637  0.250000  1
  Y  Y8  1  0.243423  0.246666  0.750000  1
  Y  Y9  1  0.243852  0.999997  0.250000  1
  Si  Si10  1  0.393438  0.392310  0.250000  1
  Si  Si11  1  0.001152  0.607734  0.250000  1
  Si  Si12  1  0.999840  0.393489  0.750000  1
  Si  Si13  1  0.606189  0.606440  0.750000  1
  Si  Si14  1  0.607737  0.000020  0.250000  1
  As  As15  1  0.390053  0.000098  0.750000  1
