# generated using pymatgen
data_Y2Ho18Cd6IrRu
_symmetry_space_group_name_H-M   'P 1'
_cell_length_a   9.58168902
_cell_length_b   9.58168779
_cell_length_c   9.81351200
_cell_angle_alpha   90.00000000
_cell_angle_beta   90.00000000
_cell_angle_gamma   119.99356607
_symmetry_Int_Tables_number   1
_chemical_formula_structural   Y2Ho18Cd6IrRu
_chemical_formula_sum   'Y2 Ho18 Cd6 Ir1 Ru1'
_cell_volume   780.31028105
_cell_formula_units_Z   1
loop_
 _symmetry_equiv_pos_site_id
 _symmetry_equiv_pos_as_xyz
  1  'x, y, z'
loop_
 _atom_site_type_symbol
 _atom_site_label
 _atom_site_symmetry_multiplicity
 _atom_site_fract_x
 _atom_site_fract_y
 _atom_site_fract_z
 _atom_site_occupancy
  Y  Y0  1  0.541155  0.082526  0.250000  1
  Y  Y1  1  0.917474  0.458845  0.250000  1
  Ho  Ho2  1  0.000005  0.999995  0.499530  1
  Ho  Ho3  1  0.000005  0.999995  0.000470  1
  Ho  Ho4  1  0.209560  0.790440  0.440835  1
  Ho  Ho5  1  0.209795  0.419070  0.440733  1
  Ho  Ho6  1  0.580930  0.790205  0.440733  1
  Ho  Ho7  1  0.790317  0.209683  0.560386  1
  Ho  Ho8  1  0.790082  0.580516  0.560173  1
  Ho  Ho9  1  0.419484  0.209918  0.560173  1
  Ho  Ho10  1  0.790317  0.209683  0.939614  1
  Ho  Ho11  1  0.790082  0.580516  0.939827  1
  Ho  Ho12  1  0.419484  0.209918  0.939827  1
  Ho  Ho13  1  0.209560  0.790440  0.059165  1
  Ho  Ho14  1  0.209795  0.419070  0.059267  1
  Ho  Ho15  1  0.580930  0.790205  0.059267  1
  Ho  Ho16  1  0.541020  0.458980  0.250000  1
  Ho  Ho17  1  0.458751  0.541249  0.750000  1
  Ho  Ho18  1  0.458731  0.917517  0.750000  1
  Ho  Ho19  1  0.082483  0.541269  0.750000  1
  Cd  Cd20  1  0.885592  0.114408  0.250000  1
  Cd  Cd21  1  0.885259  0.770882  0.250000  1
  Cd  Cd22  1  0.229118  0.114741  0.250000  1
  Cd  Cd23  1  0.114680  0.885320  0.750000  1
  Cd  Cd24  1  0.114695  0.229364  0.750000  1
  Cd  Cd25  1  0.770636  0.885305  0.750000  1
  Ir  Ir26  1  0.333395  0.666605  0.250000  1
  Ru  Ru27  1  0.666669  0.333331  0.750000  1
