# generated using pymatgen
data_Ca2Zn2Ag5
_symmetry_space_group_name_H-M   'P 1'
_cell_length_a   5.61153020
_cell_length_b   5.43288472
_cell_length_c   13.77596400
_cell_angle_alpha   90.00000000
_cell_angle_beta   90.00000000
_cell_angle_gamma   118.72079563
_symmetry_Int_Tables_number   1
_chemical_formula_structural   Ca2Zn2Ag5
_chemical_formula_sum   'Ca4 Zn4 Ag10'
_cell_volume   368.31501637
_cell_formula_units_Z   2
loop_
 _symmetry_equiv_pos_site_id
 _symmetry_equiv_pos_as_xyz
  1  'x, y, z'
loop_
 _atom_site_type_symbol
 _atom_site_label
 _atom_site_symmetry_multiplicity
 _atom_site_fract_x
 _atom_site_fract_y
 _atom_site_fract_z
 _atom_site_occupancy
  Ca  Ca0  1  0.320891  0.322992  0.116791  1
  Ca  Ca1  1  0.679109  0.677008  0.616791  1
  Ca  Ca2  1  0.320891  0.322992  0.383209  1
  Ca  Ca3  1  0.679109  0.677008  0.883209  1
  Zn  Zn4  1  0.833636  0.833652  0.250000  1
  Zn  Zn5  1  0.166364  0.166348  0.750000  1
  Zn  Zn6  1  0.834272  0.333513  0.250000  1
  Zn  Zn7  1  0.165728  0.666487  0.750000  1
  Ag  Ag8  1  0.336616  0.832558  0.250000  1
  Ag  Ag9  1  0.663384  0.167442  0.750000  1
  Ag  Ag10  1  0.980435  0.658324  0.081147  1
  Ag  Ag11  1  0.019565  0.341676  0.581147  1
  Ag  Ag12  1  0.677720  0.006950  0.421367  1
  Ag  Ag13  1  0.322280  0.993050  0.921367  1
  Ag  Ag14  1  0.019565  0.341676  0.918853  1
  Ag  Ag15  1  0.980435  0.658324  0.418853  1
  Ag  Ag16  1  0.322280  0.993050  0.578633  1
  Ag  Ag17  1  0.677720  0.006950  0.078633  1
