# generated using pymatgen
data_Li2TlIn(P2O7)2
_symmetry_space_group_name_H-M   'P 1'
_cell_length_a   7.17859174
_cell_length_b   10.06497385
_cell_length_c   10.05171613
_cell_angle_alpha   59.79817206
_cell_angle_beta   99.55726240
_cell_angle_gamma   80.75902046
_symmetry_Int_Tables_number   1
_chemical_formula_structural   Li2TlIn(P2O7)2
_chemical_formula_sum   'Li4 Tl2 In2 P8 O28'
_cell_volume   593.03146460
_cell_formula_units_Z   2
loop_
 _symmetry_equiv_pos_site_id
 _symmetry_equiv_pos_as_xyz
  1  'x, y, z'
loop_
 _atom_site_type_symbol
 _atom_site_label
 _atom_site_symmetry_multiplicity
 _atom_site_fract_x
 _atom_site_fract_y
 _atom_site_fract_z
 _atom_site_occupancy
  Li  Li0  1  0.161835  0.825309  0.514557  1
  Li  Li1  1  0.161836  0.325313  0.014556  1
  Li  Li2  1  0.835108  0.265405  0.573635  1
  Li  Li3  1  0.835115  0.765405  0.073632  1
  Tl  Tl4  1  0.239179  0.633826  0.350712  1
  Tl  Tl5  1  0.239172  0.133830  0.850712  1
  In  In6  1  0.772131  0.098886  0.386193  1
  In  In7  1  0.772133  0.598885  0.886192  1
  P  P8  1  0.580145  0.784257  0.494279  1
  P  P9  1  0.580146  0.284257  0.994277  1
  P  P10  1  0.423053  0.237843  0.530197  1
  P  P11  1  0.423055  0.737846  0.030195  1
  P  P12  1  0.963993  0.034378  0.132748  1
  P  P13  1  0.963992  0.534378  0.632747  1
  P  P14  1  0.030511  0.884227  0.781331  1
  P  P15  1  0.030505  0.384227  0.281332  1
  O  O16  1  0.995338  0.871222  0.149527  1
  O  O17  1  0.995333  0.371221  0.649530  1
  O  O18  1  0.997089  0.907127  0.614907  1
  O  O19  1  0.997084  0.407125  0.114908  1
  O  O20  1  0.583624  0.773313  0.652080  1
  O  O21  1  0.583622  0.273311  0.152078  1
  O  O22  1  0.429429  0.387375  0.534943  1
  O  O23  1  0.429423  0.887378  0.034945  1
  O  O24  1  0.733165  0.623822  0.530194  1
  O  O25  1  0.733165  0.123821  0.030193  1
  O  O26  1  0.262726  0.287163  0.366708  1
  O  O27  1  0.262732  0.787165  0.866706  1
  O  O28  1  0.087972  0.636342  0.537098  1
  O  O29  1  0.087972  0.136345  0.037098  1
  O  O30  1  0.914148  0.279799  0.384664  1
  O  O31  1  0.914155  0.779795  0.884665  1
  O  O32  1  0.635209  0.929735  0.375918  1
  O  O33  1  0.635214  0.429733  0.875918  1
  O  O34  1  0.370292  0.112189  0.674147  1
  O  O35  1  0.370295  0.612188  0.174145  1
  O  O36  1  0.375915  0.781686  0.420297  1
  O  O37  1  0.375915  0.281691  0.920291  1
  O  O38  1  0.621078  0.168746  0.517964  1
  O  O39  1  0.621083  0.668753  0.017962  1
  O  O40  1  0.992727  0.020315  0.294954  1
  O  O41  1  0.992729  0.520316  0.794953  1
  O  O42  1  0.995329  0.044730  0.770656  1
  O  O43  1  0.995329  0.544730  0.270657  1
