# generated using pymatgen
data_Rb8CaYbBr12
_symmetry_space_group_name_H-M   'P 1'
_cell_length_a   9.56135548
_cell_length_b   9.56135434
_cell_length_c   9.56135470
_cell_angle_alpha   89.40160849
_cell_angle_beta   89.40160827
_cell_angle_gamma   89.40161185
_symmetry_Int_Tables_number   1
_chemical_formula_structural   Rb8CaYbBr12
_chemical_formula_sum   'Rb8 Ca1 Yb1 Br12'
_cell_volume   873.95231756
_cell_formula_units_Z   1
loop_
 _symmetry_equiv_pos_site_id
 _symmetry_equiv_pos_as_xyz
  1  'x, y, z'
loop_
 _atom_site_type_symbol
 _atom_site_label
 _atom_site_symmetry_multiplicity
 _atom_site_fract_x
 _atom_site_fract_y
 _atom_site_fract_z
 _atom_site_occupancy
  Rb  Rb0  1  0.250134  0.250134  0.250134  1
  Rb  Rb1  1  0.749866  0.749866  0.749866  1
  Rb  Rb2  1  0.870612  0.629231  0.250156  1
  Rb  Rb3  1  0.629231  0.250156  0.870612  1
  Rb  Rb4  1  0.250156  0.870612  0.629231  1
  Rb  Rb5  1  0.129388  0.370769  0.749844  1
  Rb  Rb6  1  0.370769  0.749844  0.129388  1
  Rb  Rb7  1  0.749844  0.129388  0.370769  1
  Ca  Ca8  1  0.000000  0.000000  0.000000  1
  Yb  Yb9  1  0.500000  0.500000  0.500000  1
  Br  Br10  1  0.209521  0.556784  0.431349  1
  Br  Br11  1  0.057243  0.707250  0.930796  1
  Br  Br12  1  0.930796  0.057243  0.707250  1
  Br  Br13  1  0.790479  0.443216  0.568651  1
  Br  Br14  1  0.707250  0.930796  0.057243  1
  Br  Br15  1  0.443216  0.568651  0.790479  1
  Br  Br16  1  0.568651  0.790479  0.443216  1
  Br  Br17  1  0.556784  0.431349  0.209521  1
  Br  Br18  1  0.069204  0.942757  0.292750  1
  Br  Br19  1  0.942757  0.292750  0.069204  1
  Br  Br20  1  0.292750  0.069204  0.942757  1
  Br  Br21  1  0.431349  0.209521  0.556784  1
