# generated using pymatgen
data_Na2CuAsS3
_symmetry_space_group_name_H-M   'P 1'
_cell_length_a   16.83711400
_cell_length_b   5.72879650
_cell_length_c   7.15704097
_cell_angle_alpha   61.32277472
_cell_angle_beta   90.00000000
_cell_angle_gamma   90.00000000
_symmetry_Int_Tables_number   1
_chemical_formula_structural   Na2CuAsS3
_chemical_formula_sum   'Na8 Cu4 As4 S12'
_cell_volume   605.66292054
_cell_formula_units_Z   4
loop_
 _symmetry_equiv_pos_site_id
 _symmetry_equiv_pos_as_xyz
  1  'x, y, z'
loop_
 _atom_site_type_symbol
 _atom_site_label
 _atom_site_symmetry_multiplicity
 _atom_site_fract_x
 _atom_site_fract_y
 _atom_site_fract_z
 _atom_site_occupancy
  Na  Na0  1  0.039871  0.835686  0.314659  1
  Na  Na1  1  0.539871  0.164314  0.185341  1
  Na  Na2  1  0.128637  0.570375  0.895325  1
  Na  Na3  1  0.628637  0.429625  0.604675  1
  Na  Na4  1  0.871363  0.429625  0.104675  1
  Na  Na5  1  0.371363  0.570375  0.395325  1
  Na  Na6  1  0.960129  0.164314  0.685341  1
  Na  Na7  1  0.460129  0.835686  0.814659  1
  Cu  Cu8  1  0.222121  0.905104  0.078499  1
  Cu  Cu9  1  0.277879  0.905104  0.578499  1
  Cu  Cu10  1  0.777879  0.094896  0.921501  1
  Cu  Cu11  1  0.722121  0.094896  0.421501  1
  As  As12  1  0.172059  0.252113  0.524825  1
  As  As13  1  0.827941  0.747887  0.475175  1
  As  As14  1  0.327941  0.252113  0.024825  1
  As  As15  1  0.672059  0.747887  0.975175  1
  S  S16  1  0.201140  0.696230  0.433957  1
  S  S17  1  0.935127  0.672010  0.682026  1
  S  S18  1  0.617288  0.897343  0.644365  1
  S  S19  1  0.564873  0.672010  0.182026  1
  S  S20  1  0.298860  0.696230  0.933957  1
  S  S21  1  0.701140  0.303770  0.066043  1
  S  S22  1  0.117288  0.102657  0.855635  1
  S  S23  1  0.064873  0.327990  0.317974  1
  S  S24  1  0.435127  0.327990  0.817974  1
  S  S25  1  0.798860  0.303770  0.566043  1
  S  S26  1  0.882712  0.897343  0.144365  1
  S  S27  1  0.382712  0.102657  0.355635  1
