# generated using pymatgen
data_Er4MgZn3Pt4
_symmetry_space_group_name_H-M   'P 1'
_cell_length_a   4.17237300
_cell_length_b   6.90828080
_cell_length_c   8.22369910
_cell_angle_alpha   90.53985657
_cell_angle_beta   90.00000000
_cell_angle_gamma   90.00000000
_symmetry_Int_Tables_number   1
_chemical_formula_structural   Er4MgZn3Pt4
_chemical_formula_sum   'Er4 Mg1 Zn3 Pt4'
_cell_volume   237.02875819
_cell_formula_units_Z   1
loop_
 _symmetry_equiv_pos_site_id
 _symmetry_equiv_pos_as_xyz
  1  'x, y, z'
loop_
 _atom_site_type_symbol
 _atom_site_label
 _atom_site_symmetry_multiplicity
 _atom_site_fract_x
 _atom_site_fract_y
 _atom_site_fract_z
 _atom_site_occupancy
  Er  Er0  1  0.250000  0.046996  0.315453  1
  Er  Er1  1  0.250000  0.541543  0.176702  1
  Er  Er2  1  0.750000  0.963628  0.686976  1
  Er  Er3  1  0.750000  0.453431  0.823511  1
  Mg  Mg4  1  0.250000  0.631772  0.558728  1
  Zn  Zn5  1  0.250000  0.138364  0.939708  1
  Zn  Zn6  1  0.750000  0.361329  0.437388  1
  Zn  Zn7  1  0.750000  0.862860  0.061115  1
  Pt  Pt8  1  0.250000  0.247475  0.625273  1
  Pt  Pt9  1  0.250000  0.751511  0.877710  1
  Pt  Pt10  1  0.750000  0.752838  0.374529  1
  Pt  Pt11  1  0.750000  0.248253  0.122907  1
