# generated using pymatgen
data_Er5P12Ru17Pt2
_symmetry_space_group_name_H-M   'P 1'
_cell_length_a   12.52756917
_cell_length_b   12.61498784
_cell_length_c   3.97392000
_cell_angle_alpha   90.00000000
_cell_angle_beta   90.00000000
_cell_angle_gamma   120.23110345
_symmetry_Int_Tables_number   1
_chemical_formula_structural   Er5P12Ru17Pt2
_chemical_formula_sum   'Er5 P12 Ru17 Pt2'
_cell_volume   542.60940294
_cell_formula_units_Z   1
loop_
 _symmetry_equiv_pos_site_id
 _symmetry_equiv_pos_as_xyz
  1  'x, y, z'
loop_
 _atom_site_type_symbol
 _atom_site_label
 _atom_site_symmetry_multiplicity
 _atom_site_fract_x
 _atom_site_fract_y
 _atom_site_fract_z
 _atom_site_occupancy
  Er  Er0  1  0.182231  0.182118  0.500000  1
  Er  Er1  1  0.817769  0.999887  0.500000  1
  Er  Er2  1  0.000000  0.816880  0.500000  1
  Er  Er3  1  0.329466  0.664047  0.000000  1
  Er  Er4  1  0.670534  0.334580  0.000000  1
  P  P5  1  0.814765  0.815858  0.000000  1
  P  P6  1  0.185235  0.001093  0.000000  1
  P  P7  1  0.000000  0.183293  0.000000  1
  P  P8  1  0.171200  0.478013  0.500000  1
  P  P9  1  0.517862  0.698809  0.500000  1
  P  P10  1  0.299686  0.821447  0.500000  1
  P  P11  1  0.700314  0.521759  0.500000  1
  P  P12  1  0.828800  0.306813  0.500000  1
  P  P13  1  0.482138  0.180947  0.500000  1
  P  P14  1  0.365086  0.364770  0.000000  1
  P  P15  1  0.634914  0.999684  0.000000  1
  P  P16  1  0.000000  0.627495  0.000000  1
  Ru  Ru17  1  0.000000  0.445691  0.000000  1
  Ru  Ru18  1  0.712244  0.713436  0.500000  1
  Ru  Ru19  1  0.287756  0.001192  0.500000  1
  Ru  Ru20  1  0.000000  0.282255  0.500000  1
  Ru  Ru21  1  0.185106  0.376980  0.000000  1
  Ru  Ru22  1  0.620324  0.806210  0.000000  1
  Ru  Ru23  1  0.191826  0.816014  0.000000  1
  Ru  Ru24  1  0.808174  0.624189  0.000000  1
  Ru  Ru25  1  0.814894  0.191875  0.000000  1
  Ru  Ru26  1  0.379676  0.185885  0.000000  1
  Ru  Ru27  1  0.366095  0.494454  0.500000  1
  Ru  Ru28  1  0.505997  0.875291  0.500000  1
  Ru  Ru29  1  0.124619  0.632215  0.500000  1
  Ru  Ru30  1  0.875381  0.507596  0.500000  1
  Ru  Ru31  1  0.633905  0.128359  0.500000  1
  Ru  Ru32  1  0.494003  0.369293  0.500000  1
  Ru  Ru33  1  0.000000  0.999665  0.000000  1
  Pt  Pt34  1  0.551551  0.551728  0.000000  1
  Pt  Pt35  1  0.448449  0.000176  0.000000  1
