# generated using pymatgen
data_Ho3B7Os
_symmetry_space_group_name_H-M   'P 1'
_cell_length_a   3.51310700
_cell_length_b   8.04249629
_cell_length_c   9.30128200
_cell_angle_alpha   90.00000000
_cell_angle_beta   90.00000000
_cell_angle_gamma   77.38440109
_symmetry_Int_Tables_number   1
_chemical_formula_structural   Ho3B7Os
_chemical_formula_sum   'Ho6 B14 Os2'
_cell_volume   256.45512913
_cell_formula_units_Z   2
loop_
 _symmetry_equiv_pos_site_id
 _symmetry_equiv_pos_as_xyz
  1  'x, y, z'
loop_
 _atom_site_type_symbol
 _atom_site_label
 _atom_site_symmetry_multiplicity
 _atom_site_fract_x
 _atom_site_fract_y
 _atom_site_fract_z
 _atom_site_occupancy
  Ho  Ho0  1  0.106035  0.787927  0.060437  1
  Ho  Ho1  1  0.755923  0.488155  0.250000  1
  Ho  Ho2  1  0.106035  0.787927  0.439563  1
  Ho  Ho3  1  0.893965  0.212073  0.560438  1
  Ho  Ho4  1  0.244077  0.511845  0.750000  1
  Ho  Ho5  1  0.893965  0.212073  0.939562  1
  B  B6  1  0.272832  0.454336  0.033796  1
  B  B7  1  0.479185  0.041627  0.095577  1
  B  B8  1  0.368101  0.263795  0.150207  1
  B  B9  1  0.543314  0.913375  0.250000  1
  B  B10  1  0.368101  0.263795  0.349793  1
  B  B11  1  0.479185  0.041627  0.404424  1
  B  B12  1  0.272832  0.454336  0.466203  1
  B  B13  1  0.727168  0.545664  0.533797  1
  B  B14  1  0.520815  0.958373  0.595577  1
  B  B15  1  0.631899  0.736205  0.650207  1
  B  B16  1  0.456687  0.086625  0.750000  1
  B  B17  1  0.631899  0.736205  0.849792  1
  B  B18  1  0.520815  0.958373  0.904424  1
  B  B19  1  0.727168  0.545664  0.966203  1
  Os  Os20  1  0.945872  0.108259  0.250000  1
  Os  Os21  1  0.054128  0.891741  0.750000  1
