# generated using pymatgen
data_KRb3Al2Se5
_symmetry_space_group_name_H-M   'P 1'
_cell_length_a   8.19782020
_cell_length_b   8.72265954
_cell_length_c   11.17850171
_cell_angle_alpha   76.79900526
_cell_angle_beta   85.25140660
_cell_angle_gamma   81.74988795
_symmetry_Int_Tables_number   1
_chemical_formula_structural   KRb3Al2Se5
_chemical_formula_sum   'K2 Rb6 Al4 Se10'
_cell_volume   769.12425528
_cell_formula_units_Z   2
loop_
 _symmetry_equiv_pos_site_id
 _symmetry_equiv_pos_as_xyz
  1  'x, y, z'
loop_
 _atom_site_type_symbol
 _atom_site_label
 _atom_site_symmetry_multiplicity
 _atom_site_fract_x
 _atom_site_fract_y
 _atom_site_fract_z
 _atom_site_occupancy
  K  K0  1  0.434152  0.336789  0.085366  1
  K  K1  1  0.565848  0.663211  0.914634  1
  Rb  Rb2  1  0.182365  0.089018  0.872570  1
  Rb  Rb3  1  0.057836  0.602316  0.767083  1
  Rb  Rb4  1  0.817635  0.910982  0.127430  1
  Rb  Rb5  1  0.942164  0.397684  0.232917  1
  Rb  Rb6  1  0.572847  0.708747  0.505792  1
  Rb  Rb7  1  0.427153  0.291253  0.494208  1
  Al  Al8  1  0.901682  0.083624  0.599155  1
  Al  Al9  1  0.098318  0.916376  0.400845  1
  Al  Al10  1  0.291137  0.731312  0.208090  1
  Al  Al11  1  0.708863  0.268688  0.791910  1
  Se  Se12  1  0.879355  0.357292  0.604644  1
  Se  Se13  1  0.188913  0.962661  0.589326  1
  Se  Se14  1  0.435169  0.398886  0.771699  1
  Se  Se15  1  0.174535  0.692541  0.031919  1
  Se  Se16  1  0.825465  0.307459  0.968081  1
  Se  Se17  1  0.564831  0.601114  0.228301  1
  Se  Se18  1  0.120645  0.642708  0.395356  1
  Se  Se19  1  0.262413  0.018518  0.218707  1
  Se  Se20  1  0.737587  0.981482  0.781293  1
  Se  Se21  1  0.811087  0.037339  0.410674  1
