# generated using pymatgen
data_Dy2AlGa2Ru
_symmetry_space_group_name_H-M   'P 1'
_cell_length_a   5.49809854
_cell_length_b   5.44293691
_cell_length_c   8.76137400
_cell_angle_alpha   90.00000000
_cell_angle_beta   90.00000000
_cell_angle_gamma   119.66867827
_symmetry_Int_Tables_number   1
_chemical_formula_structural   Dy2AlGa2Ru
_chemical_formula_sum   'Dy4 Al2 Ga4 Ru2'
_cell_volume   227.81848219
_cell_formula_units_Z   2
loop_
 _symmetry_equiv_pos_site_id
 _symmetry_equiv_pos_as_xyz
  1  'x, y, z'
loop_
 _atom_site_type_symbol
 _atom_site_label
 _atom_site_symmetry_multiplicity
 _atom_site_fract_x
 _atom_site_fract_y
 _atom_site_fract_z
 _atom_site_occupancy
  Dy  Dy0  1  0.332867  0.668209  0.053256  1
  Dy  Dy1  1  0.667133  0.335342  0.553256  1
  Dy  Dy2  1  0.332867  0.668209  0.446744  1
  Dy  Dy3  1  0.667133  0.335342  0.946744  1
  Al  Al4  1  0.841341  0.160107  0.250000  1
  Al  Al5  1  0.158659  0.318766  0.750000  1
  Ga  Ga6  1  0.838824  0.669247  0.250000  1
  Ga  Ga7  1  0.161176  0.830423  0.750000  1
  Ga  Ga8  1  0.668550  0.831754  0.750000  1
  Ga  Ga9  1  0.331450  0.163203  0.250000  1
  Ru  Ru10  1  0.000000  0.009699  0.500000  1
  Ru  Ru11  1  0.000000  0.009699  0.000000  1
