# generated using pymatgen
data_K4LiMnSe4
_symmetry_space_group_name_H-M   'P 1'
_cell_length_a   8.25746120
_cell_length_b   8.25746143
_cell_length_c   8.25746219
_cell_angle_alpha   133.23133789
_cell_angle_beta   131.29008846
_cell_angle_gamma   69.82934956
_symmetry_Int_Tables_number   1
_chemical_formula_structural   K4LiMnSe4
_chemical_formula_sum   'K4 Li1 Mn1 Se4'
_cell_volume   302.27374882
_cell_formula_units_Z   1
loop_
 _symmetry_equiv_pos_site_id
 _symmetry_equiv_pos_as_xyz
  1  'x, y, z'
loop_
 _atom_site_type_symbol
 _atom_site_label
 _atom_site_symmetry_multiplicity
 _atom_site_fract_x
 _atom_site_fract_y
 _atom_site_fract_z
 _atom_site_occupancy
  K  K0  1  0.470948  0.153798  0.334700  1
  K  K1  1  0.529052  0.863753  0.682852  1
  K  K2  1  0.180901  0.346202  0.817148  1
  K  K3  1  0.819099  0.636247  0.165300  1
  Li  Li4  1  0.000000  0.250000  0.250000  1
  Mn  Mn5  1  0.000000  0.750000  0.750000  1
  Se  Se6  1  0.072656  0.876155  0.163709  1
  Se  Se7  1  0.927344  0.091053  0.803500  1
  Se  Se8  1  0.287553  0.623845  0.696500  1
  Se  Se9  1  0.712447  0.408947  0.336291  1
