# generated using pymatgen
data_Pr3Al12OsRuPt2
_symmetry_space_group_name_H-M   'P 1'
_cell_length_a   8.98264600
_cell_length_b   8.94295162
_cell_length_c   9.67119208
_cell_angle_alpha   90.14983011
_cell_angle_beta   90.00000000
_cell_angle_gamma   120.14692995
_symmetry_Int_Tables_number   1
_chemical_formula_structural   Pr3Al12OsRuPt2
_chemical_formula_sum   'Pr6 Al24 Os2 Ru2 Pt4'
_cell_volume   671.81379089
_cell_formula_units_Z   2
loop_
 _symmetry_equiv_pos_site_id
 _symmetry_equiv_pos_as_xyz
  1  'x, y, z'
loop_
 _atom_site_type_symbol
 _atom_site_label
 _atom_site_symmetry_multiplicity
 _atom_site_fract_x
 _atom_site_fract_y
 _atom_site_fract_z
 _atom_site_occupancy
  Pr  Pr0  1  0.190098  0.380195  0.251433  1
  Pr  Pr1  1  0.809902  0.619805  0.748567  1
  Pr  Pr2  1  0.620306  0.808132  0.249061  1
  Pr  Pr3  1  0.379694  0.191868  0.750939  1
  Pr  Pr4  1  0.187827  0.808132  0.249061  1
  Pr  Pr5  1  0.812173  0.191868  0.750939  1
  Al  Al6  1  0.330437  0.660873  0.024856  1
  Al  Al7  1  0.669563  0.339127  0.975144  1
  Al  Al8  1  0.666495  0.332988  0.525876  1
  Al  Al9  1  0.333505  0.667012  0.474124  1
  Al  Al10  1  0.162333  0.324665  0.578417  1
  Al  Al11  1  0.837667  0.675335  0.421583  1
  Al  Al12  1  0.676792  0.838973  0.577993  1
  Al  Al13  1  0.835691  0.671383  0.071719  1
  Al  Al14  1  0.323208  0.161027  0.422007  1
  Al  Al15  1  0.164309  0.328617  0.928281  1
  Al  Al16  1  0.162182  0.838973  0.577993  1
  Al  Al17  1  0.325818  0.168580  0.073332  1
  Al  Al18  1  0.837818  0.161027  0.422007  1
  Al  Al19  1  0.674182  0.831420  0.926668  1
  Al  Al20  1  0.842761  0.168580  0.073332  1
  Al  Al21  1  0.157239  0.831420  0.926668  1
  Al  Al22  1  0.564324  0.128647  0.250031  1
  Al  Al23  1  0.435676  0.871353  0.749969  1
  Al  Al24  1  0.872339  0.435955  0.246666  1
  Al  Al25  1  0.127661  0.564045  0.753334  1
  Al  Al26  1  0.563616  0.435955  0.246666  1
  Al  Al27  1  0.436384  0.564045  0.753334  1
  Al  Al28  1  0.999062  0.998124  0.249110  1
  Al  Al29  1  0.000938  0.001876  0.750890  1
  Os  Os30  1  0.000000  0.500000  0.000000  1
  Os  Os31  1  0.500000  0.500000  0.000000  1
  Ru  Ru32  1  0.000000  0.000000  0.000000  1
  Ru  Ru33  1  0.000000  0.000000  0.500000  1
  Pt  Pt34  1  0.500000  0.000000  0.000000  1
  Pt  Pt35  1  0.500000  0.000000  0.500000  1
  Pt  Pt36  1  0.000000  0.500000  0.500000  1
  Pt  Pt37  1  0.500000  0.500000  0.500000  1
