# generated using pymatgen
data_Y8Os3WC8
_symmetry_space_group_name_H-M   'P 1'
_cell_length_a   5.13656900
_cell_length_b   6.55712104
_cell_length_c   9.85797991
_cell_angle_alpha   89.69345022
_cell_angle_beta   90.00000000
_cell_angle_gamma   90.00000000
_symmetry_Int_Tables_number   1
_chemical_formula_structural   Y8Os3WC8
_chemical_formula_sum   'Y8 Os3 W1 C8'
_cell_volume   332.02290104
_cell_formula_units_Z   1
loop_
 _symmetry_equiv_pos_site_id
 _symmetry_equiv_pos_as_xyz
  1  'x, y, z'
loop_
 _atom_site_type_symbol
 _atom_site_label
 _atom_site_symmetry_multiplicity
 _atom_site_fract_x
 _atom_site_fract_y
 _atom_site_fract_z
 _atom_site_occupancy
  Y  Y0  1  0.250000  0.680274  0.553874  1
  Y  Y1  1  0.750000  0.321056  0.444811  1
  Y  Y2  1  0.750000  0.821934  0.055073  1
  Y  Y3  1  0.250000  0.181964  0.944606  1
  Y  Y4  1  0.250000  0.531133  0.213055  1
  Y  Y5  1  0.750000  0.467380  0.780722  1
  Y  Y6  1  0.750000  0.970740  0.715621  1
  Y  Y7  1  0.250000  0.029458  0.285546  1
  Os  Os8  1  0.750000  0.277320  0.136489  1
  Os  Os9  1  0.750000  0.776191  0.362972  1
  Os  Os10  1  0.250000  0.224657  0.633525  1
  W  W11  1  0.250000  0.722125  0.866782  1
  C  C12  1  0.250000  0.454160  0.759589  1
  C  C13  1  0.750000  0.541550  0.242183  1
  C  C14  1  0.750000  0.042571  0.259118  1
  C  C15  1  0.250000  0.959262  0.740010  1
  C  C16  1  0.250000  0.823419  0.055751  1
  C  C17  1  0.750000  0.176594  0.952373  1
  C  C18  1  0.750000  0.675924  0.548681  1
  C  C19  1  0.250000  0.322286  0.449219  1
