# generated using pymatgen
data_Np2UF12
_symmetry_space_group_name_H-M   'P 1'
_cell_length_a   8.39419338
_cell_length_b   8.39419350
_cell_length_c   8.36202944
_cell_angle_alpha   63.28150168
_cell_angle_beta   63.28149618
_cell_angle_gamma   80.78620425
_symmetry_Int_Tables_number   1
_chemical_formula_structural   Np2UF12
_chemical_formula_sum   'Np4 U2 F24'
_cell_volume   469.44986734
_cell_formula_units_Z   2
loop_
 _symmetry_equiv_pos_site_id
 _symmetry_equiv_pos_as_xyz
  1  'x, y, z'
loop_
 _atom_site_type_symbol
 _atom_site_label
 _atom_site_symmetry_multiplicity
 _atom_site_fract_x
 _atom_site_fract_y
 _atom_site_fract_z
 _atom_site_occupancy
  Np  Np0  1  0.367617  0.221487  0.331752  1
  Np  Np1  1  0.778513  0.632383  0.168248  1
  Np  Np2  1  0.632383  0.778513  0.668248  1
  Np  Np3  1  0.221487  0.367617  0.831752  1
  U  U4  1  0.215411  0.784589  0.250000  1
  U  U5  1  0.784589  0.215411  0.750000  1
  F  F6  1  0.598424  0.401576  0.250000  1
  F  F7  1  0.401576  0.598424  0.750000  1
  F  F8  1  0.494798  0.749694  0.209478  1
  F  F9  1  0.250306  0.505202  0.290522  1
  F  F10  1  0.505202  0.250306  0.790522  1
  F  F11  1  0.749694  0.494798  0.709478  1
  F  F12  1  0.270951  0.970225  0.354706  1
  F  F13  1  0.029775  0.729049  0.145294  1
  F  F14  1  0.729049  0.029775  0.645294  1
  F  F15  1  0.970225  0.270951  0.854706  1
  F  F16  1  0.500000  0.000000  0.500000  1
  F  F17  1  0.000000  0.500000  0.000000  1
  F  F18  1  0.181792  0.059253  0.048832  1
  F  F19  1  0.940747  0.818208  0.451168  1
  F  F20  1  0.818208  0.940747  0.951168  1
  F  F21  1  0.059253  0.181792  0.548832  1
  F  F22  1  0.598739  0.188972  0.071804  1
  F  F23  1  0.811028  0.401261  0.428196  1
  F  F24  1  0.401261  0.811028  0.928196  1
  F  F25  1  0.188972  0.598739  0.571804  1
  F  F26  1  0.257950  0.318791  0.107275  1
  F  F27  1  0.681209  0.742050  0.392725  1
  F  F28  1  0.742050  0.681209  0.892725  1
  F  F29  1  0.318791  0.257950  0.607275  1
