# generated using pymatgen
data_CeTm(FeSi)2
_symmetry_space_group_name_H-M   'P 1'
_cell_length_a   4.04114500
_cell_length_b   4.04114500
_cell_length_c   6.47216100
_cell_angle_alpha   90.00000000
_cell_angle_beta   90.00000000
_cell_angle_gamma   90.00000000
_symmetry_Int_Tables_number   1
_chemical_formula_structural   CeTm(FeSi)2
_chemical_formula_sum   'Ce1 Tm1 Fe2 Si2'
_cell_volume   105.69590931
_cell_formula_units_Z   1
loop_
 _symmetry_equiv_pos_site_id
 _symmetry_equiv_pos_as_xyz
  1  'x, y, z'
loop_
 _atom_site_type_symbol
 _atom_site_label
 _atom_site_symmetry_multiplicity
 _atom_site_fract_x
 _atom_site_fract_y
 _atom_site_fract_z
 _atom_site_occupancy
  Ce  Ce0  1  0.500000  0.000000  0.685083  1
  Tm  Tm1  1  0.000000  0.500000  0.310877  1
  Fe  Fe2  1  0.000000  0.000000  0.999225  1
  Fe  Fe3  1  0.500000  0.500000  0.999225  1
  Si  Si4  1  0.000000  0.500000  0.821156  1
  Si  Si5  1  0.500000  0.000000  0.184433  1
