# generated using pymatgen
data_Np2Pa2H15
_symmetry_space_group_name_H-M   'P 1'
_cell_length_a   7.58937480
_cell_length_b   7.58937567
_cell_length_c   7.58937584
_cell_angle_alpha   109.49809029
_cell_angle_beta   109.49809225
_cell_angle_gamma   109.49808756
_symmetry_Int_Tables_number   1
_chemical_formula_structural   Np2Pa2H15
_chemical_formula_sum   'Np4 Pa4 H30'
_cell_volume   336.17346134
_cell_formula_units_Z   2
loop_
 _symmetry_equiv_pos_site_id
 _symmetry_equiv_pos_as_xyz
  1  'x, y, z'
loop_
 _atom_site_type_symbol
 _atom_site_label
 _atom_site_symmetry_multiplicity
 _atom_site_fract_x
 _atom_site_fract_y
 _atom_site_fract_z
 _atom_site_occupancy
  Np  Np0  1  0.000662  0.586992  0.498949  1
  Np  Np1  1  0.586992  0.498949  0.000662  1
  Np  Np2  1  0.498949  0.000662  0.586992  1
  Np  Np3  1  0.414629  0.414629  0.414629  1
  Pa  Pa4  1  0.914786  0.914786  0.914786  1
  Pa  Pa5  1  0.499831  0.001089  0.083178  1
  Pa  Pa6  1  0.001089  0.083178  0.499831  1
  Pa  Pa7  1  0.083178  0.499831  0.001089  1
  H  H8  1  0.653354  0.969121  0.369149  1
  H  H9  1  0.215522  0.315818  0.847770  1
  H  H10  1  0.181656  0.399639  0.532018  1
  H  H11  1  0.093948  0.278584  0.125600  1
  H  H12  1  0.278584  0.125600  0.093948  1
  H  H13  1  0.125600  0.093948  0.278584  1
  H  H14  1  0.465982  0.150741  0.872739  1
  H  H15  1  0.722200  0.348643  0.815897  1
  H  H16  1  0.624120  0.371702  0.248382  1
  H  H17  1  0.248382  0.624120  0.371702  1
  H  H18  1  0.750715  0.877576  0.125889  1
  H  H19  1  0.125889  0.750715  0.877576  1
  H  H20  1  0.371702  0.248382  0.624120  1
  H  H21  1  0.877576  0.125889  0.750715  1
  H  H22  1  0.784446  0.598889  0.632522  1
  H  H23  1  0.315818  0.847770  0.215522  1
  H  H24  1  0.369149  0.653354  0.969121  1
  H  H25  1  0.969121  0.369149  0.653354  1
  H  H26  1  0.532018  0.181656  0.399639  1
  H  H27  1  0.399639  0.532018  0.181656  1
  H  H28  1  0.847770  0.215522  0.315818  1
  H  H29  1  0.906529  0.686671  0.034060  1
  H  H30  1  0.815897  0.722200  0.348643  1
  H  H31  1  0.150741  0.872739  0.465982  1
  H  H32  1  0.686671  0.034060  0.906529  1
  H  H33  1  0.348643  0.815897  0.722200  1
  H  H34  1  0.872739  0.465982  0.150741  1
  H  H35  1  0.632522  0.784446  0.598889  1
  H  H36  1  0.598889  0.632522  0.784446  1
  H  H37  1  0.034060  0.906529  0.686671  1
