# generated using pymatgen
data_ZrSc11(Si3Os)4
_symmetry_space_group_name_H-M   'P 1'
_cell_length_a   4.01922400
_cell_length_b   10.31015587
_cell_length_c   11.67675198
_cell_angle_alpha   90.04698323
_cell_angle_beta   90.00000000
_cell_angle_gamma   90.00000000
_symmetry_Int_Tables_number   1
_chemical_formula_structural   ZrSc11(Si3Os)4
_chemical_formula_sum   'Zr1 Sc11 Si12 Os4'
_cell_volume   483.87072979
_cell_formula_units_Z   1
loop_
 _symmetry_equiv_pos_site_id
 _symmetry_equiv_pos_as_xyz
  1  'x, y, z'
loop_
 _atom_site_type_symbol
 _atom_site_label
 _atom_site_symmetry_multiplicity
 _atom_site_fract_x
 _atom_site_fract_y
 _atom_site_fract_z
 _atom_site_occupancy
  Zr  Zr0  1  0.250000  0.875820  0.018803  1
  Sc  Sc1  1  0.250000  0.623023  0.518698  1
  Sc  Sc2  1  0.750000  0.125081  0.981632  1
  Sc  Sc3  1  0.750000  0.377084  0.481320  1
  Sc  Sc4  1  0.250000  0.920719  0.605171  1
  Sc  Sc5  1  0.250000  0.579209  0.105270  1
  Sc  Sc6  1  0.750000  0.079297  0.394314  1
  Sc  Sc7  1  0.750000  0.420696  0.895031  1
  Sc  Sc8  1  0.250000  0.658489  0.797624  1
  Sc  Sc9  1  0.250000  0.840704  0.299728  1
  Sc  Sc10  1  0.750000  0.340752  0.202072  1
  Sc  Sc11  1  0.750000  0.158799  0.701600  1
  Si  Si12  1  0.250000  0.015440  0.822066  1
  Si  Si13  1  0.250000  0.485571  0.321990  1
  Si  Si14  1  0.750000  0.984862  0.176780  1
  Si  Si15  1  0.750000  0.514786  0.678076  1
  Si  Si16  1  0.250000  0.251878  0.841472  1
  Si  Si17  1  0.250000  0.248211  0.341882  1
  Si  Si18  1  0.750000  0.749075  0.158555  1
  Si  Si19  1  0.750000  0.751767  0.657860  1
  Si  Si20  1  0.250000  0.194594  0.546221  1
  Si  Si21  1  0.250000  0.306069  0.046506  1
  Si  Si22  1  0.750000  0.804932  0.454087  1
  Si  Si23  1  0.750000  0.693806  0.953991  1
  Os  Os24  1  0.250000  0.390950  0.676316  1
  Os  Os25  1  0.250000  0.108658  0.175699  1
  Os  Os26  1  0.750000  0.609401  0.323267  1
  Os  Os27  1  0.750000  0.890328  0.823969  1
