# generated using pymatgen
data_Zn3Rh2Au
_symmetry_space_group_name_H-M   'P 1'
_cell_length_a   4.27573567
_cell_length_b   3.18479000
_cell_length_c   6.78686201
_cell_angle_alpha   90.00000000
_cell_angle_beta   108.69024888
_cell_angle_gamma   90.00000000
_symmetry_Int_Tables_number   1
_chemical_formula_structural   Zn3Rh2Au
_chemical_formula_sum   'Zn3 Rh2 Au1'
_cell_volume   87.54514800
_cell_formula_units_Z   1
loop_
 _symmetry_equiv_pos_site_id
 _symmetry_equiv_pos_as_xyz
  1  'x, y, z'
loop_
 _atom_site_type_symbol
 _atom_site_label
 _atom_site_symmetry_multiplicity
 _atom_site_fract_x
 _atom_site_fract_y
 _atom_site_fract_z
 _atom_site_occupancy
  Zn  Zn0  1  0.000000  0.000000  0.000000  1
  Zn  Zn1  1  0.680359  0.000000  0.353675  1
  Zn  Zn2  1  0.319641  0.000000  0.646325  1
  Rh  Rh3  1  0.163761  0.500000  0.321692  1
  Rh  Rh4  1  0.836241  0.500000  0.678309  1
  Au  Au5  1  0.500000  0.500000  0.000000  1
