# generated using pymatgen
data_NdY15Cd4Ni3Os
_symmetry_space_group_name_H-M   'P 1'
_cell_length_a   9.66716874
_cell_length_b   9.66716880
_cell_length_c   9.66716943
_cell_angle_alpha   59.62019615
_cell_angle_beta   59.62018975
_cell_angle_gamma   59.62019842
_symmetry_Int_Tables_number   1
_chemical_formula_structural   NdY15Cd4Ni3Os
_chemical_formula_sum   'Nd1 Y15 Cd4 Ni3 Os1'
_cell_volume   633.31250683
_cell_formula_units_Z   1
loop_
 _symmetry_equiv_pos_site_id
 _symmetry_equiv_pos_as_xyz
  1  'x, y, z'
loop_
 _atom_site_type_symbol
 _atom_site_label
 _atom_site_symmetry_multiplicity
 _atom_site_fract_x
 _atom_site_fract_y
 _atom_site_fract_z
 _atom_site_occupancy
  Nd  Nd0  1  0.597496  0.597496  0.597496  1
  Y  Y1  1  0.601093  0.601093  0.201275  1
  Y  Y2  1  0.601093  0.201275  0.601093  1
  Y  Y3  1  0.201275  0.601093  0.601093  1
  Y  Y4  1  0.062148  0.437788  0.437788  1
  Y  Y5  1  0.437533  0.061305  0.061305  1
  Y  Y6  1  0.437788  0.062148  0.437788  1
  Y  Y7  1  0.061305  0.437533  0.061305  1
  Y  Y8  1  0.437788  0.437788  0.062148  1
  Y  Y9  1  0.061305  0.061305  0.437533  1
  Y  Y10  1  0.186002  0.815894  0.815894  1
  Y  Y11  1  0.807779  0.188939  0.188939  1
  Y  Y12  1  0.815894  0.186002  0.815894  1
  Y  Y13  1  0.188939  0.807779  0.188939  1
  Y  Y14  1  0.815894  0.815894  0.186002  1
  Y  Y15  1  0.188939  0.188939  0.807779  1
  Cd  Cd16  1  0.830256  0.830256  0.830256  1
  Cd  Cd17  1  0.831193  0.831193  0.505533  1
  Cd  Cd18  1  0.831193  0.505533  0.831193  1
  Cd  Cd19  1  0.505533  0.831193  0.831193  1
  Ni  Ni20  1  0.390148  0.390148  0.825764  1
  Ni  Ni21  1  0.390148  0.825764  0.390148  1
  Ni  Ni22  1  0.825764  0.390148  0.390148  1
  Os  Os23  1  0.393493  0.393493  0.393493  1
