# generated using pymatgen
data_ScCo4As2PRu
_symmetry_space_group_name_H-M   'P 1'
_cell_length_a   3.71218100
_cell_length_b   10.55851600
_cell_length_c   11.98192400
_cell_angle_alpha   90.00000000
_cell_angle_beta   90.00000000
_cell_angle_gamma   90.00000000
_symmetry_Int_Tables_number   1
_chemical_formula_structural   ScCo4As2PRu
_chemical_formula_sum   'Sc4 Co16 As8 P4 Ru4'
_cell_volume   469.63297877
_cell_formula_units_Z   4
loop_
 _symmetry_equiv_pos_site_id
 _symmetry_equiv_pos_as_xyz
  1  'x, y, z'
loop_
 _atom_site_type_symbol
 _atom_site_label
 _atom_site_symmetry_multiplicity
 _atom_site_fract_x
 _atom_site_fract_y
 _atom_site_fract_z
 _atom_site_occupancy
  Sc  Sc0  1  0.250000  0.575216  0.696668  1
  Sc  Sc1  1  0.250000  0.924784  0.196668  1
  Sc  Sc2  1  0.750000  0.424784  0.303332  1
  Sc  Sc3  1  0.750000  0.075216  0.803332  1
  Co  Co4  1  0.250000  0.414688  0.487670  1
  Co  Co5  1  0.250000  0.085312  0.987670  1
  Co  Co6  1  0.750000  0.585312  0.512330  1
  Co  Co7  1  0.750000  0.914688  0.012330  1
  Co  Co8  1  0.250000  0.207359  0.170454  1
  Co  Co9  1  0.250000  0.292642  0.670454  1
  Co  Co10  1  0.750000  0.792642  0.829546  1
  Co  Co11  1  0.750000  0.707358  0.329546  1
  Co  Co12  1  0.250000  0.891422  0.708506  1
  Co  Co13  1  0.250000  0.608578  0.208506  1
  Co  Co14  1  0.750000  0.108578  0.291494  1
  Co  Co15  1  0.750000  0.391422  0.791494  1
  Co  Co16  1  0.250000  0.465480  0.928434  1
  Co  Co17  1  0.250000  0.034520  0.428434  1
  Co  Co18  1  0.750000  0.534520  0.071566  1
  Co  Co19  1  0.750000  0.965480  0.571566  1
  As  As20  1  0.250000  0.413799  0.116377  1
  As  As21  1  0.250000  0.086201  0.616377  1
  As  As22  1  0.750000  0.586201  0.883623  1
  As  As23  1  0.750000  0.913799  0.383623  1
  As  As24  1  0.250000  0.263720  0.862065  1
  As  As25  1  0.250000  0.236280  0.362065  1
  As  As26  1  0.750000  0.736280  0.137935  1
  As  As27  1  0.750000  0.763720  0.637935  1
  P  P28  1  0.250000  0.593562  0.391029  1
  P  P29  1  0.250000  0.906438  0.891029  1
  P  P30  1  0.750000  0.406438  0.608971  1
  P  P31  1  0.750000  0.093562  0.108971  1
  Ru  Ru32  1  0.250000  0.722910  0.993847  1
  Ru  Ru33  1  0.250000  0.777090  0.493847  1
  Ru  Ru34  1  0.750000  0.277090  0.006153  1
  Ru  Ru35  1  0.750000  0.222910  0.506153  1
