# generated using pymatgen
data_Eu(AuO2)2
_symmetry_space_group_name_H-M   'P 1'
_cell_length_a   6.82460781
_cell_length_b   6.82460825
_cell_length_c   6.82460787
_cell_angle_alpha   125.51690985
_cell_angle_beta   125.51692032
_cell_angle_gamma   80.68357882
_symmetry_Int_Tables_number   1
_chemical_formula_structural   Eu(AuO2)2
_chemical_formula_sum   'Eu2 Au4 O8'
_cell_volume   203.04991867
_cell_formula_units_Z   2
loop_
 _symmetry_equiv_pos_site_id
 _symmetry_equiv_pos_as_xyz
  1  'x, y, z'
loop_
 _atom_site_type_symbol
 _atom_site_label
 _atom_site_symmetry_multiplicity
 _atom_site_fract_x
 _atom_site_fract_y
 _atom_site_fract_z
 _atom_site_occupancy
  Eu  Eu0  1  0.750000  0.250000  0.500000  1
  Eu  Eu1  1  0.000000  0.000000  0.000000  1
  Au  Au2  1  0.375000  0.625000  0.250000  1
  Au  Au3  1  0.875000  0.625000  0.250000  1
  Au  Au4  1  0.375000  0.125000  0.750000  1
  Au  Au5  1  0.375000  0.625000  0.750000  1
  O  O6  1  0.593783  0.957417  0.950798  1
  O  O7  1  0.707417  0.256620  0.863634  1
  O  O8  1  0.392986  0.843783  0.136366  1
  O  O9  1  0.006620  0.642986  0.049202  1
  O  O10  1  0.156217  0.292583  0.549202  1
  O  O11  1  0.042583  0.993380  0.636366  1
  O  O12  1  0.743380  0.607014  0.450798  1
  O  O13  1  0.357014  0.406217  0.363634  1
