# generated using pymatgen
data_Ho3Er3Bi2(AuO5)4
_symmetry_space_group_name_H-M   'P 1'
_cell_length_a   8.51345857
_cell_length_b   8.51495817
_cell_length_c   5.69688478
_cell_angle_alpha   88.85533378
_cell_angle_beta   91.11846625
_cell_angle_gamma   89.93919639
_symmetry_Int_Tables_number   1
_chemical_formula_structural   Ho3Er3Bi2(AuO5)4
_chemical_formula_sum   'Ho3 Er3 Bi2 Au4 O20'
_cell_volume   412.81559572
_cell_formula_units_Z   1
loop_
 _symmetry_equiv_pos_site_id
 _symmetry_equiv_pos_as_xyz
  1  'x, y, z'
loop_
 _atom_site_type_symbol
 _atom_site_label
 _atom_site_symmetry_multiplicity
 _atom_site_fract_x
 _atom_site_fract_y
 _atom_site_fract_z
 _atom_site_occupancy
  Ho  Ho0  1  0.651774  0.651863  0.750077  1
  Ho  Ho1  1  0.847864  0.848290  0.250283  1
  Ho  Ho2  1  0.145689  0.843708  0.752569  1
  Er  Er3  1  0.354873  0.656260  0.247441  1
  Er  Er4  1  0.843418  0.145785  0.747583  1
  Er  Er5  1  0.656255  0.354523  0.252667  1
  Bi  Bi6  1  0.359164  0.358959  0.749800  1
  Bi  Bi7  1  0.140656  0.141141  0.249814  1
  Au  Au8  1  0.496459  0.999867  0.409548  1
  Au  Au9  1  0.500752  0.003473  0.909998  1
  Au  Au10  1  0.999361  0.496566  0.090336  1
  Au  Au11  1  0.003581  0.500181  0.590105  1
  O  O12  1  0.106613  0.288718  0.599073  1
  O  O13  1  0.907889  0.279538  0.107786  1
  O  O14  1  0.907692  0.716985  0.608795  1
  O  O15  1  0.717701  0.908310  0.890552  1
  O  O16  1  0.221162  0.590703  0.608076  1
  O  O17  1  0.405113  0.787630  0.896299  1
  O  O18  1  0.393306  0.211213  0.400983  1
  O  O19  1  0.782403  0.591999  0.109334  1
  O  O20  1  0.279348  0.908549  0.390231  1
  O  O21  1  0.591589  0.220753  0.891696  1
  O  O22  1  0.494314  0.499696  0.000028  1
  O  O23  1  0.500471  0.494442  0.500172  1
  O  O24  1  0.788132  0.403537  0.604013  1
  O  O25  1  0.096401  0.711771  0.105692  1
  O  O26  1  0.289168  0.106599  0.901212  1
  O  O27  1  0.591845  0.782793  0.390930  1
  O  O28  1  0.210695  0.393134  0.098723  1
  O  O29  1  0.004990  0.000415  0.000587  1
  O  O30  1  0.999453  0.005981  0.499469  1
  O  O31  1  0.711867  0.096618  0.396128  1
