# generated using pymatgen
data_HoEr11In2Fe2Os
_symmetry_space_group_name_H-M   'P 1'
_cell_length_a   8.30770649
_cell_length_b   8.30771250
_cell_length_c   8.30828304
_cell_angle_alpha   108.68836167
_cell_angle_beta   108.68854095
_cell_angle_gamma   111.04585442
_symmetry_Int_Tables_number   1
_chemical_formula_structural   HoEr11In2Fe2Os
_chemical_formula_sum   'Ho1 Er11 In2 Fe2 Os1'
_cell_volume   441.18243458
_cell_formula_units_Z   1
loop_
 _symmetry_equiv_pos_site_id
 _symmetry_equiv_pos_as_xyz
  1  'x, y, z'
loop_
 _atom_site_type_symbol
 _atom_site_label
 _atom_site_symmetry_multiplicity
 _atom_site_fract_x
 _atom_site_fract_y
 _atom_site_fract_z
 _atom_site_occupancy
  Ho  Ho0  1  0.307647  0.307656  0.615304  1
  Er  Er1  1  0.692147  0.692156  0.384233  1
  Er  Er2  1  0.307905  0.692277  0.000117  1
  Er  Er3  1  0.692288  0.307905  0.000117  1
  Er  Er4  1  0.430092  0.192091  0.237812  1
  Er  Er5  1  0.570078  0.808075  0.762183  1
  Er  Er6  1  0.954039  0.192084  0.762139  1
  Er  Er7  1  0.192095  0.954047  0.762140  1
  Er  Er8  1  0.045675  0.807708  0.237775  1
  Er  Er9  1  0.807695  0.045662  0.237756  1
  Er  Er10  1  0.192086  0.430096  0.237821  1
  Er  Er11  1  0.808069  0.570076  0.762181  1
  In  In12  1  0.500004  0.999934  0.499966  1
  In  In13  1  0.999968  0.500010  0.499963  1
  Fe  Fe14  1  0.385837  0.385837  0.000232  1
  Fe  Fe15  1  0.614370  0.614376  0.000246  1
  Os  Os16  1  0.000004  0.000009  0.000013  1
