# generated using pymatgen
data_La4HoTl2InBr
_symmetry_space_group_name_H-M   'P 1'
_cell_length_a   9.70006205
_cell_length_b   9.70006267
_cell_length_c   6.90849600
_cell_angle_alpha   90.00212812
_cell_angle_beta   90.00212598
_cell_angle_gamma   119.92550308
_symmetry_Int_Tables_number   1
_chemical_formula_structural   La4HoTl2InBr
_chemical_formula_sum   'La8 Ho2 Tl4 In2 Br2'
_cell_volume   563.36351956
_cell_formula_units_Z   2
loop_
 _symmetry_equiv_pos_site_id
 _symmetry_equiv_pos_as_xyz
  1  'x, y, z'
loop_
 _atom_site_type_symbol
 _atom_site_label
 _atom_site_symmetry_multiplicity
 _atom_site_fract_x
 _atom_site_fract_y
 _atom_site_fract_z
 _atom_site_occupancy
  La  La0  1  0.732405  0.732405  0.253126  1
  La  La1  1  0.999736  0.732486  0.746683  1
  La  La2  1  0.732486  0.999736  0.746683  1
  La  La3  1  0.267595  0.267595  0.746874  1
  La  La4  1  0.000264  0.267514  0.253317  1
  La  La5  1  0.267514  0.000264  0.253317  1
  La  La6  1  0.333570  0.666430  0.000000  1
  La  La7  1  0.666430  0.333570  0.000000  1
  Ho  Ho8  1  0.333701  0.666299  0.500000  1
  Ho  Ho9  1  0.666299  0.333701  0.500000  1
  Tl  Tl10  1  0.392630  0.000049  0.744762  1
  Tl  Tl11  1  0.999951  0.607370  0.255238  1
  Tl  Tl12  1  0.607370  0.999951  0.255238  1
  Tl  Tl13  1  0.000049  0.392630  0.744762  1
  In  In14  1  0.392820  0.392820  0.255565  1
  In  In15  1  0.607180  0.607180  0.744435  1
  Br  Br16  1  0.000000  0.000000  0.500000  1
  Br  Br17  1  0.000000  0.000000  0.000000  1
