# generated using pymatgen
data_Tb7TcSn23Ir5
_symmetry_space_group_name_H-M   'P 1'
_cell_length_a   9.89241380
_cell_length_b   9.89241425
_cell_length_c   10.12203836
_cell_angle_alpha   90.08080379
_cell_angle_beta   89.91919256
_cell_angle_gamma   119.96974356
_symmetry_Int_Tables_number   1
_chemical_formula_structural   Tb7TcSn23Ir5
_chemical_formula_sum   'Tb7 Tc1 Sn23 Ir5'
_cell_volume   858.09413205
_cell_formula_units_Z   1
loop_
 _symmetry_equiv_pos_site_id
 _symmetry_equiv_pos_as_xyz
  1  'x, y, z'
loop_
 _atom_site_type_symbol
 _atom_site_label
 _atom_site_symmetry_multiplicity
 _atom_site_fract_x
 _atom_site_fract_y
 _atom_site_fract_z
 _atom_site_occupancy
  Tb  Tb0  1  0.998147  0.001853  0.002100  1
  Tb  Tb1  1  0.480429  0.519571  0.307247  1
  Tb  Tb2  1  0.519920  0.480080  0.693143  1
  Tb  Tb3  1  0.480918  0.960752  0.306686  1
  Tb  Tb4  1  0.520100  0.040549  0.693733  1
  Tb  Tb5  1  0.039248  0.519082  0.306686  1
  Tb  Tb6  1  0.959451  0.479900  0.693733  1
  Tc  Tc7  1  0.831921  0.168079  0.199802  1
  Sn  Sn8  1  0.352326  0.999762  0.999814  1
  Sn  Sn9  1  0.651331  0.001537  0.000965  1
  Sn  Sn10  1  0.998463  0.348669  0.000965  1
  Sn  Sn11  1  0.000238  0.647674  0.999814  1
  Sn  Sn12  1  0.647715  0.647719  0.000011  1
  Sn  Sn13  1  0.352281  0.352285  0.000011  1
  Sn  Sn14  1  0.333233  0.666767  0.823879  1
  Sn  Sn15  1  0.667644  0.332356  0.177741  1
  Sn  Sn16  1  0.999910  0.000090  0.501734  1
  Sn  Sn17  1  0.778450  0.221550  0.455506  1
  Sn  Sn18  1  0.221572  0.778428  0.544036  1
  Sn  Sn19  1  0.778098  0.556401  0.455765  1
  Sn  Sn20  1  0.222025  0.443172  0.543816  1
  Sn  Sn21  1  0.443599  0.221902  0.455765  1
  Sn  Sn22  1  0.556828  0.777975  0.543816  1
  Sn  Sn23  1  0.333038  0.666962  0.119183  1
  Sn  Sn24  1  0.666580  0.333420  0.879799  1
  Sn  Sn25  1  0.117817  0.882183  0.283220  1
  Sn  Sn26  1  0.881536  0.118464  0.716358  1
  Sn  Sn27  1  0.116970  0.235358  0.280128  1
  Sn  Sn28  1  0.881649  0.763597  0.716544  1
  Sn  Sn29  1  0.764642  0.883030  0.280128  1
  Sn  Sn30  1  0.236403  0.118351  0.716544  1
  Ir  Ir31  1  0.168820  0.831180  0.801052  1
  Ir  Ir32  1  0.830683  0.662703  0.198808  1
  Ir  Ir33  1  0.169266  0.338548  0.801331  1
  Ir  Ir34  1  0.337297  0.169317  0.198808  1
  Ir  Ir35  1  0.661452  0.830734  0.801331  1
