# generated using pymatgen
data_Ba14ErBi11
_symmetry_space_group_name_H-M   'P 1'
_cell_length_a   18.23619184
_cell_length_b   18.23619249
_cell_length_c   18.23619200
_cell_angle_alpha   117.45216529
_cell_angle_beta   117.45216635
_cell_angle_gamma   94.47270462
_symmetry_Int_Tables_number   1
_chemical_formula_structural   Ba14ErBi11
_chemical_formula_sum   'Ba56 Er4 Bi44'
_cell_volume   4438.83548120
_cell_formula_units_Z   4
loop_
 _symmetry_equiv_pos_site_id
 _symmetry_equiv_pos_as_xyz
  1  'x, y, z'
loop_
 _atom_site_type_symbol
 _atom_site_label
 _atom_site_symmetry_multiplicity
 _atom_site_fract_x
 _atom_site_fract_y
 _atom_site_fract_z
 _atom_site_occupancy
  Ba  Ba0  1  0.591145  0.869729  0.366949  1
  Ba  Ba1  1  0.122733  0.963713  0.522857  1
  Ba  Ba2  1  0.769653  0.375000  0.894653  1
  Ba  Ba3  1  0.125000  0.730347  0.105347  1
  Ba  Ba4  1  0.849876  0.190857  0.977143  1
  Ba  Ba5  1  0.127267  0.150124  0.340981  1
  Ba  Ba6  1  0.354617  0.747900  0.349603  1
  Ba  Ba7  1  0.900124  0.059143  0.522857  1
  Ba  Ba8  1  0.940857  0.463713  0.840981  1
  Ba  Ba9  1  0.036287  0.559143  0.159019  1
  Ba  Ba10  1  0.158855  0.380271  0.133051  1
  Ba  Ba11  1  0.002780  0.369729  0.278583  1
  Ba  Ba12  1  0.440857  0.599876  0.477143  1
  Ba  Ba13  1  0.309143  0.650124  0.022857  1
  Ba  Ba14  1  0.619729  0.752780  0.778583  1
  Ba  Ba15  1  0.247220  0.025804  0.866949  1
  Ba  Ba16  1  0.125000  0.230347  0.605347  1
  Ba  Ba17  1  0.494986  0.101704  0.349603  1
  Ba  Ba18  1  0.398296  0.005014  0.650397  1
  Ba  Ba19  1  0.351704  0.244986  0.849603  1
  Ba  Ba20  1  0.622733  0.099876  0.159019  1
  Ba  Ba21  1  0.480347  0.875000  0.105347  1
  Ba  Ba22  1  0.275804  0.997220  0.366949  1
  Ba  Ba23  1  0.755014  0.604617  0.106718  1
  Ba  Ba24  1  0.625000  0.019653  0.894653  1
  Ba  Ba25  1  0.497900  0.648296  0.893282  1
  Ba  Ba26  1  0.974196  0.841145  0.221417  1
  Ba  Ba27  1  0.994986  0.645383  0.393282  1
  Ba  Ba28  1  0.255014  0.148296  0.150397  1
  Ba  Ba29  1  0.400124  0.877267  0.840981  1
  Ba  Ba30  1  0.625000  0.519653  0.394653  1
  Ba  Ba31  1  0.997900  0.104617  0.849603  1
  Ba  Ba32  1  0.658855  0.525804  0.778583  1
  Ba  Ba33  1  0.630271  0.908855  0.633051  1
  Ba  Ba34  1  0.775804  0.408855  0.278583  1
  Ba  Ba35  1  0.213713  0.872733  0.022857  1
  Ba  Ba36  1  0.898296  0.247900  0.393282  1
  Ba  Ba37  1  0.809143  0.786287  0.659019  1
  Ba  Ba38  1  0.854617  0.505014  0.606718  1
  Ba  Ba39  1  0.747220  0.880271  0.221417  1
  Ba  Ba40  1  0.627267  0.286287  0.977143  1
  Ba  Ba41  1  0.752100  0.145383  0.650397  1
  Ba  Ba42  1  0.130271  0.497220  0.721417  1
  Ba  Ba43  1  0.980347  0.875000  0.605347  1
  Ba  Ba44  1  0.091145  0.724196  0.721417  1
  Ba  Ba45  1  0.119729  0.341145  0.866949  1
  Ba  Ba46  1  0.252100  0.601704  0.606718  1
  Ba  Ba47  1  0.395383  0.502100  0.150397  1
  Ba  Ba48  1  0.349876  0.372733  0.659019  1
  Ba  Ba49  1  0.851704  0.002100  0.106718  1
  Ba  Ba50  1  0.474196  0.252780  0.133051  1
  Ba  Ba51  1  0.269653  0.375000  0.394653  1
  Ba  Ba52  1  0.502780  0.224196  0.633051  1
  Ba  Ba53  1  0.536287  0.377267  0.477143  1
  Ba  Ba54  1  0.895383  0.744986  0.893282  1
  Ba  Ba55  1  0.713713  0.690857  0.340981  1
  Er  Er56  1  0.000000  0.000000  0.000000  1
  Er  Er57  1  0.250000  0.750000  0.500000  1
  Er  Er58  1  0.750000  0.250000  0.500000  1
  Er  Er59  1  0.500000  0.500000  0.000000  1
  Bi  Bi60  1  0.554149  0.697555  0.408469  1
  Bi  Bi61  1  0.130625  0.369375  0.500000  1
  Bi  Bi62  1  0.449939  0.814511  0.641602  1
  Bi  Bi63  1  0.058337  0.922910  0.858398  1
  Bi  Bi64  1  0.300061  0.435489  0.858398  1
  Bi  Bi65  1  0.854320  0.445851  0.143405  1
  Bi  Bi66  1  0.369375  0.869375  0.238750  1
  Bi  Bi67  1  0.250000  0.250000  0.000000  1
  Bi  Bi68  1  0.077090  0.935489  0.135428  1
  Bi  Bi69  1  0.960915  0.052445  0.356595  1
  Bi  Bi70  1  0.302445  0.710915  0.856595  1
  Bi  Bi71  1  0.630625  0.130625  0.761250  1
  Bi  Bi72  1  0.789085  0.197555  0.143405  1
  Bi  Bi73  1  0.880625  0.619375  0.000000  1
  Bi  Bi74  1  0.447555  0.539085  0.643405  1
  Bi  Bi75  1  0.395680  0.039085  0.091531  1
  Bi  Bi76  1  0.289085  0.145680  0.591531  1
  Bi  Bi77  1  0.558337  0.699939  0.135428  1
  Bi  Bi78  1  0.949939  0.308337  0.635428  1
  Bi  Bi79  1  0.691663  0.327090  0.641602  1
  Bi  Bi80  1  0.500000  0.000000  0.500000  1
  Bi  Bi81  1  0.619375  0.880625  0.000000  1
  Bi  Bi82  1  0.460915  0.104320  0.908469  1
  Bi  Bi83  1  0.947555  0.304149  0.908469  1
  Bi  Bi84  1  0.380625  0.380625  0.261250  1
  Bi  Bi85  1  0.185489  0.827090  0.635428  1
  Bi  Bi86  1  0.195851  0.552445  0.091531  1
  Bi  Bi87  1  0.802445  0.945851  0.591531  1
  Bi  Bi88  1  0.685489  0.050061  0.358398  1
  Bi  Bi89  1  0.695851  0.604320  0.643405  1
  Bi  Bi90  1  0.577090  0.441663  0.141602  1
  Bi  Bi91  1  0.895680  0.804149  0.356595  1
  Bi  Bi92  1  0.054149  0.645680  0.856595  1
  Bi  Bi93  1  0.672910  0.314511  0.364572  1
  Bi  Bi94  1  0.800061  0.941663  0.864572  1
  Bi  Bi95  1  0.064511  0.199939  0.141602  1
  Bi  Bi96  1  0.564511  0.422910  0.864572  1
  Bi  Bi97  1  0.172910  0.808337  0.358398  1
  Bi  Bi98  1  0.869375  0.630625  0.500000  1
  Bi  Bi99  1  0.750000  0.750000  0.000000  1
  Bi  Bi100  1  0.119375  0.119375  0.738750  1
  Bi  Bi101  1  0.191663  0.550061  0.364572  1
  Bi  Bi102  1  0.000000  0.500000  0.500000  1
  Bi  Bi103  1  0.354320  0.210915  0.408469  1
