# generated using pymatgen
data_Li4Tb4Pt3Rh
_symmetry_space_group_name_H-M   'P 1'
_cell_length_a   4.01322100
_cell_length_b   7.04416430
_cell_length_c   8.40667341
_cell_angle_alpha   90.03633401
_cell_angle_beta   90.00000000
_cell_angle_gamma   90.00000000
_symmetry_Int_Tables_number   1
_chemical_formula_structural   Li4Tb4Pt3Rh
_chemical_formula_sum   'Li4 Tb4 Pt3 Rh1'
_cell_volume   237.65482837
_cell_formula_units_Z   1
loop_
 _symmetry_equiv_pos_site_id
 _symmetry_equiv_pos_as_xyz
  1  'x, y, z'
loop_
 _atom_site_type_symbol
 _atom_site_label
 _atom_site_symmetry_multiplicity
 _atom_site_fract_x
 _atom_site_fract_y
 _atom_site_fract_z
 _atom_site_occupancy
  Li  Li0  1  0.250000  0.126085  0.944328  1
  Li  Li1  1  0.750000  0.874684  0.055792  1
  Li  Li2  1  0.250000  0.625308  0.555948  1
  Li  Li3  1  0.750000  0.375698  0.442258  1
  Tb  Tb4  1  0.250000  0.550303  0.175298  1
  Tb  Tb5  1  0.750000  0.458221  0.821356  1
  Tb  Tb6  1  0.250000  0.047589  0.321428  1
  Tb  Tb7  1  0.750000  0.949059  0.683270  1
  Pt  Pt8  1  0.750000  0.754819  0.373172  1
  Pt  Pt9  1  0.250000  0.244332  0.626828  1
  Pt  Pt10  1  0.750000  0.253761  0.127327  1
  Rh  Rh11  1  0.250000  0.740140  0.872993  1
