# generated using pymatgen
data_La8Dy9Lu3Ge16
_symmetry_space_group_name_H-M   'P 1'
_cell_length_a   7.67297300
_cell_length_b   7.88688124
_cell_length_c   14.86707700
_cell_angle_alpha   90.00000000
_cell_angle_beta   90.00000000
_cell_angle_gamma   89.98572488
_symmetry_Int_Tables_number   1
_chemical_formula_structural   La8Dy9Lu3Ge16
_chemical_formula_sum   'La8 Dy9 Lu3 Ge16'
_cell_volume   899.69342951
_cell_formula_units_Z   1
loop_
 _symmetry_equiv_pos_site_id
 _symmetry_equiv_pos_as_xyz
  1  'x, y, z'
loop_
 _atom_site_type_symbol
 _atom_site_label
 _atom_site_symmetry_multiplicity
 _atom_site_fract_x
 _atom_site_fract_y
 _atom_site_fract_z
 _atom_site_occupancy
  La  La0  1  0.503469  0.321064  0.903506  1
  La  La1  1  0.002937  0.177543  0.596466  1
  La  La2  1  0.496139  0.678155  0.402770  1
  La  La3  1  0.996639  0.822376  0.097208  1
  La  La4  1  0.496139  0.678155  0.097230  1
  La  La5  1  0.996639  0.822376  0.402792  1
  La  La6  1  0.503469  0.321064  0.596494  1
  La  La7  1  0.002937  0.177543  0.903534  1
  Dy  Dy8  1  0.349413  0.834406  0.878577  1
  Dy  Dy9  1  0.848487  0.666074  0.621362  1
  Dy  Dy10  1  0.651361  0.165457  0.378171  1
  Dy  Dy11  1  0.151597  0.334750  0.122160  1
  Dy  Dy12  1  0.651361  0.165457  0.121829  1
  Dy  Dy13  1  0.151597  0.334750  0.377840  1
  Dy  Dy14  1  0.349413  0.834406  0.621423  1
  Dy  Dy15  1  0.848487  0.666074  0.878638  1
  Dy  Dy16  1  0.186779  0.497741  0.750000  1
  Lu  Lu17  1  0.686820  0.000749  0.750000  1
  Lu  Lu18  1  0.813513  0.501306  0.250000  1
  Lu  Lu19  1  0.313629  0.998680  0.250000  1
  Ge  Ge20  1  0.313950  0.040867  0.044129  1
  Ge  Ge21  1  0.814122  0.459554  0.455748  1
  Ge  Ge22  1  0.685633  0.959832  0.543969  1
  Ge  Ge23  1  0.185854  0.541121  0.957152  1
  Ge  Ge24  1  0.685633  0.959832  0.956031  1
  Ge  Ge25  1  0.185854  0.541121  0.542848  1
  Ge  Ge26  1  0.313950  0.040867  0.455871  1
  Ge  Ge27  1  0.814122  0.459554  0.044252  1
  Ge  Ge28  1  0.552024  0.626140  0.750000  1
  Ge  Ge29  1  0.049418  0.875403  0.750000  1
  Ge  Ge30  1  0.451003  0.373978  0.250000  1
  Ge  Ge31  1  0.950939  0.125607  0.250000  1
  Ge  Ge32  1  0.310063  0.132580  0.750000  1
  Ge  Ge33  1  0.809539  0.364674  0.750000  1
  Ge  Ge34  1  0.688796  0.864104  0.250000  1
  Ge  Ge35  1  0.188274  0.636638  0.250000  1
