# generated using pymatgen
data_Cs8Na8Si15Ge
_symmetry_space_group_name_H-M   'P 1'
_cell_length_a   9.63994129
_cell_length_b   8.46853152
_cell_length_c   13.42421894
_cell_angle_alpha   68.61062884
_cell_angle_beta   89.95312648
_cell_angle_gamma   89.95068883
_symmetry_Int_Tables_number   1
_chemical_formula_structural   Cs8Na8Si15Ge
_chemical_formula_sum   'Cs8 Na8 Si15 Ge1'
_cell_volume   1020.41910393
_cell_formula_units_Z   1
loop_
 _symmetry_equiv_pos_site_id
 _symmetry_equiv_pos_as_xyz
  1  'x, y, z'
loop_
 _atom_site_type_symbol
 _atom_site_label
 _atom_site_symmetry_multiplicity
 _atom_site_fract_x
 _atom_site_fract_y
 _atom_site_fract_z
 _atom_site_occupancy
  Cs  Cs0  1  0.980287  0.492892  0.277603  1
  Cs  Cs1  1  0.480714  0.508268  0.220849  1
  Cs  Cs2  1  0.019108  0.509645  0.721717  1
  Cs  Cs3  1  0.519054  0.491519  0.779321  1
  Cs  Cs4  1  0.203911  0.651637  0.966547  1
  Cs  Cs5  1  0.702487  0.348499  0.533444  1
  Cs  Cs6  1  0.796336  0.348263  0.033387  1
  Cs  Cs7  1  0.297418  0.652810  0.466457  1
  Na  Na8  1  0.100856  0.054794  0.394709  1
  Na  Na9  1  0.537465  0.948265  0.684738  1
  Na  Na10  1  0.036440  0.050314  0.816231  1
  Na  Na11  1  0.399878  0.055160  0.895117  1
  Na  Na12  1  0.899263  0.942362  0.605656  1
  Na  Na13  1  0.600291  0.944525  0.105173  1
  Na  Na14  1  0.463948  0.050881  0.315609  1
  Na  Na15  1  0.963759  0.949364  0.184201  1
  Si  Si16  1  0.604701  0.768951  0.939808  1
  Si  Si17  1  0.168342  0.185225  0.994963  1
  Si  Si18  1  0.333830  0.182477  0.495437  1
  Si  Si19  1  0.668194  0.814862  0.504947  1
  Si  Si20  1  0.690374  0.786889  0.334131  1
  Si  Si21  1  0.190389  0.213254  0.165778  1
  Si  Si22  1  0.311930  0.211325  0.665947  1
  Si  Si23  1  0.809235  0.786827  0.834250  1
  Si  Si24  1  0.777113  0.045872  0.357008  1
  Si  Si25  1  0.395264  0.230751  0.060552  1
  Si  Si26  1  0.895210  0.768625  0.439407  1
  Si  Si27  1  0.723104  0.046078  0.856948  1
  Si  Si28  1  0.224897  0.952741  0.643334  1
  Si  Si29  1  0.276794  0.953822  0.143108  1
  Si  Si30  1  0.831665  0.814903  0.005017  1
  Ge  Ge31  1  0.097743  0.238201  0.558609  1
