# generated using pymatgen
data_Sm12Si3PBr12
_symmetry_space_group_name_H-M   'P 1'
_cell_length_a   10.25800759
_cell_length_b   10.25800842
_cell_length_c   10.25800786
_cell_angle_alpha   109.52089117
_cell_angle_beta   109.52089101
_cell_angle_gamma   109.52088300
_symmetry_Int_Tables_number   1
_chemical_formula_structural   Sm12Si3PBr12
_chemical_formula_sum   'Sm12 Si3 P1 Br12'
_cell_volume   829.40376416
_cell_formula_units_Z   1
loop_
 _symmetry_equiv_pos_site_id
 _symmetry_equiv_pos_as_xyz
  1  'x, y, z'
loop_
 _atom_site_type_symbol
 _atom_site_label
 _atom_site_symmetry_multiplicity
 _atom_site_fract_x
 _atom_site_fract_y
 _atom_site_fract_z
 _atom_site_occupancy
  Sm  Sm0  1  0.471105  0.483910  0.236904  1
  Sm  Sm1  1  0.750000  0.237720  0.262280  1
  Sm  Sm2  1  0.750000  0.012405  0.487595  1
  Sm  Sm3  1  0.236904  0.471105  0.483910  1
  Sm  Sm4  1  0.262280  0.750000  0.237720  1
  Sm  Sm5  1  0.028895  0.263096  0.016090  1
  Sm  Sm6  1  0.016090  0.028895  0.263096  1
  Sm  Sm7  1  0.487595  0.750000  0.012405  1
  Sm  Sm8  1  0.483910  0.236904  0.471105  1
  Sm  Sm9  1  0.012405  0.487595  0.750000  1
  Sm  Sm10  1  0.263096  0.016090  0.028895  1
  Sm  Sm11  1  0.237720  0.262280  0.750000  1
  Si  Si12  1  0.499569  0.000431  0.250000  1
  Si  Si13  1  0.000431  0.250000  0.499569  1
  Si  Si14  1  0.250000  0.499569  0.000431  1
  P  P15  1  0.250000  0.250000  0.250000  1
  Br  Br16  1  0.250000  0.754956  0.745044  1
  Br  Br17  1  0.509239  0.504455  0.753782  1
  Br  Br18  1  0.990760  0.746218  0.995545  1
  Br  Br19  1  0.745044  0.250000  0.754956  1
  Br  Br20  1  0.995545  0.990760  0.746218  1
  Br  Br21  1  0.250000  0.995780  0.504220  1
  Br  Br22  1  0.753782  0.509239  0.504455  1
  Br  Br23  1  0.504220  0.250000  0.995780  1
  Br  Br24  1  0.754956  0.745044  0.250000  1
  Br  Br25  1  0.746218  0.995545  0.990761  1
  Br  Br26  1  0.995780  0.504220  0.250000  1
  Br  Br27  1  0.504455  0.753782  0.509239  1
