# generated using pymatgen
data_Ho4CdHg(PdAu)2
_symmetry_space_group_name_H-M   'P 1'
_cell_length_a   7.77712438
_cell_length_b   7.81712049
_cell_length_c   3.75049400
_cell_angle_alpha   90.00000000
_cell_angle_beta   90.00000000
_cell_angle_gamma   90.06511747
_symmetry_Int_Tables_number   1
_chemical_formula_structural   Ho4CdHg(PdAu)2
_chemical_formula_sum   'Ho4 Cd1 Hg1 Pd2 Au2'
_cell_volume   228.01007908
_cell_formula_units_Z   1
loop_
 _symmetry_equiv_pos_site_id
 _symmetry_equiv_pos_as_xyz
  1  'x, y, z'
loop_
 _atom_site_type_symbol
 _atom_site_label
 _atom_site_symmetry_multiplicity
 _atom_site_fract_x
 _atom_site_fract_y
 _atom_site_fract_z
 _atom_site_occupancy
  Ho  Ho0  1  0.320735  0.832699  0.500000  1
  Ho  Ho1  1  0.843471  0.689786  0.500000  1
  Ho  Ho2  1  0.160428  0.330575  0.500000  1
  Ho  Ho3  1  0.683238  0.147353  0.500000  1
  Cd  Cd4  1  0.497520  0.504594  0.000000  1
  Hg  Hg5  1  0.999461  0.995448  0.000000  1
  Pd  Pd6  1  0.135646  0.622223  0.000000  1
  Pd  Pd7  1  0.621311  0.860681  0.000000  1
  Au  Au8  1  0.378645  0.134114  0.000000  1
  Au  Au9  1  0.859544  0.382526  0.000000  1
