# generated using pymatgen
data_AcTh5Ir18
_symmetry_space_group_name_H-M   'P 1'
_cell_length_a   5.39436800
_cell_length_b   5.39436737
_cell_length_c   17.85532800
_cell_angle_alpha   90.00000000
_cell_angle_beta   90.00000000
_cell_angle_gamma   120.00000385
_symmetry_Int_Tables_number   1
_chemical_formula_structural   AcTh5Ir18
_chemical_formula_sum   'Ac1 Th5 Ir18'
_cell_volume   449.96583258
_cell_formula_units_Z   1
loop_
 _symmetry_equiv_pos_site_id
 _symmetry_equiv_pos_as_xyz
  1  'x, y, z'
loop_
 _atom_site_type_symbol
 _atom_site_label
 _atom_site_symmetry_multiplicity
 _atom_site_fract_x
 _atom_site_fract_y
 _atom_site_fract_z
 _atom_site_occupancy
  Ac  Ac0  1  0.333333  0.666667  0.539506  1
  Th  Th1  1  0.333333  0.666667  0.957219  1
  Th  Th2  1  0.666667  0.333333  0.042732  1
  Th  Th3  1  0.666667  0.333333  0.457725  1
  Th  Th4  1  0.333333  0.666667  0.747797  1
  Th  Th5  1  0.666667  0.333333  0.249986  1
  Ir  Ir6  1  0.166513  0.833487  0.370846  1
  Ir  Ir7  1  0.166513  0.333025  0.370846  1
  Ir  Ir8  1  0.666975  0.833487  0.370846  1
  Ir  Ir9  1  0.833384  0.166616  0.630163  1
  Ir  Ir10  1  0.833384  0.666766  0.630163  1
  Ir  Ir11  1  0.333234  0.166616  0.630163  1
  Ir  Ir12  1  0.832855  0.167145  0.873485  1
  Ir  Ir13  1  0.832855  0.665708  0.873485  1
  Ir  Ir14  1  0.334292  0.167145  0.873485  1
  Ir  Ir15  1  0.167103  0.832897  0.126765  1
  Ir  Ir16  1  0.167103  0.334207  0.126765  1
  Ir  Ir17  1  0.665793  0.832897  0.126765  1
  Ir  Ir18  1  0.333333  0.666667  0.249148  1
  Ir  Ir19  1  0.666667  0.333333  0.751316  1
  Ir  Ir20  1  0.000000  0.000000  0.248830  1
  Ir  Ir21  1  0.000000  0.000000  0.751892  1
  Ir  Ir22  1  0.000000  0.000000  0.499880  1
  Ir  Ir23  1  0.000000  0.000000  0.000192  1
