# generated using pymatgen
data_Th2Mo2C3
_symmetry_space_group_name_H-M   'P 1'
_cell_length_a   6.37074013
_cell_length_b   6.37073969
_cell_length_c   5.87950919
_cell_angle_alpha   66.20188858
_cell_angle_beta   66.20189130
_cell_angle_gamma   31.13251844
_symmetry_Int_Tables_number   1
_chemical_formula_structural   Th2Mo2C3
_chemical_formula_sum   'Th2 Mo2 C3'
_cell_volume   112.02976289
_cell_formula_units_Z   1
loop_
 _symmetry_equiv_pos_site_id
 _symmetry_equiv_pos_as_xyz
  1  'x, y, z'
loop_
 _atom_site_type_symbol
 _atom_site_label
 _atom_site_symmetry_multiplicity
 _atom_site_fract_x
 _atom_site_fract_y
 _atom_site_fract_z
 _atom_site_occupancy
  Th  Th0  1  0.394851  0.394851  0.812982  1
  Th  Th1  1  0.605149  0.605149  0.187018  1
  Mo  Mo2  1  0.158572  0.158572  0.669427  1
  Mo  Mo3  1  0.841428  0.841428  0.330573  1
  C  C4  1  0.000000  0.000000  0.000000  1
  C  C5  1  0.253694  0.253694  0.263098  1
  C  C6  1  0.746306  0.746306  0.736902  1
