# generated using pymatgen
data_La3Ho(MoO6)2
_symmetry_space_group_name_H-M   'P 1'
_cell_length_a   5.57333827
_cell_length_b   10.30726762
_cell_length_c   10.30562840
_cell_angle_alpha   68.74201173
_cell_angle_beta   75.11075931
_cell_angle_gamma   75.10456072
_symmetry_Int_Tables_number   1
_chemical_formula_structural   La3Ho(MoO6)2
_chemical_formula_sum   'La6 Ho2 Mo4 O24'
_cell_volume   524.30648529
_cell_formula_units_Z   2
loop_
 _symmetry_equiv_pos_site_id
 _symmetry_equiv_pos_as_xyz
  1  'x, y, z'
loop_
 _atom_site_type_symbol
 _atom_site_label
 _atom_site_symmetry_multiplicity
 _atom_site_fract_x
 _atom_site_fract_y
 _atom_site_fract_z
 _atom_site_occupancy
  La  La0  1  0.619610  0.786630  0.553009  1
  La  La1  1  0.119939  0.553058  0.786486  1
  La  La2  1  0.380141  0.213319  0.447060  1
  La  La3  1  0.880351  0.446986  0.213457  1
  La  La4  1  0.749753  0.862031  0.138074  1
  La  La5  1  0.250118  0.138073  0.861987  1
  Ho  Ho6  1  0.750034  0.399830  0.600175  1
  Ho  Ho7  1  0.249993  0.600065  0.399871  1
  Mo  Mo8  1  0.066785  0.005767  0.298442  1
  Mo  Mo9  1  0.433132  0.701709  0.994149  1
  Mo  Mo10  1  0.933166  0.994266  0.701629  1
  Mo  Mo11  1  0.566886  0.298301  0.005777  1
  O  O12  1  0.927593  0.568876  0.604596  1
  O  O13  1  0.572382  0.395384  0.431137  1
  O  O14  1  0.072384  0.431023  0.395440  1
  O  O15  1  0.427571  0.604602  0.568933  1
  O  O16  1  0.945982  0.803889  0.338186  1
  O  O17  1  0.554035  0.661878  0.196135  1
  O  O18  1  0.054047  0.196035  0.661821  1
  O  O19  1  0.446033  0.338143  0.803909  1
  O  O20  1  0.374848  0.890649  0.330508  1
  O  O21  1  0.125195  0.669599  0.109297  1
  O  O22  1  0.625121  0.109380  0.669575  1
  O  O23  1  0.874824  0.330359  0.890607  1
  O  O24  1  0.631178  0.288703  0.175127  1
  O  O25  1  0.868946  0.824985  0.711130  1
  O  O26  1  0.368749  0.711364  0.824802  1
  O  O27  1  0.131199  0.175081  0.288850  1
  O  O28  1  0.522606  0.119405  0.041764  1
  O  O29  1  0.977385  0.958251  0.880561  1
  O  O30  1  0.768214  0.021134  0.426520  1
  O  O31  1  0.022800  0.041739  0.119445  1
  O  O32  1  0.268215  0.426427  0.021114  1
  O  O33  1  0.231828  0.978856  0.573431  1
  O  O34  1  0.731658  0.573567  0.978796  1
  O  O35  1  0.477305  0.880636  0.958206  1
