# generated using pymatgen
data_Ta2BIrRu5
_symmetry_space_group_name_H-M   'P 1'
_cell_length_a   5.63755538
_cell_length_b   5.63458663
_cell_length_c   5.63458578
_cell_angle_alpha   60.03486485
_cell_angle_beta   59.98256032
_cell_angle_gamma   59.98256422
_symmetry_Int_Tables_number   1
_chemical_formula_structural   Ta2BIrRu5
_chemical_formula_sum   'Ta2 B1 Ir1 Ru5'
_cell_volume   126.56091404
_cell_formula_units_Z   1
loop_
 _symmetry_equiv_pos_site_id
 _symmetry_equiv_pos_as_xyz
  1  'x, y, z'
loop_
 _atom_site_type_symbol
 _atom_site_label
 _atom_site_symmetry_multiplicity
 _atom_site_fract_x
 _atom_site_fract_y
 _atom_site_fract_z
 _atom_site_occupancy
  Ta  Ta0  1  0.249993  0.250007  0.250007  1
  Ta  Ta1  1  0.749993  0.750007  0.750007  1
  B  B2  1  0.001745  0.998255  0.998255  1
  Ir  Ir3  1  0.741090  0.258910  0.258910  1
  Ru  Ru4  1  0.258088  0.741912  0.258793  1
  Ru  Ru5  1  0.741207  0.741912  0.258793  1
  Ru  Ru6  1  0.258088  0.258793  0.741912  1
  Ru  Ru7  1  0.741207  0.258793  0.741912  1
  Ru  Ru8  1  0.258590  0.741410  0.741410  1
