# generated using pymatgen
data_Y2VWO7
_symmetry_space_group_name_H-M   'P 1'
_cell_length_a   7.31148326
_cell_length_b   7.25221709
_cell_length_c   7.30390794
_cell_angle_alpha   60.31758090
_cell_angle_beta   60.68927868
_cell_angle_gamma   60.19827222
_symmetry_Int_Tables_number   1
_chemical_formula_structural   Y2VWO7
_chemical_formula_sum   'Y4 V2 W2 O14'
_cell_volume   276.32927609
_cell_formula_units_Z   2
loop_
 _symmetry_equiv_pos_site_id
 _symmetry_equiv_pos_as_xyz
  1  'x, y, z'
loop_
 _atom_site_type_symbol
 _atom_site_label
 _atom_site_symmetry_multiplicity
 _atom_site_fract_x
 _atom_site_fract_y
 _atom_site_fract_z
 _atom_site_occupancy
  Y  Y0  1  0.000000  0.500000  0.500000  1
  Y  Y1  1  0.500000  0.000000  0.500000  1
  Y  Y2  1  0.500000  0.500000  0.500000  1
  Y  Y3  1  0.500000  0.500000  0.000000  1
  V  V4  1  0.000000  0.500000  0.000000  1
  V  V5  1  0.000000  0.000000  0.000000  1
  W  W6  1  0.500000  0.000000  0.000000  1
  W  W7  1  0.000000  0.000000  0.500000  1
  O  O8  1  0.376047  0.373963  0.376105  1
  O  O9  1  0.623953  0.626037  0.623895  1
  O  O10  1  0.088554  0.671552  0.654974  1
  O  O11  1  0.344942  0.915245  0.911609  1
  O  O12  1  0.667646  0.082125  0.667546  1
  O  O13  1  0.093909  0.075323  0.663708  1
  O  O14  1  0.663520  0.666776  0.094206  1
  O  O15  1  0.089013  0.660850  0.088958  1
  O  O16  1  0.655058  0.084755  0.088391  1
  O  O17  1  0.336480  0.333224  0.905794  1
  O  O18  1  0.906091  0.924677  0.336292  1
  O  O19  1  0.911446  0.328448  0.345026  1
  O  O20  1  0.910987  0.339150  0.911042  1
  O  O21  1  0.332354  0.917875  0.332454  1
