# generated using pymatgen
data_Ba4Cu(RuO4)3
_symmetry_space_group_name_H-M   'P 1'
_cell_length_a   10.28774488
_cell_length_b   10.28774487
_cell_length_c   10.28774450
_cell_angle_alpha   33.16291524
_cell_angle_beta   33.16291515
_cell_angle_gamma   33.16290890
_symmetry_Int_Tables_number   1
_chemical_formula_structural   Ba4Cu(RuO4)3
_chemical_formula_sum   'Ba4 Cu1 Ru3 O12'
_cell_volume   290.02275506
_cell_formula_units_Z   1
loop_
 _symmetry_equiv_pos_site_id
 _symmetry_equiv_pos_as_xyz
  1  'x, y, z'
loop_
 _atom_site_type_symbol
 _atom_site_label
 _atom_site_symmetry_multiplicity
 _atom_site_fract_x
 _atom_site_fract_y
 _atom_site_fract_z
 _atom_site_occupancy
  Ba  Ba0  1  0.710042  0.710042  0.710042  1
  Ba  Ba1  1  0.289958  0.289958  0.289958  1
  Ba  Ba2  1  0.875683  0.875683  0.875683  1
  Ba  Ba3  1  0.124317  0.124317  0.124317  1
  Cu  Cu4  1  0.000000  0.000000  0.000000  1
  Ru  Ru5  1  0.410065  0.410065  0.410065  1
  Ru  Ru6  1  0.500000  0.500000  0.500000  1
  Ru  Ru7  1  0.589935  0.589935  0.589935  1
  O  O8  1  0.214523  0.214523  0.699417  1
  O  O9  1  0.699417  0.214523  0.214523  1
  O  O10  1  0.214523  0.699417  0.214523  1
  O  O11  1  0.785477  0.300583  0.785477  1
  O  O12  1  0.785477  0.785477  0.300583  1
  O  O13  1  0.300583  0.785477  0.785477  1
  O  O14  1  0.387776  0.387776  0.851617  1
  O  O15  1  0.851617  0.387776  0.387776  1
  O  O16  1  0.148383  0.612224  0.612224  1
  O  O17  1  0.612224  0.612224  0.148383  1
  O  O18  1  0.612224  0.148383  0.612224  1
  O  O19  1  0.387776  0.851617  0.387776  1
