# generated using pymatgen
data_Sc4Al4Ir3Au
_symmetry_space_group_name_H-M   'P 1'
_cell_length_a   4.30691500
_cell_length_b   6.42853768
_cell_length_c   7.66533513
_cell_angle_alpha   89.88521837
_cell_angle_beta   90.00000000
_cell_angle_gamma   90.00000000
_symmetry_Int_Tables_number   1
_chemical_formula_structural   Sc4Al4Ir3Au
_chemical_formula_sum   'Sc4 Al4 Ir3 Au1'
_cell_volume   212.23097537
_cell_formula_units_Z   1
loop_
 _symmetry_equiv_pos_site_id
 _symmetry_equiv_pos_as_xyz
  1  'x, y, z'
loop_
 _atom_site_type_symbol
 _atom_site_label
 _atom_site_symmetry_multiplicity
 _atom_site_fract_x
 _atom_site_fract_y
 _atom_site_fract_z
 _atom_site_occupancy
  Sc  Sc0  1  0.250000  0.021745  0.328088  1
  Sc  Sc1  1  0.250000  0.541250  0.181993  1
  Sc  Sc2  1  0.750000  0.972666  0.676332  1
  Sc  Sc3  1  0.750000  0.479861  0.810504  1
  Al  Al4  1  0.250000  0.141747  0.935150  1
  Al  Al5  1  0.250000  0.647680  0.559794  1
  Al  Al6  1  0.750000  0.840391  0.056650  1
  Al  Al7  1  0.750000  0.357735  0.446458  1
  Ir  Ir8  1  0.250000  0.259204  0.619177  1
  Ir  Ir9  1  0.250000  0.753733  0.883104  1
  Ir  Ir10  1  0.750000  0.745111  0.380294  1
  Au  Au11  1  0.750000  0.238879  0.122457  1
