# generated using pymatgen
data_NaY6BeI12
_symmetry_space_group_name_H-M   'P 1'
_cell_length_a   9.70204927
_cell_length_b   9.70204813
_cell_length_c   9.70204827
_cell_angle_alpha   106.77365166
_cell_angle_beta   106.77364684
_cell_angle_gamma   106.77363851
_symmetry_Int_Tables_number   1
_chemical_formula_structural   NaY6BeI12
_chemical_formula_sum   'Na1 Y6 Be1 I12'
_cell_volume   765.21216084
_cell_formula_units_Z   1
loop_
 _symmetry_equiv_pos_site_id
 _symmetry_equiv_pos_as_xyz
  1  'x, y, z'
loop_
 _atom_site_type_symbol
 _atom_site_label
 _atom_site_symmetry_multiplicity
 _atom_site_fract_x
 _atom_site_fract_y
 _atom_site_fract_z
 _atom_site_occupancy
  Na  Na0  1  0.500000  0.500000  0.500000  1
  Y  Y1  1  0.694962  0.970142  0.899370  1
  Y  Y2  1  0.970142  0.899370  0.694962  1
  Y  Y3  1  0.100630  0.305038  0.029858  1
  Y  Y4  1  0.305038  0.029858  0.100630  1
  Y  Y5  1  0.899370  0.694962  0.970142  1
  Y  Y6  1  0.029858  0.100630  0.305038  1
  Be  Be7  1  0.000000  0.000000  0.000000  1
  I  I8  1  0.074596  0.226288  0.680308  1
  I  I9  1  0.372923  0.140166  0.452248  1
  I  I10  1  0.627077  0.859834  0.547752  1
  I  I11  1  0.226288  0.680308  0.074596  1
  I  I12  1  0.773712  0.319692  0.925404  1
  I  I13  1  0.680308  0.074596  0.226288  1
  I  I14  1  0.547752  0.627077  0.859834  1
  I  I15  1  0.859834  0.547752  0.627077  1
  I  I16  1  0.925404  0.773712  0.319692  1
  I  I17  1  0.319692  0.925404  0.773712  1
  I  I18  1  0.452248  0.372923  0.140166  1
  I  I19  1  0.140166  0.452248  0.372923  1
