# generated using pymatgen
data_YbNb4O8
_symmetry_space_group_name_H-M   'P 1'
_cell_length_a   7.12904010
_cell_length_b   7.12903976
_cell_length_c   9.77115100
_cell_angle_alpha   86.94201794
_cell_angle_beta   86.94201654
_cell_angle_gamma   93.45656453
_symmetry_Int_Tables_number   1
_chemical_formula_structural   YbNb4O8
_chemical_formula_sum   'Yb3 Nb12 O24'
_cell_volume   494.19436837
_cell_formula_units_Z   3
loop_
 _symmetry_equiv_pos_site_id
 _symmetry_equiv_pos_as_xyz
  1  'x, y, z'
loop_
 _atom_site_type_symbol
 _atom_site_label
 _atom_site_symmetry_multiplicity
 _atom_site_fract_x
 _atom_site_fract_y
 _atom_site_fract_z
 _atom_site_occupancy
  Yb  Yb0  1  0.872955  0.872955  0.128600  1
  Yb  Yb1  1  0.143042  0.143042  0.857089  1
  Yb  Yb2  1  0.621623  0.621623  0.376887  1
  Nb  Nb3  1  0.151473  0.151473  0.351742  1
  Nb  Nb4  1  0.647221  0.647221  0.849664  1
  Nb  Nb5  1  0.846345  0.846345  0.652294  1
  Nb  Nb6  1  0.348424  0.348424  0.152837  1
  Nb  Nb7  1  0.851237  0.416625  0.636658  1
  Nb  Nb8  1  0.356778  0.918145  0.136339  1
  Nb  Nb9  1  0.918145  0.356778  0.136339  1
  Nb  Nb10  1  0.416625  0.851237  0.636658  1
  Nb  Nb11  1  0.082856  0.646498  0.860934  1
  Nb  Nb12  1  0.580759  0.143258  0.367633  1
  Nb  Nb13  1  0.143258  0.580759  0.367633  1
  Nb  Nb14  1  0.646498  0.082856  0.860934  1
  O  O15  1  0.343344  0.065327  0.482619  1
  O  O16  1  0.846102  0.582771  0.987777  1
  O  O17  1  0.857823  0.118810  0.711079  1
  O  O18  1  0.354846  0.619549  0.213637  1
  O  O19  1  0.915933  0.655839  0.511616  1
  O  O20  1  0.422081  0.156319  0.012963  1
  O  O21  1  0.881111  0.142793  0.285100  1
  O  O22  1  0.377876  0.657449  0.796514  1
  O  O23  1  0.655839  0.915933  0.511616  1
  O  O24  1  0.156319  0.422081  0.012963  1
  O  O25  1  0.142793  0.881111  0.285100  1
  O  O26  1  0.657449  0.377876  0.796514  1
  O  O27  1  0.065327  0.343344  0.482619  1
  O  O28  1  0.582771  0.846102  0.987777  1
  O  O29  1  0.118810  0.857823  0.711079  1
  O  O30  1  0.619549  0.354846  0.213637  1
  O  O31  1  0.337020  0.667642  0.495344  1
  O  O32  1  0.849127  0.156790  0.999273  1
  O  O33  1  0.667642  0.337020  0.495344  1
  O  O34  1  0.156790  0.849127  0.999273  1
  O  O35  1  0.076124  0.420422  0.751940  1
  O  O36  1  0.585891  0.912767  0.250515  1
  O  O37  1  0.912767  0.585891  0.250515  1
  O  O38  1  0.420422  0.076124  0.751940  1
