# generated using pymatgen
data_LiHoNi3Pt
_symmetry_space_group_name_H-M   'P 1'
_cell_length_a   5.06301524
_cell_length_b   5.06301493
_cell_length_c   5.06301353
_cell_angle_alpha   57.80182527
_cell_angle_beta   57.80182486
_cell_angle_gamma   57.80181972
_symmetry_Int_Tables_number   1
_chemical_formula_structural   LiHoNi3Pt
_chemical_formula_sum   'Li1 Ho1 Ni3 Pt1'
_cell_volume   87.14008455
_cell_formula_units_Z   1
loop_
 _symmetry_equiv_pos_site_id
 _symmetry_equiv_pos_as_xyz
  1  'x, y, z'
loop_
 _atom_site_type_symbol
 _atom_site_label
 _atom_site_symmetry_multiplicity
 _atom_site_fract_x
 _atom_site_fract_y
 _atom_site_fract_z
 _atom_site_occupancy
  Li  Li0  1  0.004710  0.004710  0.004710  1
  Ho  Ho1  1  0.249246  0.249246  0.249246  1
  Ni  Ni2  1  0.623672  0.623672  0.123356  1
  Ni  Ni3  1  0.623672  0.123356  0.623672  1
  Ni  Ni4  1  0.123356  0.623672  0.623672  1
  Pt  Pt5  1  0.625344  0.625344  0.625344  1
