# generated using pymatgen
data_Er6Mn18Al5
_symmetry_space_group_name_H-M   'P 1'
_cell_length_a   8.59867152
_cell_length_b   8.59867109
_cell_length_c   8.59923613
_cell_angle_alpha   60.00216967
_cell_angle_beta   60.00217203
_cell_angle_gamma   59.99999940
_symmetry_Int_Tables_number   1
_chemical_formula_structural   Er6Mn18Al5
_chemical_formula_sum   'Er6 Mn18 Al5'
_cell_volume   449.59535929
_cell_formula_units_Z   1
loop_
 _symmetry_equiv_pos_site_id
 _symmetry_equiv_pos_as_xyz
  1  'x, y, z'
loop_
 _atom_site_type_symbol
 _atom_site_label
 _atom_site_symmetry_multiplicity
 _atom_site_fract_x
 _atom_site_fract_y
 _atom_site_fract_z
 _atom_site_occupancy
  Er  Er0  1  0.700626  0.700626  0.300174  1
  Er  Er1  1  0.298574  0.700626  0.300174  1
  Er  Er2  1  0.700626  0.298574  0.300174  1
  Er  Er3  1  0.298905  0.298905  0.700983  1
  Er  Er4  1  0.701207  0.298905  0.700983  1
  Er  Er5  1  0.298905  0.701207  0.700983  1
  Mn  Mn6  1  0.997780  0.997780  0.006659  1
  Mn  Mn7  1  0.000408  0.000408  0.495960  1
  Mn  Mn8  1  0.503223  0.000408  0.495960  1
  Mn  Mn9  1  0.000408  0.503223  0.495960  1
  Mn  Mn10  1  0.498743  0.498743  0.001059  1
  Mn  Mn11  1  0.001456  0.498743  0.001059  1
  Mn  Mn12  1  0.498743  0.001456  0.001059  1
  Mn  Mn13  1  0.119750  0.643242  0.117258  1
  Mn  Mn14  1  0.643242  0.119750  0.117258  1
  Mn  Mn15  1  0.119750  0.119750  0.117258  1
  Mn  Mn16  1  0.677646  0.677646  0.967064  1
  Mn  Mn17  1  0.678557  0.962631  0.680257  1
  Mn  Mn18  1  0.962631  0.678557  0.680257  1
  Mn  Mn19  1  0.678557  0.678557  0.680257  1
  Mn  Mn20  1  0.325696  0.325696  0.022910  1
  Mn  Mn21  1  0.323375  0.029557  0.323692  1
  Mn  Mn22  1  0.029557  0.323375  0.323692  1
  Mn  Mn23  1  0.323375  0.323375  0.323692  1
  Al  Al24  1  0.878673  0.878673  0.363983  1
  Al  Al25  1  0.877939  0.363025  0.881099  1
  Al  Al26  1  0.363025  0.877939  0.881099  1
  Al  Al27  1  0.877939  0.877939  0.881099  1
  Al  Al28  1  0.120687  0.120687  0.637940  1
