# generated using pymatgen
data_Tb2Y2OsI4
_symmetry_space_group_name_H-M   'P 1'
_cell_length_a   11.43181782
_cell_length_b   11.43181906
_cell_length_c   6.20826303
_cell_angle_alpha   90.02519687
_cell_angle_beta   90.02521471
_cell_angle_gamma   88.37074346
_symmetry_Int_Tables_number   1
_chemical_formula_structural   Tb2Y2OsI4
_chemical_formula_sum   'Tb4 Y4 Os2 I8'
_cell_volume   811.00784408
_cell_formula_units_Z   2
loop_
 _symmetry_equiv_pos_site_id
 _symmetry_equiv_pos_as_xyz
  1  'x, y, z'
loop_
 _atom_site_type_symbol
 _atom_site_label
 _atom_site_symmetry_multiplicity
 _atom_site_fract_x
 _atom_site_fract_y
 _atom_site_fract_z
 _atom_site_occupancy
  Tb  Tb0  1  0.802094  0.084024  0.999157  1
  Tb  Tb1  1  0.084024  0.802094  0.499157  1
  Tb  Tb2  1  0.078773  0.195320  0.000360  1
  Tb  Tb3  1  0.195320  0.078773  0.500360  1
  Y  Y4  1  0.921478  0.804502  0.999600  1
  Y  Y5  1  0.915813  0.197974  0.500896  1
  Y  Y6  1  0.197974  0.915813  0.000896  1
  Y  Y7  1  0.804502  0.921478  0.499600  1
  Os  Os8  1  0.999971  0.000229  0.250023  1
  Os  Os9  1  0.000229  0.999971  0.750023  1
  I  I10  1  0.645041  0.152280  0.510269  1
  I  I11  1  0.858193  0.648603  0.505645  1
  I  I12  1  0.351522  0.141423  0.994401  1
  I  I13  1  0.141423  0.351522  0.494401  1
  I  I14  1  0.648603  0.858193  0.005645  1
  I  I15  1  0.355155  0.847605  0.489650  1
  I  I16  1  0.152280  0.645041  0.010269  1
  I  I17  1  0.847605  0.355155  0.989650  1
