# generated using pymatgen
data_HoPa(FeB)8
_symmetry_space_group_name_H-M   'P 1'
_cell_length_a   6.94823600
_cell_length_b   6.94823600
_cell_length_c   3.81502100
_cell_angle_alpha   90.00000000
_cell_angle_beta   90.00000000
_cell_angle_gamma   90.00000000
_symmetry_Int_Tables_number   1
_chemical_formula_structural   HoPa(FeB)8
_chemical_formula_sum   'Ho1 Pa1 Fe8 B8'
_cell_volume   184.18152093
_cell_formula_units_Z   1
loop_
 _symmetry_equiv_pos_site_id
 _symmetry_equiv_pos_as_xyz
  1  'x, y, z'
loop_
 _atom_site_type_symbol
 _atom_site_label
 _atom_site_symmetry_multiplicity
 _atom_site_fract_x
 _atom_site_fract_y
 _atom_site_fract_z
 _atom_site_occupancy
  Ho  Ho0  1  0.500000  0.500000  0.500000  1
  Pa  Pa1  1  0.000000  0.000000  0.000000  1
  Fe  Fe2  1  0.130524  0.382816  0.897120  1
  Fe  Fe3  1  0.869476  0.617184  0.897120  1
  Fe  Fe4  1  0.886675  0.366805  0.393221  1
  Fe  Fe5  1  0.113325  0.633195  0.393221  1
  Fe  Fe6  1  0.366805  0.113325  0.606779  1
  Fe  Fe7  1  0.633195  0.886675  0.606779  1
  Fe  Fe8  1  0.617184  0.130524  0.102880  1
  Fe  Fe9  1  0.382816  0.869476  0.102880  1
  B  B10  1  0.663479  0.796556  0.107250  1
  B  B11  1  0.336521  0.203444  0.107250  1
  B  B12  1  0.296240  0.834133  0.601654  1
  B  B13  1  0.703760  0.165867  0.601654  1
  B  B14  1  0.834133  0.703760  0.398346  1
  B  B15  1  0.165867  0.296240  0.398346  1
  B  B16  1  0.203444  0.663479  0.892750  1
  B  B17  1  0.796556  0.336521  0.892750  1
