# generated using pymatgen
data_K4V2PtS8
_symmetry_space_group_name_H-M   'P 1'
_cell_length_a   6.66598230
_cell_length_b   7.10279914
_cell_length_c   9.15715600
_cell_angle_alpha   84.65819377
_cell_angle_beta   78.07212203
_cell_angle_gamma   84.43180761
_symmetry_Int_Tables_number   1
_chemical_formula_structural   K4V2PtS8
_chemical_formula_sum   'K4 V2 Pt1 S8'
_cell_volume   421.01274922
_cell_formula_units_Z   1
loop_
 _symmetry_equiv_pos_site_id
 _symmetry_equiv_pos_as_xyz
  1  'x, y, z'
loop_
 _atom_site_type_symbol
 _atom_site_label
 _atom_site_symmetry_multiplicity
 _atom_site_fract_x
 _atom_site_fract_y
 _atom_site_fract_z
 _atom_site_occupancy
  K  K0  1  0.290192  0.321766  0.134995  1
  K  K1  1  0.728023  0.231049  0.498974  1
  K  K2  1  0.271977  0.768951  0.501026  1
  K  K3  1  0.709808  0.678234  0.865005  1
  V  V4  1  0.841434  0.745486  0.253983  1
  V  V5  1  0.158566  0.254514  0.746017  1
  Pt  Pt6  1  0.000000  0.000000  0.000000  1
  S  S7  1  0.667050  0.972752  0.146094  1
  S  S8  1  0.766847  0.480970  0.195990  1
  S  S9  1  0.166484  0.787786  0.159643  1
  S  S10  1  0.774275  0.756826  0.493395  1
  S  S11  1  0.225725  0.243174  0.506605  1
  S  S12  1  0.833516  0.212214  0.840357  1
  S  S13  1  0.233153  0.519030  0.804010  1
  S  S14  1  0.332950  0.027248  0.853906  1
