# generated using pymatgen
data_Rb2SbCl5
_symmetry_space_group_name_H-M   'P 1'
_cell_length_a   7.45779600
_cell_length_b   9.89073100
_cell_length_c   14.86411000
_cell_angle_alpha   90.00000000
_cell_angle_beta   90.00000000
_cell_angle_gamma   90.00000000
_symmetry_Int_Tables_number   1
_chemical_formula_structural   Rb2SbCl5
_chemical_formula_sum   'Rb8 Sb4 Cl20'
_cell_volume   1096.42214991
_cell_formula_units_Z   4
loop_
 _symmetry_equiv_pos_site_id
 _symmetry_equiv_pos_as_xyz
  1  'x, y, z'
loop_
 _atom_site_type_symbol
 _atom_site_label
 _atom_site_symmetry_multiplicity
 _atom_site_fract_x
 _atom_site_fract_y
 _atom_site_fract_z
 _atom_site_occupancy
  Rb  Rb0  1  0.250000  0.670625  0.924930  1
  Rb  Rb1  1  0.750000  0.329375  0.075070  1
  Rb  Rb2  1  0.750000  0.829375  0.424930  1
  Rb  Rb3  1  0.250000  0.170625  0.575070  1
  Rb  Rb4  1  0.250000  0.985312  0.201632  1
  Rb  Rb5  1  0.750000  0.014688  0.798368  1
  Rb  Rb6  1  0.750000  0.514688  0.701632  1
  Rb  Rb7  1  0.250000  0.485312  0.298368  1
  Sb  Sb8  1  0.250000  0.692885  0.562195  1
  Sb  Sb9  1  0.750000  0.307115  0.437805  1
  Sb  Sb10  1  0.750000  0.807115  0.062195  1
  Sb  Sb11  1  0.250000  0.192885  0.937805  1
  Cl  Cl12  1  0.250000  0.568901  0.714242  1
  Cl  Cl13  1  0.750000  0.431099  0.285758  1
  Cl  Cl14  1  0.750000  0.931099  0.214242  1
  Cl  Cl15  1  0.250000  0.068901  0.785758  1
  Cl  Cl16  1  0.499561  0.849854  0.614053  1
  Cl  Cl17  1  0.500439  0.150146  0.385947  1
  Cl  Cl18  1  0.500439  0.650146  0.114053  1
  Cl  Cl19  1  0.999561  0.150146  0.385947  1
  Cl  Cl20  1  0.499561  0.349854  0.885947  1
  Cl  Cl21  1  0.000439  0.849854  0.614053  1
  Cl  Cl22  1  0.000439  0.349854  0.885947  1
  Cl  Cl23  1  0.999561  0.650146  0.114053  1
  Cl  Cl24  1  0.250000  0.798090  0.390152  1
  Cl  Cl25  1  0.750000  0.201910  0.609848  1
  Cl  Cl26  1  0.750000  0.701910  0.890152  1
  Cl  Cl27  1  0.250000  0.298090  0.109848  1
  Cl  Cl28  1  0.000000  0.500000  0.500000  1
  Cl  Cl29  1  0.000000  0.000000  0.000000  1
  Cl  Cl30  1  0.500000  0.500000  0.500000  1
  Cl  Cl31  1  0.500000  0.000000  0.000000  1
