# generated using pymatgen
data_Tb3Er5(Tm3Pt4)4
_symmetry_space_group_name_H-M   'P 1'
_cell_length_a   7.41792614
_cell_length_b   7.50476314
_cell_length_c   14.60259002
_cell_angle_alpha   89.99596737
_cell_angle_beta   90.00355039
_cell_angle_gamma   90.02165481
_symmetry_Int_Tables_number   1
_chemical_formula_structural   Tb3Er5(Tm3Pt4)4
_chemical_formula_sum   'Tb3 Er5 Tm12 Pt16'
_cell_volume   812.92289200
_cell_formula_units_Z   1
loop_
 _symmetry_equiv_pos_site_id
 _symmetry_equiv_pos_as_xyz
  1  'x, y, z'
loop_
 _atom_site_type_symbol
 _atom_site_label
 _atom_site_symmetry_multiplicity
 _atom_site_fract_x
 _atom_site_fract_y
 _atom_site_fract_z
 _atom_site_occupancy
  Tb  Tb0  1  0.500809  0.679404  0.592407  1
  Tb  Tb1  1  0.000783  0.820633  0.907588  1
  Tb  Tb2  1  0.499264  0.320649  0.092450  1
  Er  Er3  1  0.998645  0.179755  0.407470  1
  Er  Er4  1  0.498526  0.319874  0.407284  1
  Er  Er5  1  0.998641  0.179990  0.092711  1
  Er  Er6  1  0.501459  0.679941  0.907189  1
  Er  Er7  1  0.001313  0.820382  0.592662  1
  Tm  Tm8  1  0.656815  0.167775  0.622549  1
  Tm  Tm9  1  0.156660  0.332174  0.877353  1
  Tm  Tm10  1  0.343308  0.832208  0.122675  1
  Tm  Tm11  1  0.843511  0.667870  0.377419  1
  Tm  Tm12  1  0.342858  0.832666  0.377250  1
  Tm  Tm13  1  0.843337  0.667718  0.122875  1
  Tm  Tm14  1  0.656713  0.167681  0.877168  1
  Tm  Tm15  1  0.156391  0.332068  0.622605  1
  Tm  Tm16  1  0.819383  0.510635  0.750013  1
  Tm  Tm17  1  0.319446  0.989405  0.749937  1
  Tm  Tm18  1  0.180379  0.489130  0.250204  1
  Tm  Tm19  1  0.680888  0.010785  0.250157  1
  Pt  Pt20  1  0.684105  0.967296  0.458134  1
  Pt  Pt21  1  0.182958  0.533356  0.041678  1
  Pt  Pt22  1  0.316976  0.033373  0.958261  1
  Pt  Pt23  1  0.817112  0.466168  0.541583  1
  Pt  Pt24  1  0.315923  0.033892  0.541501  1
  Pt  Pt25  1  0.816153  0.466371  0.958232  1
  Pt  Pt26  1  0.683832  0.966309  0.041710  1
  Pt  Pt27  1  0.183571  0.532746  0.458039  1
  Pt  Pt28  1  0.454513  0.386081  0.750206  1
  Pt  Pt29  1  0.954523  0.113931  0.749780  1
  Pt  Pt30  1  0.545529  0.613821  0.250243  1
  Pt  Pt31  1  0.045402  0.886409  0.250002  1
  Pt  Pt32  1  0.682390  0.856646  0.750248  1
  Pt  Pt33  1  0.182383  0.643344  0.749712  1
  Pt  Pt34  1  0.317308  0.143395  0.250486  1
  Pt  Pt35  1  0.818195  0.356120  0.250220  1
