# generated using pymatgen
data_Pr4Er(SnSb)2
_symmetry_space_group_name_H-M   'P 1'
_cell_length_a   8.36814200
_cell_length_b   8.44908700
_cell_length_c   16.15319800
_cell_angle_alpha   90.00000000
_cell_angle_beta   90.00000000
_cell_angle_gamma   90.00000000
_symmetry_Int_Tables_number   1
_chemical_formula_structural   Pr4Er(SnSb)2
_chemical_formula_sum   'Pr16 Er4 Sn8 Sb8'
_cell_volume   1142.08213925
_cell_formula_units_Z   4
loop_
 _symmetry_equiv_pos_site_id
 _symmetry_equiv_pos_as_xyz
  1  'x, y, z'
loop_
 _atom_site_type_symbol
 _atom_site_label
 _atom_site_symmetry_multiplicity
 _atom_site_fract_x
 _atom_site_fract_y
 _atom_site_fract_z
 _atom_site_occupancy
  Pr  Pr0  1  0.390219  0.837455  0.882223  1
  Pr  Pr1  1  0.890219  0.662545  0.617777  1
  Pr  Pr2  1  0.609781  0.162545  0.382223  1
  Pr  Pr3  1  0.109781  0.337455  0.117777  1
  Pr  Pr4  1  0.609781  0.162545  0.117777  1
  Pr  Pr5  1  0.109781  0.337455  0.382223  1
  Pr  Pr6  1  0.390219  0.837455  0.617777  1
  Pr  Pr7  1  0.890219  0.662545  0.882223  1
  Pr  Pr8  1  0.550951  0.326762  0.893605  1
  Pr  Pr9  1  0.050951  0.173238  0.606395  1
  Pr  Pr10  1  0.449049  0.673238  0.393605  1
  Pr  Pr11  1  0.949049  0.826762  0.106395  1
  Pr  Pr12  1  0.449049  0.673238  0.106395  1
  Pr  Pr13  1  0.949049  0.826762  0.393605  1
  Pr  Pr14  1  0.550951  0.326762  0.606395  1
  Pr  Pr15  1  0.050951  0.173238  0.893605  1
  Er  Er16  1  0.220898  0.496455  0.750000  1
  Er  Er17  1  0.720898  0.003545  0.750000  1
  Er  Er18  1  0.779102  0.503545  0.250000  1
  Er  Er19  1  0.279102  0.996455  0.250000  1
  Sn  Sn20  1  0.586985  0.625201  0.750000  1
  Sn  Sn21  1  0.086985  0.874799  0.750000  1
  Sn  Sn22  1  0.413015  0.374799  0.250000  1
  Sn  Sn23  1  0.913015  0.125201  0.250000  1
  Sn  Sn24  1  0.355341  0.141094  0.750000  1
  Sn  Sn25  1  0.855341  0.358906  0.750000  1
  Sn  Sn26  1  0.644659  0.858906  0.250000  1
  Sn  Sn27  1  0.144659  0.641094  0.250000  1
  Sb  Sb28  1  0.268985  0.017112  0.050959  1
  Sb  Sb29  1  0.768985  0.482888  0.449041  1
  Sb  Sb30  1  0.731015  0.982888  0.550959  1
  Sb  Sb31  1  0.231015  0.517112  0.949041  1
  Sb  Sb32  1  0.731015  0.982888  0.949041  1
  Sb  Sb33  1  0.231015  0.517112  0.550959  1
  Sb  Sb34  1  0.268985  0.017112  0.449041  1
  Sb  Sb35  1  0.768985  0.482888  0.050959  1
