# generated using pymatgen
data_Nd8GaAuI12
_symmetry_space_group_name_H-M   'P 1'
_cell_length_a   4.36834800
_cell_length_b   14.48554701
_cell_length_c   15.29077900
_cell_angle_alpha   90.06024038
_cell_angle_beta   90.00000000
_cell_angle_gamma   90.00000000
_symmetry_Int_Tables_number   1
_chemical_formula_structural   Nd8GaAuI12
_chemical_formula_sum   'Nd8 Ga1 Au1 I12'
_cell_volume   967.56800710
_cell_formula_units_Z   1
loop_
 _symmetry_equiv_pos_site_id
 _symmetry_equiv_pos_as_xyz
  1  'x, y, z'
loop_
 _atom_site_type_symbol
 _atom_site_label
 _atom_site_symmetry_multiplicity
 _atom_site_fract_x
 _atom_site_fract_y
 _atom_site_fract_z
 _atom_site_occupancy
  Nd  Nd0  1  0.500000  0.116303  0.344381  1
  Nd  Nd1  1  0.500000  0.883697  0.655619  1
  Nd  Nd2  1  0.500000  0.618787  0.158423  1
  Nd  Nd3  1  0.500000  0.381213  0.841577  1
  Nd  Nd4  1  0.000000  0.114932  0.577439  1
  Nd  Nd5  1  0.000000  0.885068  0.422561  1
  Nd  Nd6  1  0.000000  0.613554  0.923877  1
  Nd  Nd7  1  0.000000  0.386446  0.076123  1
  Ga  Ga8  1  0.500000  0.000000  0.500000  1
  Au  Au9  1  0.500000  0.500000  0.000000  1
  I  I10  1  0.500000  0.244708  0.163643  1
  I  I11  1  0.500000  0.755292  0.836357  1
  I  I12  1  0.500000  0.744810  0.335475  1
  I  I13  1  0.500000  0.255190  0.664525  1
  I  I14  1  0.000000  0.259549  0.415174  1
  I  I15  1  0.000000  0.740451  0.584826  1
  I  I16  1  0.000000  0.761085  0.086012  1
  I  I17  1  0.000000  0.238915  0.913988  1
  I  I18  1  0.000000  0.998250  0.239528  1
  I  I19  1  0.000000  0.001750  0.760472  1
  I  I20  1  0.000000  0.498156  0.262261  1
  I  I21  1  0.000000  0.501844  0.737739  1
