# generated using pymatgen
data_ErHfVB6
_symmetry_space_group_name_H-M   'P 1'
_cell_length_a   3.44378300
_cell_length_b   8.98526100
_cell_length_c   11.35210200
_cell_angle_alpha   90.00000000
_cell_angle_beta   90.00000000
_cell_angle_gamma   90.00000000
_symmetry_Int_Tables_number   1
_chemical_formula_structural   ErHfVB6
_chemical_formula_sum   'Er4 Hf4 V4 B24'
_cell_volume   351.27137388
_cell_formula_units_Z   4
loop_
 _symmetry_equiv_pos_site_id
 _symmetry_equiv_pos_as_xyz
  1  'x, y, z'
loop_
 _atom_site_type_symbol
 _atom_site_label
 _atom_site_symmetry_multiplicity
 _atom_site_fract_x
 _atom_site_fract_y
 _atom_site_fract_z
 _atom_site_occupancy
  Er  Er0  1  0.000000  0.821692  0.085257  1
  Er  Er1  1  0.000000  0.178308  0.914743  1
  Er  Er2  1  0.000000  0.321692  0.414743  1
  Er  Er3  1  0.000000  0.678308  0.585257  1
  Hf  Hf4  1  0.000000  0.444355  0.129348  1
  Hf  Hf5  1  0.000000  0.555645  0.870652  1
  Hf  Hf6  1  0.000000  0.944355  0.370652  1
  Hf  Hf7  1  0.000000  0.055645  0.629348  1
  V  V8  1  0.000000  0.142194  0.182245  1
  V  V9  1  0.000000  0.857806  0.817755  1
  V  V10  1  0.000000  0.642194  0.317755  1
  V  V11  1  0.000000  0.357806  0.682245  1
  B  B12  1  0.500000  0.053230  0.066460  1
  B  B13  1  0.500000  0.946770  0.933540  1
  B  B14  1  0.500000  0.553230  0.433540  1
  B  B15  1  0.500000  0.446770  0.566460  1
  B  B16  1  0.500000  0.253539  0.080703  1
  B  B17  1  0.500000  0.746461  0.919297  1
  B  B18  1  0.500000  0.753539  0.419297  1
  B  B19  1  0.500000  0.246461  0.580703  1
  B  B20  1  0.500000  0.296394  0.236293  1
  B  B21  1  0.500000  0.703606  0.763707  1
  B  B22  1  0.500000  0.796394  0.263707  1
  B  B23  1  0.500000  0.203606  0.736293  1
  B  B24  1  0.500000  0.130425  0.317818  1
  B  B25  1  0.500000  0.869575  0.682182  1
  B  B26  1  0.500000  0.630425  0.182182  1
  B  B27  1  0.500000  0.369575  0.817818  1
  B  B28  1  0.500000  0.480719  0.286893  1
  B  B29  1  0.500000  0.519281  0.713107  1
  B  B30  1  0.500000  0.980719  0.213107  1
  B  B31  1  0.500000  0.019281  0.786893  1
  B  B32  1  0.500000  0.098265  0.473487  1
  B  B33  1  0.500000  0.901735  0.526513  1
  B  B34  1  0.500000  0.598265  0.026513  1
  B  B35  1  0.500000  0.401735  0.973487  1
