# generated using pymatgen
data_Hf18Mo8PdPt
_symmetry_space_group_name_H-M   'P 1'
_cell_length_a   8.77857100
_cell_length_b   8.77856982
_cell_length_c   8.53766900
_cell_angle_alpha   90.00000000
_cell_angle_beta   90.00000000
_cell_angle_gamma   119.99999314
_symmetry_Int_Tables_number   1
_chemical_formula_structural   Hf18Mo8PdPt
_chemical_formula_sum   'Hf18 Mo8 Pd1 Pt1'
_cell_volume   569.79360267
_cell_formula_units_Z   1
loop_
 _symmetry_equiv_pos_site_id
 _symmetry_equiv_pos_as_xyz
  1  'x, y, z'
loop_
 _atom_site_type_symbol
 _atom_site_label
 _atom_site_symmetry_multiplicity
 _atom_site_fract_x
 _atom_site_fract_y
 _atom_site_fract_z
 _atom_site_occupancy
  Hf  Hf0  1  0.196204  0.803796  0.447020  1
  Hf  Hf1  1  0.196204  0.392406  0.447020  1
  Hf  Hf2  1  0.607594  0.803796  0.447020  1
  Hf  Hf3  1  0.803717  0.196283  0.552419  1
  Hf  Hf4  1  0.803717  0.607434  0.552419  1
  Hf  Hf5  1  0.392566  0.196283  0.552419  1
  Hf  Hf6  1  0.803717  0.196283  0.947581  1
  Hf  Hf7  1  0.803717  0.607434  0.947581  1
  Hf  Hf8  1  0.392566  0.196283  0.947581  1
  Hf  Hf9  1  0.196204  0.803796  0.052980  1
  Hf  Hf10  1  0.196204  0.392406  0.052980  1
  Hf  Hf11  1  0.607594  0.803796  0.052980  1
  Hf  Hf12  1  0.543462  0.456538  0.250000  1
  Hf  Hf13  1  0.543462  0.086924  0.250000  1
  Hf  Hf14  1  0.913076  0.456538  0.250000  1
  Hf  Hf15  1  0.456479  0.543521  0.750000  1
  Hf  Hf16  1  0.456479  0.912958  0.750000  1
  Hf  Hf17  1  0.087042  0.543521  0.750000  1
  Mo  Mo18  1  0.888520  0.111480  0.250000  1
  Mo  Mo19  1  0.888520  0.777038  0.250000  1
  Mo  Mo20  1  0.222962  0.111480  0.250000  1
  Mo  Mo21  1  0.111392  0.888608  0.750000  1
  Mo  Mo22  1  0.111392  0.222785  0.750000  1
  Mo  Mo23  1  0.777215  0.888608  0.750000  1
  Mo  Mo24  1  0.000000  0.000000  0.500141  1
  Mo  Mo25  1  0.000000  0.000000  0.999859  1
  Pd  Pd26  1  0.666667  0.333333  0.750000  1
  Pt  Pt27  1  0.333333  0.666667  0.250000  1
