# generated using pymatgen
data_Ho10Ga3TcBi2
_symmetry_space_group_name_H-M   'P 1'
_cell_length_a   8.69385201
_cell_length_b   8.69385131
_cell_length_c   8.80872390
_cell_angle_alpha   125.69947636
_cell_angle_beta   125.69948094
_cell_angle_gamma   79.48527267
_symmetry_Int_Tables_number   1
_chemical_formula_structural   Ho10Ga3TcBi2
_chemical_formula_sum   'Ho10 Ga3 Tc1 Bi2'
_cell_volume   426.28954510
_cell_formula_units_Z   1
loop_
 _symmetry_equiv_pos_site_id
 _symmetry_equiv_pos_as_xyz
  1  'x, y, z'
loop_
 _atom_site_type_symbol
 _atom_site_label
 _atom_site_symmetry_multiplicity
 _atom_site_fract_x
 _atom_site_fract_y
 _atom_site_fract_z
 _atom_site_occupancy
  Ho  Ho0  1  0.004193  0.007815  0.012009  1
  Ho  Ho1  1  0.492185  0.495807  0.987991  1
  Ho  Ho2  1  0.015476  0.501470  0.799908  1
  Ho  Ho3  1  0.715568  0.201561  0.200092  1
  Ho  Ho4  1  0.518319  0.706185  0.500000  1
  Ho  Ho5  1  0.193237  0.038804  0.500000  1
  Ho  Ho6  1  0.998530  0.484524  0.200092  1
  Ho  Ho7  1  0.298439  0.784432  0.799908  1
  Ho  Ho8  1  0.461196  0.306763  0.500000  1
  Ho  Ho9  1  0.793815  0.981681  0.500000  1
  Ga  Ga10  1  0.359696  0.854748  0.214442  1
  Ga  Ga11  1  0.645252  0.140304  0.785558  1
  Ga  Ga12  1  0.866303  0.633697  0.500000  1
  Tc  Tc13  1  0.125610  0.374390  0.500000  1
  Bi  Bi14  1  0.756092  0.743908  0.000000  1
  Bi  Bi15  1  0.256092  0.243908  0.000000  1
