# generated using pymatgen
data_Nb8SnRuSe16
_symmetry_space_group_name_H-M   'P 1'
_cell_length_a   7.00547000
_cell_length_b   7.00547138
_cell_length_c   13.99247600
_cell_angle_alpha   90.00000000
_cell_angle_beta   90.00000000
_cell_angle_gamma   120.00000293
_symmetry_Int_Tables_number   1
_chemical_formula_structural   Nb8SnRuSe16
_chemical_formula_sum   'Nb8 Sn1 Ru1 Se16'
_cell_volume   594.70259040
_cell_formula_units_Z   1
loop_
 _symmetry_equiv_pos_site_id
 _symmetry_equiv_pos_as_xyz
  1  'x, y, z'
loop_
 _atom_site_type_symbol
 _atom_site_label
 _atom_site_symmetry_multiplicity
 _atom_site_fract_x
 _atom_site_fract_y
 _atom_site_fract_z
 _atom_site_occupancy
  Nb  Nb0  1  0.000000  0.000000  0.223562  1
  Nb  Nb1  1  0.000000  0.000000  0.776438  1
  Nb  Nb2  1  0.507444  0.014888  0.222256  1
  Nb  Nb3  1  0.985112  0.492556  0.222256  1
  Nb  Nb4  1  0.507444  0.492556  0.222256  1
  Nb  Nb5  1  0.492556  0.985112  0.777744  1
  Nb  Nb6  1  0.014888  0.507444  0.777744  1
  Nb  Nb7  1  0.492556  0.507444  0.777744  1
  Sn  Sn8  1  0.000000  0.000000  0.500000  1
  Ru  Ru9  1  0.000000  0.000000  0.000000  1
  Se  Se10  1  0.333333  0.666667  0.901258  1
  Se  Se11  1  0.666667  0.333333  0.098742  1
  Se  Se12  1  0.666667  0.333333  0.346676  1
  Se  Se13  1  0.333333  0.666667  0.653324  1
  Se  Se14  1  0.168674  0.831326  0.342354  1
  Se  Se15  1  0.168674  0.337347  0.342354  1
  Se  Se16  1  0.662653  0.831326  0.342354  1
  Se  Se17  1  0.831326  0.168674  0.657646  1
  Se  Se18  1  0.831326  0.662653  0.657646  1
  Se  Se19  1  0.337347  0.168674  0.657646  1
  Se  Se20  1  0.832897  0.167103  0.893706  1
  Se  Se21  1  0.832897  0.665795  0.893706  1
  Se  Se22  1  0.334205  0.167103  0.893706  1
  Se  Se23  1  0.167103  0.832897  0.106294  1
  Se  Se24  1  0.167103  0.334205  0.106294  1
  Se  Se25  1  0.665795  0.832897  0.106294  1
