# generated using pymatgen
data_InHg4S2Cl5
_symmetry_space_group_name_H-M   'P 1'
_cell_length_a   8.17552583
_cell_length_b   10.34174800
_cell_length_c   8.94239155
_cell_angle_alpha   90.00000000
_cell_angle_beta   112.38155237
_cell_angle_gamma   90.00000000
_symmetry_Int_Tables_number   1
_chemical_formula_structural   InHg4S2Cl5
_chemical_formula_sum   'In2 Hg8 S4 Cl10'
_cell_volume   699.11637644
_cell_formula_units_Z   2
loop_
 _symmetry_equiv_pos_site_id
 _symmetry_equiv_pos_as_xyz
  1  'x, y, z'
loop_
 _atom_site_type_symbol
 _atom_site_label
 _atom_site_symmetry_multiplicity
 _atom_site_fract_x
 _atom_site_fract_y
 _atom_site_fract_z
 _atom_site_occupancy
  In  In0  1  0.499726  0.428798  0.503605  1
  In  In1  1  0.500274  0.928798  0.496395  1
  Hg  Hg2  1  0.927397  0.184381  0.329773  1
  Hg  Hg3  1  0.072603  0.684381  0.670227  1
  Hg  Hg4  1  0.952148  0.667078  0.355933  1
  Hg  Hg5  1  0.047852  0.167078  0.644067  1
  Hg  Hg6  1  0.496264  0.181590  0.982625  1
  Hg  Hg7  1  0.503736  0.681590  0.017375  1
  Hg  Hg8  1  0.807108  0.432517  0.012717  1
  Hg  Hg9  1  0.192892  0.932517  0.987283  1
  S  S10  1  0.804165  0.198143  0.027138  1
  S  S11  1  0.195835  0.698143  0.972862  1
  S  S12  1  0.190864  0.164523  0.945718  1
  S  S13  1  0.809136  0.664523  0.054282  1
  Cl  Cl14  1  0.823823  0.925170  0.677899  1
  Cl  Cl15  1  0.176177  0.425170  0.322101  1
  Cl  Cl16  1  0.825141  0.438150  0.693752  1
  Cl  Cl17  1  0.174859  0.938150  0.306248  1
  Cl  Cl18  1  0.413495  0.455816  0.747908  1
  Cl  Cl19  1  0.586505  0.955816  0.252092  1
  Cl  Cl20  1  0.593274  0.398084  0.268820  1
  Cl  Cl21  1  0.406726  0.898084  0.731180  1
  Cl  Cl22  1  0.496276  0.179351  0.559064  1
  Cl  Cl23  1  0.503724  0.679351  0.440936  1
