# generated using pymatgen
data_TbDyMnGa6
_symmetry_space_group_name_H-M   'P 1'
_cell_length_a   6.19568423
_cell_length_b   6.19568419
_cell_length_c   6.19568500
_cell_angle_alpha   60.00000100
_cell_angle_beta   60.00000121
_cell_angle_gamma   60.00000059
_symmetry_Int_Tables_number   1
_chemical_formula_structural   TbDyMnGa6
_chemical_formula_sum   'Tb1 Dy1 Mn1 Ga6'
_cell_volume   168.17168983
_cell_formula_units_Z   1
loop_
 _symmetry_equiv_pos_site_id
 _symmetry_equiv_pos_as_xyz
  1  'x, y, z'
loop_
 _atom_site_type_symbol
 _atom_site_label
 _atom_site_symmetry_multiplicity
 _atom_site_fract_x
 _atom_site_fract_y
 _atom_site_fract_z
 _atom_site_occupancy
  Tb  Tb0  1  0.250000  0.250000  0.250000  1
  Dy  Dy1  1  0.750000  0.750000  0.750000  1
  Mn  Mn2  1  0.500000  0.500000  0.500000  1
  Ga  Ga3  1  0.780455  0.780455  0.219545  1
  Ga  Ga4  1  0.219545  0.780455  0.219545  1
  Ga  Ga5  1  0.780455  0.219545  0.219545  1
  Ga  Ga6  1  0.219545  0.219545  0.780455  1
  Ga  Ga7  1  0.780455  0.219545  0.780455  1
  Ga  Ga8  1  0.219545  0.780455  0.780455  1
