# generated using pymatgen
data_Ta3NbSe18
_symmetry_space_group_name_H-M   'P 1'
_cell_length_a   8.47959780
_cell_length_b   8.95499452
_cell_length_c   9.03691403
_cell_angle_alpha   99.41053278
_cell_angle_beta   98.11583432
_cell_angle_gamma   96.02352873
_symmetry_Int_Tables_number   1
_chemical_formula_structural   Ta3NbSe18
_chemical_formula_sum   'Ta3 Nb1 Se18'
_cell_volume   664.41808021
_cell_formula_units_Z   1
loop_
 _symmetry_equiv_pos_site_id
 _symmetry_equiv_pos_as_xyz
  1  'x, y, z'
loop_
 _atom_site_type_symbol
 _atom_site_label
 _atom_site_symmetry_multiplicity
 _atom_site_fract_x
 _atom_site_fract_y
 _atom_site_fract_z
 _atom_site_occupancy
  Ta  Ta0  1  0.090163  0.094917  0.139001  1
  Ta  Ta1  1  0.910201  0.906044  0.860396  1
  Ta  Ta2  1  0.413971  0.360095  0.402088  1
  Nb  Nb3  1  0.585383  0.638751  0.598394  1
  Se  Se4  1  0.972410  0.167735  0.393589  1
  Se  Se5  1  0.028362  0.832982  0.606360  1
  Se  Se6  1  0.340393  0.471389  0.672737  1
  Se  Se7  1  0.657439  0.525515  0.326718  1
  Se  Se8  1  0.613014  0.790236  0.894018  1
  Se  Se9  1  0.387439  0.211032  0.107215  1
  Se  Se10  1  0.953781  0.814247  0.129940  1
  Se  Se11  1  0.046770  0.186718  0.869513  1
  Se  Se12  1  0.267534  0.079837  0.407520  1
  Se  Se13  1  0.731217  0.921322  0.592869  1
  Se  Se14  1  0.578067  0.359866  0.672283  1
  Se  Se15  1  0.419634  0.636907  0.326262  1
  Se  Se16  1  0.177952  0.834703  0.005573  1
  Se  Se17  1  0.822573  0.166391  0.993902  1
  Se  Se18  1  0.900192  0.618524  0.694018  1
  Se  Se19  1  0.102528  0.382415  0.306292  1
  Se  Se20  1  0.546468  0.114666  0.306797  1
  Se  Se21  1  0.454511  0.885708  0.694516  1
