# generated using pymatgen
data_PrTm19Pt16
_symmetry_space_group_name_H-M   'P 1'
_cell_length_a   7.38832073
_cell_length_b   7.46916102
_cell_length_c   14.69936138
_cell_angle_alpha   90.00322570
_cell_angle_beta   89.93642301
_cell_angle_gamma   89.93611210
_symmetry_Int_Tables_number   1
_chemical_formula_structural   PrTm19Pt16
_chemical_formula_sum   'Pr1 Tm19 Pt16'
_cell_volume   811.17674322
_cell_formula_units_Z   1
loop_
 _symmetry_equiv_pos_site_id
 _symmetry_equiv_pos_as_xyz
  1  'x, y, z'
loop_
 _atom_site_type_symbol
 _atom_site_label
 _atom_site_symmetry_multiplicity
 _atom_site_fract_x
 _atom_site_fract_y
 _atom_site_fract_z
 _atom_site_occupancy
  Pr  Pr0  1  0.983765  0.826142  0.592590  1
  Tm  Tm1  1  0.637376  0.169058  0.623361  1
  Tm  Tm2  1  0.138856  0.331842  0.879523  1
  Tm  Tm3  1  0.361120  0.832435  0.121917  1
  Tm  Tm4  1  0.857696  0.666188  0.376906  1
  Tm  Tm5  1  0.360572  0.830341  0.377752  1
  Tm  Tm6  1  0.861539  0.668524  0.121632  1
  Tm  Tm7  1  0.637944  0.168309  0.879310  1
  Tm  Tm8  1  0.139694  0.331368  0.621773  1
  Tm  Tm9  1  0.485697  0.674098  0.594247  1
  Tm  Tm10  1  0.983742  0.825053  0.905850  1
  Tm  Tm11  1  0.515672  0.323970  0.094203  1
  Tm  Tm12  1  0.014372  0.179842  0.404090  1
  Tm  Tm13  1  0.514164  0.323347  0.406323  1
  Tm  Tm14  1  0.015881  0.175771  0.094652  1
  Tm  Tm15  1  0.483011  0.675411  0.906130  1
  Tm  Tm16  1  0.801424  0.509571  0.751764  1
  Tm  Tm17  1  0.301593  0.989876  0.751787  1
  Tm  Tm18  1  0.199085  0.490282  0.249336  1
  Tm  Tm19  1  0.698984  0.009776  0.249659  1
  Pt  Pt20  1  0.692607  0.976861  0.454227  1
  Pt  Pt21  1  0.196295  0.528540  0.042213  1
  Pt  Pt22  1  0.303139  0.027472  0.958342  1
  Pt  Pt23  1  0.801592  0.461579  0.538568  1
  Pt  Pt24  1  0.314822  0.037037  0.538596  1
  Pt  Pt25  1  0.802460  0.471913  0.958342  1
  Pt  Pt26  1  0.696642  0.972086  0.042136  1
  Pt  Pt27  1  0.196021  0.525911  0.457107  1
  Pt  Pt28  1  0.435252  0.384087  0.750096  1
  Pt  Pt29  1  0.933361  0.117525  0.752496  1
  Pt  Pt30  1  0.566297  0.612948  0.249700  1
  Pt  Pt31  1  0.066326  0.886657  0.250098  1
  Pt  Pt32  1  0.658312  0.855479  0.752222  1
  Pt  Pt33  1  0.166011  0.640340  0.754382  1
  Pt  Pt34  1  0.339276  0.144359  0.249385  1
  Pt  Pt35  1  0.839404  0.356002  0.249286  1
