# generated using pymatgen
data_YEr4TmFeBi2
_symmetry_space_group_name_H-M   'P 1'
_cell_length_a   8.29110400
_cell_length_b   8.26267858
_cell_length_c   4.16618500
_cell_angle_alpha   90.00000000
_cell_angle_beta   90.00000000
_cell_angle_gamma   120.11386691
_symmetry_Int_Tables_number   1
_chemical_formula_structural   YEr4TmFeBi2
_chemical_formula_sum   'Y1 Er4 Tm1 Fe1 Bi2'
_cell_volume   246.88968813
_cell_formula_units_Z   1
loop_
 _symmetry_equiv_pos_site_id
 _symmetry_equiv_pos_as_xyz
  1  'x, y, z'
loop_
 _atom_site_type_symbol
 _atom_site_label
 _atom_site_symmetry_multiplicity
 _atom_site_fract_x
 _atom_site_fract_y
 _atom_site_fract_z
 _atom_site_occupancy
  Y  Y0  1  0.608355  0.000000  0.000000  1
  Er  Er1  1  0.000899  0.230497  0.500000  1
  Er  Er2  1  0.770402  0.769503  0.500000  1
  Er  Er3  1  0.000204  0.610817  0.000000  1
  Er  Er4  1  0.389388  0.389183  0.000000  1
  Tm  Tm5  1  0.229602  0.000000  0.500000  1
  Fe  Fe6  1  0.002383  0.000000  0.000000  1
  Bi  Bi7  1  0.332587  0.666408  0.500000  1
  Bi  Bi8  1  0.666180  0.333592  0.500000  1
