# generated using pymatgen
data_Yb2HfSc(Al8Pt3)3
_symmetry_space_group_name_H-M   'P 1'
_cell_length_a   7.49367592
_cell_length_b   7.49574090
_cell_length_c   13.11670144
_cell_angle_alpha   84.58004574
_cell_angle_beta   100.87025155
_cell_angle_gamma   119.84259279
_symmetry_Int_Tables_number   1
_chemical_formula_structural   Yb2HfSc(Al8Pt3)3
_chemical_formula_sum   'Yb2 Hf1 Sc1 Al24 Pt9'
_cell_volume   627.60715344
_cell_formula_units_Z   1
loop_
 _symmetry_equiv_pos_site_id
 _symmetry_equiv_pos_as_xyz
  1  'x, y, z'
loop_
 _atom_site_type_symbol
 _atom_site_label
 _atom_site_symmetry_multiplicity
 _atom_site_fract_x
 _atom_site_fract_y
 _atom_site_fract_z
 _atom_site_occupancy
  Yb  Yb0  1  0.768336  0.502076  0.808523  1
  Yb  Yb1  1  0.231881  0.498322  0.191407  1
  Hf  Hf2  1  0.563016  0.169284  0.191259  1
  Sc  Sc3  1  0.436538  0.829922  0.807793  1
  Al  Al4  1  0.483020  0.164027  0.944077  1
  Al  Al5  1  0.517271  0.836359  0.056970  1
  Al  Al6  1  0.020815  0.167727  0.561808  1
  Al  Al7  1  0.979019  0.832224  0.437805  1
  Al  Al8  1  0.353753  0.833786  0.559787  1
  Al  Al9  1  0.646053  0.166208  0.439895  1
  Al  Al10  1  0.615098  0.835171  0.325921  1
  Al  Al11  1  0.384242  0.164426  0.673105  1
  Al  Al12  1  0.058573  0.495840  0.673610  1
  Al  Al13  1  0.941766  0.504641  0.325614  1
  Al  Al14  1  0.728767  0.838772  0.672427  1
  Al  Al15  1  0.270625  0.161247  0.326918  1
  Al  Al16  1  0.149497  0.502798  0.943987  1
  Al  Al17  1  0.850634  0.496642  0.057125  1
  Al  Al18  1  0.813332  0.832021  0.951642  1
  Al  Al19  1  0.187813  0.168405  0.049414  1
  Al  Al20  1  0.313810  0.500468  0.440018  1
  Al  Al21  1  0.686215  0.499738  0.559454  1
  Al  Al22  1  0.109468  0.843901  0.183276  1
  Al  Al23  1  0.892277  0.157871  0.817002  1
  Al  Al24  1  0.306723  0.373890  0.815988  1
  Al  Al25  1  0.693096  0.624192  0.184385  1
  Al  Al26  1  0.109664  0.960315  0.816614  1
  Al  Al27  1  0.888252  0.039710  0.183817  1
  Pt  Pt28  1  0.387026  0.508000  0.638273  1
  Pt  Pt29  1  0.612449  0.490652  0.361105  1
  Pt  Pt30  1  0.170876  0.828531  0.000414  1
  Pt  Pt31  1  0.829863  0.171808  0.000876  1
  Pt  Pt32  1  0.296290  0.834121  0.361025  1
  Pt  Pt33  1  0.704606  0.166749  0.638511  1
  Pt  Pt34  1  0.046433  0.826054  0.637205  1
  Pt  Pt35  1  0.952577  0.174441  0.362208  1
  Pt  Pt36  1  0.500327  0.499662  0.000741  1
