# generated using pymatgen
data_Tm2GaCoIr
_symmetry_space_group_name_H-M   'P 1'
_cell_length_a   4.08278283
_cell_length_b   5.55970341
_cell_length_c   5.38273755
_cell_angle_alpha   121.09363478
_cell_angle_beta   112.28710560
_cell_angle_gamma   89.99999758
_symmetry_Int_Tables_number   1
_chemical_formula_structural   Tm2GaCoIr
_chemical_formula_sum   'Tm2 Ga1 Co1 Ir1'
_cell_volume   93.80786238
_cell_formula_units_Z   1
loop_
 _symmetry_equiv_pos_site_id
 _symmetry_equiv_pos_as_xyz
  1  'x, y, z'
loop_
 _atom_site_type_symbol
 _atom_site_label
 _atom_site_symmetry_multiplicity
 _atom_site_fract_x
 _atom_site_fract_y
 _atom_site_fract_z
 _atom_site_occupancy
  Tm  Tm0  1  0.795928  0.294252  0.591856  1
  Tm  Tm1  1  0.204072  0.702396  0.408144  1
  Ga  Ga2  1  0.000000  0.982433  0.000000  1
  Co  Co3  1  0.500000  0.736848  0.000000  1
  Ir  Ir4  1  0.500000  0.284072  0.000000  1
