# generated using pymatgen
data_La3Sm(Ga5Pd3)2
_symmetry_space_group_name_H-M   'P 1'
_cell_length_a   8.78079813
_cell_length_b   8.78683653
_cell_length_c   8.78683652
_cell_angle_alpha   140.51779161
_cell_angle_beta   107.83267222
_cell_angle_gamma   85.53193844
_symmetry_Int_Tables_number   1
_chemical_formula_structural   La3Sm(Ga5Pd3)2
_chemical_formula_sum   'La3 Sm1 Ga10 Pd6'
_cell_volume   396.04633753
_cell_formula_units_Z   1
loop_
 _symmetry_equiv_pos_site_id
 _symmetry_equiv_pos_as_xyz
  1  'x, y, z'
loop_
 _atom_site_type_symbol
 _atom_site_label
 _atom_site_symmetry_multiplicity
 _atom_site_fract_x
 _atom_site_fract_y
 _atom_site_fract_z
 _atom_site_occupancy
  La  La0  1  0.638414  0.862453  0.775961  1
  La  La1  1  0.362247  0.137492  0.224755  1
  La  La2  1  0.086059  0.361688  0.724370  1
  Sm  Sm3  1  0.912531  0.637598  0.274932  1
  Ga  Ga4  1  0.288261  0.038544  0.748722  1
  Ga  Ga5  1  0.711543  0.958321  0.249966  1
  Ga  Ga6  1  0.711543  0.461577  0.753221  1
  Ga  Ga7  1  0.288261  0.539539  0.249716  1
  Ga  Ga8  1  0.434514  0.597205  0.837309  1
  Ga  Ga9  1  0.566974  0.404106  0.162869  1
  Ga  Ga10  1  0.761929  0.097621  0.664308  1
  Ga  Ga11  1  0.240432  0.902315  0.338117  1
  Ga  Ga12  1  0.998444  0.749297  0.746742  1
  Ga  Ga13  1  0.998444  0.251702  0.249147  1
  Pd  Pd14  1  0.240203  0.643891  0.596313  1
  Pd  Pd15  1  0.757554  0.355257  0.402295  1
  Pd  Pd16  1  0.045935  0.144125  0.901810  1
  Pd  Pd17  1  0.954842  0.856588  0.098254  1
  Pd  Pd18  1  0.500937  0.750674  0.250931  1
  Pd  Pd19  1  0.500937  0.250006  0.750263  1
