# generated using pymatgen
data_EuPuCl6
_symmetry_space_group_name_H-M   'P 1'
_cell_length_a   7.16754980
_cell_length_b   7.16754897
_cell_length_c   7.16081200
_cell_angle_alpha   80.46893886
_cell_angle_beta   80.46894808
_cell_angle_gamma   120.12920121
_symmetry_Int_Tables_number   1
_chemical_formula_structural   EuPuCl6
_chemical_formula_sum   'Eu1 Pu1 Cl6'
_cell_volume   300.14983432
_cell_formula_units_Z   1
loop_
 _symmetry_equiv_pos_site_id
 _symmetry_equiv_pos_as_xyz
  1  'x, y, z'
loop_
 _atom_site_type_symbol
 _atom_site_label
 _atom_site_symmetry_multiplicity
 _atom_site_fract_x
 _atom_site_fract_y
 _atom_site_fract_z
 _atom_site_occupancy
  Eu  Eu0  1  0.833224  0.166776  0.000000  1
  Pu  Pu1  1  0.166617  0.833383  0.000000  1
  Cl  Cl2  1  0.952514  0.590585  0.776663  1
  Cl  Cl3  1  0.409415  0.047486  0.223337  1
  Cl  Cl4  1  0.808414  0.792352  0.225665  1
  Cl  Cl5  1  0.207648  0.191586  0.774335  1
  Cl  Cl6  1  0.556997  0.934829  0.777134  1
  Cl  Cl7  1  0.065171  0.443003  0.222866  1
