# generated using pymatgen
data_Ba8Si12Hg3Pt
_symmetry_space_group_name_H-M   'P 1'
_cell_length_a   12.61446011
_cell_length_b   11.03877234
_cell_length_c   8.59556340
_cell_angle_alpha   78.92875938
_cell_angle_beta   59.10271762
_cell_angle_gamma   42.32149111
_symmetry_Int_Tables_number   1
_chemical_formula_structural   Ba8Si12Hg3Pt
_chemical_formula_sum   'Ba8 Si12 Hg3 Pt1'
_cell_volume   654.02172176
_cell_formula_units_Z   1
loop_
 _symmetry_equiv_pos_site_id
 _symmetry_equiv_pos_as_xyz
  1  'x, y, z'
loop_
 _atom_site_type_symbol
 _atom_site_label
 _atom_site_symmetry_multiplicity
 _atom_site_fract_x
 _atom_site_fract_y
 _atom_site_fract_z
 _atom_site_occupancy
  Ba  Ba0  1  0.864790  0.880050  0.132624  1
  Ba  Ba1  1  0.132434  0.122931  0.864844  1
  Ba  Ba2  1  0.373119  0.368177  0.133978  1
  Ba  Ba3  1  0.134594  0.124711  0.372069  1
  Ba  Ba4  1  0.620546  0.630192  0.376185  1
  Ba  Ba5  1  0.376497  0.372415  0.620006  1
  Ba  Ba6  1  0.629213  0.628251  0.870647  1
  Ba  Ba7  1  0.870292  0.872148  0.629480  1
  Si  Si8  1  0.655743  0.339990  0.186171  1
  Si  Si9  1  0.822729  0.187281  0.336228  1
  Si  Si10  1  0.184242  0.819872  0.657072  1
  Si  Si11  1  0.337697  0.652805  0.820558  1
  Si  Si12  1  0.581889  0.918810  0.581352  1
  Si  Si13  1  0.905800  0.594686  0.906004  1
  Si  Si14  1  0.657907  0.340766  0.660095  1
  Si  Si15  1  0.341064  0.658708  0.340220  1
  Si  Si16  1  0.907121  0.597309  0.437416  1
  Si  Si17  1  0.082672  0.410575  0.586314  1
  Si  Si18  1  0.436041  0.057997  0.908332  1
  Si  Si19  1  0.586321  0.920640  0.082334  1
  Hg  Hg20  1  0.166243  0.833363  0.167829  1
  Hg  Hg21  1  0.833549  0.167466  0.831504  1
  Hg  Hg22  1  0.082754  0.417792  0.081818  1
  Pt  Pt23  1  0.416746  0.083067  0.416920  1
