# generated using pymatgen
data_Sr4YEr(MoO6)2
_symmetry_space_group_name_H-M   'P 1'
_cell_length_a   5.81907991
_cell_length_b   5.89478190
_cell_length_c   8.34040556
_cell_angle_alpha   90.06069349
_cell_angle_beta   90.56814268
_cell_angle_gamma   90.01786392
_symmetry_Int_Tables_number   1
_chemical_formula_structural   Sr4YEr(MoO6)2
_chemical_formula_sum   'Sr4 Y1 Er1 Mo2 O12'
_cell_volume   286.08007697
_cell_formula_units_Z   1
loop_
 _symmetry_equiv_pos_site_id
 _symmetry_equiv_pos_as_xyz
  1  'x, y, z'
loop_
 _atom_site_type_symbol
 _atom_site_label
 _atom_site_symmetry_multiplicity
 _atom_site_fract_x
 _atom_site_fract_y
 _atom_site_fract_z
 _atom_site_occupancy
  Sr  Sr0  1  0.005413  0.037097  0.249687  1
  Sr  Sr1  1  0.494934  0.536348  0.253443  1
  Sr  Sr2  1  0.505066  0.463651  0.746556  1
  Sr  Sr3  1  0.994586  0.962904  0.750313  1
  Y  Y4  1  0.500001  0.000000  0.000000  1
  Er  Er5  1  0.000000  0.500000  0.500000  1
  Mo  Mo6  1  0.000000  0.500000  0.000000  1
  Mo  Mo7  1  0.500000  0.000000  0.500000  1
  O  O8  1  0.269902  0.309558  0.037564  1
  O  O9  1  0.195541  0.780268  0.044022  1
  O  O10  1  0.923075  0.477508  0.238828  1
  O  O11  1  0.578412  0.977455  0.263193  1
  O  O12  1  0.300703  0.279231  0.457235  1
  O  O13  1  0.230492  0.805789  0.464075  1
  O  O14  1  0.769509  0.194211  0.535926  1
  O  O15  1  0.699296  0.720769  0.542766  1
  O  O16  1  0.421589  0.022545  0.736806  1
  O  O17  1  0.076924  0.522491  0.761171  1
  O  O18  1  0.804460  0.219731  0.955979  1
  O  O19  1  0.730099  0.690443  0.962436  1
