# generated using pymatgen
data_TbEr10ThCo4
_symmetry_space_group_name_H-M   'P 1'
_cell_length_a   6.20352055
_cell_length_b   6.89210456
_cell_length_c   9.42141200
_cell_angle_alpha   90.00000000
_cell_angle_beta   90.00000000
_cell_angle_gamma   91.15081501
_symmetry_Int_Tables_number   1
_chemical_formula_structural   TbEr10ThCo4
_chemical_formula_sum   'Tb1 Er10 Th1 Co4'
_cell_volume   402.73416119
_cell_formula_units_Z   1
loop_
 _symmetry_equiv_pos_site_id
 _symmetry_equiv_pos_as_xyz
  1  'x, y, z'
loop_
 _atom_site_type_symbol
 _atom_site_label
 _atom_site_symmetry_multiplicity
 _atom_site_fract_x
 _atom_site_fract_y
 _atom_site_fract_z
 _atom_site_occupancy
  Tb  Tb0  1  0.143027  0.456912  0.750000  1
  Er  Er1  1  0.327430  0.675361  0.066832  1
  Er  Er2  1  0.174316  0.174911  0.431559  1
  Er  Er3  1  0.676254  0.323857  0.568916  1
  Er  Er4  1  0.822993  0.827646  0.930142  1
  Er  Er5  1  0.676254  0.323857  0.931084  1
  Er  Er6  1  0.822993  0.827646  0.569858  1
  Er  Er7  1  0.327430  0.675361  0.433168  1
  Er  Er8  1  0.174316  0.174911  0.068441  1
  Er  Er9  1  0.639522  0.041909  0.250000  1
  Er  Er10  1  0.358849  0.957489  0.750000  1
  Th  Th11  1  0.848412  0.552838  0.250000  1
  Co  Co12  1  0.043831  0.871810  0.250000  1
  Co  Co13  1  0.464181  0.388529  0.250000  1
  Co  Co14  1  0.952475  0.113781  0.750000  1
  Co  Co15  1  0.547716  0.613180  0.750000  1
