# generated using pymatgen
data_Ac3Nd(InRh)4
_symmetry_space_group_name_H-M   'P 1'
_cell_length_a   4.37161500
_cell_length_b   7.56077452
_cell_length_c   8.84377100
_cell_angle_alpha   89.90909391
_cell_angle_beta   90.00000000
_cell_angle_gamma   90.00000000
_symmetry_Int_Tables_number   1
_chemical_formula_structural   Ac3Nd(InRh)4
_chemical_formula_sum   'Ac3 Nd1 In4 Rh4'
_cell_volume   292.31098451
_cell_formula_units_Z   1
loop_
 _symmetry_equiv_pos_site_id
 _symmetry_equiv_pos_as_xyz
  1  'x, y, z'
loop_
 _atom_site_type_symbol
 _atom_site_label
 _atom_site_symmetry_multiplicity
 _atom_site_fract_x
 _atom_site_fract_y
 _atom_site_fract_z
 _atom_site_occupancy
  Ac  Ac0  1  0.250000  0.035167  0.180972  1
  Ac  Ac1  1  0.750000  0.963920  0.817841  1
  Ac  Ac2  1  0.250000  0.534432  0.324319  1
  Nd  Nd3  1  0.750000  0.461857  0.685033  1
  In  In4  1  0.750000  0.364499  0.055004  1
  In  In5  1  0.250000  0.632280  0.937226  1
  In  In6  1  0.750000  0.861237  0.443847  1
  In  In7  1  0.250000  0.145326  0.560281  1
  Rh  Rh8  1  0.250000  0.754926  0.630216  1
  Rh  Rh9  1  0.750000  0.244258  0.369296  1
  Rh  Rh10  1  0.250000  0.261690  0.864742  1
  Rh  Rh11  1  0.750000  0.740406  0.131222  1
