# generated using pymatgen
data_Cs7Rb5(SnSe3)4
_symmetry_space_group_name_H-M   'P 1'
_cell_length_a   10.77822472
_cell_length_b   10.77695871
_cell_length_c   9.89532268
_cell_angle_alpha   85.48481917
_cell_angle_beta   85.45176872
_cell_angle_gamma   79.23923678
_symmetry_Int_Tables_number   1
_chemical_formula_structural   Cs7Rb5(SnSe3)4
_chemical_formula_sum   'Cs7 Rb5 Sn4 Se12'
_cell_volume   1123.23800423
_cell_formula_units_Z   1
loop_
 _symmetry_equiv_pos_site_id
 _symmetry_equiv_pos_as_xyz
  1  'x, y, z'
loop_
 _atom_site_type_symbol
 _atom_site_label
 _atom_site_symmetry_multiplicity
 _atom_site_fract_x
 _atom_site_fract_y
 _atom_site_fract_z
 _atom_site_occupancy
  Cs  Cs0  1  0.600298  0.207727  0.630403  1
  Cs  Cs1  1  0.207053  0.599691  0.129781  1
  Cs  Cs2  1  0.400141  0.792555  0.370096  1
  Cs  Cs3  1  0.752142  0.805864  0.686306  1
  Cs  Cs4  1  0.194576  0.247607  0.815159  1
  Cs  Cs5  1  0.247603  0.194464  0.314547  1
  Cs  Cs6  1  0.805757  0.752335  0.184960  1
  Rb  Rb7  1  0.595771  0.405737  0.249539  1
  Rb  Rb8  1  0.406098  0.594042  0.750222  1
  Rb  Rb9  1  0.916177  0.084082  0.250035  1
  Rb  Rb10  1  0.083112  0.916295  0.750305  1
  Rb  Rb11  1  0.794959  0.398823  0.864935  1
  Sn  Sn12  1  0.911348  0.427066  0.453977  1
  Sn  Sn13  1  0.573365  0.089225  0.044763  1
  Sn  Sn14  1  0.087145  0.572176  0.545366  1
  Sn  Sn15  1  0.428465  0.911480  0.954532  1
  Se  Se16  1  0.053671  0.589140  0.804786  1
  Se  Se17  1  0.407709  0.940257  0.695749  1
  Se  Se18  1  0.938274  0.407297  0.194185  1
  Se  Se19  1  0.591705  0.059029  0.303874  1
  Se  Se20  1  0.047900  0.795363  0.429936  1
  Se  Se21  1  0.205713  0.951660  0.070932  1
  Se  Se22  1  0.951703  0.206128  0.574044  1
  Se  Se23  1  0.796374  0.053121  0.928698  1
  Se  Se24  1  0.683950  0.537663  0.523586  1
  Se  Se25  1  0.462174  0.317685  0.979378  1
  Se  Se26  1  0.315563  0.460398  0.481289  1
  Se  Se27  1  0.541254  0.683089  0.018615  1
