# generated using pymatgen
data_Tb4Ho6OsRu3
_symmetry_space_group_name_H-M   'P 1'
_cell_length_a   6.36344016
_cell_length_b   7.28607669
_cell_length_c   8.46766789
_cell_angle_alpha   96.77985772
_cell_angle_beta   112.16888744
_cell_angle_gamma   89.83125801
_symmetry_Int_Tables_number   1
_chemical_formula_structural   Tb4Ho6OsRu3
_chemical_formula_sum   'Tb4 Ho6 Os1 Ru3'
_cell_volume   360.66454897
_cell_formula_units_Z   1
loop_
 _symmetry_equiv_pos_site_id
 _symmetry_equiv_pos_as_xyz
  1  'x, y, z'
loop_
 _atom_site_type_symbol
 _atom_site_label
 _atom_site_symmetry_multiplicity
 _atom_site_fract_x
 _atom_site_fract_y
 _atom_site_fract_z
 _atom_site_occupancy
  Tb  Tb0  1  0.978454  0.916801  0.187275  1
  Tb  Tb1  1  0.791563  0.584390  0.814617  1
  Tb  Tb2  1  0.022042  0.084519  0.813059  1
  Tb  Tb3  1  0.209901  0.416015  0.187529  1
  Ho  Ho4  1  0.640800  0.814627  0.433849  1
  Ho  Ho5  1  0.203777  0.684225  0.564653  1
  Ho  Ho6  1  0.360267  0.184777  0.565769  1
  Ho  Ho7  1  0.794053  0.315136  0.434261  1
  Ho  Ho8  1  0.421533  0.749201  0.000315  1
  Ho  Ho9  1  0.579691  0.250913  0.000565  1
  Os  Os10  1  0.821066  0.576320  0.219706  1
  Ru  Ru11  1  0.601893  0.925109  0.778141  1
  Ru  Ru12  1  0.176785  0.423007  0.778990  1
  Ru  Ru13  1  0.398175  0.074960  0.221271  1
