# generated using pymatgen
data_Dy5In3Se
_symmetry_space_group_name_H-M   'P 1'
_cell_length_a   9.21957500
_cell_length_b   9.21957424
_cell_length_c   6.67430400
_cell_angle_alpha   90.00000000
_cell_angle_beta   90.00000000
_cell_angle_gamma   120.00000630
_symmetry_Int_Tables_number   1
_chemical_formula_structural   Dy5In3Se
_chemical_formula_sum   'Dy10 In6 Se2'
_cell_volume   491.31311315
_cell_formula_units_Z   2
loop_
 _symmetry_equiv_pos_site_id
 _symmetry_equiv_pos_as_xyz
  1  'x, y, z'
loop_
 _atom_site_type_symbol
 _atom_site_label
 _atom_site_symmetry_multiplicity
 _atom_site_fract_x
 _atom_site_fract_y
 _atom_site_fract_z
 _atom_site_occupancy
  Dy  Dy0  1  0.666667  0.333333  0.000000  1
  Dy  Dy1  1  0.333333  0.666667  0.000000  1
  Dy  Dy2  1  0.333333  0.666667  0.500000  1
  Dy  Dy3  1  0.666667  0.333333  0.500000  1
  Dy  Dy4  1  0.748433  0.748433  0.750000  1
  Dy  Dy5  1  0.251567  0.000000  0.750000  1
  Dy  Dy6  1  0.000000  0.251567  0.750000  1
  Dy  Dy7  1  0.251567  0.251567  0.250000  1
  Dy  Dy8  1  0.748433  0.000000  0.250000  1
  Dy  Dy9  1  0.000000  0.748433  0.250000  1
  In  In10  1  0.398603  0.398603  0.750000  1
  In  In11  1  0.601397  0.000000  0.750000  1
  In  In12  1  0.000000  0.601397  0.750000  1
  In  In13  1  0.601397  0.601397  0.250000  1
  In  In14  1  0.398603  0.000000  0.250000  1
  In  In15  1  0.000000  0.398603  0.250000  1
  Se  Se16  1  0.000000  0.000000  0.000000  1
  Se  Se17  1  0.000000  0.000000  0.500000  1
