# generated using pymatgen
data_Tm16In3HgRh4
_symmetry_space_group_name_H-M   'P 1'
_cell_length_a   9.51898220
_cell_length_b   9.51898268
_cell_length_c   9.51898186
_cell_angle_alpha   59.91577213
_cell_angle_beta   59.91577092
_cell_angle_gamma   59.91577440
_symmetry_Int_Tables_number   1
_chemical_formula_structural   Tm16In3HgRh4
_chemical_formula_sum   'Tm16 In3 Hg1 Rh4'
_cell_volume   608.73177354
_cell_formula_units_Z   1
loop_
 _symmetry_equiv_pos_site_id
 _symmetry_equiv_pos_as_xyz
  1  'x, y, z'
loop_
 _atom_site_type_symbol
 _atom_site_label
 _atom_site_symmetry_multiplicity
 _atom_site_fract_x
 _atom_site_fract_y
 _atom_site_fract_z
 _atom_site_occupancy
  Tm  Tm0  1  0.061695  0.061695  0.438135  1
  Tm  Tm1  1  0.436908  0.065472  0.436908  1
  Tm  Tm2  1  0.061695  0.438135  0.061695  1
  Tm  Tm3  1  0.052281  0.647947  0.647947  1
  Tm  Tm4  1  0.436908  0.436908  0.065472  1
  Tm  Tm5  1  0.647947  0.052281  0.647947  1
  Tm  Tm6  1  0.188966  0.813085  0.188966  1
  Tm  Tm7  1  0.188966  0.188966  0.813085  1
  Tm  Tm8  1  0.810111  0.810111  0.191115  1
  Tm  Tm9  1  0.438135  0.061695  0.061695  1
  Tm  Tm10  1  0.813085  0.188966  0.188966  1
  Tm  Tm11  1  0.065472  0.436908  0.436908  1
  Tm  Tm12  1  0.810111  0.191115  0.810111  1
  Tm  Tm13  1  0.191115  0.810111  0.810111  1
  Tm  Tm14  1  0.647947  0.647947  0.052281  1
  Tm  Tm15  1  0.651409  0.651409  0.651409  1
  In  In16  1  0.749098  0.417000  0.417000  1
  In  In17  1  0.417000  0.749098  0.417000  1
  In  In18  1  0.417000  0.417000  0.749098  1
  Hg  Hg19  1  0.413709  0.413709  0.413709  1
  Rh  Rh20  1  0.858059  0.858059  0.427412  1
  Rh  Rh21  1  0.856909  0.856909  0.856909  1
  Rh  Rh22  1  0.427412  0.858059  0.858059  1
  Rh  Rh23  1  0.858059  0.427412  0.858059  1
