# generated using pymatgen
data_Ho8Tm2CuIrPb6
_symmetry_space_group_name_H-M   'P 1'
_cell_length_a   9.15586035
_cell_length_b   9.14876676
_cell_length_c   6.73167426
_cell_angle_alpha   90.01631300
_cell_angle_beta   89.96813028
_cell_angle_gamma   120.02511539
_symmetry_Int_Tables_number   1
_chemical_formula_structural   Ho8Tm2CuIrPb6
_chemical_formula_sum   'Ho8 Tm2 Cu1 Ir1 Pb6'
_cell_volume   488.20857859
_cell_formula_units_Z   1
loop_
 _symmetry_equiv_pos_site_id
 _symmetry_equiv_pos_as_xyz
  1  'x, y, z'
loop_
 _atom_site_type_symbol
 _atom_site_label
 _atom_site_symmetry_multiplicity
 _atom_site_fract_x
 _atom_site_fract_y
 _atom_site_fract_z
 _atom_site_occupancy
  Ho  Ho0  1  0.999663  0.243763  0.738705  1
  Ho  Ho1  1  0.000337  0.756237  0.261295  1
  Ho  Ho2  1  0.755905  0.756243  0.738699  1
  Ho  Ho3  1  0.244095  0.243757  0.261301  1
  Ho  Ho4  1  0.333319  0.666628  0.499990  1
  Ho  Ho5  1  0.666681  0.333372  0.500010  1
  Ho  Ho6  1  0.666757  0.333524  0.000006  1
  Ho  Ho7  1  0.333243  0.666476  0.999994  1
  Tm  Tm8  1  0.243571  0.999997  0.738577  1
  Tm  Tm9  1  0.756429  0.000003  0.261423  1
  Cu  Cu10  1  0.000000  0.000000  0.000000  1
  Ir  Ir11  1  0.000000  0.000000  0.500000  1
  Pb  Pb12  1  0.601326  0.000002  0.752645  1
  Pb  Pb13  1  0.398674  0.999998  0.247355  1
  Pb  Pb14  1  0.000632  0.603376  0.752707  1
  Pb  Pb15  1  0.999368  0.396624  0.247293  1
  Pb  Pb16  1  0.397258  0.396626  0.752709  1
  Pb  Pb17  1  0.602742  0.603374  0.247291  1
