# generated using pymatgen
data_Zr5ScGa10
_symmetry_space_group_name_H-M   'P 1'
_cell_length_a   5.72002726
_cell_length_b   5.72002748
_cell_length_c   9.10833301
_cell_angle_alpha   89.99590995
_cell_angle_beta   89.99591142
_cell_angle_gamma   102.44038694
_symmetry_Int_Tables_number   1
_chemical_formula_structural   Zr5ScGa10
_chemical_formula_sum   'Zr5 Sc1 Ga10'
_cell_volume   291.01578986
_cell_formula_units_Z   1
loop_
 _symmetry_equiv_pos_site_id
 _symmetry_equiv_pos_as_xyz
  1  'x, y, z'
loop_
 _atom_site_type_symbol
 _atom_site_label
 _atom_site_symmetry_multiplicity
 _atom_site_fract_x
 _atom_site_fract_y
 _atom_site_fract_z
 _atom_site_occupancy
  Zr  Zr0  1  0.204572  0.795428  0.000000  1
  Zr  Zr1  1  0.205401  0.794599  0.500000  1
  Zr  Zr2  1  0.795039  0.204961  0.500000  1
  Zr  Zr3  1  0.636669  0.637104  0.250493  1
  Zr  Zr4  1  0.362896  0.363331  0.749507  1
  Sc  Sc5  1  0.794996  0.205004  0.000000  1
  Ga  Ga6  1  0.077208  0.497575  0.250007  1
  Ga  Ga7  1  0.922334  0.500932  0.750544  1
  Ga  Ga8  1  0.499068  0.077666  0.249456  1
  Ga  Ga9  1  0.502425  0.922792  0.749993  1
  Ga  Ga10  1  0.016674  0.017653  0.250175  1
  Ga  Ga11  1  0.982347  0.983326  0.749825  1
  Ga  Ga12  1  0.315417  0.314893  0.050311  1
  Ga  Ga13  1  0.685107  0.684583  0.949689  1
  Ga  Ga14  1  0.684747  0.684901  0.550075  1
  Ga  Ga15  1  0.315099  0.315253  0.449925  1
