# generated using pymatgen
data_PaSe4I
_symmetry_space_group_name_H-M   'P 1'
_cell_length_a   7.58334612
_cell_length_b   8.28337995
_cell_length_c   7.88875282
_cell_angle_alpha   106.35338891
_cell_angle_beta   118.94539327
_cell_angle_gamma   89.42886748
_symmetry_Int_Tables_number   1
_chemical_formula_structural   PaSe4I
_chemical_formula_sum   'Pa2 Se8 I2'
_cell_volume   411.35851573
_cell_formula_units_Z   2
loop_
 _symmetry_equiv_pos_site_id
 _symmetry_equiv_pos_as_xyz
  1  'x, y, z'
loop_
 _atom_site_type_symbol
 _atom_site_label
 _atom_site_symmetry_multiplicity
 _atom_site_fract_x
 _atom_site_fract_y
 _atom_site_fract_z
 _atom_site_occupancy
  Pa  Pa0  1  0.303004  0.000148  0.105327  1
  Pa  Pa1  1  0.697012  0.999835  0.894649  1
  Se  Se2  1  0.513837  0.272189  0.063983  1
  Se  Se3  1  0.049989  0.275635  0.131802  1
  Se  Se4  1  0.015604  0.866828  0.199904  1
  Se  Se5  1  0.735301  0.143921  0.301470  1
  Se  Se6  1  0.264643  0.856099  0.698568  1
  Se  Se7  1  0.984460  0.133182  0.800147  1
  Se  Se8  1  0.950108  0.724378  0.868261  1
  Se  Se9  1  0.486131  0.727791  0.936040  1
  I  I10  1  0.563082  0.780187  0.418131  1
  I  I11  1  0.436829  0.219804  0.581720  1
