# generated using pymatgen
data_Yb(PrSn)4
_symmetry_space_group_name_H-M   'P 1'
_cell_length_a   8.14350700
_cell_length_b   8.50713400
_cell_length_c   16.25672900
_cell_angle_alpha   90.00000000
_cell_angle_beta   90.00000000
_cell_angle_gamma   90.00000000
_symmetry_Int_Tables_number   1
_chemical_formula_structural   Yb(PrSn)4
_chemical_formula_sum   'Yb4 Pr16 Sn16'
_cell_volume   1126.23213181
_cell_formula_units_Z   4
loop_
 _symmetry_equiv_pos_site_id
 _symmetry_equiv_pos_as_xyz
  1  'x, y, z'
loop_
 _atom_site_type_symbol
 _atom_site_label
 _atom_site_symmetry_multiplicity
 _atom_site_fract_x
 _atom_site_fract_y
 _atom_site_fract_z
 _atom_site_occupancy
  Yb  Yb0  1  0.822872  0.503270  0.750000  1
  Yb  Yb1  1  0.322872  0.996730  0.750000  1
  Yb  Yb2  1  0.177128  0.496730  0.250000  1
  Yb  Yb3  1  0.677128  0.003270  0.250000  1
  Pr  Pr4  1  0.651969  0.171984  0.623954  1
  Pr  Pr5  1  0.151969  0.328016  0.876046  1
  Pr  Pr6  1  0.348031  0.828016  0.123954  1
  Pr  Pr7  1  0.848031  0.671984  0.376046  1
  Pr  Pr8  1  0.348031  0.828016  0.376046  1
  Pr  Pr9  1  0.848031  0.671984  0.123954  1
  Pr  Pr10  1  0.651969  0.171984  0.876046  1
  Pr  Pr11  1  0.151969  0.328016  0.623954  1
  Pr  Pr12  1  0.499594  0.682590  0.595838  1
  Pr  Pr13  1  0.999594  0.817410  0.904162  1
  Pr  Pr14  1  0.500406  0.317410  0.095838  1
  Pr  Pr15  1  0.000406  0.182590  0.404162  1
  Pr  Pr16  1  0.500406  0.317410  0.404162  1
  Pr  Pr17  1  0.000406  0.182590  0.095838  1
  Pr  Pr18  1  0.499594  0.682590  0.904162  1
  Pr  Pr19  1  0.999594  0.817410  0.595838  1
  Sn  Sn20  1  0.685095  0.962841  0.462866  1
  Sn  Sn21  1  0.185095  0.537159  0.037134  1
  Sn  Sn22  1  0.314905  0.037159  0.962866  1
  Sn  Sn23  1  0.814905  0.462841  0.537134  1
  Sn  Sn24  1  0.314905  0.037159  0.537134  1
  Sn  Sn25  1  0.814905  0.462841  0.962866  1
  Sn  Sn26  1  0.685095  0.962841  0.037134  1
  Sn  Sn27  1  0.185095  0.537159  0.462866  1
  Sn  Sn28  1  0.453308  0.396495  0.750000  1
  Sn  Sn29  1  0.953308  0.103505  0.750000  1
  Sn  Sn30  1  0.546692  0.603505  0.250000  1
  Sn  Sn31  1  0.046692  0.896495  0.250000  1
  Sn  Sn32  1  0.694937  0.858951  0.750000  1
  Sn  Sn33  1  0.194937  0.641049  0.750000  1
  Sn  Sn34  1  0.305063  0.141049  0.250000  1
  Sn  Sn35  1  0.805063  0.358951  0.250000  1
