# generated using pymatgen
data_Ca8Fe2NiN8
_symmetry_space_group_name_H-M   'P 1'
_cell_length_a   9.21067893
_cell_length_b   4.97328446
_cell_length_c   7.06143714
_cell_angle_alpha   90.00001517
_cell_angle_beta   74.97535612
_cell_angle_gamma   74.33729858
_symmetry_Int_Tables_number   1
_chemical_formula_structural   Ca8Fe2NiN8
_chemical_formula_sum   'Ca8 Fe2 Ni1 N8'
_cell_volume   299.95420797
_cell_formula_units_Z   1
loop_
 _symmetry_equiv_pos_site_id
 _symmetry_equiv_pos_as_xyz
  1  'x, y, z'
loop_
 _atom_site_type_symbol
 _atom_site_label
 _atom_site_symmetry_multiplicity
 _atom_site_fract_x
 _atom_site_fract_y
 _atom_site_fract_z
 _atom_site_occupancy
  Ca  Ca0  1  0.059206  0.970397  0.740978  1
  Ca  Ca1  1  0.940794  0.029603  0.259022  1
  Ca  Ca2  1  0.669052  0.665474  0.470966  1
  Ca  Ca3  1  0.330948  0.334526  0.529034  1
  Ca  Ca4  1  0.815104  0.592449  0.965684  1
  Ca  Ca5  1  0.184896  0.407551  0.034316  1
  Ca  Ca6  1  0.600572  0.199714  0.808506  1
  Ca  Ca7  1  0.399428  0.800286  0.191494  1
  Fe  Fe8  1  0.376177  0.811911  0.792519  1
  Fe  Fe9  1  0.623823  0.188089  0.207481  1
  Ni  Ni10  1  0.000000  0.500000  0.500000  1
  N  N11  1  0.208326  0.895837  0.995545  1
  N  N12  1  0.791674  0.104163  0.004455  1
  N  N13  1  0.353176  0.823412  0.555905  1
  N  N14  1  0.646824  0.176588  0.444095  1
  N  N15  1  0.563189  0.718406  0.830752  1
  N  N16  1  0.436811  0.281594  0.169248  1
  N  N17  1  0.059297  0.470352  0.726966  1
  N  N18  1  0.940703  0.529648  0.273034  1
