# generated using pymatgen
data_Ce4NiRu7
_symmetry_space_group_name_H-M   'P 1'
_cell_length_a   5.37102400
_cell_length_b   5.26868908
_cell_length_c   8.72615000
_cell_angle_alpha   90.00000000
_cell_angle_beta   90.00000000
_cell_angle_gamma   120.64462224
_symmetry_Int_Tables_number   1
_chemical_formula_structural   Ce4NiRu7
_chemical_formula_sum   'Ce4 Ni1 Ru7'
_cell_volume   212.44921898
_cell_formula_units_Z   1
loop_
 _symmetry_equiv_pos_site_id
 _symmetry_equiv_pos_as_xyz
  1  'x, y, z'
loop_
 _atom_site_type_symbol
 _atom_site_label
 _atom_site_symmetry_multiplicity
 _atom_site_fract_x
 _atom_site_fract_y
 _atom_site_fract_z
 _atom_site_occupancy
  Ce  Ce0  1  0.331751  0.663504  0.430740  1
  Ce  Ce1  1  0.666056  0.332111  0.576677  1
  Ce  Ce2  1  0.666056  0.332111  0.923323  1
  Ce  Ce3  1  0.331751  0.663504  0.069260  1
  Ni  Ni4  1  0.167660  0.335321  0.750000  1
  Ru  Ru5  1  0.173058  0.834442  0.750000  1
  Ru  Ru6  1  0.342045  0.171589  0.250000  1
  Ru  Ru7  1  0.830626  0.661250  0.250000  1
  Ru  Ru8  1  0.661383  0.834442  0.750000  1
  Ru  Ru9  1  0.000035  0.000069  0.999300  1
  Ru  Ru10  1  0.829545  0.171589  0.250000  1
  Ru  Ru11  1  0.000035  0.000069  0.500700  1
