# generated using pymatgen
data_Dy2Pa(Ni3As2)3
_symmetry_space_group_name_H-M   'P 1'
_cell_length_a   3.90717900
_cell_length_b   10.81686300
_cell_length_c   12.73868600
_cell_angle_alpha   90.00000000
_cell_angle_beta   90.00000000
_cell_angle_gamma   90.00000000
_symmetry_Int_Tables_number   1
_chemical_formula_structural   Dy2Pa(Ni3As2)3
_chemical_formula_sum   'Dy4 Pa2 Ni18 As12'
_cell_volume   538.38043615
_cell_formula_units_Z   2
loop_
 _symmetry_equiv_pos_site_id
 _symmetry_equiv_pos_as_xyz
  1  'x, y, z'
loop_
 _atom_site_type_symbol
 _atom_site_label
 _atom_site_symmetry_multiplicity
 _atom_site_fract_x
 _atom_site_fract_y
 _atom_site_fract_z
 _atom_site_occupancy
  Dy  Dy0  1  0.500000  0.814884  0.206239  1
  Dy  Dy1  1  0.500000  0.185116  0.206239  1
  Dy  Dy2  1  0.000000  0.685116  0.793761  1
  Dy  Dy3  1  0.000000  0.314884  0.793761  1
  Pa  Pa4  1  0.000000  0.500000  0.524987  1
  Pa  Pa5  1  0.500000  0.000000  0.475013  1
  Ni  Ni6  1  0.500000  0.500000  0.152817  1
  Ni  Ni7  1  0.000000  0.000000  0.847183  1
  Ni  Ni8  1  0.500000  0.500000  0.693677  1
  Ni  Ni9  1  0.000000  0.000000  0.306323  1
  Ni  Ni10  1  0.000000  0.500000  0.980205  1
  Ni  Ni11  1  0.500000  0.000000  0.019795  1
  Ni  Ni12  1  0.500000  0.333096  0.995445  1
  Ni  Ni13  1  0.500000  0.666904  0.995445  1
  Ni  Ni14  1  0.000000  0.166904  0.004555  1
  Ni  Ni15  1  0.000000  0.833096  0.004555  1
  Ni  Ni16  1  0.500000  0.303557  0.429920  1
  Ni  Ni17  1  0.500000  0.696443  0.429920  1
  Ni  Ni18  1  0.000000  0.196443  0.570080  1
  Ni  Ni19  1  0.000000  0.803557  0.570080  1
  Ni  Ni20  1  0.500000  0.880930  0.708644  1
  Ni  Ni21  1  0.500000  0.119070  0.708644  1
  Ni  Ni22  1  0.000000  0.619070  0.291356  1
  Ni  Ni23  1  0.000000  0.380930  0.291356  1
  As  As24  1  0.500000  0.500000  0.873821  1
  As  As25  1  0.000000  0.000000  0.126179  1
  As  As26  1  0.500000  0.500000  0.342000  1
  As  As27  1  0.000000  0.000000  0.658000  1
  As  As28  1  0.500000  0.309001  0.615218  1
  As  As29  1  0.500000  0.690999  0.615218  1
  As  As30  1  0.000000  0.190999  0.384782  1
  As  As31  1  0.000000  0.809001  0.384782  1
  As  As32  1  0.500000  0.848359  0.891695  1
  As  As33  1  0.500000  0.151641  0.891695  1
  As  As34  1  0.000000  0.651641  0.108305  1
  As  As35  1  0.000000  0.348359  0.108305  1
