# generated using pymatgen
data_Er16Tl3InRu3Rh
_symmetry_space_group_name_H-M   'P 1'
_cell_length_a   9.59738136
_cell_length_b   9.59738085
_cell_length_c   9.59738152
_cell_angle_alpha   59.83342123
_cell_angle_beta   59.83342549
_cell_angle_gamma   59.83342350
_symmetry_Int_Tables_number   1
_chemical_formula_structural   Er16Tl3InRu3Rh
_chemical_formula_sum   'Er16 Tl3 In1 Ru3 Rh1'
_cell_volume   622.72774754
_cell_formula_units_Z   1
loop_
 _symmetry_equiv_pos_site_id
 _symmetry_equiv_pos_as_xyz
  1  'x, y, z'
loop_
 _atom_site_type_symbol
 _atom_site_label
 _atom_site_symmetry_multiplicity
 _atom_site_fract_x
 _atom_site_fract_y
 _atom_site_fract_z
 _atom_site_occupancy
  Er  Er0  1  0.191297  0.191297  0.810720  1
  Er  Er1  1  0.439690  0.059383  0.059383  1
  Er  Er2  1  0.441399  0.059391  0.441399  1
  Er  Er3  1  0.059383  0.439690  0.059383  1
  Er  Er4  1  0.650637  0.044685  0.650637  1
  Er  Er5  1  0.192496  0.809723  0.809723  1
  Er  Er6  1  0.059383  0.059383  0.439690  1
  Er  Er7  1  0.810720  0.191297  0.191297  1
  Er  Er8  1  0.809723  0.809723  0.192496  1
  Er  Er9  1  0.650637  0.650637  0.044685  1
  Er  Er10  1  0.650941  0.650941  0.650941  1
  Er  Er11  1  0.059391  0.441399  0.441399  1
  Er  Er12  1  0.044685  0.650637  0.650637  1
  Er  Er13  1  0.809723  0.192496  0.809723  1
  Er  Er14  1  0.441399  0.441399  0.059391  1
  Er  Er15  1  0.191297  0.810720  0.191297  1
  Tl  Tl16  1  0.414179  0.755769  0.414179  1
  Tl  Tl17  1  0.414179  0.414179  0.755769  1
  Tl  Tl18  1  0.755769  0.414179  0.414179  1
  In  In19  1  0.416340  0.416340  0.416340  1
  Ru  Ru20  1  0.858029  0.421157  0.858029  1
  Ru  Ru21  1  0.858029  0.858029  0.421157  1
  Ru  Ru22  1  0.421157  0.858029  0.858029  1
  Rh  Rh23  1  0.859516  0.859516  0.859516  1
