# generated using pymatgen
data_Tm3Lu6Th3Ru4
_symmetry_space_group_name_H-M   'P 1'
_cell_length_a   6.24912450
_cell_length_b   7.17734449
_cell_length_c   9.32089014
_cell_angle_alpha   89.96478601
_cell_angle_beta   89.95544105
_cell_angle_gamma   89.61027633
_symmetry_Int_Tables_number   1
_chemical_formula_structural   Tm3Lu6Th3Ru4
_chemical_formula_sum   'Tm3 Lu6 Th3 Ru4'
_cell_volume   418.05180087
_cell_formula_units_Z   1
loop_
 _symmetry_equiv_pos_site_id
 _symmetry_equiv_pos_as_xyz
  1  'x, y, z'
loop_
 _atom_site_type_symbol
 _atom_site_label
 _atom_site_symmetry_multiplicity
 _atom_site_fract_x
 _atom_site_fract_y
 _atom_site_fract_z
 _atom_site_occupancy
  Tm  Tm0  1  0.861700  0.536086  0.249512  1
  Tm  Tm1  1  0.329749  0.676119  0.430981  1
  Tm  Tm2  1  0.664564  0.325549  0.563684  1
  Lu  Lu3  1  0.166777  0.175474  0.066966  1
  Lu  Lu4  1  0.835802  0.823231  0.937290  1
  Lu  Lu5  1  0.664247  0.325989  0.936388  1
  Lu  Lu6  1  0.835964  0.823334  0.562929  1
  Lu  Lu7  1  0.330037  0.675740  0.068886  1
  Lu  Lu8  1  0.166511  0.175111  0.432686  1
  Th  Th9  1  0.649189  0.045618  0.249544  1
  Th  Th10  1  0.352956  0.953164  0.750426  1
  Th  Th11  1  0.145671  0.455004  0.750730  1
  Ru  Ru12  1  0.458501  0.368018  0.249271  1
  Ru  Ru13  1  0.541032  0.630263  0.750724  1
  Ru  Ru14  1  0.961698  0.130327  0.750433  1
  Ru  Ru15  1  0.035602  0.880973  0.249550  1
