# generated using pymatgen
data_CaTm7(CuP)12
_symmetry_space_group_name_H-M   'P 1'
_cell_length_a   3.80793300
_cell_length_b   10.61687002
_cell_length_c   12.90975600
_cell_angle_alpha   90.00305452
_cell_angle_beta   90.00000000
_cell_angle_gamma   90.00000000
_symmetry_Int_Tables_number   1
_chemical_formula_structural   CaTm7(CuP)12
_chemical_formula_sum   'Ca1 Tm7 Cu12 P12'
_cell_volume   521.91987101
_cell_formula_units_Z   1
loop_
 _symmetry_equiv_pos_site_id
 _symmetry_equiv_pos_as_xyz
  1  'x, y, z'
loop_
 _atom_site_type_symbol
 _atom_site_label
 _atom_site_symmetry_multiplicity
 _atom_site_fract_x
 _atom_site_fract_y
 _atom_site_fract_z
 _atom_site_occupancy
  Ca  Ca0  1  0.250000  0.931273  0.791228  1
  Tm  Tm1  1  0.750000  0.431896  0.708918  1
  Tm  Tm2  1  0.250000  0.568514  0.291791  1
  Tm  Tm3  1  0.750000  0.069035  0.206864  1
  Tm  Tm4  1  0.250000  0.840753  0.502879  1
  Tm  Tm5  1  0.750000  0.341416  0.996886  1
  Tm  Tm6  1  0.250000  0.659201  0.002777  1
  Tm  Tm7  1  0.750000  0.157833  0.497132  1
  Cu  Cu8  1  0.250000  0.405997  0.514332  1
  Cu  Cu9  1  0.750000  0.904944  0.984265  1
  Cu  Cu10  1  0.250000  0.096113  0.014798  1
  Cu  Cu11  1  0.750000  0.593664  0.487076  1
  Cu  Cu12  1  0.250000  0.272399  0.331038  1
  Cu  Cu13  1  0.750000  0.772399  0.168585  1
  Cu  Cu14  1  0.250000  0.228221  0.832903  1
  Cu  Cu15  1  0.750000  0.732223  0.670798  1
  Cu  Cu16  1  0.250000  0.859998  0.281700  1
  Cu  Cu17  1  0.750000  0.360458  0.218302  1
  Cu  Cu18  1  0.250000  0.637507  0.782567  1
  Cu  Cu19  1  0.750000  0.138832  0.717836  1
  P  P20  1  0.250000  0.244276  0.642703  1
  P  P21  1  0.750000  0.736109  0.859884  1
  P  P22  1  0.250000  0.257764  0.142270  1
  P  P23  1  0.750000  0.754737  0.357455  1
  P  P24  1  0.250000  0.606619  0.602657  1
  P  P25  1  0.750000  0.108252  0.900155  1
  P  P26  1  0.250000  0.894731  0.101642  1
  P  P27  1  0.750000  0.394271  0.397969  1
  P  P28  1  0.250000  0.056524  0.368628  1
  P  P29  1  0.750000  0.556139  0.130384  1
  P  P30  1  0.250000  0.442886  0.870344  1
  P  P31  1  0.750000  0.945019  0.623235  1
