# generated using pymatgen
data_Sm3Hg2Pb3
_symmetry_space_group_name_H-M   'P 1'
_cell_length_a   6.63660384
_cell_length_b   6.63660399
_cell_length_c   10.43940300
_cell_angle_alpha   90.00000000
_cell_angle_beta   90.00000000
_cell_angle_gamma   102.87292141
_symmetry_Int_Tables_number   1
_chemical_formula_structural   Sm3Hg2Pb3
_chemical_formula_sum   'Sm6 Hg4 Pb6'
_cell_volume   448.24210691
_cell_formula_units_Z   2
loop_
 _symmetry_equiv_pos_site_id
 _symmetry_equiv_pos_as_xyz
  1  'x, y, z'
loop_
 _atom_site_type_symbol
 _atom_site_label
 _atom_site_symmetry_multiplicity
 _atom_site_fract_x
 _atom_site_fract_y
 _atom_site_fract_z
 _atom_site_occupancy
  Sm  Sm0  1  0.603036  0.603036  0.250000  1
  Sm  Sm1  1  0.396964  0.396964  0.750000  1
  Sm  Sm2  1  0.791703  0.208297  0.000000  1
  Sm  Sm3  1  0.208297  0.791703  0.000000  1
  Sm  Sm4  1  0.208297  0.791703  0.500000  1
  Sm  Sm5  1  0.791703  0.208297  0.500000  1
  Hg  Hg6  1  0.307276  0.307276  0.034334  1
  Hg  Hg7  1  0.692724  0.692724  0.965666  1
  Hg  Hg8  1  0.692724  0.692724  0.534334  1
  Hg  Hg9  1  0.307276  0.307276  0.465666  1
  Pb  Pb10  1  0.056759  0.494814  0.250000  1
  Pb  Pb11  1  0.943241  0.505186  0.750000  1
  Pb  Pb12  1  0.494814  0.056759  0.250000  1
  Pb  Pb13  1  0.505186  0.943241  0.750000  1
  Pb  Pb14  1  0.000777  0.000777  0.250000  1
  Pb  Pb15  1  0.999223  0.999223  0.750000  1
