# generated using pymatgen
data_BiSb7PtAu3
_symmetry_space_group_name_H-M   'P 1'
_cell_length_a   6.76269842
_cell_length_b   6.78178492
_cell_length_c   6.76275645
_cell_angle_alpha   89.07515010
_cell_angle_beta   90.76767032
_cell_angle_gamma   89.22875848
_symmetry_Int_Tables_number   1
_chemical_formula_structural   BiSb7PtAu3
_chemical_formula_sum   'Bi1 Sb7 Pt1 Au3'
_cell_volume   310.06416573
_cell_formula_units_Z   1
loop_
 _symmetry_equiv_pos_site_id
 _symmetry_equiv_pos_as_xyz
  1  'x, y, z'
loop_
 _atom_site_type_symbol
 _atom_site_label
 _atom_site_symmetry_multiplicity
 _atom_site_fract_x
 _atom_site_fract_y
 _atom_site_fract_z
 _atom_site_occupancy
  Bi  Bi0  1  0.376040  0.135604  0.874642  1
  Sb  Sb1  1  0.124261  0.875371  0.379103  1
  Sb  Sb2  1  0.868998  0.378728  0.120283  1
  Sb  Sb3  1  0.621226  0.617754  0.634051  1
  Sb  Sb4  1  0.379959  0.382720  0.366417  1
  Sb  Sb5  1  0.131681  0.621980  0.881198  1
  Sb  Sb6  1  0.875828  0.123451  0.621213  1
  Sb  Sb7  1  0.623812  0.862857  0.124854  1
  Pt  Pt8  1  0.502275  0.507081  0.003065  1
  Au  Au9  1  0.000411  0.499769  0.500641  1
  Au  Au10  1  0.503229  0.997769  0.492357  1
  Au  Au11  1  0.992279  0.996919  0.002174  1
