# generated using pymatgen
data_Y7HoMgInRh2
_symmetry_space_group_name_H-M   'P 1'
_cell_length_a   9.70505773
_cell_length_b   9.71935322
_cell_length_c   9.72699519
_cell_angle_alpha   59.91614550
_cell_angle_beta   59.86738227
_cell_angle_gamma   59.73667491
_symmetry_Int_Tables_number   1
_chemical_formula_structural   Y7HoMgInRh2
_chemical_formula_sum   'Y14 Ho2 Mg2 In2 Rh4'
_cell_volume   646.42430592
_cell_formula_units_Z   2
loop_
 _symmetry_equiv_pos_site_id
 _symmetry_equiv_pos_as_xyz
  1  'x, y, z'
loop_
 _atom_site_type_symbol
 _atom_site_label
 _atom_site_symmetry_multiplicity
 _atom_site_fract_x
 _atom_site_fract_y
 _atom_site_fract_z
 _atom_site_occupancy
  Y  Y0  1  0.187925  0.187345  0.812440  1
  Y  Y1  1  0.600566  0.600891  0.200692  1
  Y  Y2  1  0.439645  0.059590  0.440329  1
  Y  Y3  1  0.442262  0.442592  0.057131  1
  Y  Y4  1  0.812776  0.187238  0.813996  1
  Y  Y5  1  0.187621  0.812847  0.187695  1
  Y  Y6  1  0.438859  0.060632  0.060022  1
  Y  Y7  1  0.186298  0.814092  0.814554  1
  Y  Y8  1  0.060984  0.438453  0.060677  1
  Y  Y9  1  0.814721  0.815404  0.185706  1
  Y  Y10  1  0.205679  0.598163  0.599745  1
  Y  Y11  1  0.059612  0.439575  0.440181  1
  Y  Y12  1  0.063017  0.063306  0.435247  1
  Y  Y13  1  0.811617  0.188567  0.188564  1
  Ho  Ho14  1  0.597141  0.207469  0.599307  1
  Ho  Ho15  1  0.596881  0.597263  0.598062  1
  Mg  Mg16  1  0.827680  0.826129  0.828714  1
  Mg  Mg17  1  0.825943  0.826616  0.515013  1
  In  In18  1  0.503030  0.832392  0.830465  1
  In  In19  1  0.833078  0.502801  0.830296  1
  Rh  Rh20  1  0.393899  0.823287  0.391998  1
  Rh  Rh21  1  0.394706  0.391845  0.391879  1
  Rh  Rh22  1  0.821436  0.392312  0.393737  1
  Rh  Rh23  1  0.394623  0.391189  0.823552  1
