# generated using pymatgen
data_HfZr7(MnBi2)2
_symmetry_space_group_name_H-M   'P 1'
_cell_length_a   8.31316048
_cell_length_b   8.31316033
_cell_length_c   8.31962531
_cell_angle_alpha   96.04693677
_cell_angle_beta   96.00151877
_cell_angle_gamma   142.17958071
_symmetry_Int_Tables_number   1
_chemical_formula_structural   HfZr7(MnBi2)2
_chemical_formula_sum   'Hf1 Zr7 Mn2 Bi4'
_cell_volume   333.56008994
_cell_formula_units_Z   1
loop_
 _symmetry_equiv_pos_site_id
 _symmetry_equiv_pos_as_xyz
  1  'x, y, z'
loop_
 _atom_site_type_symbol
 _atom_site_label
 _atom_site_symmetry_multiplicity
 _atom_site_fract_x
 _atom_site_fract_y
 _atom_site_fract_z
 _atom_site_occupancy
  Hf  Hf0  1  0.191975  0.920043  0.112080  1
  Zr  Zr1  1  0.696270  0.581400  0.277656  1
  Zr  Zr2  1  0.304128  0.418607  0.722719  1
  Zr  Zr3  1  0.581917  0.304052  0.885956  1
  Zr  Zr4  1  0.081461  0.195611  0.277096  1
  Zr  Zr5  1  0.804125  0.081174  0.885336  1
  Zr  Zr6  1  0.418288  0.696113  0.114384  1
  Zr  Zr7  1  0.918884  0.804303  0.723210  1
  Mn  Mn8  1  0.251088  0.249446  0.000587  1
  Mn  Mn9  1  0.751225  0.749545  0.000600  1
  Bi  Bi10  1  0.139503  0.639591  0.779102  1
  Bi  Bi11  1  0.360910  0.138294  0.499212  1
  Bi  Bi12  1  0.861029  0.361027  0.222067  1
  Bi  Bi13  1  0.639197  0.860793  0.499996  1
