# generated using pymatgen
data_Tb4PrSmTa2O14
_symmetry_space_group_name_H-M   'P 1'
_cell_length_a   6.52976052
_cell_length_b   6.52976124
_cell_length_c   7.62082205
_cell_angle_alpha   89.98925562
_cell_angle_beta   90.01074296
_cell_angle_gamma   109.36066425
_symmetry_Int_Tables_number   1
_chemical_formula_structural   Tb4PrSmTa2O14
_chemical_formula_sum   'Tb4 Pr1 Sm1 Ta2 O14'
_cell_volume   306.55998969
_cell_formula_units_Z   1
loop_
 _symmetry_equiv_pos_site_id
 _symmetry_equiv_pos_as_xyz
  1  'x, y, z'
loop_
 _atom_site_type_symbol
 _atom_site_label
 _atom_site_symmetry_multiplicity
 _atom_site_fract_x
 _atom_site_fract_y
 _atom_site_fract_z
 _atom_site_occupancy
  Tb  Tb0  1  0.533927  0.000565  0.751440  1
  Tb  Tb1  1  0.000565  0.533927  0.248560  1
  Tb  Tb2  1  0.466073  0.999435  0.248560  1
  Tb  Tb3  1  0.999435  0.466073  0.751440  1
  Pr  Pr4  1  0.500000  0.500000  0.500000  1
  Sm  Sm5  1  0.500000  0.500000  0.000000  1
  Ta  Ta6  1  0.000000  0.000000  0.500000  1
  Ta  Ta7  1  0.000000  0.000000  0.000000  1
  O  O8  1  0.680757  0.931801  0.468083  1
  O  O9  1  0.931801  0.680757  0.531917  1
  O  O10  1  0.680781  0.929999  0.031714  1
  O  O11  1  0.929999  0.680781  0.968286  1
  O  O12  1  0.319243  0.068199  0.531917  1
  O  O13  1  0.068199  0.319243  0.468083  1
  O  O14  1  0.319219  0.070001  0.968286  1
  O  O15  1  0.070001  0.319219  0.031714  1
  O  O16  1  0.936611  0.063389  0.749871  1
  O  O17  1  0.063389  0.936611  0.250129  1
  O  O18  1  0.365305  0.634694  0.755099  1
  O  O19  1  0.634694  0.365305  0.244901  1
  O  O20  1  0.641058  0.358942  0.754247  1
  O  O21  1  0.358942  0.641058  0.245753  1
