# generated using pymatgen
data_H8Ir
_symmetry_space_group_name_H-M   'P 1'
_cell_length_a   2.84695956
_cell_length_b   2.84638765
_cell_length_c   9.97774840
_cell_angle_alpha   87.44559930
_cell_angle_beta   93.90612473
_cell_angle_gamma   90.00604766
_symmetry_Int_Tables_number   1
_chemical_formula_structural   H8Ir
_chemical_formula_sum   'H8 Ir1'
_cell_volume   80.58685894
_cell_formula_units_Z   1
loop_
 _symmetry_equiv_pos_site_id
 _symmetry_equiv_pos_as_xyz
  1  'x, y, z'
loop_
 _atom_site_type_symbol
 _atom_site_label
 _atom_site_symmetry_multiplicity
 _atom_site_fract_x
 _atom_site_fract_y
 _atom_site_fract_z
 _atom_site_occupancy
  H  H0  1  0.453501  0.827832  0.967718  1
  H  H1  1  0.954458  0.325558  0.969116  1
  H  H2  1  0.903993  0.360243  0.752946  1
  H  H3  1  0.212496  0.241830  0.495629  1
  H  H4  1  0.356773  0.436887  0.525013  1
  H  H5  1  0.471968  0.730778  0.266295  1
  H  H6  1  0.403267  0.862652  0.754221  1
  H  H7  1  0.645000  0.631352  0.221793  1
  Ir  Ir8  1  0.928127  0.842867  0.860887  1
