# generated using pymatgen
data_Sc3In4CoCu
_symmetry_space_group_name_H-M   'P 1'
_cell_length_a   7.71970300
_cell_length_b   7.71970333
_cell_length_c   3.46672000
_cell_angle_alpha   90.00000000
_cell_angle_beta   90.00000000
_cell_angle_gamma   120.00000287
_symmetry_Int_Tables_number   1
_chemical_formula_structural   Sc3In4CoCu
_chemical_formula_sum   'Sc3 In4 Co1 Cu1'
_cell_volume   178.91657990
_cell_formula_units_Z   1
loop_
 _symmetry_equiv_pos_site_id
 _symmetry_equiv_pos_as_xyz
  1  'x, y, z'
loop_
 _atom_site_type_symbol
 _atom_site_label
 _atom_site_symmetry_multiplicity
 _atom_site_fract_x
 _atom_site_fract_y
 _atom_site_fract_z
 _atom_site_occupancy
  Sc  Sc0  1  0.282716  0.239317  0.500000  1
  Sc  Sc1  1  0.760683  0.043397  0.500000  1
  Sc  Sc2  1  0.956603  0.717284  0.500000  1
  In  In3  1  0.070190  0.402144  0.000000  1
  In  In4  1  0.597856  0.668046  0.000000  1
  In  In5  1  0.331954  0.929810  0.000000  1
  In  In6  1  0.666667  0.333333  0.000000  1
  Co  Co7  1  0.000000  0.000000  0.000000  1
  Cu  Cu8  1  0.333333  0.666667  0.500000  1
