# generated using pymatgen
data_Rb4ScNbBr12
_symmetry_space_group_name_H-M   'P 1'
_cell_length_a   7.65720400
_cell_length_b   7.65720400
_cell_length_c   11.45996700
_cell_angle_alpha   90.00000000
_cell_angle_beta   90.00000000
_cell_angle_gamma   90.00000000
_symmetry_Int_Tables_number   1
_chemical_formula_structural   Rb4ScNbBr12
_chemical_formula_sum   'Rb4 Sc1 Nb1 Br12'
_cell_volume   671.92964482
_cell_formula_units_Z   1
loop_
 _symmetry_equiv_pos_site_id
 _symmetry_equiv_pos_as_xyz
  1  'x, y, z'
loop_
 _atom_site_type_symbol
 _atom_site_label
 _atom_site_symmetry_multiplicity
 _atom_site_fract_x
 _atom_site_fract_y
 _atom_site_fract_z
 _atom_site_occupancy
  Rb  Rb0  1  0.500000  0.000000  0.794964  1
  Rb  Rb1  1  0.000000  0.500000  0.205036  1
  Rb  Rb2  1  0.500000  0.000000  0.205036  1
  Rb  Rb3  1  0.000000  0.500000  0.794964  1
  Sc  Sc4  1  0.000000  0.000000  0.000000  1
  Nb  Nb5  1  0.500000  0.500000  0.500000  1
  Br  Br6  1  0.000000  0.000000  0.765969  1
  Br  Br7  1  0.500000  0.500000  0.275526  1
  Br  Br8  1  0.734848  0.734848  0.500000  1
  Br  Br9  1  0.246284  0.246284  0.000000  1
  Br  Br10  1  0.734848  0.265152  0.500000  1
  Br  Br11  1  0.246284  0.753716  0.000000  1
  Br  Br12  1  0.000000  0.000000  0.234031  1
  Br  Br13  1  0.500000  0.500000  0.724474  1
  Br  Br14  1  0.265152  0.265152  0.500000  1
  Br  Br15  1  0.753716  0.753716  0.000000  1
  Br  Br16  1  0.265152  0.734848  0.500000  1
  Br  Br17  1  0.753716  0.246284  0.000000  1
