# generated using pymatgen
data_Yb7Lu(Si4Tc3)4
_symmetry_space_group_name_H-M   'P 1'
_cell_length_a   6.77682306
_cell_length_b   6.80776719
_cell_length_c   12.55897067
_cell_angle_alpha   89.85852277
_cell_angle_beta   90.01286443
_cell_angle_gamma   89.99141248
_symmetry_Int_Tables_number   1
_chemical_formula_structural   Yb7Lu(Si4Tc3)4
_chemical_formula_sum   'Yb7 Lu1 Si16 Tc12'
_cell_volume   579.40674810
_cell_formula_units_Z   1
loop_
 _symmetry_equiv_pos_site_id
 _symmetry_equiv_pos_as_xyz
  1  'x, y, z'
loop_
 _atom_site_type_symbol
 _atom_site_label
 _atom_site_symmetry_multiplicity
 _atom_site_fract_x
 _atom_site_fract_y
 _atom_site_fract_z
 _atom_site_occupancy
  Yb  Yb0  1  0.491127  0.342140  0.088460  1
  Yb  Yb1  1  0.990004  0.157271  0.411011  1
  Yb  Yb2  1  0.508832  0.657724  0.589282  1
  Yb  Yb3  1  0.008946  0.838924  0.908977  1
  Yb  Yb4  1  0.508503  0.658988  0.910778  1
  Yb  Yb5  1  0.009254  0.841572  0.589278  1
  Yb  Yb6  1  0.491271  0.342922  0.411772  1
  Lu  Lu7  1  0.990233  0.163103  0.094216  1
  Si  Si8  1  0.651077  0.048022  0.551558  1
  Si  Si9  1  0.151838  0.450535  0.949176  1
  Si  Si10  1  0.344363  0.951791  0.050155  1
  Si  Si11  1  0.848931  0.549687  0.447818  1
  Si  Si12  1  0.348384  0.951234  0.447864  1
  Si  Si13  1  0.847997  0.550394  0.050755  1
  Si  Si14  1  0.653857  0.048577  0.949153  1
  Si  Si15  1  0.150954  0.451570  0.551621  1
  Si  Si16  1  0.529311  0.354551  0.751427  1
  Si  Si17  1  0.029087  0.144210  0.749480  1
  Si  Si18  1  0.472391  0.645635  0.249286  1
  Si  Si19  1  0.970876  0.853177  0.249381  1
  Si  Si20  1  0.813670  0.637498  0.749712  1
  Si  Si21  1  0.314669  0.860817  0.749897  1
  Si  Si22  1  0.189018  0.361380  0.251408  1
  Si  Si23  1  0.683572  0.140370  0.250919  1
  Tc  Tc24  1  0.824531  0.347638  0.627237  1
  Tc  Tc25  1  0.323357  0.150004  0.873879  1
  Tc  Tc26  1  0.177531  0.650083  0.126238  1
  Tc  Tc27  1  0.673873  0.848505  0.372032  1
  Tc  Tc28  1  0.176056  0.651471  0.372187  1
  Tc  Tc29  1  0.675663  0.853896  0.125852  1
  Tc  Tc30  1  0.826665  0.346536  0.874436  1
  Tc  Tc31  1  0.326416  0.151705  0.627360  1
  Tc  Tc32  1  0.674118  0.997606  0.750414  1
  Tc  Tc33  1  0.174622  0.500426  0.750115  1
  Tc  Tc34  1  0.322520  0.004082  0.248572  1
  Tc  Tc35  1  0.826484  0.495958  0.248293  1
