# generated using pymatgen
data_SmGd3(SO6)2
_symmetry_space_group_name_H-M   'P 1'
_cell_length_a   8.18292301
_cell_length_b   13.14155400
_cell_length_c   4.21892952
_cell_angle_alpha   90.00000000
_cell_angle_beta   90.05698812
_cell_angle_gamma   90.00000000
_symmetry_Int_Tables_number   1
_chemical_formula_structural   SmGd3(SO6)2
_chemical_formula_sum   'Sm2 Gd6 S4 O24'
_cell_volume   453.68795026
_cell_formula_units_Z   2
loop_
 _symmetry_equiv_pos_site_id
 _symmetry_equiv_pos_as_xyz
  1  'x, y, z'
loop_
 _atom_site_type_symbol
 _atom_site_label
 _atom_site_symmetry_multiplicity
 _atom_site_fract_x
 _atom_site_fract_y
 _atom_site_fract_z
 _atom_site_occupancy
  Sm  Sm0  1  0.375049  0.080119  0.758043  1
  Sm  Sm1  1  0.375049  0.419880  0.758043  1
  Gd  Gd2  1  0.625161  0.579956  0.243478  1
  Gd  Gd3  1  0.625161  0.920044  0.243478  1
  Gd  Gd4  1  0.124621  0.579941  0.256773  1
  Gd  Gd5  1  0.124621  0.920059  0.256773  1
  Gd  Gd6  1  0.875081  0.078435  0.743153  1
  Gd  Gd7  1  0.875081  0.421564  0.743153  1
  S  S8  1  0.123605  0.250000  0.194842  1
  S  S9  1  0.624306  0.250000  0.305514  1
  S  S10  1  0.376130  0.750000  0.693786  1
  S  S11  1  0.876007  0.750000  0.805245  1
  O  O12  1  0.727512  0.750000  0.013301  1
  O  O13  1  0.023453  0.750000  0.016464  1
  O  O14  1  0.623490  0.156913  0.107952  1
  O  O15  1  0.623490  0.343087  0.107952  1
  O  O16  1  0.874761  0.003777  0.233614  1
  O  O17  1  0.874761  0.496222  0.233614  1
  O  O18  1  0.374776  0.002599  0.266550  1
  O  O19  1  0.374776  0.497400  0.266550  1
  O  O20  1  0.124220  0.156889  0.392327  1
  O  O21  1  0.124220  0.343111  0.392327  1
  O  O22  1  0.523457  0.750000  0.482929  1
  O  O23  1  0.227343  0.750000  0.485826  1
  O  O24  1  0.772817  0.250000  0.513404  1
  O  O25  1  0.476816  0.250000  0.516338  1
  O  O26  1  0.876157  0.657022  0.607570  1
  O  O27  1  0.876157  0.842978  0.607570  1
  O  O28  1  0.626793  0.504657  0.733473  1
  O  O29  1  0.626793  0.995343  0.733473  1
  O  O30  1  0.123508  0.504720  0.766760  1
  O  O31  1  0.123508  0.995280  0.766760  1
  O  O32  1  0.376314  0.656942  0.891107  1
  O  O33  1  0.376314  0.843058  0.891107  1
  O  O34  1  0.976376  0.250000  0.983903  1
  O  O35  1  0.272321  0.250000  0.986859  1
