# generated using pymatgen
data_Ho7Sn23Rh6
_symmetry_space_group_name_H-M   'P 1'
_cell_length_a   9.85368700
_cell_length_b   9.85368602
_cell_length_c   10.10641700
_cell_angle_alpha   90.00000000
_cell_angle_beta   90.00000000
_cell_angle_gamma   119.99999321
_symmetry_Int_Tables_number   1
_chemical_formula_structural   Ho7Sn23Rh6
_chemical_formula_sum   'Ho7 Sn23 Rh6'
_cell_volume   849.81688879
_cell_formula_units_Z   1
loop_
 _symmetry_equiv_pos_site_id
 _symmetry_equiv_pos_as_xyz
  1  'x, y, z'
loop_
 _atom_site_type_symbol
 _atom_site_label
 _atom_site_symmetry_multiplicity
 _atom_site_fract_x
 _atom_site_fract_y
 _atom_site_fract_z
 _atom_site_occupancy
  Ho  Ho0  1  0.000000  0.000000  0.000000  1
  Ho  Ho1  1  0.520456  0.479544  0.692219  1
  Ho  Ho2  1  0.520456  0.040911  0.692219  1
  Ho  Ho3  1  0.959089  0.479544  0.692219  1
  Ho  Ho4  1  0.040911  0.520456  0.307781  1
  Ho  Ho5  1  0.479544  0.959089  0.307781  1
  Ho  Ho6  1  0.479544  0.520456  0.307781  1
  Sn  Sn7  1  0.666667  0.333333  0.179378  1
  Sn  Sn8  1  0.666667  0.333333  0.877141  1
  Sn  Sn9  1  0.333333  0.666667  0.122859  1
  Sn  Sn10  1  0.351100  0.351100  0.000000  1
  Sn  Sn11  1  0.000000  0.648900  0.000000  1
  Sn  Sn12  1  0.648900  0.000000  0.000000  1
  Sn  Sn13  1  0.648900  0.648900  0.000000  1
  Sn  Sn14  1  0.333333  0.666667  0.820622  1
  Sn  Sn15  1  0.444305  0.222153  0.455643  1
  Sn  Sn16  1  0.222153  0.777847  0.544357  1
  Sn  Sn17  1  0.222153  0.444305  0.544357  1
  Sn  Sn18  1  0.555695  0.777847  0.544357  1
  Sn  Sn19  1  0.119756  0.880244  0.281703  1
  Sn  Sn20  1  0.777847  0.555695  0.455643  1
  Sn  Sn21  1  0.777847  0.222153  0.455643  1
  Sn  Sn22  1  0.351100  0.000000  0.000000  1
  Sn  Sn23  1  0.119756  0.239511  0.281703  1
  Sn  Sn24  1  0.760489  0.880244  0.281703  1
  Sn  Sn25  1  0.239511  0.119756  0.718297  1
  Sn  Sn26  1  0.880244  0.760489  0.718297  1
  Sn  Sn27  1  0.880244  0.119756  0.718297  1
  Sn  Sn28  1  0.000000  0.000000  0.500000  1
  Sn  Sn29  1  0.000000  0.351100  0.000000  1
  Rh  Rh30  1  0.168662  0.831338  0.801610  1
  Rh  Rh31  1  0.168662  0.337323  0.801610  1
  Rh  Rh32  1  0.662677  0.831338  0.801610  1
  Rh  Rh33  1  0.337323  0.168662  0.198390  1
  Rh  Rh34  1  0.831338  0.662677  0.198390  1
  Rh  Rh35  1  0.831338  0.168662  0.198390  1
