# generated using pymatgen
data_Rb3NaSnO4
_symmetry_space_group_name_H-M   'P 1'
_cell_length_a   6.68165400
_cell_length_b   11.05282057
_cell_length_c   11.17253324
_cell_angle_alpha   67.93951175
_cell_angle_beta   90.00000000
_cell_angle_gamma   90.00000000
_symmetry_Int_Tables_number   1
_chemical_formula_structural   Rb3NaSnO4
_chemical_formula_sum   'Rb12 Na4 Sn4 O16'
_cell_volume   764.69648420
_cell_formula_units_Z   4
loop_
 _symmetry_equiv_pos_site_id
 _symmetry_equiv_pos_as_xyz
  1  'x, y, z'
loop_
 _atom_site_type_symbol
 _atom_site_label
 _atom_site_symmetry_multiplicity
 _atom_site_fract_x
 _atom_site_fract_y
 _atom_site_fract_z
 _atom_site_occupancy
  Rb  Rb0  1  0.620359  0.679493  0.893116  1
  Rb  Rb1  1  0.325290  0.965366  0.671159  1
  Rb  Rb2  1  0.379641  0.320507  0.106884  1
  Rb  Rb3  1  0.120359  0.320507  0.606884  1
  Rb  Rb4  1  0.607736  0.455560  0.688046  1
  Rb  Rb5  1  0.392264  0.544440  0.311954  1
  Rb  Rb6  1  0.107736  0.544440  0.811954  1
  Rb  Rb7  1  0.892264  0.455560  0.188046  1
  Rb  Rb8  1  0.825290  0.034634  0.828841  1
  Rb  Rb9  1  0.879641  0.679493  0.393116  1
  Rb  Rb10  1  0.174710  0.965366  0.171159  1
  Rb  Rb11  1  0.674710  0.034634  0.328841  1
  Na  Na12  1  0.620223  0.874216  0.110127  1
  Na  Na13  1  0.879777  0.874216  0.610127  1
  Na  Na14  1  0.120223  0.125784  0.389873  1
  Na  Na15  1  0.379777  0.125784  0.889873  1
  Sn  Sn16  1  0.641352  0.240606  0.510894  1
  Sn  Sn17  1  0.358648  0.759394  0.489106  1
  Sn  Sn18  1  0.141352  0.759394  0.989106  1
  Sn  Sn19  1  0.858648  0.240606  0.010894  1
  O  O20  1  0.257187  0.579440  0.052150  1
  O  O21  1  0.242813  0.579440  0.552150  1
  O  O22  1  0.136862  0.890422  0.458654  1
  O  O23  1  0.008850  0.794962  0.818092  1
  O  O24  1  0.567759  0.771667  0.612428  1
  O  O25  1  0.932241  0.771667  0.112428  1
  O  O26  1  0.757187  0.420560  0.447850  1
  O  O27  1  0.742813  0.420560  0.947850  1
  O  O28  1  0.863138  0.109578  0.541346  1
  O  O29  1  0.432241  0.228333  0.387572  1
  O  O30  1  0.508850  0.205038  0.681908  1
  O  O31  1  0.067759  0.228333  0.887572  1
  O  O32  1  0.636862  0.109578  0.041346  1
  O  O33  1  0.991150  0.205038  0.181908  1
  O  O34  1  0.363138  0.890422  0.958654  1
  O  O35  1  0.491150  0.794962  0.318092  1
