# generated using pymatgen
data_Tb12Co4AgRu
_symmetry_space_group_name_H-M   'P 1'
_cell_length_a   8.25982318
_cell_length_b   8.25982354
_cell_length_c   8.25982274
_cell_angle_alpha   111.04104522
_cell_angle_beta   110.14779240
_cell_angle_gamma   107.24873199
_symmetry_Int_Tables_number   1
_chemical_formula_structural   Tb12Co4AgRu
_chemical_formula_sum   'Tb12 Co4 Ag1 Ru1'
_cell_volume   433.28618859
_cell_formula_units_Z   1
loop_
 _symmetry_equiv_pos_site_id
 _symmetry_equiv_pos_as_xyz
  1  'x, y, z'
loop_
 _atom_site_type_symbol
 _atom_site_label
 _atom_site_symmetry_multiplicity
 _atom_site_fract_x
 _atom_site_fract_y
 _atom_site_fract_z
 _atom_site_occupancy
  Tb  Tb0  1  0.820922  0.723035  0.543957  1
  Tb  Tb1  1  0.179078  0.276965  0.456043  1
  Tb  Tb2  1  0.179078  0.723035  0.902114  1
  Tb  Tb3  1  0.820922  0.276965  0.097886  1
  Tb  Tb4  1  0.678675  0.365032  0.686357  1
  Tb  Tb5  1  0.321325  0.634968  0.313643  1
  Tb  Tb6  1  0.678675  0.992318  0.313643  1
  Tb  Tb7  1  0.321325  0.007682  0.686357  1
  Tb  Tb8  1  0.581818  0.771866  0.809954  1
  Tb  Tb9  1  0.418182  0.228134  0.190046  1
  Tb  Tb10  1  0.961913  0.771866  0.190046  1
  Tb  Tb11  1  0.038087  0.228134  0.809954  1
  Co  Co12  1  0.657408  0.000000  0.657408  1
  Co  Co13  1  0.342592  0.000000  0.342592  1
  Co  Co14  1  0.113417  0.613417  0.500000  1
  Co  Co15  1  0.886583  0.386583  0.500000  1
  Ag  Ag16  1  0.500000  0.500000  0.000000  1
  Ru  Ru17  1  0.000000  0.000000  0.000000  1
