# generated using pymatgen
data_Nd2Ag2IrRh3O14
_symmetry_space_group_name_H-M   'P 1'
_cell_length_a   7.46801889
_cell_length_b   7.29111911
_cell_length_c   7.29111885
_cell_angle_alpha   58.93802498
_cell_angle_beta   59.00178870
_cell_angle_gamma   59.00179035
_symmetry_Int_Tables_number   1
_chemical_formula_structural   Nd2Ag2IrRh3O14
_chemical_formula_sum   'Nd2 Ag2 Ir1 Rh3 O14'
_cell_volume   274.19445214
_cell_formula_units_Z   1
loop_
 _symmetry_equiv_pos_site_id
 _symmetry_equiv_pos_as_xyz
  1  'x, y, z'
loop_
 _atom_site_type_symbol
 _atom_site_label
 _atom_site_symmetry_multiplicity
 _atom_site_fract_x
 _atom_site_fract_y
 _atom_site_fract_z
 _atom_site_occupancy
  Nd  Nd0  1  0.625000  0.125000  0.125000  1
  Nd  Nd1  1  0.125000  0.125000  0.125000  1
  Ag  Ag2  1  0.125000  0.625000  0.125000  1
  Ag  Ag3  1  0.125000  0.125000  0.625000  1
  Ir  Ir4  1  0.625000  0.625000  0.625000  1
  Rh  Rh5  1  0.125000  0.625000  0.625000  1
  Rh  Rh6  1  0.625000  0.125000  0.625000  1
  Rh  Rh7  1  0.625000  0.625000  0.125000  1
  O  O8  1  0.697360  0.702807  0.301205  1
  O  O9  1  0.298503  0.294560  0.701748  1
  O  O10  1  0.697360  0.301205  0.702807  1
  O  O11  1  0.298503  0.701748  0.294560  1
  O  O12  1  0.314305  0.691407  0.691407  1
  O  O13  1  0.711679  0.285822  0.285822  1
  O  O14  1  0.552640  0.547193  0.948795  1
  O  O15  1  0.951497  0.955440  0.548252  1
  O  O16  1  0.552640  0.948795  0.547193  1
  O  O17  1  0.951497  0.548252  0.955440  1
  O  O18  1  0.935695  0.558593  0.558593  1
  O  O19  1  0.538321  0.964178  0.964178  1
  O  O20  1  0.233368  0.267069  0.267069  1
  O  O21  1  0.016632  0.982931  0.982931  1
