# generated using pymatgen
data_Y9HoAl4(GaC4)2
_symmetry_space_group_name_H-M   'P 1'
_cell_length_a   10.87605403
_cell_length_b   10.87605403
_cell_length_c   3.52104400
_cell_angle_alpha   90.00000000
_cell_angle_beta   90.00000000
_cell_angle_gamma   89.99149734
_symmetry_Int_Tables_number   1
_chemical_formula_structural   Y9HoAl4(GaC4)2
_chemical_formula_sum   'Y9 Ho1 Al4 Ga2 C8'
_cell_volume   416.49918910
_cell_formula_units_Z   1
loop_
 _symmetry_equiv_pos_site_id
 _symmetry_equiv_pos_as_xyz
  1  'x, y, z'
loop_
 _atom_site_type_symbol
 _atom_site_label
 _atom_site_symmetry_multiplicity
 _atom_site_fract_x
 _atom_site_fract_y
 _atom_site_fract_z
 _atom_site_occupancy
  Y  Y0  1  0.550465  0.728167  0.500000  1
  Y  Y1  1  0.449535  0.271833  0.500000  1
  Y  Y2  1  0.050429  0.772219  0.500000  1
  Y  Y3  1  0.949571  0.227781  0.500000  1
  Y  Y4  1  0.272219  0.550429  0.500000  1
  Y  Y5  1  0.727781  0.449571  0.500000  1
  Y  Y6  1  0.228167  0.050465  0.500000  1
  Y  Y7  1  0.771833  0.949535  0.500000  1
  Y  Y8  1  0.000000  0.500000  0.000000  1
  Ho  Ho9  1  0.500000  0.000000  0.000000  1
  Al  Al10  1  0.703515  0.203515  0.000000  1
  Al  Al11  1  0.296485  0.796485  0.000000  1
  Al  Al12  1  0.204177  0.295823  0.000000  1
  Al  Al13  1  0.795823  0.704177  0.000000  1
  Ga  Ga14  1  0.500000  0.500000  0.000000  1
  Ga  Ga15  1  0.000000  0.000000  0.000000  1
  C  C16  1  0.632462  0.132462  0.500000  1
  C  C17  1  0.367538  0.867538  0.500000  1
  C  C18  1  0.133645  0.366355  0.500000  1
  C  C19  1  0.866355  0.633645  0.500000  1
  C  C20  1  0.162707  0.662707  0.000000  1
  C  C21  1  0.837293  0.337293  0.000000  1
  C  C22  1  0.661812  0.838188  0.000000  1
  C  C23  1  0.338188  0.161812  0.000000  1
