# generated using pymatgen
data_Nb20Ir9Ru
_symmetry_space_group_name_H-M   'P 1'
_cell_length_a   9.99347449
_cell_length_b   9.99347449
_cell_length_c   5.12311900
_cell_angle_alpha   90.00000000
_cell_angle_beta   90.00000000
_cell_angle_gamma   89.91906846
_symmetry_Int_Tables_number   1
_chemical_formula_structural   Nb20Ir9Ru
_chemical_formula_sum   'Nb20 Ir9 Ru1'
_cell_volume   511.64298869
_cell_formula_units_Z   1
loop_
 _symmetry_equiv_pos_site_id
 _symmetry_equiv_pos_as_xyz
  1  'x, y, z'
loop_
 _atom_site_type_symbol
 _atom_site_label
 _atom_site_symmetry_multiplicity
 _atom_site_fract_x
 _atom_site_fract_y
 _atom_site_fract_z
 _atom_site_occupancy
  Nb  Nb0  1  0.393776  0.393776  0.000000  1
  Nb  Nb1  1  0.894031  0.105969  0.500000  1
  Nb  Nb2  1  0.105969  0.894031  0.500000  1
  Nb  Nb3  1  0.606224  0.606224  0.000000  1
  Nb  Nb4  1  0.127910  0.463189  0.000000  1
  Nb  Nb5  1  0.963131  0.371950  0.500000  1
  Nb  Nb6  1  0.036869  0.628050  0.500000  1
  Nb  Nb7  1  0.872090  0.536811  0.000000  1
  Nb  Nb8  1  0.371950  0.963131  0.500000  1
  Nb  Nb9  1  0.628050  0.036869  0.500000  1
  Nb  Nb10  1  0.463189  0.127910  0.000000  1
  Nb  Nb11  1  0.536811  0.872090  0.000000  1
  Nb  Nb12  1  0.178689  0.178689  0.250904  1
  Nb  Nb13  1  0.678782  0.321218  0.751542  1
  Nb  Nb14  1  0.321218  0.678782  0.751542  1
  Nb  Nb15  1  0.821311  0.821311  0.250904  1
  Nb  Nb16  1  0.321218  0.678782  0.248458  1
  Nb  Nb17  1  0.678782  0.321218  0.248458  1
  Nb  Nb18  1  0.178689  0.178689  0.749096  1
  Nb  Nb19  1  0.821311  0.821311  0.749096  1
  Ir  Ir20  1  0.500000  0.500000  0.500000  1
  Ir  Ir21  1  0.261145  0.930837  0.000000  1
  Ir  Ir22  1  0.430649  0.238607  0.500000  1
  Ir  Ir23  1  0.569351  0.761393  0.500000  1
  Ir  Ir24  1  0.738855  0.069163  0.000000  1
  Ir  Ir25  1  0.238607  0.430649  0.500000  1
  Ir  Ir26  1  0.761393  0.569351  0.500000  1
  Ir  Ir27  1  0.930837  0.261145  0.000000  1
  Ir  Ir28  1  0.069163  0.738855  0.000000  1
  Ru  Ru29  1  0.000000  0.000000  0.000000  1
