# generated using pymatgen
data_YbEu9Cd3Ru
_symmetry_space_group_name_H-M   'P 1'
_cell_length_a   10.12834500
_cell_length_b   10.12834519
_cell_length_c   10.53130600
_cell_angle_alpha   90.00000000
_cell_angle_beta   90.00000000
_cell_angle_gamma   120.00000264
_symmetry_Int_Tables_number   1
_chemical_formula_structural   YbEu9Cd3Ru
_chemical_formula_sum   'Yb2 Eu18 Cd6 Ru2'
_cell_volume   935.59918035
_cell_formula_units_Z   2
loop_
 _symmetry_equiv_pos_site_id
 _symmetry_equiv_pos_as_xyz
  1  'x, y, z'
loop_
 _atom_site_type_symbol
 _atom_site_label
 _atom_site_symmetry_multiplicity
 _atom_site_fract_x
 _atom_site_fract_y
 _atom_site_fract_z
 _atom_site_occupancy
  Yb  Yb0  1  0.000000  0.000000  0.500000  1
  Yb  Yb1  1  0.000000  0.000000  0.000000  1
  Eu  Eu2  1  0.208295  0.791705  0.435099  1
  Eu  Eu3  1  0.208295  0.416591  0.435099  1
  Eu  Eu4  1  0.583409  0.791705  0.435099  1
  Eu  Eu5  1  0.791705  0.208295  0.564901  1
  Eu  Eu6  1  0.791705  0.583409  0.564901  1
  Eu  Eu7  1  0.416591  0.208295  0.564901  1
  Eu  Eu8  1  0.791705  0.208295  0.935099  1
  Eu  Eu9  1  0.791705  0.583409  0.935099  1
  Eu  Eu10  1  0.416591  0.208295  0.935099  1
  Eu  Eu11  1  0.208295  0.791705  0.064901  1
  Eu  Eu12  1  0.208295  0.416591  0.064901  1
  Eu  Eu13  1  0.583409  0.791705  0.064901  1
  Eu  Eu14  1  0.539125  0.460875  0.250000  1
  Eu  Eu15  1  0.539125  0.078250  0.250000  1
  Eu  Eu16  1  0.921750  0.460875  0.250000  1
  Eu  Eu17  1  0.460875  0.539125  0.750000  1
  Eu  Eu18  1  0.460875  0.921750  0.750000  1
  Eu  Eu19  1  0.078250  0.539125  0.750000  1
  Cd  Cd20  1  0.889581  0.110419  0.250000  1
  Cd  Cd21  1  0.889581  0.779162  0.250000  1
  Cd  Cd22  1  0.220838  0.110419  0.250000  1
  Cd  Cd23  1  0.110419  0.889581  0.750000  1
  Cd  Cd24  1  0.110419  0.220838  0.750000  1
  Cd  Cd25  1  0.779162  0.889581  0.750000  1
  Ru  Ru26  1  0.333333  0.666667  0.250000  1
  Ru  Ru27  1  0.666667  0.333333  0.750000  1
