# generated using pymatgen
data_K6ErFeF12
_symmetry_space_group_name_H-M   'P 1'
_cell_length_a   6.51596036
_cell_length_b   6.27083002
_cell_length_c   10.91074618
_cell_angle_alpha   55.40507717
_cell_angle_beta   89.56923366
_cell_angle_gamma   90.10149145
_symmetry_Int_Tables_number   1
_chemical_formula_structural   K6ErFeF12
_chemical_formula_sum   'K6 Er1 Fe1 F12'
_cell_volume   366.97145693
_cell_formula_units_Z   1
loop_
 _symmetry_equiv_pos_site_id
 _symmetry_equiv_pos_as_xyz
  1  'x, y, z'
loop_
 _atom_site_type_symbol
 _atom_site_label
 _atom_site_symmetry_multiplicity
 _atom_site_fract_x
 _atom_site_fract_y
 _atom_site_fract_z
 _atom_site_occupancy
  K  K0  1  0.500000  0.500000  0.000000  1
  K  K1  1  0.000000  0.500000  0.500000  1
  K  K2  1  0.054190  0.741532  0.744287  1
  K  K3  1  0.945810  0.258468  0.255713  1
  K  K4  1  0.550054  0.277368  0.737008  1
  K  K5  1  0.449946  0.722632  0.262992  1
  Er  Er6  1  0.000000  0.000000  0.000000  1
  Fe  Fe7  1  0.500000  0.000000  0.500000  1
  F  F8  1  0.750828  0.782292  0.560435  1
  F  F9  1  0.249172  0.217708  0.439565  1
  F  F10  1  0.275358  0.236374  0.929331  1
  F  F11  1  0.724642  0.763626  0.070669  1
  F  F12  1  0.452683  0.893473  0.706447  1
  F  F13  1  0.547317  0.106527  0.293553  1
  F  F14  1  0.946187  0.116095  0.774138  1
  F  F15  1  0.053813  0.883905  0.225862  1
  F  F16  1  0.332268  0.700878  0.542554  1
  F  F17  1  0.667732  0.299122  0.457446  1
  F  F18  1  0.826619  0.332884  0.949821  1
  F  F19  1  0.173381  0.667116  0.050179  1
