# generated using pymatgen
data_DyLuCu2(TeO6)2
_symmetry_space_group_name_H-M   'P 1'
_cell_length_a   5.13330424
_cell_length_b   5.13342260
_cell_length_c   9.73864940
_cell_angle_alpha   90.00003924
_cell_angle_beta   90.00074880
_cell_angle_gamma   120.00177145
_symmetry_Int_Tables_number   1
_chemical_formula_structural   DyLuCu2(TeO6)2
_chemical_formula_sum   'Dy1 Lu1 Cu2 Te2 O12'
_cell_volume   222.24174211
_cell_formula_units_Z   1
loop_
 _symmetry_equiv_pos_site_id
 _symmetry_equiv_pos_as_xyz
  1  'x, y, z'
loop_
 _atom_site_type_symbol
 _atom_site_label
 _atom_site_symmetry_multiplicity
 _atom_site_fract_x
 _atom_site_fract_y
 _atom_site_fract_z
 _atom_site_occupancy
  Dy  Dy0  1  0.000001  0.000009  0.000014  1
  Lu  Lu1  1  0.999964  0.999974  0.499997  1
  Cu  Cu2  1  0.333367  0.666584  0.252684  1
  Cu  Cu3  1  0.666641  0.333312  0.747344  1
  Te  Te4  1  0.666650  0.333305  0.253394  1
  Te  Te5  1  0.333334  0.666710  0.746597  1
  O  O6  1  0.641519  0.632307  0.139835  1
  O  O7  1  0.990791  0.358440  0.139830  1
  O  O8  1  0.367645  0.009161  0.139832  1
  O  O9  1  0.989930  0.641093  0.364374  1
  O  O10  1  0.358905  0.348797  0.364361  1
  O  O11  1  0.651200  0.010017  0.364371  1
  O  O12  1  0.348822  0.989964  0.635629  1
  O  O13  1  0.641090  0.651238  0.635628  1
  O  O14  1  0.010086  0.358920  0.635618  1
  O  O15  1  0.009228  0.641595  0.860160  1
  O  O16  1  0.632361  0.990882  0.860160  1
  O  O17  1  0.358467  0.367690  0.860173  1
