# generated using pymatgen
data_Dy8Sc12Ga8Si7Ge
_symmetry_space_group_name_H-M   'P 1'
_cell_length_a   7.19726296
_cell_length_b   7.42069505
_cell_length_c   14.32365800
_cell_angle_alpha   90.00000000
_cell_angle_beta   90.00000000
_cell_angle_gamma   90.10388448
_symmetry_Int_Tables_number   1
_chemical_formula_structural   Dy8Sc12Ga8Si7Ge
_chemical_formula_sum   'Dy8 Sc12 Ga8 Si7 Ge1'
_cell_volume   765.00660387
_cell_formula_units_Z   1
loop_
 _symmetry_equiv_pos_site_id
 _symmetry_equiv_pos_as_xyz
  1  'x, y, z'
loop_
 _atom_site_type_symbol
 _atom_site_label
 _atom_site_symmetry_multiplicity
 _atom_site_fract_x
 _atom_site_fract_y
 _atom_site_fract_z
 _atom_site_occupancy
  Dy  Dy0  1  0.010802  0.175795  0.099966  1
  Dy  Dy1  1  0.989446  0.822790  0.900761  1
  Dy  Dy2  1  0.489466  0.675701  0.900502  1
  Dy  Dy3  1  0.989446  0.822790  0.599239  1
  Dy  Dy4  1  0.510628  0.324139  0.099961  1
  Dy  Dy5  1  0.010802  0.175795  0.400034  1
  Dy  Dy6  1  0.510628  0.324139  0.400039  1
  Dy  Dy7  1  0.489466  0.675701  0.599498  1
  Sc  Sc8  1  0.164898  0.503622  0.750000  1
  Sc  Sc9  1  0.835485  0.498374  0.250000  1
  Sc  Sc10  1  0.335619  0.001687  0.250000  1
  Sc  Sc11  1  0.661837  0.997316  0.750000  1
  Sc  Sc12  1  0.331669  0.174141  0.625200  1
  Sc  Sc13  1  0.669595  0.826022  0.374246  1
  Sc  Sc14  1  0.169619  0.674168  0.374254  1
  Sc  Sc15  1  0.669595  0.826022  0.125754  1
  Sc  Sc16  1  0.828941  0.327387  0.624682  1
  Sc  Sc17  1  0.331669  0.174141  0.874800  1
  Sc  Sc18  1  0.828941  0.327387  0.875318  1
  Sc  Sc19  1  0.169619  0.674168  0.125746  1
  Ga  Ga20  1  0.160320  0.463003  0.539527  1
  Ga  Ga21  1  0.839839  0.537061  0.459837  1
  Ga  Ga22  1  0.339812  0.963284  0.460028  1
  Ga  Ga23  1  0.839839  0.537061  0.040163  1
  Ga  Ga24  1  0.660476  0.036635  0.539535  1
  Ga  Ga25  1  0.160320  0.463003  0.960473  1
  Ga  Ga26  1  0.660476  0.036635  0.960465  1
  Ga  Ga27  1  0.339812  0.963284  0.039972  1
  Si  Si28  1  0.966884  0.885674  0.250000  1
  Si  Si29  1  0.466941  0.614441  0.250000  1
  Si  Si30  1  0.533215  0.385536  0.750000  1
  Si  Si31  1  0.287643  0.871533  0.750000  1
  Si  Si32  1  0.715752  0.125108  0.250000  1
  Si  Si33  1  0.215561  0.374843  0.250000  1
  Si  Si34  1  0.784615  0.624747  0.750000  1
  Ge  Ge35  1  0.030329  0.116870  0.750000  1
