# generated using pymatgen
data_Ti3(TcS4)2
_symmetry_space_group_name_H-M   'P 1'
_cell_length_a   6.73472206
_cell_length_b   6.73472142
_cell_length_c   8.05326689
_cell_angle_alpha   52.78129284
_cell_angle_beta   52.78129640
_cell_angle_gamma   60.74575638
_symmetry_Int_Tables_number   1
_chemical_formula_structural   Ti3(TcS4)2
_chemical_formula_sum   'Ti3 Tc2 S8'
_cell_volume   227.24617020
_cell_formula_units_Z   1
loop_
 _symmetry_equiv_pos_site_id
 _symmetry_equiv_pos_as_xyz
  1  'x, y, z'
loop_
 _atom_site_type_symbol
 _atom_site_label
 _atom_site_symmetry_multiplicity
 _atom_site_fract_x
 _atom_site_fract_y
 _atom_site_fract_z
 _atom_site_occupancy
  Ti  Ti0  1  0.000000  0.000000  0.000000  1
  Ti  Ti1  1  0.290835  0.290835  0.484525  1
  Ti  Ti2  1  0.709165  0.709165  0.515475  1
  Tc  Tc3  1  0.706717  0.293283  0.500000  1
  Tc  Tc4  1  0.293283  0.706717  0.500000  1
  S  S5  1  0.008137  0.008137  0.300749  1
  S  S6  1  0.991863  0.991863  0.699251  1
  S  S7  1  0.571902  0.571902  0.207854  1
  S  S8  1  0.428098  0.428098  0.792146  1
  S  S9  1  0.042454  0.537274  0.245363  1
  S  S10  1  0.462726  0.957546  0.754637  1
  S  S11  1  0.537274  0.042454  0.245363  1
  S  S12  1  0.957546  0.462726  0.754637  1
