# generated using pymatgen
data_Sn2PPd8
_symmetry_space_group_name_H-M   'P 1'
_cell_length_a   4.00461800
_cell_length_b   4.00461800
_cell_length_c   11.11139900
_cell_angle_alpha   90.00000000
_cell_angle_beta   90.00000000
_cell_angle_gamma   90.00000000
_symmetry_Int_Tables_number   1
_chemical_formula_structural   Sn2PPd8
_chemical_formula_sum   'Sn2 P1 Pd8'
_cell_volume   178.19312049
_cell_formula_units_Z   1
loop_
 _symmetry_equiv_pos_site_id
 _symmetry_equiv_pos_as_xyz
  1  'x, y, z'
loop_
 _atom_site_type_symbol
 _atom_site_label
 _atom_site_symmetry_multiplicity
 _atom_site_fract_x
 _atom_site_fract_y
 _atom_site_fract_z
 _atom_site_occupancy
  Sn  Sn0  1  0.500000  0.500000  0.816255  1
  Sn  Sn1  1  0.500000  0.500000  0.183745  1
  P  P2  1  0.000000  0.000000  0.500000  1
  Pd  Pd3  1  0.500000  0.000000  0.000000  1
  Pd  Pd4  1  0.000000  0.500000  0.000000  1
  Pd  Pd5  1  0.500000  0.000000  0.627243  1
  Pd  Pd6  1  0.000000  0.500000  0.627243  1
  Pd  Pd7  1  0.500000  0.000000  0.372757  1
  Pd  Pd8  1  0.000000  0.500000  0.372757  1
  Pd  Pd9  1  0.000000  0.000000  0.815255  1
  Pd  Pd10  1  0.000000  0.000000  0.184745  1
