# generated using pymatgen
data_Li3Nd3TeWO12
_symmetry_space_group_name_H-M   'P 1'
_cell_length_a   10.97376396
_cell_length_b   10.97376408
_cell_length_c   10.97376400
_cell_angle_alpha   109.47121864
_cell_angle_beta   109.47121885
_cell_angle_gamma   109.47122220
_symmetry_Int_Tables_number   1
_chemical_formula_structural   Li3Nd3TeWO12
_chemical_formula_sum   'Li12 Nd12 Te4 W4 O48'
_cell_volume   1017.29045888
_cell_formula_units_Z   4
loop_
 _symmetry_equiv_pos_site_id
 _symmetry_equiv_pos_as_xyz
  1  'x, y, z'
loop_
 _atom_site_type_symbol
 _atom_site_label
 _atom_site_symmetry_multiplicity
 _atom_site_fract_x
 _atom_site_fract_y
 _atom_site_fract_z
 _atom_site_occupancy
  Li  Li0  1  0.750000  0.375226  0.125226  1
  Li  Li1  1  0.874774  0.750000  0.124774  1
  Li  Li2  1  0.124774  0.374774  0.250000  1
  Li  Li3  1  0.624774  0.874774  0.250000  1
  Li  Li4  1  0.250000  0.124774  0.374774  1
  Li  Li5  1  0.625226  0.250000  0.375226  1
  Li  Li6  1  0.374774  0.750000  0.624774  1
  Li  Li7  1  0.750000  0.875226  0.625226  1
  Li  Li8  1  0.375226  0.125226  0.750000  1
  Li  Li9  1  0.875226  0.625226  0.750000  1
  Li  Li10  1  0.125226  0.250000  0.875226  1
  Li  Li11  1  0.250000  0.624774  0.874774  1
  Nd  Nd12  1  0.250000  0.876189  0.126189  1
  Nd  Nd13  1  0.373811  0.250000  0.123811  1
  Nd  Nd14  1  0.876189  0.126189  0.250000  1
  Nd  Nd15  1  0.376189  0.626189  0.250000  1
  Nd  Nd16  1  0.750000  0.623811  0.373811  1
  Nd  Nd17  1  0.126189  0.750000  0.376189  1
  Nd  Nd18  1  0.873811  0.250000  0.623811  1
  Nd  Nd19  1  0.250000  0.376189  0.626189  1
  Nd  Nd20  1  0.623811  0.373811  0.750000  1
  Nd  Nd21  1  0.123811  0.873811  0.750000  1
  Nd  Nd22  1  0.750000  0.123811  0.873811  1
  Nd  Nd23  1  0.626189  0.750000  0.876189  1
  Te  Te24  1  0.500000  0.000000  0.000000  1
  Te  Te25  1  0.000000  0.500000  0.000000  1
  Te  Te26  1  0.000000  0.000000  0.500000  1
  Te  Te27  1  0.500000  0.500000  0.500000  1
  W  W28  1  0.000000  0.000000  0.000000  1
  W  W29  1  0.500000  0.500000  0.000000  1
  W  W30  1  0.500000  0.000000  0.500000  1
  W  W31  1  0.000000  0.500000  0.500000  1
  O  O32  1  0.328515  0.407314  0.023013  1
  O  O33  1  0.194432  0.616344  0.023559  1
  O  O34  1  0.694431  0.170873  0.078087  1
  O  O35  1  0.884301  0.907314  0.078798  1
  O  O36  1  0.976986  0.171484  0.092686  1
  O  O37  1  0.616345  0.921913  0.092785  1
  O  O38  1  0.592686  0.421202  0.115699  1
  O  O39  1  0.023559  0.694431  0.116345  1
  O  O40  1  0.476440  0.092785  0.170872  1
  O  O41  1  0.194497  0.078798  0.171485  1
  O  O42  1  0.116344  0.523558  0.194431  1
  O  O43  1  0.578797  0.671484  0.194497  1
  O  O44  1  0.329127  0.421912  0.305568  1
  O  O45  1  0.476986  0.884300  0.305503  1
  O  O46  1  0.907313  0.523012  0.328515  1
  O  O47  1  0.921912  0.805568  0.329127  1
  O  O48  1  0.578086  0.407214  0.383655  1
  O  O49  1  0.305503  0.976986  0.384300  1
  O  O50  1  0.829127  0.023559  0.407215  1
  O  O51  1  0.078798  0.384301  0.407314  1
  O  O52  1  0.092785  0.116344  0.421912  1
  O  O53  1  0.828516  0.305503  0.421203  1
  O  O54  1  0.592785  0.670872  0.476440  1
  O  O55  1  0.384301  0.805503  0.476987  1
  O  O56  1  0.407214  0.329127  0.523558  1
  O  O57  1  0.615700  0.194497  0.523013  1
  O  O58  1  0.907214  0.883655  0.578086  1
  O  O59  1  0.171485  0.694496  0.578797  1
  O  O60  1  0.170872  0.976440  0.592785  1
  O  O61  1  0.921203  0.615700  0.592686  1
  O  O62  1  0.694496  0.023013  0.615699  1
  O  O63  1  0.421912  0.592785  0.616344  1
  O  O64  1  0.078087  0.194432  0.670872  1
  O  O65  1  0.092686  0.476986  0.671484  1
  O  O66  1  0.523012  0.115699  0.694496  1
  O  O67  1  0.670872  0.578086  0.694431  1
  O  O68  1  0.421202  0.328515  0.805503  1
  O  O69  1  0.883655  0.476440  0.805568  1
  O  O70  1  0.523558  0.907214  0.829127  1
  O  O71  1  0.805503  0.921203  0.828516  1
  O  O72  1  0.976440  0.305568  0.883655  1
  O  O73  1  0.407314  0.578797  0.884300  1
  O  O74  1  0.383656  0.078087  0.907214  1
  O  O75  1  0.023013  0.828515  0.907314  1
  O  O76  1  0.115700  0.092686  0.921203  1
  O  O77  1  0.305568  0.829128  0.921913  1
  O  O78  1  0.805568  0.383655  0.976440  1
  O  O79  1  0.671484  0.592686  0.976986  1
