# generated using pymatgen
data_Pr3Nd5Ga3Co
_symmetry_space_group_name_H-M   'P 1'
_cell_length_a   10.36504234
_cell_length_b   10.37011312
_cell_length_c   7.26643027
_cell_angle_alpha   90.00030415
_cell_angle_beta   90.02675657
_cell_angle_gamma   119.97176539
_symmetry_Int_Tables_number   1
_chemical_formula_structural   Pr3Nd5Ga3Co
_chemical_formula_sum   'Pr6 Nd10 Ga6 Co2'
_cell_volume   676.59649437
_cell_formula_units_Z   2
loop_
 _symmetry_equiv_pos_site_id
 _symmetry_equiv_pos_as_xyz
  1  'x, y, z'
loop_
 _atom_site_type_symbol
 _atom_site_label
 _atom_site_symmetry_multiplicity
 _atom_site_fract_x
 _atom_site_fract_y
 _atom_site_fract_z
 _atom_site_occupancy
  Pr  Pr0  1  0.666924  0.333440  0.177250  1
  Pr  Pr1  1  0.999878  0.999781  0.272017  1
  Pr  Pr2  1  0.459960  0.919657  0.291840  1
  Pr  Pr3  1  0.080048  0.540132  0.291907  1
  Pr  Pr4  1  0.460115  0.540351  0.291717  1
  Pr  Pr5  1  0.342077  0.171086  0.484106  1
  Nd  Nd6  1  0.828959  0.171064  0.484189  1
  Nd  Nd7  1  0.828893  0.657842  0.484510  1
  Nd  Nd8  1  0.333370  0.666678  0.679425  1
  Nd  Nd9  1  0.999831  0.000076  0.771770  1
  Nd  Nd10  1  0.540734  0.081162  0.791859  1
  Nd  Nd11  1  0.540553  0.459526  0.791740  1
  Nd  Nd12  1  0.918841  0.459308  0.791470  1
  Nd  Nd13  1  0.171047  0.828858  0.982540  1
  Nd  Nd14  1  0.657792  0.828855  0.982508  1
  Nd  Nd15  1  0.171116  0.342251  0.982856  1
  Ga  Ga16  1  0.836060  0.672120  0.045648  1
  Ga  Ga17  1  0.327595  0.163762  0.045012  1
  Ga  Ga18  1  0.836144  0.163789  0.045584  1
  Ga  Ga19  1  0.163584  0.328287  0.547273  1
  Ga  Ga20  1  0.163493  0.835449  0.547213  1
  Ga  Ga21  1  0.672337  0.836202  0.547059  1
  Co  Co22  1  0.333370  0.666731  0.047141  1
  Co  Co23  1  0.667280  0.333594  0.549369  1
