# generated using pymatgen
data_Tm2Fe3P6Ir6Rh
_symmetry_space_group_name_H-M   'P 1'
_cell_length_a   3.86782500
_cell_length_b   10.60905200
_cell_length_c   12.32884000
_cell_angle_alpha   90.00000000
_cell_angle_beta   90.00000000
_cell_angle_gamma   90.00000000
_symmetry_Int_Tables_number   1
_chemical_formula_structural   Tm2Fe3P6Ir6Rh
_chemical_formula_sum   'Tm4 Fe6 P12 Ir12 Rh2'
_cell_volume   505.90108490
_cell_formula_units_Z   2
loop_
 _symmetry_equiv_pos_site_id
 _symmetry_equiv_pos_as_xyz
  1  'x, y, z'
loop_
 _atom_site_type_symbol
 _atom_site_label
 _atom_site_symmetry_multiplicity
 _atom_site_fract_x
 _atom_site_fract_y
 _atom_site_fract_z
 _atom_site_occupancy
  Tm  Tm0  1  0.250000  0.576966  0.713036  1
  Tm  Tm1  1  0.250000  0.923034  0.213036  1
  Tm  Tm2  1  0.750000  0.415190  0.289833  1
  Tm  Tm3  1  0.750000  0.084810  0.789833  1
  Fe  Fe4  1  0.750000  0.124379  0.302549  1
  Fe  Fe5  1  0.750000  0.375621  0.802549  1
  Fe  Fe6  1  0.250000  0.457647  0.932668  1
  Fe  Fe7  1  0.250000  0.042353  0.432668  1
  Fe  Fe8  1  0.750000  0.540553  0.065595  1
  Fe  Fe9  1  0.750000  0.959447  0.565595  1
  P  P10  1  0.250000  0.431601  0.105380  1
  P  P11  1  0.250000  0.068399  0.605380  1
  P  P12  1  0.750000  0.557661  0.888269  1
  P  P13  1  0.750000  0.942339  0.388269  1
  P  P14  1  0.250000  0.273123  0.863578  1
  P  P15  1  0.250000  0.226877  0.363578  1
  P  P16  1  0.750000  0.733753  0.130989  1
  P  P17  1  0.750000  0.766247  0.630989  1
  P  P18  1  0.250000  0.596909  0.387644  1
  P  P19  1  0.250000  0.903091  0.887644  1
  P  P20  1  0.750000  0.399871  0.624094  1
  P  P21  1  0.750000  0.100129  0.124094  1
  Ir  Ir22  1  0.750000  0.280239  0.010415  1
  Ir  Ir23  1  0.750000  0.219761  0.510415  1
  Ir  Ir24  1  0.250000  0.404734  0.474095  1
  Ir  Ir25  1  0.250000  0.095266  0.974095  1
  Ir  Ir26  1  0.750000  0.586428  0.522899  1
  Ir  Ir27  1  0.750000  0.913572  0.022899  1
  Ir  Ir28  1  0.250000  0.230989  0.175145  1
  Ir  Ir29  1  0.250000  0.269011  0.675145  1
  Ir  Ir30  1  0.750000  0.761683  0.823895  1
  Ir  Ir31  1  0.750000  0.738317  0.323895  1
  Ir  Ir32  1  0.250000  0.881908  0.701518  1
  Ir  Ir33  1  0.250000  0.618092  0.201518  1
  Rh  Rh34  1  0.250000  0.721352  0.988399  1
  Rh  Rh35  1  0.250000  0.778648  0.488399  1
