# generated using pymatgen
data_Pr2Y4TiNb(Co4P3)4
_symmetry_space_group_name_H-M   'P 1'
_cell_length_a   3.72824200
_cell_length_b   10.67780100
_cell_length_c   12.37630000
_cell_angle_alpha   90.00000000
_cell_angle_beta   90.00000000
_cell_angle_gamma   90.00000000
_symmetry_Int_Tables_number   1
_chemical_formula_structural   Pr2Y4TiNb(Co4P3)4
_chemical_formula_sum   'Pr2 Y4 Ti1 Nb1 Co16 P12'
_cell_volume   492.69340093
_cell_formula_units_Z   1
loop_
 _symmetry_equiv_pos_site_id
 _symmetry_equiv_pos_as_xyz
  1  'x, y, z'
loop_
 _atom_site_type_symbol
 _atom_site_label
 _atom_site_symmetry_multiplicity
 _atom_site_fract_x
 _atom_site_fract_y
 _atom_site_fract_z
 _atom_site_occupancy
  Pr  Pr0  1  0.000000  0.500000  0.527321  1
  Pr  Pr1  1  0.500000  0.000000  0.474159  1
  Y  Y2  1  0.500000  0.820115  0.203562  1
  Y  Y3  1  0.500000  0.179885  0.203562  1
  Y  Y4  1  0.000000  0.680816  0.796369  1
  Y  Y5  1  0.000000  0.319184  0.796369  1
  Ti  Ti6  1  0.000000  0.000000  0.849262  1
  Nb  Nb7  1  0.500000  0.500000  0.153434  1
  Co  Co8  1  0.500000  0.500000  0.705926  1
  Co  Co9  1  0.000000  0.000000  0.293548  1
  Co  Co10  1  0.000000  0.500000  0.985761  1
  Co  Co11  1  0.500000  0.000000  0.012885  1
  Co  Co12  1  0.500000  0.331495  0.991700  1
  Co  Co13  1  0.500000  0.668505  0.991700  1
  Co  Co14  1  0.000000  0.167452  0.005737  1
  Co  Co15  1  0.000000  0.832548  0.005737  1
  Co  Co16  1  0.500000  0.294921  0.430839  1
  Co  Co17  1  0.500000  0.705079  0.430839  1
  Co  Co18  1  0.000000  0.204443  0.569603  1
  Co  Co19  1  0.000000  0.795557  0.569603  1
  Co  Co20  1  0.500000  0.879085  0.709137  1
  Co  Co21  1  0.500000  0.120915  0.709137  1
  Co  Co22  1  0.000000  0.621902  0.292214  1
  Co  Co23  1  0.000000  0.378098  0.292214  1
  P  P24  1  0.500000  0.500000  0.883488  1
  P  P25  1  0.000000  0.000000  0.115559  1
  P  P26  1  0.500000  0.500000  0.350706  1
  P  P27  1  0.000000  0.000000  0.651965  1
  P  P28  1  0.500000  0.306387  0.617615  1
  P  P29  1  0.500000  0.693613  0.617615  1
  P  P30  1  0.000000  0.192627  0.382862  1
  P  P31  1  0.000000  0.807373  0.382862  1
  P  P32  1  0.500000  0.843588  0.893038  1
  P  P33  1  0.500000  0.156412  0.893038  1
  P  P34  1  0.000000  0.659300  0.105318  1
  P  P35  1  0.000000  0.340700  0.105318  1
