# generated using pymatgen
data_Ac3Pb7
_symmetry_space_group_name_H-M   'P 1'
_cell_length_a   13.71025300
_cell_length_b   13.71025243
_cell_length_c   4.96609100
_cell_angle_alpha   90.00000000
_cell_angle_beta   90.00000000
_cell_angle_gamma   159.38169806
_symmetry_Int_Tables_number   1
_chemical_formula_structural   Ac3Pb7
_chemical_formula_sum   'Ac3 Pb7'
_cell_volume   328.71667610
_cell_formula_units_Z   1
loop_
 _symmetry_equiv_pos_site_id
 _symmetry_equiv_pos_as_xyz
  1  'x, y, z'
loop_
 _atom_site_type_symbol
 _atom_site_label
 _atom_site_symmetry_multiplicity
 _atom_site_fract_x
 _atom_site_fract_y
 _atom_site_fract_z
 _atom_site_occupancy
  Ac  Ac0  1  0.000000  0.000000  0.000000  1
  Ac  Ac1  1  0.813621  0.186377  0.000000  1
  Ac  Ac2  1  0.186377  0.813621  0.000000  1
  Pb  Pb3  1  0.594687  0.405311  0.000000  1
  Pb  Pb4  1  0.405311  0.594687  0.000000  1
  Pb  Pb5  1  0.904288  0.095710  0.499999  1
  Pb  Pb6  1  0.708417  0.291581  0.499999  1
  Pb  Pb7  1  0.499999  0.499999  0.499999  1
  Pb  Pb8  1  0.291581  0.708417  0.499999  1
  Pb  Pb9  1  0.095710  0.904288  0.499999  1
