# generated using pymatgen
data_Dy6VB14Mo
_symmetry_space_group_name_H-M   'P 1'
_cell_length_a   8.15843835
_cell_length_b   8.15843769
_cell_length_c   9.44798100
_cell_angle_alpha   90.00000000
_cell_angle_beta   90.00000000
_cell_angle_gamma   155.58400104
_symmetry_Int_Tables_number   1
_chemical_formula_structural   Dy6VB14Mo
_chemical_formula_sum   'Dy6 V1 B14 Mo1'
_cell_volume   259.94420448
_cell_formula_units_Z   1
loop_
 _symmetry_equiv_pos_site_id
 _symmetry_equiv_pos_as_xyz
  1  'x, y, z'
loop_
 _atom_site_type_symbol
 _atom_site_label
 _atom_site_symmetry_multiplicity
 _atom_site_fract_x
 _atom_site_fract_y
 _atom_site_fract_z
 _atom_site_occupancy
  Dy  Dy0  1  0.258323  0.741677  0.250000  1
  Dy  Dy1  1  0.744273  0.255727  0.750000  1
  Dy  Dy2  1  0.606056  0.393944  0.061692  1
  Dy  Dy3  1  0.393387  0.606613  0.941636  1
  Dy  Dy4  1  0.393387  0.606613  0.558364  1
  Dy  Dy5  1  0.606056  0.393944  0.438308  1
  V  V6  1  0.447252  0.552748  0.250000  1
  B  B7  1  0.978730  0.021270  0.095350  1
  B  B8  1  0.019722  0.980278  0.908840  1
  B  B9  1  0.019722  0.980278  0.591160  1
  B  B10  1  0.978730  0.021270  0.404650  1
  B  B11  1  0.772787  0.227213  0.032733  1
  B  B12  1  0.227294  0.772706  0.968219  1
  B  B13  1  0.227294  0.772706  0.531781  1
  B  B14  1  0.772787  0.227213  0.467267  1
  B  B15  1  0.867559  0.132441  0.150243  1
  B  B16  1  0.134629  0.865371  0.853295  1
  B  B17  1  0.134629  0.865371  0.646705  1
  B  B18  1  0.867559  0.132441  0.349757  1
  B  B19  1  0.040447  0.959553  0.250000  1
  B  B20  1  0.956223  0.043777  0.750000  1
  Mo  Mo21  1  0.553154  0.446846  0.750000  1
