# generated using pymatgen
data_Tb2DyIn4CoCu
_symmetry_space_group_name_H-M   'P 1'
_cell_length_a   7.88213348
_cell_length_b   7.88206637
_cell_length_c   3.73120400
_cell_angle_alpha   90.00000000
_cell_angle_beta   90.00000000
_cell_angle_gamma   120.04197487
_symmetry_Int_Tables_number   1
_chemical_formula_structural   Tb2DyIn4CoCu
_chemical_formula_sum   'Tb2 Dy1 In4 Co1 Cu1'
_cell_volume   200.66870652
_cell_formula_units_Z   1
loop_
 _symmetry_equiv_pos_site_id
 _symmetry_equiv_pos_as_xyz
  1  'x, y, z'
loop_
 _atom_site_type_symbol
 _atom_site_label
 _atom_site_symmetry_multiplicity
 _atom_site_fract_x
 _atom_site_fract_y
 _atom_site_fract_z
 _atom_site_occupancy
  Tb  Tb0  1  0.049857  0.292107  0.500000  1
  Tb  Tb1  1  0.707867  0.757531  0.500000  1
  Dy  Dy2  1  0.242291  0.950022  0.500000  1
  In  In3  1  0.667330  0.078091  0.000000  1
  In  In4  1  0.923448  0.590863  0.000000  1
  In  In5  1  0.408576  0.330976  0.000000  1
  In  In6  1  0.333391  0.666794  0.000000  1
  Co  Co7  1  0.001137  0.999461  0.000000  1
  Cu  Cu8  1  0.666102  0.334156  0.500000  1
