# generated using pymatgen
data_LaAl4GePt2
_symmetry_space_group_name_H-M   'P 1'
_cell_length_a   6.01150600
_cell_length_b   6.01150600
_cell_length_c   8.32564300
_cell_angle_alpha   90.00000000
_cell_angle_beta   90.00000000
_cell_angle_gamma   90.00000000
_symmetry_Int_Tables_number   1
_chemical_formula_structural   LaAl4GePt2
_chemical_formula_sum   'La2 Al8 Ge2 Pt4'
_cell_volume   300.87378840
_cell_formula_units_Z   2
loop_
 _symmetry_equiv_pos_site_id
 _symmetry_equiv_pos_as_xyz
  1  'x, y, z'
loop_
 _atom_site_type_symbol
 _atom_site_label
 _atom_site_symmetry_multiplicity
 _atom_site_fract_x
 _atom_site_fract_y
 _atom_site_fract_z
 _atom_site_occupancy
  La  La0  1  0.750000  0.250000  0.500000  1
  La  La1  1  0.250000  0.750000  0.500000  1
  Al  Al2  1  0.490279  0.490279  0.169977  1
  Al  Al3  1  0.009721  0.490279  0.169977  1
  Al  Al4  1  0.490279  0.009721  0.169977  1
  Al  Al5  1  0.009721  0.009721  0.169977  1
  Al  Al6  1  0.990279  0.990279  0.830024  1
  Al  Al7  1  0.509720  0.990279  0.830024  1
  Al  Al8  1  0.990279  0.509720  0.830024  1
  Al  Al9  1  0.509720  0.509720  0.830024  1
  Ge  Ge10  1  0.750000  0.750000  0.353018  1
  Ge  Ge11  1  0.250000  0.250000  0.646981  1
  Pt  Pt12  1  0.750000  0.250000  0.000000  1
  Pt  Pt13  1  0.250000  0.750000  0.000000  1
  Pt  Pt14  1  0.250000  0.250000  0.348331  1
  Pt  Pt15  1  0.750000  0.750000  0.651668  1
