# generated using pymatgen
data_CePr7(ThS5)4
_symmetry_space_group_name_H-M   'P 1'
_cell_length_a   7.63774724
_cell_length_b   8.27495193
_cell_length_c   12.18549611
_cell_angle_alpha   90.03740832
_cell_angle_beta   90.05615998
_cell_angle_gamma   89.99715577
_symmetry_Int_Tables_number   1
_chemical_formula_structural   CePr7(ThS5)4
_chemical_formula_sum   'Ce1 Pr7 Th4 S20'
_cell_volume   770.14708387
_cell_formula_units_Z   1
loop_
 _symmetry_equiv_pos_site_id
 _symmetry_equiv_pos_as_xyz
  1  'x, y, z'
loop_
 _atom_site_type_symbol
 _atom_site_label
 _atom_site_symmetry_multiplicity
 _atom_site_fract_x
 _atom_site_fract_y
 _atom_site_fract_z
 _atom_site_occupancy
  Ce  Ce0  1  0.982132  0.500293  0.821511  1
  Pr  Pr1  1  0.518980  0.499962  0.322489  1
  Pr  Pr2  1  0.981087  0.999983  0.822372  1
  Pr  Pr3  1  0.481295  0.999776  0.678482  1
  Pr  Pr4  1  0.018527  0.499948  0.178486  1
  Pr  Pr5  1  0.481008  0.500120  0.677394  1
  Pr  Pr6  1  0.018898  0.000067  0.177430  1
  Pr  Pr7  1  0.518569  0.000065  0.321683  1
  Th  Th8  1  0.074758  0.750221  0.491215  1
  Th  Th9  1  0.425315  0.749728  0.991026  1
  Th  Th10  1  0.925283  0.249786  0.508893  1
  Th  Th11  1  0.575004  0.250141  0.008819  1
  S  S12  1  0.839743  0.958099  0.600136  1
  S  S13  1  0.660214  0.541884  0.100103  1
  S  S14  1  0.160608  0.457982  0.400476  1
  S  S15  1  0.339408  0.042045  0.900481  1
  S  S16  1  0.160304  0.041942  0.399805  1
  S  S17  1  0.338668  0.457948  0.899680  1
  S  S18  1  0.840134  0.541988  0.600173  1
  S  S19  1  0.660670  0.957898  0.099545  1
  S  S20  1  0.829084  0.750083  0.313533  1
  S  S21  1  0.670753  0.749699  0.813482  1
  S  S22  1  0.170385  0.250436  0.686789  1
  S  S23  1  0.329112  0.250067  0.186391  1
  S  S24  1  0.456657  0.750135  0.498391  1
  S  S25  1  0.043213  0.749398  0.997848  1
  S  S26  1  0.543393  0.249968  0.501687  1
  S  S27  1  0.956904  0.250426  0.001529  1
  S  S28  1  0.200128  0.749729  0.715583  1
  S  S29  1  0.299393  0.749653  0.215233  1
  S  S30  1  0.799418  0.249622  0.284688  1
  S  S31  1  0.700952  0.250907  0.784647  1
