# generated using pymatgen
data_CsCr6S7
_symmetry_space_group_name_H-M   'P 1'
_cell_length_a   9.09798767
_cell_length_b   9.09798805
_cell_length_c   9.09798748
_cell_angle_alpha   60.07159980
_cell_angle_beta   60.07159941
_cell_angle_gamma   60.07158850
_symmetry_Int_Tables_number   1
_chemical_formula_structural   CsCr6S7
_chemical_formula_sum   'Cs2 Cr12 S14'
_cell_volume   533.36575115
_cell_formula_units_Z   2
loop_
 _symmetry_equiv_pos_site_id
 _symmetry_equiv_pos_as_xyz
  1  'x, y, z'
loop_
 _atom_site_type_symbol
 _atom_site_label
 _atom_site_symmetry_multiplicity
 _atom_site_fract_x
 _atom_site_fract_y
 _atom_site_fract_z
 _atom_site_occupancy
  Cs  Cs0  1  0.376671  0.376671  0.376671  1
  Cs  Cs1  1  0.623329  0.623329  0.623329  1
  Cr  Cr2  1  0.309576  0.123004  0.990944  1
  Cr  Cr3  1  0.194532  0.881491  0.060142  1
  Cr  Cr4  1  0.881491  0.060142  0.194532  1
  Cr  Cr5  1  0.939858  0.805468  0.118509  1
  Cr  Cr6  1  0.805468  0.118509  0.939858  1
  Cr  Cr7  1  0.118509  0.939858  0.805468  1
  Cr  Cr8  1  0.990944  0.309576  0.123004  1
  Cr  Cr9  1  0.876996  0.009056  0.690424  1
  Cr  Cr10  1  0.123004  0.990944  0.309576  1
  Cr  Cr11  1  0.009056  0.690424  0.876996  1
  Cr  Cr12  1  0.690424  0.876996  0.009056  1
  Cr  Cr13  1  0.060142  0.194532  0.881491  1
  S  S14  1  0.983082  0.230466  0.647474  1
  S  S15  1  0.230466  0.647474  0.983082  1
  S  S16  1  0.647474  0.983082  0.230466  1
  S  S17  1  0.016918  0.769534  0.352526  1
  S  S18  1  0.769534  0.352526  0.016918  1
  S  S19  1  0.352526  0.016918  0.769534  1
  S  S20  1  0.159989  0.410538  0.824636  1
  S  S21  1  0.410538  0.824636  0.159989  1
  S  S22  1  0.824636  0.159989  0.410538  1
  S  S23  1  0.840011  0.589462  0.175364  1
  S  S24  1  0.589462  0.175364  0.840011  1
  S  S25  1  0.175364  0.840011  0.589462  1
  S  S26  1  0.780830  0.780830  0.780830  1
  S  S27  1  0.219170  0.219170  0.219170  1
