# generated using pymatgen
data_Zr5GaSn2Sb
_symmetry_space_group_name_H-M   'P 1'
_cell_length_a   8.71502774
_cell_length_b   8.70028351
_cell_length_c   5.89041000
_cell_angle_alpha   90.00000000
_cell_angle_beta   90.00000000
_cell_angle_gamma   119.94405446
_symmetry_Int_Tables_number   1
_chemical_formula_structural   Zr5GaSn2Sb
_chemical_formula_sum   'Zr10 Ga2 Sn4 Sb2'
_cell_volume   387.01062675
_cell_formula_units_Z   2
loop_
 _symmetry_equiv_pos_site_id
 _symmetry_equiv_pos_as_xyz
  1  'x, y, z'
loop_
 _atom_site_type_symbol
 _atom_site_label
 _atom_site_symmetry_multiplicity
 _atom_site_fract_x
 _atom_site_fract_y
 _atom_site_fract_z
 _atom_site_occupancy
  Zr  Zr0  1  0.732567  0.733640  0.750000  1
  Zr  Zr1  1  0.267433  0.001072  0.750000  1
  Zr  Zr2  1  0.000000  0.265913  0.750000  1
  Zr  Zr3  1  0.268870  0.268255  0.250000  1
  Zr  Zr4  1  0.731130  0.999384  0.250000  1
  Zr  Zr5  1  0.000000  0.732452  0.250000  1
  Zr  Zr6  1  0.665818  0.332506  0.000737  1
  Zr  Zr7  1  0.334182  0.666689  0.000737  1
  Zr  Zr8  1  0.334182  0.666689  0.499263  1
  Zr  Zr9  1  0.665818  0.332506  0.499263  1
  Ga  Ga10  1  0.000000  0.999638  0.002080  1
  Ga  Ga11  1  0.000000  0.999638  0.497920  1
  Sn  Sn12  1  0.000000  0.611593  0.750000  1
  Sn  Sn13  1  0.613537  0.612712  0.250000  1
  Sn  Sn14  1  0.386463  0.999175  0.250000  1
  Sn  Sn15  1  0.000000  0.388240  0.250000  1
  Sb  Sb16  1  0.390180  0.390040  0.750000  1
  Sb  Sb17  1  0.609820  0.999860  0.750000  1
