# generated using pymatgen
data_Tb2DyTmIn4
_symmetry_space_group_name_H-M   'P 1'
_cell_length_a   6.50067672
_cell_length_b   6.50067802
_cell_length_c   10.33071500
_cell_angle_alpha   90.00000000
_cell_angle_beta   90.00000000
_cell_angle_gamma   103.97237504
_symmetry_Int_Tables_number   1
_chemical_formula_structural   Tb2DyTmIn4
_chemical_formula_sum   'Tb4 Dy2 Tm2 In8'
_cell_volume   423.64674910
_cell_formula_units_Z   2
loop_
 _symmetry_equiv_pos_site_id
 _symmetry_equiv_pos_as_xyz
  1  'x, y, z'
loop_
 _atom_site_type_symbol
 _atom_site_label
 _atom_site_symmetry_multiplicity
 _atom_site_fract_x
 _atom_site_fract_y
 _atom_site_fract_z
 _atom_site_occupancy
  Tb  Tb0  1  0.247826  0.752174  0.500000  1
  Tb  Tb1  1  0.247826  0.752174  0.000000  1
  Tb  Tb2  1  0.752174  0.247826  0.500000  1
  Tb  Tb3  1  0.752174  0.247826  0.000000  1
  Dy  Dy4  1  0.524169  0.524169  0.250000  1
  Dy  Dy5  1  0.475831  0.475831  0.750000  1
  Tm  Tm6  1  0.982210  0.982210  0.250000  1
  Tm  Tm7  1  0.017790  0.017790  0.750000  1
  In  In8  1  0.250667  0.250667  0.013315  1
  In  In9  1  0.749333  0.749333  0.986685  1
  In  In10  1  0.250667  0.250667  0.486685  1
  In  In11  1  0.749333  0.749333  0.513315  1
  In  In12  1  0.486615  0.014610  0.250000  1
  In  In13  1  0.985390  0.513385  0.750000  1
  In  In14  1  0.513385  0.985390  0.750000  1
  In  In15  1  0.014610  0.486615  0.250000  1
