# generated using pymatgen
data_Ba4Li2ScAlSi4
_symmetry_space_group_name_H-M   'P 1'
_cell_length_a   8.97925751
_cell_length_b   8.97925704
_cell_length_c   8.97925763
_cell_angle_alpha   137.14277489
_cell_angle_beta   136.74197837
_cell_angle_gamma   62.52729765
_symmetry_Int_Tables_number   1
_chemical_formula_structural   Ba4Li2ScAlSi4
_chemical_formula_sum   'Ba4 Li2 Sc1 Al1 Si4'
_cell_volume   333.34106246
_cell_formula_units_Z   1
loop_
 _symmetry_equiv_pos_site_id
 _symmetry_equiv_pos_as_xyz
  1  'x, y, z'
loop_
 _atom_site_type_symbol
 _atom_site_label
 _atom_site_symmetry_multiplicity
 _atom_site_fract_x
 _atom_site_fract_y
 _atom_site_fract_z
 _atom_site_occupancy
  Ba  Ba0  1  0.104332  0.830777  0.264974  1
  Ba  Ba1  1  0.895668  0.160642  0.726445  1
  Ba  Ba2  1  0.434196  0.669223  0.773555  1
  Ba  Ba3  1  0.565804  0.339358  0.235026  1
  Li  Li4  1  0.500000  0.250000  0.750000  1
  Li  Li5  1  0.500000  0.750000  0.250000  1
  Sc  Sc6  1  0.000000  0.250000  0.250000  1
  Al  Al7  1  0.000000  0.750000  0.750000  1
  Si  Si8  1  0.671223  0.895478  0.759175  1
  Si  Si9  1  0.136304  0.412048  0.740825  1
  Si  Si10  1  0.863696  0.604522  0.275744  1
  Si  Si11  1  0.328777  0.087952  0.224256  1
