# generated using pymatgen
data_Pr3GeAuS7
_symmetry_space_group_name_H-M   'P 1'
_cell_length_a   10.36997500
_cell_length_b   10.36985644
_cell_length_c   5.91160100
_cell_angle_alpha   89.99996404
_cell_angle_beta   90.00007744
_cell_angle_gamma   119.99980229
_symmetry_Int_Tables_number   1
_chemical_formula_structural   Pr3GeAuS7
_chemical_formula_sum   'Pr6 Ge2 Au2 S14'
_cell_volume   550.53770010
_cell_formula_units_Z   2
loop_
 _symmetry_equiv_pos_site_id
 _symmetry_equiv_pos_as_xyz
  1  'x, y, z'
loop_
 _atom_site_type_symbol
 _atom_site_label
 _atom_site_symmetry_multiplicity
 _atom_site_fract_x
 _atom_site_fract_y
 _atom_site_fract_z
 _atom_site_occupancy
  Pr  Pr0  1  0.358325  0.230675  0.248784  1
  Pr  Pr1  1  0.769321  0.127653  0.248784  1
  Pr  Pr2  1  0.872344  0.641665  0.248785  1
  Pr  Pr3  1  0.641675  0.769324  0.748784  1
  Pr  Pr4  1  0.230678  0.872347  0.748785  1
  Pr  Pr5  1  0.127657  0.358335  0.748783  1
  Ge  Ge6  1  0.333347  0.666674  0.332209  1
  Ge  Ge7  1  0.666653  0.333326  0.832211  1
  Au  Au8  1  0.999999  0.000001  0.221321  1
  Au  Au9  1  0.000000  0.999999  0.721322  1
  S  S10  1  0.095806  0.268703  0.233148  1
  S  S11  1  0.731300  0.827108  0.233148  1
  S  S12  1  0.172887  0.904187  0.233147  1
  S  S13  1  0.666650  0.333325  0.458681  1
  S  S14  1  0.107410  0.585137  0.487488  1
  S  S15  1  0.414871  0.522267  0.487502  1
  S  S16  1  0.477741  0.892607  0.487503  1
  S  S17  1  0.827113  0.095813  0.733147  1
  S  S18  1  0.268700  0.172893  0.733148  1
  S  S19  1  0.904193  0.731296  0.733149  1
  S  S20  1  0.333350  0.666675  0.958679  1
  S  S21  1  0.892591  0.414863  0.987488  1
  S  S22  1  0.585128  0.477733  0.987502  1
  S  S23  1  0.522259  0.107393  0.987503  1
