# generated using pymatgen
data_YbCeAl3Os
_symmetry_space_group_name_H-M   'P 1'
_cell_length_a   5.53002900
_cell_length_b   5.53002910
_cell_length_c   8.82375900
_cell_angle_alpha   90.00000000
_cell_angle_beta   90.00000000
_cell_angle_gamma   119.99999343
_symmetry_Int_Tables_number   1
_chemical_formula_structural   YbCeAl3Os
_chemical_formula_sum   'Yb2 Ce2 Al6 Os2'
_cell_volume   233.68945925
_cell_formula_units_Z   2
loop_
 _symmetry_equiv_pos_site_id
 _symmetry_equiv_pos_as_xyz
  1  'x, y, z'
loop_
 _atom_site_type_symbol
 _atom_site_label
 _atom_site_symmetry_multiplicity
 _atom_site_fract_x
 _atom_site_fract_y
 _atom_site_fract_z
 _atom_site_occupancy
  Yb  Yb0  1  0.333334  0.666667  0.555087  1
  Yb  Yb1  1  0.333334  0.666667  0.944913  1
  Ce  Ce2  1  0.666666  0.333333  0.048446  1
  Ce  Ce3  1  0.666666  0.333333  0.451554  1
  Al  Al4  1  0.160936  0.321870  0.250000  1
  Al  Al5  1  0.160936  0.839064  0.250000  1
  Al  Al6  1  0.678129  0.839064  0.250000  1
  Al  Al7  1  0.322028  0.161014  0.750000  1
  Al  Al8  1  0.838986  0.161014  0.750000  1
  Al  Al9  1  0.838986  0.677972  0.750000  1
  Os  Os10  1  0.000000  0.000000  0.999109  1
  Os  Os11  1  0.000000  0.000000  0.500891  1
