# generated using pymatgen
data_Lu4Si2B8Rh
_symmetry_space_group_name_H-M   'P 1'
_cell_length_a   7.02379200
_cell_length_b   7.02379200
_cell_length_c   7.40222000
_cell_angle_alpha   90.00000000
_cell_angle_beta   90.00000000
_cell_angle_gamma   90.00000000
_symmetry_Int_Tables_number   1
_chemical_formula_structural   Lu4Si2B8Rh
_chemical_formula_sum   'Lu8 Si4 B16 Rh2'
_cell_volume   365.17856075
_cell_formula_units_Z   2
loop_
 _symmetry_equiv_pos_site_id
 _symmetry_equiv_pos_as_xyz
  1  'x, y, z'
loop_
 _atom_site_type_symbol
 _atom_site_label
 _atom_site_symmetry_multiplicity
 _atom_site_fract_x
 _atom_site_fract_y
 _atom_site_fract_z
 _atom_site_occupancy
  Lu  Lu0  1  0.678298  0.178298  0.236983  1
  Lu  Lu1  1  0.321702  0.821702  0.763017  1
  Lu  Lu2  1  0.321702  0.821702  0.236983  1
  Lu  Lu3  1  0.821702  0.678298  0.236983  1
  Lu  Lu4  1  0.821702  0.678298  0.763017  1
  Lu  Lu5  1  0.678298  0.178298  0.763017  1
  Lu  Lu6  1  0.178298  0.321702  0.763017  1
  Lu  Lu7  1  0.178298  0.321702  0.236983  1
  Si  Si8  1  0.121001  0.621001  0.500000  1
  Si  Si9  1  0.878999  0.378999  0.500000  1
  Si  Si10  1  0.378999  0.121001  0.500000  1
  Si  Si11  1  0.621001  0.878999  0.500000  1
  B  B12  1  0.172986  0.041177  0.000000  1
  B  B13  1  0.827014  0.958823  0.000000  1
  B  B14  1  0.958823  0.172986  0.000000  1
  B  B15  1  0.327014  0.541177  0.000000  1
  B  B16  1  0.041177  0.827014  0.000000  1
  B  B17  1  0.672986  0.458823  0.000000  1
  B  B18  1  0.541177  0.672986  0.000000  1
  B  B19  1  0.458823  0.327014  0.000000  1
  B  B20  1  0.089222  0.589222  0.000000  1
  B  B21  1  0.910778  0.410778  0.000000  1
  B  B22  1  0.410778  0.089222  0.000000  1
  B  B23  1  0.589222  0.910778  0.000000  1
  B  B24  1  0.000000  0.000000  0.177078  1
  B  B25  1  0.000000  0.000000  0.822922  1
  B  B26  1  0.500000  0.500000  0.822922  1
  B  B27  1  0.500000  0.500000  0.177078  1
  Rh  Rh28  1  0.000000  0.000000  0.500000  1
  Rh  Rh29  1  0.500000  0.500000  0.500000  1
