# generated using pymatgen
data_Tb(Ti3Sb2)2
_symmetry_space_group_name_H-M   'P 1'
_cell_length_a   8.30681549
_cell_length_b   8.30681490
_cell_length_c   8.30681528
_cell_angle_alpha   40.40429710
_cell_angle_beta   40.40430540
_cell_angle_gamma   40.40430112
_symmetry_Int_Tables_number   1
_chemical_formula_structural   Tb(Ti3Sb2)2
_chemical_formula_sum   'Tb1 Ti6 Sb4'
_cell_volume   217.15394441
_cell_formula_units_Z   1
loop_
 _symmetry_equiv_pos_site_id
 _symmetry_equiv_pos_as_xyz
  1  'x, y, z'
loop_
 _atom_site_type_symbol
 _atom_site_label
 _atom_site_symmetry_multiplicity
 _atom_site_fract_x
 _atom_site_fract_y
 _atom_site_fract_z
 _atom_site_occupancy
  Tb  Tb0  1  0.000000  0.000000  0.000000  1
  Ti  Ti1  1  0.598182  0.598182  0.115075  1
  Ti  Ti2  1  0.884926  0.401818  0.401817  1
  Ti  Ti3  1  0.401818  0.884926  0.401817  1
  Ti  Ti4  1  0.598182  0.115074  0.598183  1
  Ti  Ti5  1  0.115074  0.598182  0.598183  1
  Ti  Ti6  1  0.401818  0.401818  0.884925  1
  Sb  Sb7  1  0.130003  0.130003  0.130003  1
  Sb  Sb8  1  0.332302  0.332302  0.332302  1
  Sb  Sb9  1  0.667698  0.667698  0.667698  1
  Sb  Sb10  1  0.869997  0.869997  0.869997  1
