# generated using pymatgen
data_Ce2Pr6Co3Si12Rh
_symmetry_space_group_name_H-M   'P 1'
_cell_length_a   8.16620429
_cell_length_b   8.16086302
_cell_length_c   8.43447775
_cell_angle_alpha   89.86668498
_cell_angle_beta   90.00907331
_cell_angle_gamma   120.38382186
_symmetry_Int_Tables_number   1
_chemical_formula_structural   Ce2Pr6Co3Si12Rh
_chemical_formula_sum   'Ce2 Pr6 Co3 Si12 Rh1'
_cell_volume   484.89862886
_cell_formula_units_Z   1
loop_
 _symmetry_equiv_pos_site_id
 _symmetry_equiv_pos_as_xyz
  1  'x, y, z'
loop_
 _atom_site_type_symbol
 _atom_site_label
 _atom_site_symmetry_multiplicity
 _atom_site_fract_x
 _atom_site_fract_y
 _atom_site_fract_z
 _atom_site_occupancy
  Ce  Ce0  1  0.501564  0.002913  0.748888  1
  Ce  Ce1  1  0.997424  0.498571  0.748979  1
  Pr  Pr2  1  0.000071  0.999916  0.250753  1
  Pr  Pr3  1  0.999815  0.000203  0.748922  1
  Pr  Pr4  1  0.500260  0.499703  0.250353  1
  Pr  Pr5  1  0.500528  0.001055  0.250608  1
  Pr  Pr6  1  0.998894  0.499456  0.250611  1
  Pr  Pr7  1  0.499982  0.500016  0.749563  1
  Co  Co8  1  0.330859  0.669532  0.511825  1
  Co  Co9  1  0.669443  0.329980  0.518411  1
  Co  Co10  1  0.669350  0.330085  0.979292  1
  Si  Si11  1  0.170716  0.829781  0.504835  1
  Si  Si12  1  0.172007  0.344006  0.502372  1
  Si  Si13  1  0.655905  0.828135  0.502330  1
  Si  Si14  1  0.829905  0.169591  0.502051  1
  Si  Si15  1  0.828298  0.656745  0.500781  1
  Si  Si16  1  0.343332  0.171486  0.500894  1
  Si  Si17  1  0.829201  0.170282  0.997955  1
  Si  Si18  1  0.827693  0.655476  0.999071  1
  Si  Si19  1  0.344541  0.172107  0.999061  1
  Si  Si20  1  0.165134  0.835410  0.994565  1
  Si  Si21  1  0.166591  0.332614  0.997647  1
  Si  Si22  1  0.667259  0.833600  0.997534  1
  Rh  Rh23  1  0.331224  0.669340  0.992698  1
