# generated using pymatgen
data_Dy3InSn3Ru2
_symmetry_space_group_name_H-M   'P 1'
_cell_length_a   7.79126000
_cell_length_b   7.79125869
_cell_length_c   3.89127300
_cell_angle_alpha   90.00000000
_cell_angle_beta   90.00000000
_cell_angle_gamma   120.00000669
_symmetry_Int_Tables_number   1
_chemical_formula_structural   Dy3InSn3Ru2
_chemical_formula_sum   'Dy3 In1 Sn3 Ru2'
_cell_volume   204.56796495
_cell_formula_units_Z   1
loop_
 _symmetry_equiv_pos_site_id
 _symmetry_equiv_pos_as_xyz
  1  'x, y, z'
loop_
 _atom_site_type_symbol
 _atom_site_label
 _atom_site_symmetry_multiplicity
 _atom_site_fract_x
 _atom_site_fract_y
 _atom_site_fract_z
 _atom_site_occupancy
  Dy  Dy0  1  0.047994  0.300153  0.500000  1
  Dy  Dy1  1  0.699847  0.747840  0.500000  1
  Dy  Dy2  1  0.252160  0.952006  0.500000  1
  In  In3  1  0.333333  0.666667  0.000000  1
  Sn  Sn4  1  0.672449  0.081211  0.000000  1
  Sn  Sn5  1  0.918789  0.591239  0.000000  1
  Sn  Sn6  1  0.408761  0.327551  0.000000  1
  Ru  Ru7  1  0.666667  0.333333  0.500000  1
  Ru  Ru8  1  0.000000  0.000000  0.000000  1
