# generated using pymatgen
data_Ce2Sm4Co16MoP12W
_symmetry_space_group_name_H-M   'P 1'
_cell_length_a   3.76043600
_cell_length_b   10.67475000
_cell_length_c   12.31567000
_cell_angle_alpha   90.00000000
_cell_angle_beta   90.00000000
_cell_angle_gamma   90.00000000
_symmetry_Int_Tables_number   1
_chemical_formula_structural   Ce2Sm4Co16MoP12W
_chemical_formula_sum   'Ce2 Sm4 Co16 Mo1 P12 W1'
_cell_volume   494.37210521
_cell_formula_units_Z   1
loop_
 _symmetry_equiv_pos_site_id
 _symmetry_equiv_pos_as_xyz
  1  'x, y, z'
loop_
 _atom_site_type_symbol
 _atom_site_label
 _atom_site_symmetry_multiplicity
 _atom_site_fract_x
 _atom_site_fract_y
 _atom_site_fract_z
 _atom_site_occupancy
  Ce  Ce0  1  0.000000  0.500000  0.528446  1
  Ce  Ce1  1  0.500000  0.000000  0.471515  1
  Sm  Sm2  1  0.500000  0.817349  0.204752  1
  Sm  Sm3  1  0.500000  0.182651  0.204752  1
  Sm  Sm4  1  0.000000  0.682975  0.795387  1
  Sm  Sm5  1  0.000000  0.317025  0.795387  1
  Co  Co6  1  0.500000  0.500000  0.697585  1
  Co  Co7  1  0.000000  0.000000  0.302054  1
  Co  Co8  1  0.000000  0.500000  0.986781  1
  Co  Co9  1  0.500000  0.000000  0.013496  1
  Co  Co10  1  0.500000  0.332992  0.991151  1
  Co  Co11  1  0.500000  0.667008  0.991151  1
  Co  Co12  1  0.000000  0.167480  0.009076  1
  Co  Co13  1  0.000000  0.832520  0.009076  1
  Co  Co14  1  0.500000  0.297514  0.431915  1
  Co  Co15  1  0.500000  0.702486  0.431915  1
  Co  Co16  1  0.000000  0.202424  0.568156  1
  Co  Co17  1  0.000000  0.797576  0.568156  1
  Co  Co18  1  0.500000  0.880722  0.707608  1
  Co  Co19  1  0.500000  0.119278  0.707608  1
  Co  Co20  1  0.000000  0.619184  0.291763  1
  Co  Co21  1  0.000000  0.380816  0.291763  1
  Mo  Mo22  1  0.000000  0.000000  0.845428  1
  P  P23  1  0.500000  0.500000  0.881444  1
  P  P24  1  0.000000  0.000000  0.117989  1
  P  P25  1  0.500000  0.500000  0.347945  1
  P  P26  1  0.000000  0.000000  0.652662  1
  P  P27  1  0.500000  0.306329  0.615055  1
  P  P28  1  0.500000  0.693671  0.615055  1
  P  P29  1  0.000000  0.193666  0.385037  1
  P  P30  1  0.000000  0.806334  0.385037  1
  P  P31  1  0.500000  0.846076  0.894705  1
  P  P32  1  0.500000  0.153924  0.894705  1
  P  P33  1  0.000000  0.654179  0.105438  1
  P  P34  1  0.000000  0.345821  0.105438  1
  W  W35  1  0.500000  0.500000  0.154567  1
