# generated using pymatgen
data_TbTl(TcO4)6
_symmetry_space_group_name_H-M   'P 1'
_cell_length_a   9.95257900
_cell_length_b   9.95258027
_cell_length_c   6.19329800
_cell_angle_alpha   90.00000000
_cell_angle_beta   90.00000000
_cell_angle_gamma   119.99999246
_symmetry_Int_Tables_number   1
_chemical_formula_structural   TbTl(TcO4)6
_chemical_formula_sum   'Tb1 Tl1 Tc6 O24'
_cell_volume   531.28060814
_cell_formula_units_Z   1
loop_
 _symmetry_equiv_pos_site_id
 _symmetry_equiv_pos_as_xyz
  1  'x, y, z'
loop_
 _atom_site_type_symbol
 _atom_site_label
 _atom_site_symmetry_multiplicity
 _atom_site_fract_x
 _atom_site_fract_y
 _atom_site_fract_z
 _atom_site_occupancy
  Tb  Tb0  1  0.666667  0.333333  0.750000  1
  Tl  Tl1  1  0.333333  0.666667  0.250000  1
  Tc  Tc2  1  0.602415  0.702583  0.750000  1
  Tc  Tc3  1  0.394806  0.293358  0.250000  1
  Tc  Tc4  1  0.100168  0.397585  0.750000  1
  Tc  Tc5  1  0.898552  0.605194  0.250000  1
  Tc  Tc6  1  0.297417  0.899832  0.750000  1
  Tc  Tc7  1  0.706642  0.101448  0.250000  1
  O  O8  1  0.956803  0.449383  0.750000  1
  O  O9  1  0.037861  0.548333  0.250000  1
  O  O10  1  0.492581  0.043197  0.750000  1
  O  O11  1  0.510471  0.962139  0.250000  1
  O  O12  1  0.550617  0.507419  0.750000  1
  O  O13  1  0.451667  0.489529  0.250000  1
  O  O14  1  0.799172  0.815972  0.750000  1
  O  O15  1  0.197641  0.181328  0.250000  1
  O  O16  1  0.016801  0.200828  0.750000  1
  O  O17  1  0.983686  0.802359  0.250000  1
  O  O18  1  0.184028  0.983199  0.750000  1
  O  O19  1  0.818672  0.016314  0.250000  1
  O  O20  1  0.529305  0.746510  0.982060  1
  O  O21  1  0.470879  0.252474  0.018898  1
  O  O22  1  0.217205  0.470695  0.982060  1
  O  O23  1  0.470879  0.252474  0.481102  1
  O  O24  1  0.781595  0.529121  0.018898  1
  O  O25  1  0.529305  0.746510  0.517940  1
  O  O26  1  0.253490  0.782795  0.982060  1
  O  O27  1  0.781595  0.529121  0.481102  1
  O  O28  1  0.747526  0.218405  0.018898  1
  O  O29  1  0.217205  0.470695  0.517940  1
  O  O30  1  0.747526  0.218405  0.481102  1
  O  O31  1  0.253490  0.782795  0.517940  1
