# generated using pymatgen
data_PrYFe6(CoB4)2
_symmetry_space_group_name_H-M   'P 1'
_cell_length_a   7.01729515
_cell_length_b   7.02001115
_cell_length_c   3.80179700
_cell_angle_alpha   90.00000000
_cell_angle_beta   90.00000000
_cell_angle_gamma   89.77816060
_symmetry_Int_Tables_number   1
_chemical_formula_structural   PrYFe6(CoB4)2
_chemical_formula_sum   'Pr1 Y1 Fe6 Co2 B8'
_cell_volume   187.28078198
_cell_formula_units_Z   1
loop_
 _symmetry_equiv_pos_site_id
 _symmetry_equiv_pos_as_xyz
  1  'x, y, z'
loop_
 _atom_site_type_symbol
 _atom_site_label
 _atom_site_symmetry_multiplicity
 _atom_site_fract_x
 _atom_site_fract_y
 _atom_site_fract_z
 _atom_site_occupancy
  Pr  Pr0  1  0.500000  0.500000  0.500057  1
  Y  Y1  1  0.000000  0.000000  0.999592  1
  Fe  Fe2  1  0.869191  0.385661  0.106194  1
  Fe  Fe3  1  0.130809  0.614339  0.106194  1
  Fe  Fe4  1  0.887633  0.635171  0.605844  1
  Fe  Fe5  1  0.112367  0.364829  0.605844  1
  Fe  Fe6  1  0.634511  0.112294  0.393701  1
  Fe  Fe7  1  0.365489  0.887706  0.393701  1
  Co  Co8  1  0.614574  0.865712  0.892670  1
  Co  Co9  1  0.385426  0.134288  0.892670  1
  B  B10  1  0.330716  0.800532  0.896701  1
  B  B11  1  0.669284  0.199468  0.896701  1
  B  B12  1  0.291941  0.160990  0.394623  1
  B  B13  1  0.708059  0.839010  0.394623  1
  B  B14  1  0.163080  0.706899  0.605578  1
  B  B15  1  0.836920  0.293101  0.605578  1
  B  B16  1  0.194503  0.333016  0.104864  1
  B  B17  1  0.805497  0.666984  0.104864  1
