# generated using pymatgen
data_AcPa(Al5Os)4
_symmetry_space_group_name_H-M   'P 1'
_cell_length_a   6.90509007
_cell_length_b   6.90509010
_cell_length_c   9.21967300
_cell_angle_alpha   90.00000000
_cell_angle_beta   90.00000000
_cell_angle_gamma   97.18093007
_symmetry_Int_Tables_number   1
_chemical_formula_structural   AcPa(Al5Os)4
_chemical_formula_sum   'Ac1 Pa1 Al20 Os4'
_cell_volume   436.14845380
_cell_formula_units_Z   1
loop_
 _symmetry_equiv_pos_site_id
 _symmetry_equiv_pos_as_xyz
  1  'x, y, z'
loop_
 _atom_site_type_symbol
 _atom_site_label
 _atom_site_symmetry_multiplicity
 _atom_site_fract_x
 _atom_site_fract_y
 _atom_site_fract_z
 _atom_site_occupancy
  Ac  Ac0  1  0.125163  0.874837  0.250000  1
  Pa  Pa1  1  0.873345  0.126655  0.750000  1
  Al  Al2  1  0.622336  0.377664  0.552584  1
  Al  Al3  1  0.377881  0.622119  0.454354  1
  Al  Al4  1  0.377881  0.622119  0.045646  1
  Al  Al5  1  0.622336  0.377664  0.947416  1
  Al  Al6  1  0.224939  0.223824  0.503777  1
  Al  Al7  1  0.776176  0.775061  0.503777  1
  Al  Al8  1  0.776176  0.775061  0.996223  1
  Al  Al9  1  0.224939  0.223824  0.996223  1
  Al  Al10  1  0.837025  0.162975  0.101726  1
  Al  Al11  1  0.156963  0.843037  0.895202  1
  Al  Al12  1  0.156963  0.843037  0.604798  1
  Al  Al13  1  0.837025  0.162975  0.398274  1
  Al  Al14  1  0.856911  0.588976  0.750000  1
  Al  Al15  1  0.144750  0.408538  0.250000  1
  Al  Al16  1  0.411024  0.143089  0.750000  1
  Al  Al17  1  0.591462  0.855250  0.250000  1
  Al  Al18  1  0.219331  0.482491  0.750000  1
  Al  Al19  1  0.777812  0.515053  0.250000  1
  Al  Al20  1  0.517509  0.780669  0.750000  1
  Al  Al21  1  0.484947  0.222188  0.250000  1
  Os  Os22  1  0.998925  0.495371  0.504112  1
  Os  Os23  1  0.998925  0.495371  0.995888  1
  Os  Os24  1  0.504629  0.001075  0.995888  1
  Os  Os25  1  0.504629  0.001075  0.504112  1
