# generated using pymatgen
data_Pr7NdSe12
_symmetry_space_group_name_H-M   'P 1'
_cell_length_a   4.23954800
_cell_length_b   7.88796610
_cell_length_c   16.46879320
_cell_angle_alpha   89.98213145
_cell_angle_beta   90.00000000
_cell_angle_gamma   90.00000000
_symmetry_Int_Tables_number   1
_chemical_formula_structural   Pr7NdSe12
_chemical_formula_sum   'Pr7 Nd1 Se12'
_cell_volume   550.73965342
_cell_formula_units_Z   1
loop_
 _symmetry_equiv_pos_site_id
 _symmetry_equiv_pos_as_xyz
  1  'x, y, z'
loop_
 _atom_site_type_symbol
 _atom_site_label
 _atom_site_symmetry_multiplicity
 _atom_site_fract_x
 _atom_site_fract_y
 _atom_site_fract_z
 _atom_site_occupancy
  Pr  Pr0  1  0.499999  0.733670  0.043763  1
  Pr  Pr1  1  0.000000  0.143152  0.203832  1
  Pr  Pr2  1  0.000000  0.643035  0.296076  1
  Pr  Pr3  1  0.499999  0.233808  0.456211  1
  Pr  Pr4  1  0.000000  0.766194  0.543791  1
  Pr  Pr5  1  0.499999  0.356946  0.703949  1
  Pr  Pr6  1  0.499999  0.857027  0.796114  1
  Nd  Nd7  1  0.000000  0.266285  0.956174  1
  Se  Se8  1  0.499999  0.125151  0.066715  1
  Se  Se9  1  0.000000  0.506523  0.109580  1
  Se  Se10  1  0.499999  0.854215  0.218644  1
  Se  Se11  1  0.499999  0.354184  0.281346  1
  Se  Se12  1  0.000000  0.006913  0.390178  1
  Se  Se13  1  0.499999  0.624632  0.432779  1
  Se  Se14  1  0.000000  0.375366  0.567228  1
  Se  Se15  1  0.499999  0.993096  0.609837  1
  Se  Se16  1  0.000000  0.645807  0.718683  1
  Se  Se17  1  0.000000  0.146114  0.781732  1
  Se  Se18  1  0.499999  0.491812  0.890552  1
  Se  Se19  1  0.000000  0.876057  0.932817  1
