# generated using pymatgen
data_Dy3Mg3Ge2Pd
_symmetry_space_group_name_H-M   'P 1'
_cell_length_a   7.27728200
_cell_length_b   7.27728193
_cell_length_c   4.29396300
_cell_angle_alpha   90.00000000
_cell_angle_beta   90.00000000
_cell_angle_gamma   120.00000032
_symmetry_Int_Tables_number   1
_chemical_formula_structural   Dy3Mg3Ge2Pd
_chemical_formula_sum   'Dy3 Mg3 Ge2 Pd1'
_cell_volume   196.93700679
_cell_formula_units_Z   1
loop_
 _symmetry_equiv_pos_site_id
 _symmetry_equiv_pos_as_xyz
  1  'x, y, z'
loop_
 _atom_site_type_symbol
 _atom_site_label
 _atom_site_symmetry_multiplicity
 _atom_site_fract_x
 _atom_site_fract_y
 _atom_site_fract_z
 _atom_site_occupancy
  Dy  Dy0  1  0.000000  0.416563  0.500000  1
  Dy  Dy1  1  0.583437  0.583437  0.500000  1
  Dy  Dy2  1  0.416563  0.000000  0.500000  1
  Mg  Mg3  1  0.000000  0.757878  0.000000  1
  Mg  Mg4  1  0.242122  0.242122  0.000000  1
  Mg  Mg5  1  0.757878  0.000000  0.000000  1
  Ge  Ge6  1  0.333333  0.666667  0.000000  1
  Ge  Ge7  1  0.666667  0.333333  0.000000  1
  Pd  Pd8  1  0.000000  0.000000  0.500000  1
