# generated using pymatgen
data_Nb2TcS6
_symmetry_space_group_name_H-M   'P 1'
_cell_length_a   5.67645664
_cell_length_b   5.67645628
_cell_length_c   6.97256496
_cell_angle_alpha   82.24395972
_cell_angle_beta   82.24395473
_cell_angle_gamma   120.02626720
_symmetry_Int_Tables_number   1
_chemical_formula_structural   Nb2TcS6
_chemical_formula_sum   'Nb2 Tc1 S6'
_cell_volume   187.29397828
_cell_formula_units_Z   1
loop_
 _symmetry_equiv_pos_site_id
 _symmetry_equiv_pos_as_xyz
  1  'x, y, z'
loop_
 _atom_site_type_symbol
 _atom_site_label
 _atom_site_symmetry_multiplicity
 _atom_site_fract_x
 _atom_site_fract_y
 _atom_site_fract_z
 _atom_site_occupancy
  Nb  Nb0  1  0.833194  0.500376  0.499992  1
  Nb  Nb1  1  0.500376  0.833194  0.499992  1
  Tc  Tc2  1  0.166589  0.166589  0.500041  1
  S  S3  1  0.567351  0.243350  0.268139  1
  S  S4  1  0.243350  0.567351  0.268139  1
  S  S5  1  0.920073  0.920073  0.267908  1
  S  S6  1  0.766016  0.766016  0.732273  1
  S  S7  1  0.413480  0.089473  0.731907  1
  S  S8  1  0.089473  0.413480  0.731907  1
