# generated using pymatgen
data_Tb3DyGa20Pt11
_symmetry_space_group_name_H-M   'P 1'
_cell_length_a   4.17463746
_cell_length_b   10.97804541
_cell_length_c   13.73232493
_cell_angle_alpha   82.32986129
_cell_angle_beta   81.25680956
_cell_angle_gamma   79.03907674
_symmetry_Int_Tables_number   1
_chemical_formula_structural   Tb3DyGa20Pt11
_chemical_formula_sum   'Tb3 Dy1 Ga20 Pt11'
_cell_volume   607.12655657
_cell_formula_units_Z   1
loop_
 _symmetry_equiv_pos_site_id
 _symmetry_equiv_pos_as_xyz
  1  'x, y, z'
loop_
 _atom_site_type_symbol
 _atom_site_label
 _atom_site_symmetry_multiplicity
 _atom_site_fract_x
 _atom_site_fract_y
 _atom_site_fract_z
 _atom_site_occupancy
  Tb  Tb0  1  0.123949  0.087276  0.664832  1
  Tb  Tb1  1  0.876044  0.912789  0.335108  1
  Tb  Tb2  1  0.774632  0.629905  0.820823  1
  Dy  Dy3  1  0.225335  0.370231  0.179098  1
  Ga  Ga4  1  0.009318  0.069722  0.911653  1
  Ga  Ga5  1  0.990582  0.930437  0.088388  1
  Ga  Ga6  1  0.065760  0.674188  0.194287  1
  Ga  Ga7  1  0.934272  0.325772  0.805691  1
  Ga  Ga8  1  0.101535  0.342840  0.454109  1
  Ga  Ga9  1  0.898470  0.657116  0.545880  1
  Ga  Ga10  1  0.202670  0.603057  0.991639  1
  Ga  Ga11  1  0.797314  0.396739  0.008620  1
  Ga  Ga12  1  0.259532  0.780167  0.700770  1
  Ga  Ga13  1  0.740372  0.220160  0.299084  1
  Ga  Ga14  1  0.302707  0.899398  0.495197  1
  Ga  Ga15  1  0.697308  0.100653  0.504694  1
  Ga  Ga16  1  0.387504  0.524217  0.700791  1
  Ga  Ga17  1  0.612736  0.475507  0.298976  1
  Ga  Ga18  1  0.396804  0.204224  0.002148  1
  Ga  Ga19  1  0.603171  0.795681  0.998035  1
  Ga  Ga20  1  0.543912  0.282432  0.629764  1
  Ga  Ga21  1  0.456144  0.717468  0.370217  1
  Ga  Ga22  1  0.636955  0.934103  0.791993  1
  Ga  Ga23  1  0.362969  0.066028  0.208025  1
  Pt  Pt24  1  0.500097  0.499938  0.499898  1
  Pt  Pt25  1  0.027308  0.575997  0.369398  1
  Pt  Pt26  1  0.972820  0.423862  0.630491  1
  Pt  Pt27  1  0.138779  0.834181  0.888278  1
  Pt  Pt28  1  0.860916  0.166252  0.111930  1
  Pt  Pt29  1  0.239738  0.128468  0.392012  1
  Pt  Pt30  1  0.760242  0.871646  0.607881  1
  Pt  Pt31  1  0.345436  0.416998  0.892132  1
  Pt  Pt32  1  0.654667  0.582579  0.108124  1
  Pt  Pt33  1  0.505903  0.168511  0.819742  1
  Pt  Pt34  1  0.494100  0.831457  0.180290  1
