# generated using pymatgen
data_Dy8Lu12(BiSb3)3
_symmetry_space_group_name_H-M   'P 1'
_cell_length_a   8.06757833
_cell_length_b   9.24416840
_cell_length_c   11.85312900
_cell_angle_alpha   90.03609122
_cell_angle_beta   89.94062034
_cell_angle_gamma   90.02003229
_symmetry_Int_Tables_number   1
_chemical_formula_structural   Dy8Lu12(BiSb3)3
_chemical_formula_sum   'Dy8 Lu12 Bi3 Sb9'
_cell_volume   883.98257483
_cell_formula_units_Z   1
loop_
 _symmetry_equiv_pos_site_id
 _symmetry_equiv_pos_as_xyz
  1  'x, y, z'
loop_
 _atom_site_type_symbol
 _atom_site_label
 _atom_site_symmetry_multiplicity
 _atom_site_fract_x
 _atom_site_fract_y
 _atom_site_fract_z
 _atom_site_occupancy
  Dy  Dy0  1  0.184223  0.751046  0.718530  1
  Dy  Dy1  1  0.684525  0.748829  0.781447  1
  Dy  Dy2  1  0.813005  0.248203  0.282020  1
  Dy  Dy3  1  0.317427  0.246904  0.219383  1
  Dy  Dy4  1  0.355699  0.752180  0.215594  1
  Dy  Dy5  1  0.850445  0.752733  0.285834  1
  Dy  Dy6  1  0.647064  0.249680  0.785290  1
  Dy  Dy7  1  0.146822  0.250539  0.714630  1
  Lu  Lu8  1  0.026087  0.749958  0.989238  1
  Lu  Lu9  1  0.527232  0.752338  0.509048  1
  Lu  Lu10  1  0.973355  0.249879  0.010845  1
  Lu  Lu11  1  0.474374  0.248004  0.487845  1
  Lu  Lu12  1  0.309160  0.435238  0.941293  1
  Lu  Lu13  1  0.807642  0.064159  0.557203  1
  Lu  Lu14  1  0.689852  0.935636  0.060691  1
  Lu  Lu15  1  0.191455  0.564818  0.440964  1
  Lu  Lu16  1  0.689079  0.564496  0.058559  1
  Lu  Lu17  1  0.191094  0.936307  0.440749  1
  Lu  Lu18  1  0.310896  0.064221  0.941468  1
  Lu  Lu19  1  0.810521  0.435424  0.558338  1
  Bi  Bi20  1  0.066172  0.503819  0.172730  1
  Bi  Bi21  1  0.434211  0.496291  0.671875  1
  Bi  Bi22  1  0.933851  0.003710  0.827536  1
  Sb  Sb23  1  0.434800  0.004191  0.671004  1
  Sb  Sb24  1  0.934765  0.495767  0.829195  1
  Sb  Sb25  1  0.565085  0.504091  0.329157  1
  Sb  Sb26  1  0.065403  0.995818  0.170677  1
  Sb  Sb27  1  0.565433  0.995863  0.328947  1
  Sb  Sb28  1  0.405674  0.749898  0.958365  1
  Sb  Sb29  1  0.906399  0.749997  0.541805  1
  Sb  Sb30  1  0.594204  0.249892  0.041719  1
  Sb  Sb31  1  0.094048  0.250071  0.458019  1
