# generated using pymatgen
data_Cs2LiLuSb2
_symmetry_space_group_name_H-M   'P 1'
_cell_length_a   11.47597216
_cell_length_b   11.47597053
_cell_length_c   7.27122500
_cell_angle_alpha   90.00000000
_cell_angle_beta   90.00000000
_cell_angle_gamma   101.97644809
_symmetry_Int_Tables_number   1
_chemical_formula_structural   Cs2LiLuSb2
_chemical_formula_sum   'Cs8 Li4 Lu4 Sb8'
_cell_volume   936.76098580
_cell_formula_units_Z   4
loop_
 _symmetry_equiv_pos_site_id
 _symmetry_equiv_pos_as_xyz
  1  'x, y, z'
loop_
 _atom_site_type_symbol
 _atom_site_label
 _atom_site_symmetry_multiplicity
 _atom_site_fract_x
 _atom_site_fract_y
 _atom_site_fract_z
 _atom_site_occupancy
  Cs  Cs0  1  0.570207  0.929793  0.750000  1
  Cs  Cs1  1  0.929793  0.570207  0.250000  1
  Cs  Cs2  1  0.429793  0.070207  0.250000  1
  Cs  Cs3  1  0.070207  0.429793  0.750000  1
  Cs  Cs4  1  0.676891  0.323109  0.782795  1
  Cs  Cs5  1  0.823109  0.176891  0.282795  1
  Cs  Cs6  1  0.323109  0.676891  0.217205  1
  Cs  Cs7  1  0.176891  0.823109  0.717205  1
  Li  Li8  1  0.620198  0.620198  0.000000  1
  Li  Li9  1  0.879802  0.879802  0.500000  1
  Li  Li10  1  0.379802  0.379802  0.000000  1
  Li  Li11  1  0.120198  0.120198  0.500000  1
  Lu  Lu12  1  0.870507  0.870507  0.000000  1
  Lu  Lu13  1  0.629493  0.629493  0.500000  1
  Lu  Lu14  1  0.129493  0.129493  0.000000  1
  Lu  Lu15  1  0.370507  0.370507  0.500000  1
  Sb  Sb16  1  0.339048  0.160952  0.750000  1
  Sb  Sb17  1  0.160952  0.339048  0.250000  1
  Sb  Sb18  1  0.660952  0.839048  0.250000  1
  Sb  Sb19  1  0.839048  0.660952  0.750000  1
  Sb  Sb20  1  0.910976  0.089024  0.766120  1
  Sb  Sb21  1  0.589024  0.410976  0.266120  1
  Sb  Sb22  1  0.089024  0.910976  0.233880  1
  Sb  Sb23  1  0.410976  0.589024  0.733880  1
