# generated using pymatgen
data_Mo2RuRh5
_symmetry_space_group_name_H-M   'P 1'
_cell_length_a   5.49216600
_cell_length_b   5.52179556
_cell_length_c   4.38078200
_cell_angle_alpha   90.00000000
_cell_angle_beta   90.00000000
_cell_angle_gamma   119.82265471
_symmetry_Int_Tables_number   1
_chemical_formula_structural   Mo2RuRh5
_chemical_formula_sum   'Mo2 Ru1 Rh5'
_cell_volume   115.26025783
_cell_formula_units_Z   1
loop_
 _symmetry_equiv_pos_site_id
 _symmetry_equiv_pos_as_xyz
  1  'x, y, z'
loop_
 _atom_site_type_symbol
 _atom_site_label
 _atom_site_symmetry_multiplicity
 _atom_site_fract_x
 _atom_site_fract_y
 _atom_site_fract_z
 _atom_site_occupancy
  Mo  Mo0  1  0.667446  0.334890  0.250000  1
  Mo  Mo1  1  0.332022  0.664045  0.750000  1
  Ru  Ru2  1  0.166488  0.332977  0.250000  1
  Rh  Rh3  1  0.834453  0.166361  0.750000  1
  Rh  Rh4  1  0.331908  0.166361  0.750000  1
  Rh  Rh5  1  0.832794  0.665587  0.750000  1
  Rh  Rh6  1  0.167692  0.834890  0.250000  1
  Rh  Rh7  1  0.667197  0.834890  0.250000  1
