# generated using pymatgen
data_Dy5Er3Sc12Si15Rh
_symmetry_space_group_name_H-M   'P 1'
_cell_length_a   7.05773509
_cell_length_b   7.41937693
_cell_length_c   13.91897422
_cell_angle_alpha   89.99042830
_cell_angle_beta   89.98201877
_cell_angle_gamma   90.18143190
_symmetry_Int_Tables_number   1
_chemical_formula_structural   Dy5Er3Sc12Si15Rh
_chemical_formula_sum   'Dy5 Er3 Sc12 Si15 Rh1'
_cell_volume   728.84942294
_cell_formula_units_Z   1
loop_
 _symmetry_equiv_pos_site_id
 _symmetry_equiv_pos_as_xyz
  1  'x, y, z'
loop_
 _atom_site_type_symbol
 _atom_site_label
 _atom_site_symmetry_multiplicity
 _atom_site_fract_x
 _atom_site_fract_y
 _atom_site_fract_z
 _atom_site_occupancy
  Dy  Dy0  1  0.991086  0.824751  0.595289  1
  Dy  Dy1  1  0.511359  0.322954  0.096001  1
  Dy  Dy2  1  0.011225  0.178257  0.404073  1
  Dy  Dy3  1  0.511082  0.323039  0.403544  1
  Dy  Dy4  1  0.489412  0.676767  0.595503  1
  Er  Er5  1  0.011470  0.178686  0.095977  1
  Er  Er6  1  0.991140  0.824242  0.904613  1
  Er  Er7  1  0.489128  0.677615  0.904302  1
  Sc  Sc8  1  0.159389  0.504612  0.750314  1
  Sc  Sc9  1  0.838042  0.496138  0.249841  1
  Sc  Sc10  1  0.338757  0.004956  0.249838  1
  Sc  Sc11  1  0.668525  0.998333  0.750293  1
  Sc  Sc12  1  0.319917  0.172423  0.627322  1
  Sc  Sc13  1  0.671343  0.825471  0.373814  1
  Sc  Sc14  1  0.170656  0.677447  0.374071  1
  Sc  Sc15  1  0.671175  0.825440  0.125815  1
  Sc  Sc16  1  0.834020  0.322322  0.626984  1
  Sc  Sc17  1  0.319241  0.172227  0.873060  1
  Sc  Sc18  1  0.834408  0.321975  0.873359  1
  Sc  Sc19  1  0.170594  0.677705  0.125564  1
  Si  Si20  1  0.968623  0.885252  0.249716  1
  Si  Si21  1  0.468277  0.615035  0.249873  1
  Si  Si22  1  0.530391  0.387709  0.750373  1
  Si  Si23  1  0.287852  0.867652  0.750669  1
  Si  Si24  1  0.713929  0.129454  0.249587  1
  Si  Si25  1  0.212821  0.371399  0.249588  1
  Si  Si26  1  0.780586  0.626978  0.750685  1
  Si  Si27  1  0.159354  0.467074  0.537942  1
  Si  Si28  1  0.842818  0.535797  0.461304  1
  Si  Si29  1  0.344631  0.965789  0.460579  1
  Si  Si30  1  0.842995  0.535756  0.038608  1
  Si  Si31  1  0.657556  0.034925  0.538702  1
  Si  Si32  1  0.159975  0.467726  0.961906  1
  Si  Si33  1  0.658369  0.033655  0.961031  1
  Si  Si34  1  0.343629  0.965633  0.039305  1
  Rh  Rh35  1  0.026223  0.104804  0.750556  1
