# generated using pymatgen
data_Ir2SF18
_symmetry_space_group_name_H-M   'P 1'
_cell_length_a   5.37637652
_cell_length_b   9.05211333
_cell_length_c   9.06801702
_cell_angle_alpha   60.87295118
_cell_angle_beta   85.57995773
_cell_angle_gamma   85.63377185
_symmetry_Int_Tables_number   1
_chemical_formula_structural   Ir2SF18
_chemical_formula_sum   'Ir2 S1 F18'
_cell_volume   383.98574134
_cell_formula_units_Z   1
loop_
 _symmetry_equiv_pos_site_id
 _symmetry_equiv_pos_as_xyz
  1  'x, y, z'
loop_
 _atom_site_type_symbol
 _atom_site_label
 _atom_site_symmetry_multiplicity
 _atom_site_fract_x
 _atom_site_fract_y
 _atom_site_fract_z
 _atom_site_occupancy
  Ir  Ir0  1  0.999766  0.000001  0.999983  1
  Ir  Ir1  1  0.408600  0.668736  0.668534  1
  S  S2  1  0.591284  0.331259  0.331429  1
  F  F3  1  0.128749  0.895455  0.216042  1
  F  F4  1  0.871523  0.104595  0.783870  1
  F  F5  1  0.869865  0.794387  0.046358  1
  F  F6  1  0.130289  0.205532  0.953854  1
  F  F7  1  0.701373  0.057317  0.085802  1
  F  F8  1  0.298544  0.942760  0.914130  1
  F  F9  1  0.217374  0.582218  0.873055  1
  F  F10  1  0.754037  0.405089  0.157236  1
  F  F11  1  0.600076  0.755656  0.464015  1
  F  F12  1  0.428551  0.257315  0.505623  1
  F  F13  1  0.179027  0.590821  0.578924  1
  F  F14  1  0.786637  0.397358  0.407951  1
  F  F15  1  0.638592  0.746068  0.758380  1
  F  F16  1  0.395810  0.265396  0.254802  1
  F  F17  1  0.224872  0.875782  0.589201  1
  F  F18  1  0.747702  0.154856  0.399178  1
  F  F19  1  0.592431  0.461695  0.747819  1
  F  F20  1  0.434896  0.507703  0.263815  1
