# generated using pymatgen
data_Sr3CrFeWO9
_symmetry_space_group_name_H-M   'P 1'
_cell_length_a   9.76002483
_cell_length_b   9.76002474
_cell_length_c   5.61661563
_cell_angle_alpha   73.32725311
_cell_angle_beta   73.32724340
_cell_angle_gamma   48.45059494
_symmetry_Int_Tables_number   1
_chemical_formula_structural   Sr3CrFeWO9
_chemical_formula_sum   'Sr6 Cr2 Fe2 W2 O18'
_cell_volume   380.07426096
_cell_formula_units_Z   2
loop_
 _symmetry_equiv_pos_site_id
 _symmetry_equiv_pos_as_xyz
  1  'x, y, z'
loop_
 _atom_site_type_symbol
 _atom_site_label
 _atom_site_symmetry_multiplicity
 _atom_site_fract_x
 _atom_site_fract_y
 _atom_site_fract_z
 _atom_site_occupancy
  Sr  Sr0  1  0.918541  0.396774  0.844278  1
  Sr  Sr1  1  0.228536  0.770347  0.500748  1
  Sr  Sr2  1  0.604428  0.080839  0.155992  1
  Sr  Sr3  1  0.770347  0.228536  0.500748  1
  Sr  Sr4  1  0.080839  0.604428  0.155992  1
  Sr  Sr5  1  0.396774  0.918541  0.844278  1
  Cr  Cr6  1  0.833140  0.833140  0.669618  1
  Cr  Cr7  1  0.999663  0.999663  0.001699  1
  Fe  Fe8  1  0.499929  0.499929  0.000374  1
  Fe  Fe9  1  0.164700  0.164700  0.335203  1
  W  W10  1  0.332520  0.332520  0.665592  1
  W  W11  1  0.667519  0.667519  0.334496  1
  O  O12  1  0.426221  0.912852  0.330296  1
  O  O13  1  0.744846  0.255743  0.999873  1
  O  O14  1  0.086798  0.575285  0.669328  1
  O  O15  1  0.912852  0.426221  0.330296  1
  O  O16  1  0.255743  0.744846  0.999873  1
  O  O17  1  0.575285  0.086798  0.669328  1
  O  O18  1  0.076924  0.076924  0.197420  1
  O  O19  1  0.400497  0.400497  0.879664  1
  O  O20  1  0.734612  0.734612  0.550166  1
  O  O21  1  0.599889  0.599889  0.119957  1
  O  O22  1  0.923729  0.923729  0.798018  1
  O  O23  1  0.266020  0.266020  0.448597  1
  O  O24  1  0.573812  0.573812  0.627914  1
  O  O25  1  0.905133  0.905133  0.322029  1
  O  O26  1  0.239958  0.239958  0.963385  1
  O  O27  1  0.093881  0.093881  0.678812  1
  O  O28  1  0.426594  0.426594  0.371461  1
  O  O29  1  0.760267  0.760267  0.034563  1
