# generated using pymatgen
data_Nd8Sc11Si16Ag
_symmetry_space_group_name_H-M   'P 1'
_cell_length_a   7.17374296
_cell_length_b   7.53519029
_cell_length_c   14.23781700
_cell_angle_alpha   90.00000000
_cell_angle_beta   90.00000000
_cell_angle_gamma   89.77203179
_symmetry_Int_Tables_number   1
_chemical_formula_structural   Nd8Sc11Si16Ag
_chemical_formula_sum   'Nd8 Sc11 Si16 Ag1'
_cell_volume   769.62648591
_cell_formula_units_Z   1
loop_
 _symmetry_equiv_pos_site_id
 _symmetry_equiv_pos_as_xyz
  1  'x, y, z'
loop_
 _atom_site_type_symbol
 _atom_site_label
 _atom_site_symmetry_multiplicity
 _atom_site_fract_x
 _atom_site_fract_y
 _atom_site_fract_z
 _atom_site_occupancy
  Nd  Nd0  1  0.011090  0.171512  0.097223  1
  Nd  Nd1  1  0.990552  0.817412  0.899486  1
  Nd  Nd2  1  0.481300  0.672478  0.899396  1
  Nd  Nd3  1  0.990552  0.817412  0.600514  1
  Nd  Nd4  1  0.512007  0.325938  0.097375  1
  Nd  Nd5  1  0.011090  0.171512  0.402777  1
  Nd  Nd6  1  0.512007  0.325938  0.402625  1
  Nd  Nd7  1  0.481300  0.672478  0.600604  1
  Sc  Sc8  1  0.839968  0.500770  0.250000  1
  Sc  Sc9  1  0.340753  0.999381  0.250000  1
  Sc  Sc10  1  0.657995  0.003271  0.750000  1
  Sc  Sc11  1  0.326617  0.183741  0.625933  1
  Sc  Sc12  1  0.671364  0.823257  0.375056  1
  Sc  Sc13  1  0.171180  0.677801  0.373700  1
  Sc  Sc14  1  0.671364  0.823257  0.124944  1
  Sc  Sc15  1  0.835893  0.327869  0.626101  1
  Sc  Sc16  1  0.326617  0.183741  0.874067  1
  Sc  Sc17  1  0.835893  0.327869  0.873899  1
  Sc  Sc18  1  0.171180  0.677801  0.126300  1
  Si  Si19  1  0.030533  0.111077  0.750000  1
  Si  Si20  1  0.967699  0.878420  0.250000  1
  Si  Si21  1  0.467469  0.624428  0.250000  1
  Si  Si22  1  0.541671  0.377451  0.750000  1
  Si  Si23  1  0.290191  0.899282  0.750000  1
  Si  Si24  1  0.710696  0.117403  0.250000  1
  Si  Si25  1  0.210700  0.381103  0.250000  1
  Si  Si26  1  0.777504  0.618742  0.750000  1
  Si  Si27  1  0.154224  0.459168  0.531595  1
  Si  Si28  1  0.848622  0.536488  0.460652  1
  Si  Si29  1  0.349669  0.963498  0.462074  1
  Si  Si30  1  0.848622  0.536488  0.039348  1
  Si  Si31  1  0.653171  0.034837  0.540588  1
  Si  Si32  1  0.154224  0.459168  0.968405  1
  Si  Si33  1  0.653171  0.034837  0.959412  1
  Si  Si34  1  0.349669  0.963498  0.037926  1
  Ag  Ag35  1  0.153442  0.500675  0.750000  1
