# generated using pymatgen
data_Nd2Mn2C3
_symmetry_space_group_name_H-M   'P 1'
_cell_length_a   5.84608581
_cell_length_b   5.84608566
_cell_length_c   6.45453249
_cell_angle_alpha   127.93023003
_cell_angle_beta   127.93022743
_cell_angle_gamma   35.16746979
_symmetry_Int_Tables_number   1
_chemical_formula_structural   Nd2Mn2C3
_chemical_formula_sum   'Nd2 Mn2 C3'
_cell_volume   97.11186241
_cell_formula_units_Z   1
loop_
 _symmetry_equiv_pos_site_id
 _symmetry_equiv_pos_as_xyz
  1  'x, y, z'
loop_
 _atom_site_type_symbol
 _atom_site_label
 _atom_site_symmetry_multiplicity
 _atom_site_fract_x
 _atom_site_fract_y
 _atom_site_fract_z
 _atom_site_occupancy
  Nd  Nd0  1  0.430048  0.430048  0.188285  1
  Nd  Nd1  1  0.569952  0.569952  0.811713  1
  Mn  Mn2  1  0.201143  0.201143  0.320344  1
  Mn  Mn3  1  0.798858  0.798858  0.679657  1
  C  C4  1  0.000000  0.000000  0.000000  1
  C  C5  1  0.792837  0.792837  0.366853  1
  C  C6  1  0.207163  0.207163  0.633148  1
