# generated using pymatgen
data_Hf2Th2Si4Mo
_symmetry_space_group_name_H-M   'P 1'
_cell_length_a   7.28940400
_cell_length_b   7.28940400
_cell_length_c   13.43544600
_cell_angle_alpha   90.00000000
_cell_angle_beta   90.00000000
_cell_angle_gamma   90.00000000
_symmetry_Int_Tables_number   1
_chemical_formula_structural   Hf2Th2Si4Mo
_chemical_formula_sum   'Hf8 Th8 Si16 Mo4'
_cell_volume   713.89794081
_cell_formula_units_Z   4
loop_
 _symmetry_equiv_pos_site_id
 _symmetry_equiv_pos_as_xyz
  1  'x, y, z'
loop_
 _atom_site_type_symbol
 _atom_site_label
 _atom_site_symmetry_multiplicity
 _atom_site_fract_x
 _atom_site_fract_y
 _atom_site_fract_z
 _atom_site_occupancy
  Hf  Hf0  1  0.495517  0.348571  0.123742  1
  Hf  Hf1  1  0.504483  0.651429  0.623742  1
  Hf  Hf2  1  0.848571  0.004483  0.873742  1
  Hf  Hf3  1  0.151429  0.995517  0.373742  1
  Hf  Hf4  1  0.651429  0.504483  0.376258  1
  Hf  Hf5  1  0.348571  0.495517  0.876258  1
  Hf  Hf6  1  0.004483  0.848571  0.126258  1
  Hf  Hf7  1  0.995517  0.151429  0.626258  1
  Th  Th8  1  0.499843  0.157138  0.533839  1
  Th  Th9  1  0.500157  0.842862  0.033839  1
  Th  Th10  1  0.657138  0.000157  0.283839  1
  Th  Th11  1  0.342862  0.999843  0.783839  1
  Th  Th12  1  0.842862  0.500157  0.966161  1
  Th  Th13  1  0.157138  0.499843  0.466161  1
  Th  Th14  1  0.000157  0.657138  0.716161  1
  Th  Th15  1  0.999843  0.342862  0.216161  1
  Si  Si16  1  0.799872  0.132622  0.065339  1
  Si  Si17  1  0.200128  0.867378  0.565339  1
  Si  Si18  1  0.632622  0.700128  0.815339  1
  Si  Si19  1  0.367378  0.299872  0.315339  1
  Si  Si20  1  0.867378  0.200128  0.434661  1
  Si  Si21  1  0.132622  0.799872  0.934661  1
  Si  Si22  1  0.700128  0.632622  0.184661  1
  Si  Si23  1  0.299872  0.367378  0.684661  1
  Si  Si24  1  0.547895  0.210138  0.933794  1
  Si  Si25  1  0.452105  0.789862  0.433794  1
  Si  Si26  1  0.710138  0.952105  0.683794  1
  Si  Si27  1  0.289862  0.047895  0.183794  1
  Si  Si28  1  0.789862  0.452105  0.566206  1
  Si  Si29  1  0.210138  0.547895  0.066206  1
  Si  Si30  1  0.952105  0.710138  0.316206  1
  Si  Si31  1  0.047895  0.289862  0.816206  1
  Mo  Mo32  1  0.669989  0.330011  0.750000  1
  Mo  Mo33  1  0.330011  0.669989  0.250000  1
  Mo  Mo34  1  0.830011  0.830011  0.500000  1
  Mo  Mo35  1  0.169989  0.169989  0.000000  1
