# generated using pymatgen
data_NdGd7Te8
_symmetry_space_group_name_H-M   'P 1'
_cell_length_a   8.88902191
_cell_length_b   8.88902232
_cell_length_c   8.88902200
_cell_angle_alpha   59.22894967
_cell_angle_beta   59.22894811
_cell_angle_gamma   59.22894390
_symmetry_Int_Tables_number   1
_chemical_formula_structural   NdGd7Te8
_chemical_formula_sum   'Nd1 Gd7 Te8'
_cell_volume   487.92274090
_cell_formula_units_Z   1
loop_
 _symmetry_equiv_pos_site_id
 _symmetry_equiv_pos_as_xyz
  1  'x, y, z'
loop_
 _atom_site_type_symbol
 _atom_site_label
 _atom_site_symmetry_multiplicity
 _atom_site_fract_x
 _atom_site_fract_y
 _atom_site_fract_z
 _atom_site_occupancy
  Nd  Nd0  1  0.125000  0.125000  0.125000  1
  Gd  Gd1  1  0.125000  0.625000  0.125000  1
  Gd  Gd2  1  0.125000  0.125000  0.625000  1
  Gd  Gd3  1  0.625000  0.125000  0.125000  1
  Gd  Gd4  1  0.625000  0.125000  0.625000  1
  Gd  Gd5  1  0.625000  0.625000  0.625000  1
  Gd  Gd6  1  0.125000  0.625000  0.625000  1
  Gd  Gd7  1  0.625000  0.625000  0.125000  1
  Te  Te8  1  0.377238  0.872753  0.377238  1
  Te  Te9  1  0.872762  0.377247  0.872762  1
  Te  Te10  1  0.872762  0.872762  0.377247  1
  Te  Te11  1  0.875054  0.875054  0.875054  1
  Te  Te12  1  0.872753  0.377238  0.377238  1
  Te  Te13  1  0.377238  0.377238  0.872753  1
  Te  Te14  1  0.374946  0.374946  0.374946  1
  Te  Te15  1  0.377247  0.872762  0.872762  1
