# generated using pymatgen
data_LuPuMg4N6
_symmetry_space_group_name_H-M   'P 1'
_cell_length_a   5.60803833
_cell_length_b   5.60803690
_cell_length_c   5.46919371
_cell_angle_alpha   99.68239595
_cell_angle_beta   99.68238599
_cell_angle_gamma   120.24509080
_symmetry_Int_Tables_number   1
_chemical_formula_structural   LuPuMg4N6
_chemical_formula_sum   'Lu1 Pu1 Mg4 N6'
_cell_volume   139.86760810
_cell_formula_units_Z   1
loop_
 _symmetry_equiv_pos_site_id
 _symmetry_equiv_pos_as_xyz
  1  'x, y, z'
loop_
 _atom_site_type_symbol
 _atom_site_label
 _atom_site_symmetry_multiplicity
 _atom_site_fract_x
 _atom_site_fract_y
 _atom_site_fract_z
 _atom_site_occupancy
  Lu  Lu0  1  0.334680  0.665320  0.000000  1
  Pu  Pu1  1  0.667014  0.332986  0.000000  1
  Mg  Mg2  1  0.837384  0.162616  0.500000  1
  Mg  Mg3  1  0.162370  0.837630  0.500000  1
  Mg  Mg4  1  0.501427  0.498573  0.500000  1
  Mg  Mg5  1  0.999248  0.000752  0.000000  1
  N  N6  1  0.435199  0.102693  0.229341  1
  N  N7  1  0.897307  0.564801  0.770659  1
  N  N8  1  0.585769  0.938901  0.755658  1
  N  N9  1  0.061099  0.414231  0.244342  1
  N  N10  1  0.748025  0.729521  0.245195  1
  N  N11  1  0.270479  0.251975  0.754805  1
