# generated using pymatgen
data_Ta3NbCrCo3P4
_symmetry_space_group_name_H-M   'P 1'
_cell_length_a   3.58722600
_cell_length_b   6.17835353
_cell_length_c   7.05688850
_cell_angle_alpha   89.95465219
_cell_angle_beta   90.00000000
_cell_angle_gamma   90.00000000
_symmetry_Int_Tables_number   1
_chemical_formula_structural   Ta3NbCrCo3P4
_chemical_formula_sum   'Ta3 Nb1 Cr1 Co3 P4'
_cell_volume   156.40283239
_cell_formula_units_Z   1
loop_
 _symmetry_equiv_pos_site_id
 _symmetry_equiv_pos_as_xyz
  1  'x, y, z'
loop_
 _atom_site_type_symbol
 _atom_site_label
 _atom_site_symmetry_multiplicity
 _atom_site_fract_x
 _atom_site_fract_y
 _atom_site_fract_z
 _atom_site_occupancy
  Ta  Ta0  1  0.250000  0.020594  0.826466  1
  Ta  Ta1  1  0.250000  0.528478  0.669609  1
  Ta  Ta2  1  0.750000  0.976629  0.176412  1
  Nb  Nb3  1  0.750000  0.470503  0.327824  1
  Cr  Cr4  1  0.750000  0.859857  0.564457  1
  Co  Co5  1  0.250000  0.142017  0.437958  1
  Co  Co6  1  0.250000  0.646371  0.060692  1
  Co  Co7  1  0.750000  0.357314  0.936787  1
  P  P8  1  0.250000  0.772069  0.373199  1
  P  P9  1  0.250000  0.276000  0.121863  1
  P  P10  1  0.750000  0.227489  0.624763  1
  P  P11  1  0.750000  0.722680  0.879969  1
