# generated using pymatgen
data_Tb2Lu(ThSn2)2
_symmetry_space_group_name_H-M   'P 1'
_cell_length_a   8.11874700
_cell_length_b   8.22866300
_cell_length_c   15.59331800
_cell_angle_alpha   90.00000000
_cell_angle_beta   90.00000000
_cell_angle_gamma   90.00000000
_symmetry_Int_Tables_number   1
_chemical_formula_structural   Tb2Lu(ThSn2)2
_chemical_formula_sum   'Tb8 Lu4 Th8 Sn16'
_cell_volume   1041.73395492
_cell_formula_units_Z   4
loop_
 _symmetry_equiv_pos_site_id
 _symmetry_equiv_pos_as_xyz
  1  'x, y, z'
loop_
 _atom_site_type_symbol
 _atom_site_label
 _atom_site_symmetry_multiplicity
 _atom_site_fract_x
 _atom_site_fract_y
 _atom_site_fract_z
 _atom_site_occupancy
  Tb  Tb0  1  0.362067  0.837811  0.876109  1
  Tb  Tb1  1  0.862067  0.662189  0.623891  1
  Tb  Tb2  1  0.637933  0.162189  0.376109  1
  Tb  Tb3  1  0.137933  0.337811  0.123891  1
  Tb  Tb4  1  0.637933  0.162189  0.123891  1
  Tb  Tb5  1  0.137933  0.337811  0.376109  1
  Tb  Tb6  1  0.362067  0.837811  0.623891  1
  Tb  Tb7  1  0.862067  0.662189  0.876109  1
  Lu  Lu8  1  0.192265  0.498410  0.750000  1
  Lu  Lu9  1  0.692265  0.001590  0.750000  1
  Lu  Lu10  1  0.807735  0.501590  0.250000  1
  Lu  Lu11  1  0.307735  0.998410  0.250000  1
  Th  Th12  1  0.519208  0.321460  0.904041  1
  Th  Th13  1  0.019208  0.178540  0.595959  1
  Th  Th14  1  0.480792  0.678540  0.404041  1
  Th  Th15  1  0.980792  0.821460  0.095959  1
  Th  Th16  1  0.480792  0.678540  0.095959  1
  Th  Th17  1  0.980792  0.821460  0.404041  1
  Th  Th18  1  0.519208  0.321460  0.595959  1
  Th  Th19  1  0.019208  0.178540  0.904041  1
  Sn  Sn20  1  0.298455  0.039575  0.042848  1
  Sn  Sn21  1  0.798455  0.460425  0.457152  1
  Sn  Sn22  1  0.701545  0.960425  0.542848  1
  Sn  Sn23  1  0.201545  0.539575  0.957152  1
  Sn  Sn24  1  0.701545  0.960425  0.957152  1
  Sn  Sn25  1  0.201545  0.539575  0.542848  1
  Sn  Sn26  1  0.298455  0.039575  0.457152  1
  Sn  Sn27  1  0.798455  0.460425  0.042848  1
  Sn  Sn28  1  0.556863  0.622149  0.750000  1
  Sn  Sn29  1  0.056863  0.877851  0.750000  1
  Sn  Sn30  1  0.443137  0.377851  0.250000  1
  Sn  Sn31  1  0.943137  0.122149  0.250000  1
  Sn  Sn32  1  0.326829  0.144856  0.750000  1
  Sn  Sn33  1  0.826829  0.355144  0.750000  1
  Sn  Sn34  1  0.673171  0.855144  0.250000  1
  Sn  Sn35  1  0.173171  0.644856  0.250000  1
