# generated using pymatgen
data_Y2Ho8CoAg3
_symmetry_space_group_name_H-M   'P 1'
_cell_length_a   9.47783900
_cell_length_b   9.48828081
_cell_length_c   9.60032700
_cell_angle_alpha   90.00000000
_cell_angle_beta   90.00000000
_cell_angle_gamma   120.03644351
_symmetry_Int_Tables_number   1
_chemical_formula_structural   Y2Ho8CoAg3
_chemical_formula_sum   'Y4 Ho16 Co2 Ag6'
_cell_volume   747.40140720
_cell_formula_units_Z   2
loop_
 _symmetry_equiv_pos_site_id
 _symmetry_equiv_pos_as_xyz
  1  'x, y, z'
loop_
 _atom_site_type_symbol
 _atom_site_label
 _atom_site_symmetry_multiplicity
 _atom_site_fract_x
 _atom_site_fract_y
 _atom_site_fract_z
 _atom_site_occupancy
  Y  Y0  1  0.915693  0.457847  0.250000  1
  Y  Y1  1  0.458492  0.541138  0.750000  1
  Y  Y2  1  0.458492  0.917354  0.750000  1
  Y  Y3  1  0.082559  0.541280  0.750000  1
  Ho  Ho4  1  0.000203  0.000102  0.499632  1
  Ho  Ho5  1  0.000203  0.000102  0.000368  1
  Ho  Ho6  1  0.210772  0.789739  0.437534  1
  Ho  Ho7  1  0.210772  0.421033  0.437534  1
  Ho  Ho8  1  0.579172  0.789586  0.437583  1
  Ho  Ho9  1  0.789350  0.210236  0.561748  1
  Ho  Ho10  1  0.789350  0.579115  0.561748  1
  Ho  Ho11  1  0.421560  0.210780  0.561083  1
  Ho  Ho12  1  0.789350  0.210236  0.938252  1
  Ho  Ho13  1  0.789350  0.579115  0.938252  1
  Ho  Ho14  1  0.421560  0.210780  0.938917  1
  Ho  Ho15  1  0.210772  0.789739  0.062466  1
  Ho  Ho16  1  0.210772  0.421033  0.062466  1
  Ho  Ho17  1  0.579172  0.789586  0.062417  1
  Ho  Ho18  1  0.541075  0.458305  0.250000  1
  Ho  Ho19  1  0.541075  0.082768  0.250000  1
  Co  Co20  1  0.333468  0.666735  0.250000  1
  Co  Co21  1  0.667640  0.333819  0.750000  1
  Ag  Ag22  1  0.882574  0.114913  0.250000  1
  Ag  Ag23  1  0.882574  0.767663  0.250000  1
  Ag  Ag24  1  0.233350  0.116675  0.250000  1
  Ag  Ag25  1  0.115617  0.884916  0.750000  1
  Ag  Ag26  1  0.115617  0.230698  0.750000  1
  Ag  Ag27  1  0.769416  0.884707  0.750000  1
