# generated using pymatgen
data_La5Eu3(MgRu)2
_symmetry_space_group_name_H-M   'P 1'
_cell_length_a   10.13664382
_cell_length_b   10.13664303
_cell_length_c   10.13664300
_cell_angle_alpha   59.99999682
_cell_angle_beta   59.99999940
_cell_angle_gamma   59.99999702
_symmetry_Int_Tables_number   1
_chemical_formula_structural   La5Eu3(MgRu)2
_chemical_formula_sum   'La10 Eu6 Mg4 Ru4'
_cell_volume   736.49104458
_cell_formula_units_Z   2
loop_
 _symmetry_equiv_pos_site_id
 _symmetry_equiv_pos_as_xyz
  1  'x, y, z'
loop_
 _atom_site_type_symbol
 _atom_site_label
 _atom_site_symmetry_multiplicity
 _atom_site_fract_x
 _atom_site_fract_y
 _atom_site_fract_z
 _atom_site_occupancy
  La  La0  1  0.812711  0.187290  0.187290  1
  La  La1  1  0.187290  0.812710  0.812710  1
  La  La2  1  0.187290  0.812711  0.187290  1
  La  La3  1  0.187290  0.187290  0.812711  1
  La  La4  1  0.812710  0.187290  0.812710  1
  La  La5  1  0.812710  0.812710  0.187290  1
  La  La6  1  0.343543  0.343543  0.343543  1
  La  La7  1  0.343543  0.343543  0.969372  1
  La  La8  1  0.969372  0.343543  0.343543  1
  La  La9  1  0.343543  0.969372  0.343543  1
  Eu  Eu10  1  0.938957  0.561044  0.561044  1
  Eu  Eu11  1  0.561045  0.938956  0.938956  1
  Eu  Eu12  1  0.561044  0.938957  0.561044  1
  Eu  Eu13  1  0.561044  0.561044  0.938957  1
  Eu  Eu14  1  0.938956  0.561045  0.938956  1
  Eu  Eu15  1  0.938956  0.938956  0.561045  1
  Mg  Mg16  1  0.577616  0.577616  0.577616  1
  Mg  Mg17  1  0.577616  0.577616  0.267155  1
  Mg  Mg18  1  0.267155  0.577616  0.577616  1
  Mg  Mg19  1  0.577616  0.267155  0.577616  1
  Ru  Ru20  1  0.134747  0.134747  0.134747  1
  Ru  Ru21  1  0.134747  0.134747  0.595760  1
  Ru  Ru22  1  0.595760  0.134747  0.134747  1
  Ru  Ru23  1  0.134747  0.595760  0.134747  1
