# generated using pymatgen
data_YEr4P12Pd2Ru17
_symmetry_space_group_name_H-M   'P 1'
_cell_length_a   12.64064400
_cell_length_b   12.53253509
_cell_length_c   3.96862300
_cell_angle_alpha   90.00000000
_cell_angle_beta   90.00000000
_cell_angle_gamma   120.28576172
_symmetry_Int_Tables_number   1
_chemical_formula_structural   YEr4P12Pd2Ru17
_chemical_formula_sum   'Y1 Er4 P12 Pd2 Ru17'
_cell_volume   542.90123404
_cell_formula_units_Z   1
loop_
 _symmetry_equiv_pos_site_id
 _symmetry_equiv_pos_as_xyz
  1  'x, y, z'
loop_
 _atom_site_type_symbol
 _atom_site_label
 _atom_site_symmetry_multiplicity
 _atom_site_fract_x
 _atom_site_fract_y
 _atom_site_fract_z
 _atom_site_occupancy
  Y  Y0  1  0.183284  0.000000  0.500000  1
  Er  Er1  1  0.000618  0.182056  0.500000  1
  Er  Er2  1  0.818562  0.817944  0.500000  1
  Er  Er3  1  0.664070  0.327597  0.000000  1
  Er  Er4  1  0.336471  0.672403  0.000000  1
  P  P5  1  0.997797  0.812210  0.000000  1
  P  P6  1  0.185587  0.187790  0.000000  1
  P  P7  1  0.818165  0.000000  0.000000  1
  P  P8  1  0.692601  0.170047  0.500000  1
  P  P9  1  0.817932  0.516428  0.500000  1
  P  P10  1  0.477607  0.300047  0.500000  1
  P  P11  1  0.177561  0.699953  0.500000  1
  P  P12  1  0.522554  0.829953  0.500000  1
  P  P13  1  0.301504  0.483572  0.500000  1
  P  P14  1  0.000558  0.365945  0.000000  1
  P  P15  1  0.634613  0.634055  0.000000  1
  P  P16  1  0.374101  0.000000  0.000000  1
  Pd  Pd17  1  0.999173  0.552200  0.000000  1
  Pd  Pd18  1  0.446972  0.447800  0.000000  1
  Ru  Ru19  1  0.555644  0.000000  0.000000  1
  Ru  Ru20  1  0.997612  0.711834  0.500000  1
  Ru  Ru21  1  0.285778  0.288166  0.500000  1
  Ru  Ru22  1  0.718817  0.000000  0.500000  1
  Ru  Ru23  1  0.809032  0.185003  0.000000  1
  Ru  Ru24  1  0.812403  0.618433  0.000000  1
  Ru  Ru25  1  0.376433  0.191804  0.000000  1
  Ru  Ru26  1  0.184630  0.808196  0.000000  1
  Ru  Ru27  1  0.624030  0.814997  0.000000  1
  Ru  Ru28  1  0.193973  0.381567  0.000000  1
  Ru  Ru29  1  0.871051  0.364943  0.500000  1
  Ru  Ru30  1  0.629884  0.506873  0.500000  1
  Ru  Ru31  1  0.492378  0.124472  0.500000  1
  Ru  Ru32  1  0.367906  0.875528  0.500000  1
  Ru  Ru33  1  0.506109  0.635057  0.500000  1
  Ru  Ru34  1  0.123011  0.493127  0.500000  1
  Ru  Ru35  1  0.001581  0.000000  0.000000  1
