# generated using pymatgen
data_La9Nd11(NiSn2)4
_symmetry_space_group_name_H-M   'P 1'
_cell_length_a   8.31402430
_cell_length_b   9.13325800
_cell_length_c   12.83577500
_cell_angle_alpha   90.00000000
_cell_angle_beta   90.05830178
_cell_angle_gamma   90.00000000
_symmetry_Int_Tables_number   1
_chemical_formula_structural   La9Nd11(NiSn2)4
_chemical_formula_sum   'La9 Nd11 Ni4 Sn8'
_cell_volume   974.67288993
_cell_formula_units_Z   1
loop_
 _symmetry_equiv_pos_site_id
 _symmetry_equiv_pos_as_xyz
  1  'x, y, z'
loop_
 _atom_site_type_symbol
 _atom_site_label
 _atom_site_symmetry_multiplicity
 _atom_site_fract_x
 _atom_site_fract_y
 _atom_site_fract_z
 _atom_site_occupancy
  La  La0  1  0.836049  0.750000  0.789618  1
  La  La1  1  0.676489  0.029688  0.566745  1
  La  La2  1  0.322910  0.971293  0.433476  1
  La  La3  1  0.177406  0.972358  0.933156  1
  La  La4  1  0.322910  0.528707  0.433476  1
  La  La5  1  0.822821  0.029971  0.068019  1
  La  La6  1  0.676489  0.470312  0.566745  1
  La  La7  1  0.822821  0.470029  0.068019  1
  La  La8  1  0.177406  0.527642  0.933156  1
  Nd  Nd9  1  0.166677  0.250000  0.212981  1
  Nd  Nd10  1  0.334408  0.250000  0.712283  1
  Nd  Nd11  1  0.665934  0.750000  0.286908  1
  Nd  Nd12  1  0.361758  0.750000  0.704710  1
  Nd  Nd13  1  0.638314  0.250000  0.294192  1
  Nd  Nd14  1  0.862739  0.250000  0.794616  1
  Nd  Nd15  1  0.136905  0.750000  0.204472  1
  Nd  Nd16  1  0.957230  0.750000  0.500156  1
  Nd  Nd17  1  0.041036  0.250000  0.498474  1
  Nd  Nd18  1  0.456558  0.250000  0.000312  1
  Nd  Nd19  1  0.540837  0.750000  0.000905  1
  Ni  Ni20  1  0.585075  0.750000  0.515161  1
  Ni  Ni21  1  0.416238  0.250000  0.483091  1
  Ni  Ni22  1  0.083945  0.250000  0.984991  1
  Ni  Ni23  1  0.915369  0.750000  0.016202  1
  Sn  Sn24  1  0.564137  0.491982  0.827997  1
  Sn  Sn25  1  0.434118  0.507055  0.172475  1
  Sn  Sn26  1  0.068203  0.505319  0.670753  1
  Sn  Sn27  1  0.434118  0.992945  0.172475  1
  Sn  Sn28  1  0.934381  0.493741  0.327841  1
  Sn  Sn29  1  0.564137  0.008018  0.827997  1
  Sn  Sn30  1  0.934381  0.006259  0.327841  1
  Sn  Sn31  1  0.068203  0.994681  0.670753  1
