# generated using pymatgen
data_Ho5ErNiBr10
_symmetry_space_group_name_H-M   'P 1'
_cell_length_a   7.30759871
_cell_length_b   9.11578176
_cell_length_c   9.17976240
_cell_angle_alpha   107.60929342
_cell_angle_beta   96.97438044
_cell_angle_gamma   104.70038002
_symmetry_Int_Tables_number   1
_chemical_formula_structural   Ho5ErNiBr10
_chemical_formula_sum   'Ho5 Er1 Ni1 Br10'
_cell_volume   550.59052641
_cell_formula_units_Z   1
loop_
 _symmetry_equiv_pos_site_id
 _symmetry_equiv_pos_as_xyz
  1  'x, y, z'
loop_
 _atom_site_type_symbol
 _atom_site_label
 _atom_site_symmetry_multiplicity
 _atom_site_fract_x
 _atom_site_fract_y
 _atom_site_fract_z
 _atom_site_occupancy
  Ho  Ho0  1  0.649944  0.871110  0.326768  1
  Ho  Ho1  1  0.349818  0.128833  0.673493  1
  Ho  Ho2  1  0.967018  0.290882  0.589778  1
  Ho  Ho3  1  0.032762  0.708869  0.409535  1
  Ho  Ho4  1  0.878222  0.954225  0.741837  1
  Er  Er5  1  0.121314  0.045588  0.259753  1
  Ni  Ni6  1  0.999875  0.999950  0.500164  1
  Br  Br7  1  0.544158  0.177639  0.413213  1
  Br  Br8  1  0.454979  0.821992  0.586387  1
  Br  Br9  1  0.222638  0.748745  0.157124  1
  Br  Br10  1  0.776803  0.252396  0.842312  1
  Br  Br11  1  0.914615  0.628179  0.672565  1
  Br  Br12  1  0.086407  0.370857  0.326521  1
  Br  Br13  1  0.752802  0.916778  0.042390  1
  Br  Br14  1  0.248604  0.084032  0.959341  1
  Br  Br15  1  0.654118  0.550492  0.227703  1
  Br  Br16  1  0.345925  0.449433  0.771116  1
