# generated using pymatgen
data_Zr4Ga2SiMo4P
_symmetry_space_group_name_H-M   'P 1'
_cell_length_a   3.53466900
_cell_length_b   7.03628323
_cell_length_c   8.34512671
_cell_angle_alpha   89.82498781
_cell_angle_beta   90.00000000
_cell_angle_gamma   90.00000000
_symmetry_Int_Tables_number   1
_chemical_formula_structural   Zr4Ga2SiMo4P
_chemical_formula_sum   'Zr4 Ga2 Si1 Mo4 P1'
_cell_volume   207.55011229
_cell_formula_units_Z   1
loop_
 _symmetry_equiv_pos_site_id
 _symmetry_equiv_pos_as_xyz
  1  'x, y, z'
loop_
 _atom_site_type_symbol
 _atom_site_label
 _atom_site_symmetry_multiplicity
 _atom_site_fract_x
 _atom_site_fract_y
 _atom_site_fract_z
 _atom_site_occupancy
  Zr  Zr0  1  0.250000  0.040835  0.329730  1
  Zr  Zr1  1  0.250000  0.546879  0.173739  1
  Zr  Zr2  1  0.750000  0.949635  0.661385  1
  Zr  Zr3  1  0.750000  0.448099  0.838720  1
  Ga  Ga4  1  0.250000  0.254548  0.637037  1
  Ga  Ga5  1  0.250000  0.752522  0.861933  1
  Si  Si6  1  0.750000  0.246646  0.138814  1
  Mo  Mo7  1  0.250000  0.130355  0.945638  1
  Mo  Mo8  1  0.250000  0.634159  0.550849  1
  Mo  Mo9  1  0.750000  0.873674  0.069016  1
  Mo  Mo10  1  0.750000  0.375630  0.431937  1
  P  P11  1  0.750000  0.747020  0.361202  1
