# generated using pymatgen
data_YbBiPO5
_symmetry_space_group_name_H-M   'P 1'
_cell_length_a   5.69754657
_cell_length_b   7.90475572
_cell_length_c   11.47992600
_cell_angle_alpha   89.99999769
_cell_angle_beta   89.99996522
_cell_angle_gamma   111.90305308
_symmetry_Int_Tables_number   1
_chemical_formula_structural   YbBiPO5
_chemical_formula_sum   'Yb4 Bi4 P4 O20'
_cell_volume   479.70855060
_cell_formula_units_Z   4
loop_
 _symmetry_equiv_pos_site_id
 _symmetry_equiv_pos_as_xyz
  1  'x, y, z'
loop_
 _atom_site_type_symbol
 _atom_site_label
 _atom_site_symmetry_multiplicity
 _atom_site_fract_x
 _atom_site_fract_y
 _atom_site_fract_z
 _atom_site_occupancy
  Yb  Yb0  1  0.645396  0.197208  0.908631  1
  Yb  Yb1  1  0.854604  0.302792  0.408631  1
  Yb  Yb2  1  0.145402  0.697209  0.591369  1
  Yb  Yb3  1  0.354598  0.802791  0.091368  1
  Bi  Bi4  1  0.638070  0.676301  0.403349  1
  Bi  Bi5  1  0.361935  0.323697  0.596650  1
  Bi  Bi6  1  0.138066  0.176303  0.096650  1
  Bi  Bi7  1  0.861930  0.823699  0.903350  1
  P  P8  1  0.300050  0.478859  0.851604  1
  P  P9  1  0.800052  0.978860  0.648395  1
  P  P10  1  0.699947  0.521140  0.148395  1
  P  P11  1  0.199951  0.021141  0.351605  1
  O  O12  1  0.905482  0.163192  0.581231  1
  O  O13  1  0.405477  0.663192  0.918769  1
  O  O14  1  0.594518  0.336807  0.081231  1
  O  O15  1  0.094524  0.836809  0.418769  1
  O  O16  1  0.188710  0.503414  0.731513  1
  O  O17  1  0.688711  0.003417  0.768485  1
  O  O18  1  0.811289  0.496584  0.268487  1
  O  O19  1  0.311291  0.996586  0.231514  1
  O  O20  1  0.754946  0.989091  0.024829  1
  O  O21  1  0.254951  0.489090  0.475171  1
  O  O22  1  0.745054  0.510910  0.524829  1
  O  O23  1  0.245048  0.010910  0.975171  1
  O  O24  1  0.586151  0.839162  0.573101  1
  O  O25  1  0.413853  0.160839  0.426900  1
  O  O26  1  0.913849  0.660840  0.073100  1
  O  O27  1  0.086147  0.339160  0.926900  1
  O  O28  1  0.515314  0.408905  0.825056  1
  O  O29  1  0.984688  0.091095  0.325056  1
  O  O30  1  0.015313  0.908905  0.674945  1
  O  O31  1  0.484684  0.591095  0.174945  1
