# generated using pymatgen
data_Dy4Y4Re3RuC8
_symmetry_space_group_name_H-M   'P 1'
_cell_length_a   5.12332200
_cell_length_b   6.56642824
_cell_length_c   9.85811304
_cell_angle_alpha   89.89925588
_cell_angle_beta   90.00000000
_cell_angle_gamma   90.00000000
_symmetry_Int_Tables_number   1
_chemical_formula_structural   Dy4Y4Re3RuC8
_chemical_formula_sum   'Dy4 Y4 Re3 Ru1 C8'
_cell_volume   331.64539941
_cell_formula_units_Z   1
loop_
 _symmetry_equiv_pos_site_id
 _symmetry_equiv_pos_as_xyz
  1  'x, y, z'
loop_
 _atom_site_type_symbol
 _atom_site_label
 _atom_site_symmetry_multiplicity
 _atom_site_fract_x
 _atom_site_fract_y
 _atom_site_fract_z
 _atom_site_occupancy
  Dy  Dy0  1  0.750000  0.180505  0.056500  1
  Dy  Dy1  1  0.750000  0.680301  0.443885  1
  Dy  Dy2  1  0.750000  0.530593  0.785675  1
  Dy  Dy3  1  0.750000  0.032374  0.715874  1
  Y  Y4  1  0.250000  0.823896  0.945281  1
  Y  Y5  1  0.250000  0.319042  0.556582  1
  Y  Y6  1  0.250000  0.468248  0.216150  1
  Y  Y7  1  0.250000  0.969014  0.282747  1
  Re  Re8  1  0.250000  0.778701  0.635137  1
  Re  Re9  1  0.750000  0.722190  0.133835  1
  Re  Re10  1  0.750000  0.221783  0.366587  1
  Ru  Ru11  1  0.250000  0.278072  0.865060  1
  C  C12  1  0.250000  0.043670  0.740270  1
  C  C13  1  0.250000  0.545803  0.756940  1
  C  C14  1  0.750000  0.954878  0.259232  1
  C  C15  1  0.750000  0.455345  0.241143  1
  C  C16  1  0.250000  0.676922  0.450817  1
  C  C17  1  0.250000  0.174999  0.048451  1
  C  C18  1  0.750000  0.321934  0.550897  1
  C  C19  1  0.750000  0.821729  0.948937  1
