# generated using pymatgen
data_ErLu3ZnSi6Rh
_symmetry_space_group_name_H-M   'P 1'
_cell_length_a   8.09621800
_cell_length_b   8.09621847
_cell_length_c   7.88363600
_cell_angle_alpha   90.00000000
_cell_angle_beta   90.00000000
_cell_angle_gamma   119.99999810
_symmetry_Int_Tables_number   1
_chemical_formula_structural   ErLu3ZnSi6Rh
_chemical_formula_sum   'Er2 Lu6 Zn2 Si12 Rh2'
_cell_volume   447.52944629
_cell_formula_units_Z   2
loop_
 _symmetry_equiv_pos_site_id
 _symmetry_equiv_pos_as_xyz
  1  'x, y, z'
loop_
 _atom_site_type_symbol
 _atom_site_label
 _atom_site_symmetry_multiplicity
 _atom_site_fract_x
 _atom_site_fract_y
 _atom_site_fract_z
 _atom_site_occupancy
  Er  Er0  1  0.999992  0.000010  0.749659  1
  Er  Er1  1  0.000008  0.999990  0.250341  1
  Lu  Lu2  1  0.984589  0.492309  0.257539  1
  Lu  Lu3  1  0.507706  0.492300  0.257510  1
  Lu  Lu4  1  0.492320  0.984597  0.742454  1
  Lu  Lu5  1  0.015411  0.507691  0.742461  1
  Lu  Lu6  1  0.492294  0.507700  0.742490  1
  Lu  Lu7  1  0.507680  0.015403  0.257546  1
  Zn  Zn8  1  0.333300  0.666684  0.040143  1
  Zn  Zn9  1  0.666700  0.333316  0.959857  1
  Si  Si10  1  0.166737  0.833250  0.492567  1
  Si  Si11  1  0.166736  0.333489  0.492545  1
  Si  Si12  1  0.666513  0.833258  0.492546  1
  Si  Si13  1  0.333934  0.166986  0.007921  1
  Si  Si14  1  0.833264  0.666511  0.507455  1
  Si  Si15  1  0.833043  0.166984  0.007932  1
  Si  Si16  1  0.833037  0.666083  0.007920  1
  Si  Si17  1  0.166963  0.333917  0.992080  1
  Si  Si18  1  0.666066  0.833014  0.992079  1
  Si  Si19  1  0.333487  0.166742  0.507454  1
  Si  Si20  1  0.833263  0.166750  0.507433  1
  Si  Si21  1  0.166957  0.833016  0.992068  1
  Rh  Rh22  1  0.666623  0.333330  0.517340  1
  Rh  Rh23  1  0.333377  0.666670  0.482660  1
