# generated using pymatgen
data_Tm4Lu8AlNi4Sn
_symmetry_space_group_name_H-M   'P 1'
_cell_length_a   8.20779723
_cell_length_b   8.20805471
_cell_length_c   8.20801421
_cell_angle_alpha   106.00464524
_cell_angle_beta   110.16265000
_cell_angle_gamma   112.30990608
_symmetry_Int_Tables_number   1
_chemical_formula_structural   Tm4Lu8AlNi4Sn
_chemical_formula_sum   'Tm4 Lu8 Al1 Ni4 Sn1'
_cell_volume   424.35515405
_cell_formula_units_Z   1
loop_
 _symmetry_equiv_pos_site_id
 _symmetry_equiv_pos_as_xyz
  1  'x, y, z'
loop_
 _atom_site_type_symbol
 _atom_site_label
 _atom_site_symmetry_multiplicity
 _atom_site_fract_x
 _atom_site_fract_y
 _atom_site_fract_z
 _atom_site_occupancy
  Tm  Tm0  1  0.606615  0.787449  0.819171  1
  Tm  Tm1  1  0.968268  0.787483  0.180822  1
  Tm  Tm2  1  0.031699  0.212508  0.819166  1
  Tm  Tm3  1  0.393391  0.212547  0.180804  1
  Lu  Lu4  1  0.701113  0.268900  0.970012  1
  Lu  Lu5  1  0.298889  0.731134  0.030021  1
  Lu  Lu6  1  0.701095  0.731120  0.432214  1
  Lu  Lu7  1  0.298894  0.268853  0.567755  1
  Lu  Lu8  1  0.807687  0.131799  0.324104  1
  Lu  Lu9  1  0.807736  0.483642  0.675902  1
  Lu  Lu10  1  0.192289  0.868197  0.675889  1
  Lu  Lu11  1  0.192276  0.516372  0.324105  1
  Al  Al12  1  0.499961  0.499997  0.999959  1
  Ni  Ni13  1  0.847815  0.499964  0.347847  1
  Ni  Ni14  1  0.152236  0.500009  0.652203  1
  Ni  Ni15  1  0.999984  0.124351  0.124322  1
  Ni  Ni16  1  0.000051  0.875674  0.875701  1
  Sn  Sn17  1  0.500003  0.000001  0.500003  1
