# generated using pymatgen
data_Nb3SnPtN
_symmetry_space_group_name_H-M   'P 1'
_cell_length_a   7.20816300
_cell_length_b   7.20816300
_cell_length_c   7.20816300
_cell_angle_alpha   90.00000000
_cell_angle_beta   90.00000000
_cell_angle_gamma   90.00000000
_symmetry_Int_Tables_number   1
_chemical_formula_structural   Nb3SnPtN
_chemical_formula_sum   'Nb12 Sn4 Pt4 N4'
_cell_volume   374.51894961
_cell_formula_units_Z   4
loop_
 _symmetry_equiv_pos_site_id
 _symmetry_equiv_pos_as_xyz
  1  'x, y, z'
loop_
 _atom_site_type_symbol
 _atom_site_label
 _atom_site_symmetry_multiplicity
 _atom_site_fract_x
 _atom_site_fract_y
 _atom_site_fract_z
 _atom_site_occupancy
  Nb  Nb0  1  0.787829  0.959187  0.376455  1
  Nb  Nb1  1  0.712171  0.040813  0.876455  1
  Nb  Nb2  1  0.212171  0.459187  0.123545  1
  Nb  Nb3  1  0.287829  0.540813  0.623545  1
  Nb  Nb4  1  0.959187  0.376455  0.787829  1
  Nb  Nb5  1  0.040813  0.876455  0.712171  1
  Nb  Nb6  1  0.459187  0.123545  0.212171  1
  Nb  Nb7  1  0.540813  0.623545  0.287829  1
  Nb  Nb8  1  0.376455  0.787829  0.959187  1
  Nb  Nb9  1  0.876455  0.712171  0.040813  1
  Nb  Nb10  1  0.123545  0.212171  0.459187  1
  Nb  Nb11  1  0.623545  0.287829  0.540813  1
  Sn  Sn12  1  0.571324  0.428676  0.928676  1
  Sn  Sn13  1  0.428676  0.928676  0.571324  1
  Sn  Sn14  1  0.928676  0.571324  0.428676  1
  Sn  Sn15  1  0.071324  0.071324  0.071324  1
  Pt  Pt16  1  0.182928  0.817072  0.317072  1
  Pt  Pt17  1  0.317072  0.182928  0.817072  1
  Pt  Pt18  1  0.817072  0.317072  0.182928  1
  Pt  Pt19  1  0.682928  0.682928  0.682928  1
  N  N20  1  0.876560  0.123440  0.623440  1
  N  N21  1  0.623440  0.876560  0.123440  1
  N  N22  1  0.123440  0.623440  0.876560  1
  N  N23  1  0.376560  0.376560  0.376560  1
