# generated using pymatgen
data_K4Mn4Cl10O
_symmetry_space_group_name_H-M   'P 1'
_cell_length_a   11.04013248
_cell_length_b   11.04013423
_cell_length_c   9.29440881
_cell_angle_alpha   79.61699714
_cell_angle_beta   79.61699625
_cell_angle_gamma   90.45581765
_symmetry_Int_Tables_number   1
_chemical_formula_structural   K4Mn4Cl10O
_chemical_formula_sum   'K8 Mn8 Cl20 O2'
_cell_volume   1095.09011593
_cell_formula_units_Z   2
loop_
 _symmetry_equiv_pos_site_id
 _symmetry_equiv_pos_as_xyz
  1  'x, y, z'
loop_
 _atom_site_type_symbol
 _atom_site_label
 _atom_site_symmetry_multiplicity
 _atom_site_fract_x
 _atom_site_fract_y
 _atom_site_fract_z
 _atom_site_occupancy
  K  K0  1  0.295024  0.440435  0.138826  1
  K  K1  1  0.713303  0.964430  0.874273  1
  K  K2  1  0.964430  0.713303  0.374273  1
  K  K3  1  0.559565  0.704976  0.361174  1
  K  K4  1  0.440435  0.295024  0.638826  1
  K  K5  1  0.035570  0.286697  0.625727  1
  K  K6  1  0.704976  0.559565  0.861174  1
  K  K7  1  0.286697  0.035570  0.125727  1
  Mn  Mn8  1  0.956041  0.235178  0.116676  1
  Mn  Mn9  1  0.043959  0.764822  0.883324  1
  Mn  Mn10  1  0.645497  0.231752  0.125484  1
  Mn  Mn11  1  0.768248  0.354503  0.374516  1
  Mn  Mn12  1  0.231752  0.645497  0.625484  1
  Mn  Mn13  1  0.354503  0.768248  0.874516  1
  Mn  Mn14  1  0.764822  0.043959  0.383324  1
  Mn  Mn15  1  0.235178  0.956041  0.616676  1
  Cl  Cl16  1  0.154319  0.266803  0.954231  1
  Cl  Cl17  1  0.984008  0.015992  0.250000  1
  Cl  Cl18  1  0.733197  0.845681  0.545769  1
  Cl  Cl19  1  0.398563  0.996349  0.776587  1
  Cl  Cl20  1  0.262889  0.486458  0.477460  1
  Cl  Cl21  1  0.003651  0.601437  0.723413  1
  Cl  Cl22  1  0.825800  0.278353  0.908434  1
  Cl  Cl23  1  0.417642  0.582358  0.750000  1
  Cl  Cl24  1  0.486458  0.262889  0.977460  1
  Cl  Cl25  1  0.015992  0.984008  0.750000  1
  Cl  Cl26  1  0.278353  0.825800  0.408434  1
  Cl  Cl27  1  0.996349  0.398563  0.276587  1
  Cl  Cl28  1  0.845681  0.733197  0.045769  1
  Cl  Cl29  1  0.737111  0.513542  0.522540  1
  Cl  Cl30  1  0.601437  0.003651  0.223413  1
  Cl  Cl31  1  0.721647  0.174200  0.591566  1
  Cl  Cl32  1  0.174200  0.721647  0.091566  1
  Cl  Cl33  1  0.582358  0.417642  0.250000  1
  Cl  Cl34  1  0.266803  0.154319  0.454231  1
  Cl  Cl35  1  0.513542  0.737111  0.022540  1
  O  O36  1  0.216920  0.783080  0.750000  1
  O  O37  1  0.783080  0.216920  0.250000  1
