# generated using pymatgen
data_Sr10Yb3Si14F
_symmetry_space_group_name_H-M   'P 1'
_cell_length_a   11.20333704
_cell_length_b   11.20333705
_cell_length_c   16.67970100
_cell_angle_alpha   55.92467367
_cell_angle_beta   55.92467366
_cell_angle_gamma   24.36260135
_symmetry_Int_Tables_number   1
_chemical_formula_structural   Sr10Yb3Si14F
_chemical_formula_sum   'Sr10 Yb3 Si14 F1'
_cell_volume   707.66245881
_cell_formula_units_Z   1
loop_
 _symmetry_equiv_pos_site_id
 _symmetry_equiv_pos_as_xyz
  1  'x, y, z'
loop_
 _atom_site_type_symbol
 _atom_site_label
 _atom_site_symmetry_multiplicity
 _atom_site_fract_x
 _atom_site_fract_y
 _atom_site_fract_z
 _atom_site_occupancy
  Sr  Sr0  1  0.999570  0.999570  0.119555  1
  Sr  Sr1  1  0.190537  0.190537  0.611074  1
  Sr  Sr2  1  0.181206  0.181206  0.112936  1
  Sr  Sr3  1  0.165347  0.165347  0.373819  1
  Sr  Sr4  1  0.831785  0.831785  0.629292  1
  Sr  Sr5  1  0.811762  0.811762  0.390694  1
  Sr  Sr6  1  0.816535  0.816535  0.886567  1
  Sr  Sr7  1  0.808442  0.808442  0.143701  1
  Sr  Sr8  1  0.002065  0.002065  0.880474  1
  Sr  Sr9  1  0.002527  0.002527  0.652399  1
  Yb  Yb10  1  0.187166  0.187166  0.861232  1
  Yb  Yb11  1  0.997708  0.997708  0.347387  1
  Yb  Yb12  1  0.498806  0.498806  0.497745  1
  Si  Si13  1  0.435530  0.435530  0.810403  1
  Si  Si14  1  0.569186  0.569186  0.947676  1
  Si  Si15  1  0.430925  0.430925  0.291063  1
  Si  Si16  1  0.563904  0.563904  0.190266  1
  Si  Si17  1  0.571200  0.571200  0.709938  1
  Si  Si18  1  0.433148  0.433148  0.051081  1
  Si  Si19  1  0.640523  0.640523  0.013062  1
  Si  Si20  1  0.649024  0.649024  0.772516  1
  Si  Si21  1  0.355691  0.355691  0.227705  1
  Si  Si22  1  0.372123  0.372123  0.728802  1
  Si  Si23  1  0.373983  0.373983  0.462613  1
  Si  Si24  1  0.628282  0.628282  0.536102  1
  Si  Si25  1  0.622534  0.622534  0.274779  1
  Si  Si26  1  0.360288  0.360288  0.986329  1
  F  F27  1  0.000201  0.000201  0.490790  1
