# generated using pymatgen
data_Tb7Y13Pb16
_symmetry_space_group_name_H-M   'P 1'
_cell_length_a   8.20395047
_cell_length_b   8.28661634
_cell_length_c   15.62001600
_cell_angle_alpha   89.97192812
_cell_angle_beta   90.01945023
_cell_angle_gamma   89.89339857
_symmetry_Int_Tables_number   1
_chemical_formula_structural   Tb7Y13Pb16
_chemical_formula_sum   'Tb7 Y13 Pb16'
_cell_volume   1061.89336520
_cell_formula_units_Z   1
loop_
 _symmetry_equiv_pos_site_id
 _symmetry_equiv_pos_as_xyz
  1  'x, y, z'
loop_
 _atom_site_type_symbol
 _atom_site_label
 _atom_site_symmetry_multiplicity
 _atom_site_fract_x
 _atom_site_fract_y
 _atom_site_fract_z
 _atom_site_occupancy
  Tb  Tb0  1  0.034838  0.176536  0.599936  1
  Tb  Tb1  1  0.464851  0.676068  0.400325  1
  Tb  Tb2  1  0.964817  0.823780  0.099699  1
  Tb  Tb3  1  0.464754  0.675857  0.099701  1
  Tb  Tb4  1  0.965244  0.823511  0.400379  1
  Tb  Tb5  1  0.534751  0.323732  0.599805  1
  Tb  Tb6  1  0.034889  0.176522  0.900330  1
  Y  Y7  1  0.376268  0.841785  0.878647  1
  Y  Y8  1  0.875539  0.657869  0.621066  1
  Y  Y9  1  0.623769  0.158095  0.378719  1
  Y  Y10  1  0.123809  0.341853  0.120773  1
  Y  Y11  1  0.623366  0.158120  0.121114  1
  Y  Y12  1  0.124223  0.341960  0.379157  1
  Y  Y13  1  0.376213  0.842069  0.621590  1
  Y  Y14  1  0.876121  0.658160  0.879055  1
  Y  Y15  1  0.536742  0.324563  0.899655  1
  Y  Y16  1  0.208307  0.504187  0.750163  1
  Y  Y17  1  0.708458  0.995866  0.750132  1
  Y  Y18  1  0.791605  0.495688  0.249859  1
  Y  Y19  1  0.291275  0.004161  0.249996  1
  Pb  Pb20  1  0.282350  0.033607  0.042760  1
  Pb  Pb21  1  0.782135  0.465371  0.457248  1
  Pb  Pb22  1  0.717556  0.966240  0.542896  1
  Pb  Pb23  1  0.218822  0.533663  0.956995  1
  Pb  Pb24  1  0.717166  0.966553  0.957103  1
  Pb  Pb25  1  0.217561  0.534704  0.542922  1
  Pb  Pb26  1  0.282520  0.033966  0.457374  1
  Pb  Pb27  1  0.781792  0.465057  0.042355  1
  Pb  Pb28  1  0.571702  0.625133  0.749964  1
  Pb  Pb29  1  0.071187  0.874353  0.749999  1
  Pb  Pb30  1  0.428360  0.374740  0.249828  1
  Pb  Pb31  1  0.928664  0.125809  0.249973  1
  Pb  Pb32  1  0.346803  0.153727  0.750425  1
  Pb  Pb33  1  0.846385  0.346987  0.750109  1
  Pb  Pb34  1  0.653482  0.846675  0.250005  1
  Pb  Pb35  1  0.153673  0.653034  0.249947  1
