# generated using pymatgen
data_Ce11Er(Si3Os)4
_symmetry_space_group_name_H-M   'P 1'
_cell_length_a   4.33930800
_cell_length_b   10.48220447
_cell_length_c   12.72966900
_cell_angle_alpha   90.45151306
_cell_angle_beta   90.00000000
_cell_angle_gamma   90.00000000
_symmetry_Int_Tables_number   1
_chemical_formula_structural   Ce11Er(Si3Os)4
_chemical_formula_sum   'Ce11 Er1 Si12 Os4'
_cell_volume   578.99755558
_cell_formula_units_Z   1
loop_
 _symmetry_equiv_pos_site_id
 _symmetry_equiv_pos_as_xyz
  1  'x, y, z'
loop_
 _atom_site_type_symbol
 _atom_site_label
 _atom_site_symmetry_multiplicity
 _atom_site_fract_x
 _atom_site_fract_y
 _atom_site_fract_z
 _atom_site_occupancy
  Ce  Ce0  1  0.250000  0.598352  0.529680  1
  Ce  Ce1  1  0.750000  0.109470  0.968613  1
  Ce  Ce2  1  0.750000  0.402731  0.469811  1
  Ce  Ce3  1  0.250000  0.916970  0.597266  1
  Ce  Ce4  1  0.250000  0.581235  0.093883  1
  Ce  Ce5  1  0.750000  0.082900  0.402762  1
  Ce  Ce6  1  0.750000  0.417816  0.904587  1
  Ce  Ce7  1  0.250000  0.661871  0.808613  1
  Ce  Ce8  1  0.250000  0.836380  0.307128  1
  Ce  Ce9  1  0.750000  0.333631  0.192816  1
  Ce  Ce10  1  0.750000  0.164990  0.691595  1
  Er  Er11  1  0.250000  0.892074  0.031812  1
  Si  Si12  1  0.250000  0.990680  0.819305  1
  Si  Si13  1  0.250000  0.508962  0.312200  1
  Si  Si14  1  0.750000  0.006660  0.181864  1
  Si  Si15  1  0.750000  0.491662  0.687154  1
  Si  Si16  1  0.250000  0.239432  0.840968  1
  Si  Si17  1  0.250000  0.260429  0.340816  1
  Si  Si18  1  0.750000  0.760344  0.157677  1
  Si  Si19  1  0.750000  0.740000  0.660446  1
  Si  Si20  1  0.250000  0.217218  0.538367  1
  Si  Si21  1  0.250000  0.285448  0.040196  1
  Si  Si22  1  0.750000  0.782120  0.460720  1
  Si  Si23  1  0.750000  0.718542  0.961616  1
  Os  Os24  1  0.250000  0.379260  0.685726  1
  Os  Os25  1  0.250000  0.119934  0.182301  1
  Os  Os26  1  0.750000  0.620180  0.312723  1
  Os  Os27  1  0.750000  0.880706  0.819352  1
