# generated using pymatgen
data_Lu3Mg2ZnSi2Au
_symmetry_space_group_name_H-M   'P 1'
_cell_length_a   6.92888900
_cell_length_b   6.98123084
_cell_length_c   4.29653400
_cell_angle_alpha   90.00000000
_cell_angle_beta   90.00000000
_cell_angle_gamma   119.75228803
_symmetry_Int_Tables_number   1
_chemical_formula_structural   Lu3Mg2ZnSi2Au
_chemical_formula_sum   'Lu3 Mg2 Zn1 Si2 Au1'
_cell_volume   180.43597531
_cell_formula_units_Z   1
loop_
 _symmetry_equiv_pos_site_id
 _symmetry_equiv_pos_as_xyz
  1  'x, y, z'
loop_
 _atom_site_type_symbol
 _atom_site_label
 _atom_site_symmetry_multiplicity
 _atom_site_fract_x
 _atom_site_fract_y
 _atom_site_fract_z
 _atom_site_occupancy
  Lu  Lu0  1  0.570152  0.000000  0.000000  1
  Lu  Lu1  1  0.000830  0.580512  0.000000  1
  Lu  Lu2  1  0.420319  0.419488  0.000000  1
  Mg  Mg3  1  0.003791  0.242078  0.500000  1
  Mg  Mg4  1  0.761713  0.757922  0.500000  1
  Zn  Zn5  1  0.252788  0.000000  0.500000  1
  Si  Si6  1  0.330642  0.671983  0.500000  1
  Si  Si7  1  0.658660  0.328017  0.500000  1
  Au  Au8  1  0.001106  0.000000  0.000000  1
