# generated using pymatgen
data_MgAl2Pd3Pt2
_symmetry_space_group_name_H-M   'P 1'
_cell_length_a   4.09751700
_cell_length_b   5.48918958
_cell_length_c   10.71454813
_cell_angle_alpha   89.94739856
_cell_angle_beta   90.00000000
_cell_angle_gamma   90.00000000
_symmetry_Int_Tables_number   1
_chemical_formula_structural   MgAl2Pd3Pt2
_chemical_formula_sum   'Mg2 Al4 Pd6 Pt4'
_cell_volume   240.99202511
_cell_formula_units_Z   2
loop_
 _symmetry_equiv_pos_site_id
 _symmetry_equiv_pos_as_xyz
  1  'x, y, z'
loop_
 _atom_site_type_symbol
 _atom_site_label
 _atom_site_symmetry_multiplicity
 _atom_site_fract_x
 _atom_site_fract_y
 _atom_site_fract_z
 _atom_site_occupancy
  Mg  Mg0  1  0.500000  0.165289  0.360095  1
  Mg  Mg1  1  0.500000  0.834711  0.639905  1
  Al  Al2  1  0.000000  0.000000  0.000000  1
  Al  Al3  1  0.000000  0.500000  0.500000  1
  Al  Al4  1  0.500000  0.661584  0.144726  1
  Al  Al5  1  0.500000  0.338416  0.855274  1
  Pd  Pd6  1  0.000000  0.000000  0.500000  1
  Pd  Pd7  1  0.000000  0.500000  0.000000  1
  Pd  Pd8  1  0.000000  0.907867  0.231176  1
  Pd  Pd9  1  0.000000  0.092133  0.768824  1
  Pd  Pd10  1  0.000000  0.411536  0.258878  1
  Pd  Pd11  1  0.000000  0.588464  0.741122  1
  Pt  Pt12  1  0.500000  0.191276  0.100785  1
  Pt  Pt13  1  0.500000  0.808724  0.899215  1
  Pt  Pt14  1  0.500000  0.677104  0.388384  1
  Pt  Pt15  1  0.500000  0.322896  0.611616  1
