# generated using pymatgen
data_Sr7Dy(Ho3Sn4)4
_symmetry_space_group_name_H-M   'P 1'
_cell_length_a   8.06369637
_cell_length_b   8.48082463
_cell_length_c   16.00751702
_cell_angle_alpha   89.97785431
_cell_angle_beta   90.35648426
_cell_angle_gamma   90.79899115
_symmetry_Int_Tables_number   1
_chemical_formula_structural   Sr7Dy(Ho3Sn4)4
_chemical_formula_sum   'Sr7 Dy1 Ho12 Sn16'
_cell_volume   1094.57510731
_cell_formula_units_Z   1
loop_
 _symmetry_equiv_pos_site_id
 _symmetry_equiv_pos_as_xyz
  1  'x, y, z'
loop_
 _atom_site_type_symbol
 _atom_site_label
 _atom_site_symmetry_multiplicity
 _atom_site_fract_x
 _atom_site_fract_y
 _atom_site_fract_z
 _atom_site_occupancy
  Sr  Sr0  1  0.502556  0.322479  0.906412  1
  Sr  Sr1  1  0.002720  0.175672  0.594106  1
  Sr  Sr2  1  0.499781  0.676418  0.407458  1
  Sr  Sr3  1  0.996840  0.822009  0.090360  1
  Sr  Sr4  1  0.499603  0.679989  0.089887  1
  Sr  Sr5  1  0.998242  0.823908  0.407820  1
  Sr  Sr6  1  0.501151  0.322821  0.596998  1
  Dy  Dy7  1  0.001609  0.184817  0.902949  1
  Ho  Ho8  1  0.334969  0.840706  0.877481  1
  Ho  Ho9  1  0.828620  0.660256  0.628117  1
  Ho  Ho10  1  0.669096  0.164391  0.376479  1
  Ho  Ho11  1  0.167379  0.336610  0.124362  1
  Ho  Ho12  1  0.665265  0.159516  0.121205  1
  Ho  Ho13  1  0.169907  0.337320  0.375736  1
  Ho  Ho14  1  0.329338  0.836637  0.625967  1
  Ho  Ho15  1  0.829753  0.661612  0.873945  1
  Ho  Ho16  1  0.168223  0.496220  0.751853  1
  Ho  Ho17  1  0.670316  0.005213  0.751163  1
  Ho  Ho18  1  0.832349  0.504240  0.249181  1
  Ho  Ho19  1  0.327622  0.994818  0.248565  1
  Sn  Sn20  1  0.319779  0.048492  0.039729  1
  Sn  Sn21  1  0.835984  0.459569  0.457926  1
  Sn  Sn22  1  0.664650  0.957325  0.544549  1
  Sn  Sn23  1  0.164629  0.532446  0.954813  1
  Sn  Sn24  1  0.684140  0.965358  0.952405  1
  Sn  Sn25  1  0.163961  0.541095  0.544212  1
  Sn  Sn26  1  0.335264  0.042764  0.457436  1
  Sn  Sn27  1  0.835688  0.451095  0.038329  1
  Sn  Sn28  1  0.526607  0.637100  0.751989  1
  Sn  Sn29  1  0.031991  0.872256  0.751705  1
  Sn  Sn30  1  0.470586  0.363770  0.248311  1
  Sn  Sn31  1  0.965449  0.130991  0.250969  1
  Sn  Sn32  1  0.293613  0.133813  0.755466  1
  Sn  Sn33  1  0.809904  0.354289  0.754075  1
  Sn  Sn34  1  0.701233  0.868071  0.248353  1
  Sn  Sn35  1  0.201182  0.635912  0.249692  1
