# generated using pymatgen
data_Lu20Cd3Ni2Ag3
_symmetry_space_group_name_H-M   'P 1'
_cell_length_a   9.39083700
_cell_length_b   9.39083863
_cell_length_c   9.34268800
_cell_angle_alpha   90.00000000
_cell_angle_beta   90.00000000
_cell_angle_gamma   119.99999778
_symmetry_Int_Tables_number   1
_chemical_formula_structural   Lu20Cd3Ni2Ag3
_chemical_formula_sum   'Lu20 Cd3 Ni2 Ag3'
_cell_volume   713.52824198
_cell_formula_units_Z   1
loop_
 _symmetry_equiv_pos_site_id
 _symmetry_equiv_pos_as_xyz
  1  'x, y, z'
loop_
 _atom_site_type_symbol
 _atom_site_label
 _atom_site_symmetry_multiplicity
 _atom_site_fract_x
 _atom_site_fract_y
 _atom_site_fract_z
 _atom_site_occupancy
  Lu  Lu0  1  0.000000  0.000000  0.473494  1
  Lu  Lu1  1  0.000000  0.000000  0.026506  1
  Lu  Lu2  1  0.542443  0.457557  0.250000  1
  Lu  Lu3  1  0.542443  0.084886  0.250000  1
  Lu  Lu4  1  0.915114  0.457557  0.250000  1
  Lu  Lu5  1  0.456787  0.543213  0.750000  1
  Lu  Lu6  1  0.456787  0.913574  0.750000  1
  Lu  Lu7  1  0.086426  0.543213  0.750000  1
  Lu  Lu8  1  0.210817  0.789183  0.438746  1
  Lu  Lu9  1  0.210817  0.421635  0.438746  1
  Lu  Lu10  1  0.578365  0.789183  0.438746  1
  Lu  Lu11  1  0.789975  0.210025  0.560944  1
  Lu  Lu12  1  0.789975  0.579949  0.560944  1
  Lu  Lu13  1  0.420051  0.210025  0.560944  1
  Lu  Lu14  1  0.789975  0.210025  0.939056  1
  Lu  Lu15  1  0.789975  0.579949  0.939056  1
  Lu  Lu16  1  0.420051  0.210025  0.939056  1
  Lu  Lu17  1  0.210817  0.789183  0.061254  1
  Lu  Lu18  1  0.210817  0.421635  0.061254  1
  Lu  Lu19  1  0.578365  0.789183  0.061254  1
  Cd  Cd20  1  0.110976  0.889024  0.750000  1
  Cd  Cd21  1  0.110976  0.221951  0.750000  1
  Cd  Cd22  1  0.778049  0.889024  0.750000  1
  Ni  Ni23  1  0.333333  0.666667  0.250000  1
  Ni  Ni24  1  0.666667  0.333333  0.750000  1
  Ag  Ag25  1  0.875293  0.124707  0.250000  1
  Ag  Ag26  1  0.875293  0.750585  0.250000  1
  Ag  Ag27  1  0.249415  0.124707  0.250000  1
