# generated using pymatgen
data_Ag2P2IO7
_symmetry_space_group_name_H-M   'P 1'
_cell_length_a   6.75997036
_cell_length_b   6.76232632
_cell_length_c   9.75449731
_cell_angle_alpha   80.45272593
_cell_angle_beta   80.46277086
_cell_angle_gamma   57.62852295
_symmetry_Int_Tables_number   1
_chemical_formula_structural   Ag2P2IO7
_chemical_formula_sum   'Ag4 P4 I2 O14'
_cell_volume   369.80976240
_cell_formula_units_Z   2
loop_
 _symmetry_equiv_pos_site_id
 _symmetry_equiv_pos_as_xyz
  1  'x, y, z'
loop_
 _atom_site_type_symbol
 _atom_site_label
 _atom_site_symmetry_multiplicity
 _atom_site_fract_x
 _atom_site_fract_y
 _atom_site_fract_z
 _atom_site_occupancy
  Ag  Ag0  1  0.722869  0.911447  0.838402  1
  Ag  Ag1  1  0.088471  0.277250  0.661548  1
  Ag  Ag2  1  0.277131  0.088553  0.161598  1
  Ag  Ag3  1  0.911529  0.722750  0.338452  1
  P  P4  1  0.290633  0.491528  0.861021  1
  P  P5  1  0.508351  0.709486  0.639041  1
  P  P6  1  0.709367  0.508472  0.138979  1
  P  P7  1  0.491649  0.290514  0.360959  1
  I  I8  1  0.000000  0.000000  0.000000  1
  I  I9  1  0.000000  0.000000  0.500000  1
  O  O10  1  0.768483  0.592778  0.588836  1
  O  O11  1  0.407307  0.231547  0.911144  1
  O  O12  1  0.231517  0.407222  0.411164  1
  O  O13  1  0.592693  0.768453  0.088856  1
  O  O14  1  0.485270  0.514781  0.750011  1
  O  O15  1  0.514730  0.485219  0.249989  1
  O  O16  1  0.413642  0.932221  0.712882  1
  O  O17  1  0.067791  0.586294  0.787109  1
  O  O18  1  0.586358  0.067779  0.287118  1
  O  O19  1  0.932209  0.413706  0.212891  1
  O  O20  1  0.630201  0.241982  0.487334  1
  O  O21  1  0.758023  0.369873  0.012679  1
  O  O22  1  0.369799  0.758018  0.512666  1
  O  O23  1  0.241977  0.630127  0.987321  1
