# generated using pymatgen
data_Ce2Sb6RuRh
_symmetry_space_group_name_H-M   'P 1'
_cell_length_a   6.09854788
_cell_length_b   6.25352193
_cell_length_c   12.66803700
_cell_angle_alpha   90.00000000
_cell_angle_beta   90.00000000
_cell_angle_gamma   89.90996505
_symmetry_Int_Tables_number   1
_chemical_formula_structural   Ce2Sb6RuRh
_chemical_formula_sum   'Ce4 Sb12 Ru2 Rh2'
_cell_volume   483.12543485
_cell_formula_units_Z   2
loop_
 _symmetry_equiv_pos_site_id
 _symmetry_equiv_pos_as_xyz
  1  'x, y, z'
loop_
 _atom_site_type_symbol
 _atom_site_label
 _atom_site_symmetry_multiplicity
 _atom_site_fract_x
 _atom_site_fract_y
 _atom_site_fract_z
 _atom_site_occupancy
  Ce  Ce0  1  0.250179  0.500654  0.303766  1
  Ce  Ce1  1  0.749821  0.499346  0.696234  1
  Ce  Ce2  1  0.250179  0.000654  0.696234  1
  Ce  Ce3  1  0.749821  0.999346  0.303766  1
  Sb  Sb4  1  0.000000  0.750000  0.502198  1
  Sb  Sb5  1  0.000000  0.250000  0.497802  1
  Sb  Sb6  1  0.500000  0.250000  0.497802  1
  Sb  Sb7  1  0.500000  0.750000  0.502198  1
  Sb  Sb8  1  0.255313  0.602383  0.058913  1
  Sb  Sb9  1  0.744687  0.397617  0.941087  1
  Sb  Sb10  1  0.255313  0.102383  0.941087  1
  Sb  Sb11  1  0.744687  0.897617  0.058913  1
  Sb  Sb12  1  0.251325  0.991293  0.229597  1
  Sb  Sb13  1  0.748675  0.008707  0.770403  1
  Sb  Sb14  1  0.251325  0.491293  0.770403  1
  Sb  Sb15  1  0.748675  0.508707  0.229597  1
  Ru  Ru16  1  0.500000  0.250000  0.101635  1
  Ru  Ru17  1  0.500000  0.750000  0.898365  1
  Rh  Rh18  1  0.000000  0.750000  0.901533  1
  Rh  Rh19  1  0.000000  0.250000  0.098467  1
