# generated using pymatgen
data_NaCa2Lu(ReN3)4
_symmetry_space_group_name_H-M   'P 1'
_cell_length_a   7.38189089
_cell_length_b   7.38189083
_cell_length_c   6.24561379
_cell_angle_alpha   74.53508757
_cell_angle_beta   74.53507915
_cell_angle_gamma   84.03781669
_symmetry_Int_Tables_number   1
_chemical_formula_structural   NaCa2Lu(ReN3)4
_chemical_formula_sum   'Na1 Ca2 Lu1 Re4 N12'
_cell_volume   315.94267082
_cell_formula_units_Z   1
loop_
 _symmetry_equiv_pos_site_id
 _symmetry_equiv_pos_as_xyz
  1  'x, y, z'
loop_
 _atom_site_type_symbol
 _atom_site_label
 _atom_site_symmetry_multiplicity
 _atom_site_fract_x
 _atom_site_fract_y
 _atom_site_fract_z
 _atom_site_occupancy
  Na  Na0  1  0.292061  0.707939  0.750000  1
  Ca  Ca1  1  0.090544  0.909456  0.250000  1
  Ca  Ca2  1  0.707760  0.292240  0.250000  1
  Lu  Lu3  1  0.911182  0.088818  0.750000  1
  Re  Re4  1  0.625658  0.797436  0.262272  1
  Re  Re5  1  0.202564  0.374342  0.237728  1
  Re  Re6  1  0.378750  0.204708  0.731008  1
  Re  Re7  1  0.795292  0.621250  0.768992  1
  N  N8  1  0.340216  0.347864  0.948258  1
  N  N9  1  0.008494  0.216342  0.361860  1
  N  N10  1  0.783658  0.991506  0.138140  1
  N  N11  1  0.210306  0.024951  0.832910  1
  N  N12  1  0.653925  0.635488  0.062933  1
  N  N13  1  0.885271  0.385192  0.814567  1
  N  N14  1  0.111804  0.603993  0.189358  1
  N  N15  1  0.975049  0.789694  0.667090  1
  N  N16  1  0.396007  0.888196  0.310642  1
  N  N17  1  0.652136  0.659784  0.551742  1
  N  N18  1  0.614808  0.114729  0.685433  1
  N  N19  1  0.364512  0.346075  0.437067  1
