# generated using pymatgen
data_MnCl30
_symmetry_space_group_name_H-M   'P 1'
_cell_length_a   13.38786754
_cell_length_b   13.38786763
_cell_length_c   15.77734997
_cell_angle_alpha   83.87503309
_cell_angle_beta   83.87503171
_cell_angle_gamma   125.07003600
_symmetry_Int_Tables_number   1
_chemical_formula_structural   MnCl30
_chemical_formula_sum   'Mn1 Cl30'
_cell_volume   2251.67082406
_cell_formula_units_Z   1
loop_
 _symmetry_equiv_pos_site_id
 _symmetry_equiv_pos_as_xyz
  1  'x, y, z'
loop_
 _atom_site_type_symbol
 _atom_site_label
 _atom_site_symmetry_multiplicity
 _atom_site_fract_x
 _atom_site_fract_y
 _atom_site_fract_z
 _atom_site_occupancy
  Mn  Mn0  1  0.000000  0.000000  0.000000  1
  Cl  Cl1  1  0.945816  0.945816  0.151259  1
  Cl  Cl2  1  0.054184  0.054184  0.848741  1
  Cl  Cl3  1  0.060907  0.192168  0.005487  1
  Cl  Cl4  1  0.939093  0.807832  0.994513  1
  Cl  Cl5  1  0.192168  0.060907  0.005487  1
  Cl  Cl6  1  0.807832  0.939093  0.994513  1
  Cl  Cl7  1  0.203255  0.742318  0.064759  1
  Cl  Cl8  1  0.796745  0.257682  0.935241  1
  Cl  Cl9  1  0.699770  0.077329  0.263822  1
  Cl  Cl10  1  0.257682  0.796745  0.935241  1
  Cl  Cl11  1  0.300230  0.922671  0.736178  1
  Cl  Cl12  1  0.742318  0.203255  0.064759  1
  Cl  Cl13  1  0.978979  0.196484  0.781259  1
  Cl  Cl14  1  0.922671  0.300230  0.736178  1
  Cl  Cl15  1  0.021021  0.803516  0.218741  1
  Cl  Cl16  1  0.077329  0.699770  0.263822  1
  Cl  Cl17  1  0.803516  0.021021  0.218741  1
  Cl  Cl18  1  0.196484  0.978979  0.781259  1
  Cl  Cl19  1  0.463937  0.547852  0.259263  1
  Cl  Cl20  1  0.536063  0.452148  0.740737  1
  Cl  Cl21  1  0.508323  0.205435  0.450232  1
  Cl  Cl22  1  0.452148  0.536063  0.740737  1
  Cl  Cl23  1  0.491677  0.794565  0.549768  1
  Cl  Cl24  1  0.547852  0.463937  0.259263  1
  Cl  Cl25  1  0.239925  0.428231  0.544862  1
  Cl  Cl26  1  0.794565  0.491677  0.549768  1
  Cl  Cl27  1  0.760075  0.571769  0.455138  1
  Cl  Cl28  1  0.205435  0.508323  0.450232  1
  Cl  Cl29  1  0.571769  0.760075  0.455138  1
  Cl  Cl30  1  0.428231  0.239925  0.544862  1
