# generated using pymatgen
data_Sr4Fe(N2Cl)2
_symmetry_space_group_name_H-M   'P 1'
_cell_length_a   5.76585500
_cell_length_b   7.94369157
_cell_length_c   10.15826253
_cell_angle_alpha   81.30574079
_cell_angle_beta   90.00000000
_cell_angle_gamma   90.00000000
_symmetry_Int_Tables_number   1
_chemical_formula_structural   Sr4Fe(N2Cl)2
_chemical_formula_sum   'Sr8 Fe2 N8 Cl4'
_cell_volume   459.92409932
_cell_formula_units_Z   2
loop_
 _symmetry_equiv_pos_site_id
 _symmetry_equiv_pos_as_xyz
  1  'x, y, z'
loop_
 _atom_site_type_symbol
 _atom_site_label
 _atom_site_symmetry_multiplicity
 _atom_site_fract_x
 _atom_site_fract_y
 _atom_site_fract_z
 _atom_site_occupancy
  Sr  Sr0  1  0.750000  0.287704  0.292938  1
  Sr  Sr1  1  0.750000  0.000540  0.619614  1
  Sr  Sr2  1  0.750000  0.452733  0.613737  1
  Sr  Sr3  1  0.750000  0.815032  0.099182  1
  Sr  Sr4  1  0.250000  0.999460  0.380386  1
  Sr  Sr5  1  0.250000  0.547267  0.386263  1
  Sr  Sr6  1  0.250000  0.184968  0.900818  1
  Sr  Sr7  1  0.250000  0.712296  0.707062  1
  Fe  Fe8  1  0.750000  0.771192  0.399928  1
  Fe  Fe9  1  0.250000  0.228808  0.600072  1
  N  N10  1  0.250000  0.032772  0.702750  1
  N  N11  1  0.009533  0.246961  0.494809  1
  N  N12  1  0.509533  0.753039  0.505191  1
  N  N13  1  0.990467  0.753039  0.505191  1
  N  N14  1  0.750000  0.604115  0.305471  1
  N  N15  1  0.750000  0.967228  0.297250  1
  N  N16  1  0.490467  0.246961  0.494809  1
  N  N17  1  0.250000  0.395885  0.694529  1
  Cl  Cl18  1  0.250000  0.326825  0.159218  1
  Cl  Cl19  1  0.750000  0.673175  0.840782  1
  Cl  Cl20  1  0.250000  0.842023  0.092543  1
  Cl  Cl21  1  0.750000  0.157977  0.907457  1
