# generated using pymatgen
data_Tm8Sc2Si5Bi
_symmetry_space_group_name_H-M   'P 1'
_cell_length_a   8.38299825
_cell_length_b   8.38299832
_cell_length_c   6.14504304
_cell_angle_alpha   90.00641788
_cell_angle_beta   90.00641796
_cell_angle_gamma   120.23384805
_symmetry_Int_Tables_number   1
_chemical_formula_structural   Tm8Sc2Si5Bi
_chemical_formula_sum   'Tm8 Sc2 Si5 Bi1'
_cell_volume   373.10072992
_cell_formula_units_Z   1
loop_
 _symmetry_equiv_pos_site_id
 _symmetry_equiv_pos_as_xyz
  1  'x, y, z'
loop_
 _atom_site_type_symbol
 _atom_site_label
 _atom_site_symmetry_multiplicity
 _atom_site_fract_x
 _atom_site_fract_y
 _atom_site_fract_z
 _atom_site_occupancy
  Tm  Tm0  1  0.329895  0.677198  0.993924  1
  Tm  Tm1  1  0.677198  0.329895  0.993924  1
  Tm  Tm2  1  0.768628  0.768628  0.252294  1
  Tm  Tm3  1  0.240687  0.984966  0.254074  1
  Tm  Tm4  1  0.984966  0.240687  0.254074  1
  Tm  Tm5  1  0.239811  0.239811  0.750439  1
  Tm  Tm6  1  0.753610  0.997970  0.745597  1
  Tm  Tm7  1  0.997970  0.753610  0.745597  1
  Sc  Sc8  1  0.677143  0.330533  0.504470  1
  Sc  Sc9  1  0.330533  0.677143  0.504470  1
  Si  Si10  1  0.601595  0.998133  0.262199  1
  Si  Si11  1  0.998133  0.601595  0.262199  1
  Si  Si12  1  0.604949  0.604949  0.742290  1
  Si  Si13  1  0.395441  0.002899  0.737218  1
  Si  Si14  1  0.002899  0.395441  0.737218  1
  Bi  Bi15  1  0.396543  0.396543  0.260014  1
