# generated using pymatgen
data_Y4Ti8Sn9Sb
_symmetry_space_group_name_H-M   'P 1'
_cell_length_a   10.85092772
_cell_length_b   10.84160674
_cell_length_c   10.84160700
_cell_angle_alpha   148.90510586
_cell_angle_beta   131.63789849
_cell_angle_gamma   58.61022464
_symmetry_Int_Tables_number   1
_chemical_formula_structural   Y4Ti8Sn9Sb
_chemical_formula_sum   'Y4 Ti8 Sn9 Sb1'
_cell_volume   488.44935593
_cell_formula_units_Z   1
loop_
 _symmetry_equiv_pos_site_id
 _symmetry_equiv_pos_as_xyz
  1  'x, y, z'
loop_
 _atom_site_type_symbol
 _atom_site_label
 _atom_site_symmetry_multiplicity
 _atom_site_fract_x
 _atom_site_fract_y
 _atom_site_fract_z
 _atom_site_occupancy
  Y  Y0  1  0.257463  0.143813  0.113650  1
  Y  Y1  1  0.740898  0.855562  0.885338  1
  Y  Y2  1  0.028447  0.643326  0.385121  1
  Y  Y3  1  0.972083  0.356634  0.615449  1
  Ti  Ti4  1  0.311403  0.560568  0.251256  1
  Ti  Ti5  1  0.688569  0.440543  0.749098  1
  Ti  Ti6  1  0.688569  0.939470  0.248026  1
  Ti  Ti7  1  0.311403  0.060147  0.750835  1
  Ti  Ti8  1  0.677299  0.437391  0.239908  1
  Ti  Ti9  1  0.322664  0.562473  0.760191  1
  Ti  Ti10  1  0.198290  0.937089  0.261200  1
  Ti  Ti11  1  0.802238  0.062864  0.739375  1
  Sn  Sn12  1  0.412535  0.709119  0.703417  1
  Sn  Sn13  1  0.995543  0.789872  0.205669  1
  Sn  Sn14  1  0.004304  0.210277  0.794027  1
  Sn  Sn15  1  0.999870  0.249621  0.249878  1
  Sn  Sn16  1  0.999870  0.749992  0.750249  1
  Sn  Sn17  1  0.474226  0.067398  0.406827  1
  Sn  Sn18  1  0.526228  0.932874  0.593356  1
  Sn  Sn19  1  0.660035  0.567572  0.092462  1
  Sn  Sn20  1  0.340639  0.432666  0.907974  1
  Sb  Sb21  1  0.587429  0.290731  0.296698  1
