# generated using pymatgen
data_Nd19YSi15P
_symmetry_space_group_name_H-M   'P 1'
_cell_length_a   7.77437569
_cell_length_b   7.90716343
_cell_length_c   15.13746468
_cell_angle_alpha   89.90757408
_cell_angle_beta   90.17197841
_cell_angle_gamma   90.07925091
_symmetry_Int_Tables_number   1
_chemical_formula_structural   Nd19YSi15P
_chemical_formula_sum   'Nd19 Y1 Si15 P1'
_cell_volume   930.54300160
_cell_formula_units_Z   1
loop_
 _symmetry_equiv_pos_site_id
 _symmetry_equiv_pos_as_xyz
  1  'x, y, z'
loop_
 _atom_site_type_symbol
 _atom_site_label
 _atom_site_symmetry_multiplicity
 _atom_site_fract_x
 _atom_site_fract_y
 _atom_site_fract_z
 _atom_site_occupancy
  Nd  Nd0  1  0.809940  0.324137  0.618683  1
  Nd  Nd1  1  0.457922  0.685885  0.898081  1
  Nd  Nd2  1  0.958672  0.813834  0.898656  1
  Nd  Nd3  1  0.188803  0.680634  0.121998  1
  Nd  Nd4  1  0.689581  0.819030  0.122214  1
  Nd  Nd5  1  0.309644  0.180079  0.878266  1
  Nd  Nd6  1  0.188758  0.679346  0.379393  1
  Nd  Nd7  1  0.040882  0.186850  0.101845  1
  Nd  Nd8  1  0.308888  0.180500  0.620732  1
  Nd  Nd9  1  0.864520  0.489783  0.250450  1
  Nd  Nd10  1  0.363283  0.009828  0.250086  1
  Nd  Nd11  1  0.543584  0.315292  0.399060  1
  Nd  Nd12  1  0.810505  0.319270  0.878129  1
  Nd  Nd13  1  0.957340  0.812455  0.599825  1
  Nd  Nd14  1  0.451415  0.691187  0.603273  1
  Nd  Nd15  1  0.042207  0.188019  0.399916  1
  Nd  Nd16  1  0.692350  0.813803  0.380895  1
  Nd  Nd17  1  0.636791  0.990274  0.749514  1
  Nd  Nd18  1  0.542095  0.313156  0.102023  1
  Y  Y19  1  0.136762  0.511035  0.749465  1
  Si  Si20  1  0.483490  0.601169  0.251000  1
  Si  Si21  1  0.252120  0.378102  0.251338  1
  Si  Si22  1  0.514028  0.400317  0.749859  1
  Si  Si23  1  0.634225  0.026305  0.959258  1
  Si  Si24  1  0.015043  0.103552  0.748658  1
  Si  Si25  1  0.751760  0.620383  0.748574  1
  Si  Si26  1  0.751044  0.120682  0.251391  1
  Si  Si27  1  0.366985  0.974123  0.457978  1
  Si  Si28  1  0.983278  0.899806  0.251807  1
  Si  Si29  1  0.365582  0.972881  0.040809  1
  Si  Si30  1  0.634085  0.027091  0.540189  1
  Si  Si31  1  0.134400  0.474949  0.957205  1
  Si  Si32  1  0.137998  0.475497  0.543059  1
  Si  Si33  1  0.865687  0.525599  0.041208  1
  Si  Si34  1  0.244537  0.874609  0.749676  1
  P  P35  1  0.871794  0.520537  0.455487  1
