# generated using pymatgen
data_Tm10(AlTe)3
_symmetry_space_group_name_H-M   'P 1'
_cell_length_a   8.75295821
_cell_length_b   8.72837165
_cell_length_c   6.27587900
_cell_angle_alpha   90.00000000
_cell_angle_beta   90.00000000
_cell_angle_gamma   119.78805050
_symmetry_Int_Tables_number   1
_chemical_formula_structural   Tm10(AlTe)3
_chemical_formula_sum   'Tm10 Al3 Te3'
_cell_volume   416.11834621
_cell_formula_units_Z   1
loop_
 _symmetry_equiv_pos_site_id
 _symmetry_equiv_pos_as_xyz
  1  'x, y, z'
loop_
 _atom_site_type_symbol
 _atom_site_label
 _atom_site_symmetry_multiplicity
 _atom_site_fract_x
 _atom_site_fract_y
 _atom_site_fract_z
 _atom_site_occupancy
  Tm  Tm0  1  0.331593  0.679849  0.002493  1
  Tm  Tm1  1  0.667008  0.323490  0.497437  1
  Tm  Tm2  1  0.667008  0.323490  0.002563  1
  Tm  Tm3  1  0.331593  0.679849  0.497507  1
  Tm  Tm4  1  0.236109  0.987983  0.250000  1
  Tm  Tm5  1  0.757205  0.003042  0.750000  1
  Tm  Tm6  1  0.985402  0.234801  0.250000  1
  Tm  Tm7  1  0.765217  0.766932  0.250000  1
  Tm  Tm8  1  0.244768  0.232671  0.750000  1
  Tm  Tm9  1  0.014713  0.770881  0.750000  1
  Al  Al10  1  0.599816  0.998290  0.250000  1
  Al  Al11  1  0.404131  0.004251  0.750000  1
  Al  Al12  1  0.993412  0.600167  0.250000  1
  Te  Te13  1  0.386676  0.390130  0.250000  1
  Te  Te14  1  0.610977  0.608596  0.750000  1
  Te  Te15  1  0.004372  0.395577  0.750000  1
