# generated using pymatgen
data_Tb17Yb2Y(Cd3Ru)2
_symmetry_space_group_name_H-M   'P 1'
_cell_length_a   9.68013002
_cell_length_b   9.68109594
_cell_length_c   9.85923800
_cell_angle_alpha   90.00000000
_cell_angle_beta   90.00000000
_cell_angle_gamma   120.00329705
_symmetry_Int_Tables_number   1
_chemical_formula_structural   Tb17Yb2Y(Cd3Ru)2
_chemical_formula_sum   'Tb17 Yb2 Y1 Cd6 Ru2'
_cell_volume   800.13868283
_cell_formula_units_Z   1
loop_
 _symmetry_equiv_pos_site_id
 _symmetry_equiv_pos_as_xyz
  1  'x, y, z'
loop_
 _atom_site_type_symbol
 _atom_site_label
 _atom_site_symmetry_multiplicity
 _atom_site_fract_x
 _atom_site_fract_y
 _atom_site_fract_z
 _atom_site_occupancy
  Tb  Tb0  1  0.210930  0.789167  0.439527  1
  Tb  Tb1  1  0.210930  0.421765  0.439527  1
  Tb  Tb2  1  0.578140  0.789071  0.439581  1
  Tb  Tb3  1  0.789076  0.210868  0.560488  1
  Tb  Tb4  1  0.789076  0.578206  0.560488  1
  Tb  Tb5  1  0.421792  0.210895  0.560513  1
  Tb  Tb6  1  0.789076  0.210868  0.939512  1
  Tb  Tb7  1  0.789076  0.578206  0.939512  1
  Tb  Tb8  1  0.421792  0.210895  0.939487  1
  Tb  Tb9  1  0.210930  0.789167  0.060473  1
  Tb  Tb10  1  0.210930  0.421765  0.060473  1
  Tb  Tb11  1  0.578140  0.789071  0.060419  1
  Tb  Tb12  1  0.541941  0.458087  0.250000  1
  Tb  Tb13  1  0.541941  0.083854  0.250000  1
  Tb  Tb14  1  0.916147  0.458074  0.250000  1
  Tb  Tb15  1  0.458052  0.541820  0.750000  1
  Tb  Tb16  1  0.458052  0.916232  0.750000  1
  Yb  Yb17  1  0.999975  0.999988  0.500050  1
  Yb  Yb18  1  0.999975  0.999988  0.999950  1
  Y  Y19  1  0.083933  0.541966  0.750000  1
  Cd  Cd20  1  0.884961  0.115058  0.250000  1
  Cd  Cd21  1  0.884961  0.769904  0.250000  1
  Cd  Cd22  1  0.230103  0.115052  0.250000  1
  Cd  Cd23  1  0.115071  0.884839  0.750000  1
  Cd  Cd24  1  0.115071  0.230231  0.750000  1
  Cd  Cd25  1  0.769882  0.884941  0.750000  1
  Ru  Ru26  1  0.333409  0.666705  0.250000  1
  Ru  Ru27  1  0.666638  0.333319  0.750000  1
