# generated using pymatgen
data_Cs4Os2O9
_symmetry_space_group_name_H-M   'P 1'
_cell_length_a   6.61122700
_cell_length_b   6.61122752
_cell_length_c   17.18801300
_cell_angle_alpha   90.00000000
_cell_angle_beta   90.00000000
_cell_angle_gamma   119.99998238
_symmetry_Int_Tables_number   1
_chemical_formula_structural   Cs4Os2O9
_chemical_formula_sum   'Cs8 Os4 O18'
_cell_volume   650.60973129
_cell_formula_units_Z   2
loop_
 _symmetry_equiv_pos_site_id
 _symmetry_equiv_pos_as_xyz
  1  'x, y, z'
loop_
 _atom_site_type_symbol
 _atom_site_label
 _atom_site_symmetry_multiplicity
 _atom_site_fract_x
 _atom_site_fract_y
 _atom_site_fract_z
 _atom_site_occupancy
  Cs  Cs0  1  0.000000  0.000000  0.250000  1
  Cs  Cs1  1  0.000000  0.000000  0.750000  1
  Cs  Cs2  1  0.333333  0.666667  0.374302  1
  Cs  Cs3  1  0.666667  0.333333  0.625698  1
  Cs  Cs4  1  0.666667  0.333333  0.874302  1
  Cs  Cs5  1  0.333333  0.666667  0.125698  1
  Cs  Cs6  1  0.000000  0.000000  0.500000  1
  Cs  Cs7  1  0.000000  0.000000  0.000000  1
  Os  Os8  1  0.666667  0.333333  0.334833  1
  Os  Os9  1  0.333333  0.666667  0.665167  1
  Os  Os10  1  0.333333  0.666667  0.834833  1
  Os  Os11  1  0.666667  0.333333  0.165167  1
  O  O12  1  0.542310  0.457690  0.250000  1
  O  O13  1  0.542310  0.084619  0.250000  1
  O  O14  1  0.915381  0.457690  0.250000  1
  O  O15  1  0.457690  0.542310  0.750000  1
  O  O16  1  0.457690  0.915381  0.750000  1
  O  O17  1  0.084619  0.542310  0.750000  1
  O  O18  1  0.388652  0.194326  0.385229  1
  O  O19  1  0.805674  0.194326  0.385229  1
  O  O20  1  0.805674  0.611348  0.385229  1
  O  O21  1  0.611348  0.805674  0.614771  1
  O  O22  1  0.194326  0.805674  0.614771  1
  O  O23  1  0.194326  0.388652  0.614771  1
  O  O24  1  0.611348  0.805674  0.885229  1
  O  O25  1  0.194326  0.805674  0.885229  1
  O  O26  1  0.194326  0.388652  0.885229  1
  O  O27  1  0.388652  0.194326  0.114771  1
  O  O28  1  0.805674  0.194326  0.114771  1
  O  O29  1  0.805674  0.611348  0.114771  1
