# generated using pymatgen
data_Nd2YLu5(Si3Rh)4
_symmetry_space_group_name_H-M   'P 1'
_cell_length_a   8.16162232
_cell_length_b   8.15096360
_cell_length_c   7.90477900
_cell_angle_alpha   90.00000000
_cell_angle_beta   90.00000000
_cell_angle_gamma   119.95679856
_symmetry_Int_Tables_number   1
_chemical_formula_structural   Nd2YLu5(Si3Rh)4
_chemical_formula_sum   'Nd2 Y1 Lu5 Si12 Rh4'
_cell_volume   455.61153077
_cell_formula_units_Z   1
loop_
 _symmetry_equiv_pos_site_id
 _symmetry_equiv_pos_as_xyz
  1  'x, y, z'
loop_
 _atom_site_type_symbol
 _atom_site_label
 _atom_site_symmetry_multiplicity
 _atom_site_fract_x
 _atom_site_fract_y
 _atom_site_fract_z
 _atom_site_occupancy
  Nd  Nd0  1  0.000040  0.000020  0.250000  1
  Nd  Nd1  1  0.999708  0.999854  0.750000  1
  Y  Y2  1  0.018815  0.509408  0.750000  1
  Lu  Lu3  1  0.508623  0.491181  0.250000  1
  Lu  Lu4  1  0.508623  0.017441  0.250000  1
  Lu  Lu5  1  0.982441  0.491220  0.250000  1
  Lu  Lu6  1  0.491950  0.508598  0.750000  1
  Lu  Lu7  1  0.491950  0.983353  0.750000  1
  Si  Si8  1  0.169220  0.831775  0.500229  1
  Si  Si9  1  0.169220  0.337445  0.500229  1
  Si  Si10  1  0.662398  0.831199  0.501779  1
  Si  Si11  1  0.830953  0.168415  0.497366  1
  Si  Si12  1  0.830953  0.662538  0.497366  1
  Si  Si13  1  0.336938  0.168469  0.497848  1
  Si  Si14  1  0.830953  0.168415  0.002634  1
  Si  Si15  1  0.830953  0.662538  0.002634  1
  Si  Si16  1  0.336938  0.168469  0.002152  1
  Si  Si17  1  0.169220  0.831775  0.999771  1
  Si  Si18  1  0.169220  0.337445  0.999771  1
  Si  Si19  1  0.662398  0.831199  0.998221  1
  Rh  Rh20  1  0.334151  0.667076  0.463256  1
  Rh  Rh21  1  0.665093  0.332546  0.532737  1
  Rh  Rh22  1  0.665093  0.332546  0.967263  1
  Rh  Rh23  1  0.334151  0.667076  0.036744  1
