# generated using pymatgen
data_YbZr2Sc(Al8Pt3)3
_symmetry_space_group_name_H-M   'P 1'
_cell_length_a   7.48644689
_cell_length_b   7.48631460
_cell_length_c   13.04473743
_cell_angle_alpha   84.51948459
_cell_angle_beta   100.96197553
_cell_angle_gamma   119.95797558
_symmetry_Int_Tables_number   1
_chemical_formula_structural   YbZr2Sc(Al8Pt3)3
_chemical_formula_sum   'Yb1 Zr2 Sc1 Al24 Pt9'
_cell_volume   621.86477780
_cell_formula_units_Z   1
loop_
 _symmetry_equiv_pos_site_id
 _symmetry_equiv_pos_as_xyz
  1  'x, y, z'
loop_
 _atom_site_type_symbol
 _atom_site_label
 _atom_site_symmetry_multiplicity
 _atom_site_fract_x
 _atom_site_fract_y
 _atom_site_fract_z
 _atom_site_occupancy
  Yb  Yb0  1  0.231643  0.498061  0.191332  1
  Zr  Zr1  1  0.438496  0.831576  0.810002  1
  Zr  Zr2  1  0.561606  0.168422  0.189831  1
  Sc  Sc3  1  0.767777  0.501671  0.807170  1
  Al  Al4  1  0.485129  0.167051  0.940420  1
  Al  Al5  1  0.516950  0.835388  0.056180  1
  Al  Al6  1  0.020545  0.167332  0.563166  1
  Al  Al7  1  0.979544  0.832915  0.438025  1
  Al  Al8  1  0.353469  0.833081  0.560951  1
  Al  Al9  1  0.647073  0.166760  0.439531  1
  Al  Al10  1  0.614427  0.835424  0.326391  1
  Al  Al11  1  0.387158  0.165603  0.676624  1
  Al  Al12  1  0.058297  0.495732  0.677141  1
  Al  Al13  1  0.941482  0.504110  0.325942  1
  Al  Al14  1  0.729945  0.837497  0.676102  1
  Al  Al15  1  0.271182  0.161485  0.326905  1
  Al  Al16  1  0.146213  0.503250  0.941014  1
  Al  Al17  1  0.850661  0.497239  0.055785  1
  Al  Al18  1  0.812538  0.829311  0.948176  1
  Al  Al19  1  0.185863  0.167959  0.048162  1
  Al  Al20  1  0.313928  0.500478  0.440473  1
  Al  Al21  1  0.685958  0.499071  0.560385  1
  Al  Al22  1  0.108820  0.843374  0.183074  1
  Al  Al23  1  0.891555  0.162104  0.816585  1
  Al  Al24  1  0.311372  0.374551  0.815560  1
  Al  Al25  1  0.693353  0.624982  0.184147  1
  Al  Al26  1  0.105371  0.955464  0.816236  1
  Al  Al27  1  0.889483  0.040037  0.183760  1
  Pt  Pt28  1  0.389218  0.509069  0.639556  1
  Pt  Pt29  1  0.612767  0.491809  0.361631  1
  Pt  Pt30  1  0.170889  0.828437  0.998769  1
  Pt  Pt31  1  0.828599  0.171374  0.999579  1
  Pt  Pt32  1  0.295376  0.833484  0.361997  1
  Pt  Pt33  1  0.704043  0.166997  0.639262  1
  Pt  Pt34  1  0.045545  0.823888  0.638193  1
  Pt  Pt35  1  0.953855  0.174480  0.362952  1
  Pt  Pt36  1  0.499867  0.500535  0.998991  1
