# generated using pymatgen
data_Tb2Er(TmPt2)2
_symmetry_space_group_name_H-M   'P 1'
_cell_length_a   7.44651900
_cell_length_b   7.52535100
_cell_length_c   14.66553200
_cell_angle_alpha   90.00000000
_cell_angle_beta   90.00000000
_cell_angle_gamma   90.00000000
_symmetry_Int_Tables_number   1
_chemical_formula_structural   Tb2Er(TmPt2)2
_chemical_formula_sum   'Tb8 Er4 Tm8 Pt16'
_cell_volume   821.82223090
_cell_formula_units_Z   4
loop_
 _symmetry_equiv_pos_site_id
 _symmetry_equiv_pos_as_xyz
  1  'x, y, z'
loop_
 _atom_site_type_symbol
 _atom_site_label
 _atom_site_symmetry_multiplicity
 _atom_site_fract_x
 _atom_site_fract_y
 _atom_site_fract_z
 _atom_site_occupancy
  Tb  Tb0  1  0.501118  0.679296  0.592791  1
  Tb  Tb1  1  0.001118  0.820704  0.907209  1
  Tb  Tb2  1  0.498882  0.320704  0.092791  1
  Tb  Tb3  1  0.998882  0.179296  0.407209  1
  Tb  Tb4  1  0.498882  0.320704  0.407209  1
  Tb  Tb5  1  0.998882  0.179296  0.092791  1
  Tb  Tb6  1  0.501118  0.679296  0.907209  1
  Tb  Tb7  1  0.001118  0.820704  0.592791  1
  Er  Er8  1  0.819563  0.510672  0.750000  1
  Er  Er9  1  0.319563  0.989328  0.750000  1
  Er  Er10  1  0.180437  0.489328  0.250000  1
  Er  Er11  1  0.680437  0.010672  0.250000  1
  Tm  Tm12  1  0.656596  0.167903  0.622741  1
  Tm  Tm13  1  0.156596  0.332097  0.877259  1
  Tm  Tm14  1  0.343404  0.832097  0.122741  1
  Tm  Tm15  1  0.843404  0.667903  0.377259  1
  Tm  Tm16  1  0.343404  0.832097  0.377259  1
  Tm  Tm17  1  0.843404  0.667903  0.122741  1
  Tm  Tm18  1  0.656596  0.167903  0.877259  1
  Tm  Tm19  1  0.156596  0.332097  0.622741  1
  Pt  Pt20  1  0.682485  0.966213  0.458221  1
  Pt  Pt21  1  0.182485  0.533787  0.041779  1
  Pt  Pt22  1  0.317515  0.033787  0.958221  1
  Pt  Pt23  1  0.817515  0.466213  0.541779  1
  Pt  Pt24  1  0.317515  0.033787  0.541779  1
  Pt  Pt25  1  0.817515  0.466213  0.958221  1
  Pt  Pt26  1  0.682485  0.966213  0.041779  1
  Pt  Pt27  1  0.182485  0.533787  0.458221  1
  Pt  Pt28  1  0.453788  0.384703  0.750000  1
  Pt  Pt29  1  0.953788  0.115297  0.750000  1
  Pt  Pt30  1  0.546212  0.615297  0.250000  1
  Pt  Pt31  1  0.046212  0.884703  0.250000  1
  Pt  Pt32  1  0.682777  0.858115  0.750000  1
  Pt  Pt33  1  0.182777  0.641885  0.750000  1
  Pt  Pt34  1  0.317223  0.141885  0.250000  1
  Pt  Pt35  1  0.817223  0.358115  0.250000  1
