# generated using pymatgen
data_Nd8Sm2B2Br15
_symmetry_space_group_name_H-M   'P 1'
_cell_length_a   9.36749024
_cell_length_b   10.20560082
_cell_length_c   11.04271718
_cell_angle_alpha   91.25599031
_cell_angle_beta   114.43561395
_cell_angle_gamma   110.77844260
_symmetry_Int_Tables_number   1
_chemical_formula_structural   Nd8Sm2B2Br15
_chemical_formula_sum   'Nd8 Sm2 B2 Br15'
_cell_volume   880.79983759
_cell_formula_units_Z   1
loop_
 _symmetry_equiv_pos_site_id
 _symmetry_equiv_pos_as_xyz
  1  'x, y, z'
loop_
 _atom_site_type_symbol
 _atom_site_label
 _atom_site_symmetry_multiplicity
 _atom_site_fract_x
 _atom_site_fract_y
 _atom_site_fract_z
 _atom_site_occupancy
  Nd  Nd0  1  0.801910  0.409177  0.276222  1
  Nd  Nd1  1  0.198090  0.590823  0.723778  1
  Nd  Nd2  1  0.675954  0.746877  0.820572  1
  Nd  Nd3  1  0.324046  0.253123  0.179428  1
  Nd  Nd4  1  0.526203  0.705586  0.096174  1
  Nd  Nd5  1  0.473797  0.294414  0.903826  1
  Nd  Nd6  1  0.587015  0.038900  0.324771  1
  Nd  Nd7  1  0.412985  0.961100  0.675229  1
  Sm  Sm8  1  0.721897  0.073700  0.047286  1
  Sm  Sm9  1  0.278103  0.926300  0.952714  1
  B  B10  1  0.466751  0.819784  0.876458  1
  B  B11  1  0.533249  0.180216  0.123542  1
  Br  Br12  1  0.000000  0.000000  0.000000  1
  Br  Br13  1  0.636434  0.882286  0.583628  1
  Br  Br14  1  0.363566  0.117714  0.416372  1
  Br  Br15  1  0.883129  0.299107  0.527558  1
  Br  Br16  1  0.116871  0.700893  0.472442  1
  Br  Br17  1  0.286645  0.764126  0.175903  1
  Br  Br18  1  0.713355  0.235874  0.824097  1
  Br  Br19  1  0.050614  0.337517  0.222338  1
  Br  Br20  1  0.161442  0.054327  0.706826  1
  Br  Br21  1  0.838558  0.945673  0.293174  1
  Br  Br22  1  0.232144  0.410978  0.944436  1
  Br  Br23  1  0.767856  0.589022  0.055564  1
  Br  Br24  1  0.409039  0.463922  0.660654  1
  Br  Br25  1  0.590961  0.536078  0.339346  1
  Br  Br26  1  0.949386  0.662483  0.777662  1
