# generated using pymatgen
data_Tb2B4IrRu3
_symmetry_space_group_name_H-M   'P 1'
_cell_length_a   6.71925167
_cell_length_b   5.94829245
_cell_length_c   5.54631137
_cell_angle_alpha   71.44600043
_cell_angle_beta   57.06092389
_cell_angle_gamma   51.86228907
_symmetry_Int_Tables_number   1
_chemical_formula_structural   Tb2B4IrRu3
_chemical_formula_sum   'Tb2 B4 Ir1 Ru3'
_cell_volume   146.27451711
_cell_formula_units_Z   1
loop_
 _symmetry_equiv_pos_site_id
 _symmetry_equiv_pos_as_xyz
  1  'x, y, z'
loop_
 _atom_site_type_symbol
 _atom_site_label
 _atom_site_symmetry_multiplicity
 _atom_site_fract_x
 _atom_site_fract_y
 _atom_site_fract_z
 _atom_site_occupancy
  Tb  Tb0  1  0.498460  0.498460  0.501540  1
  Tb  Tb1  1  0.749411  0.749411  0.750589  1
  B  B2  1  0.183627  0.814303  0.186275  1
  B  B3  1  0.064683  0.438998  0.058509  1
  B  B4  1  0.814303  0.183626  0.815795  1
  B  B5  1  0.438998  0.064683  0.437810  1
  Ir  Ir6  1  0.113790  0.113790  0.386210  1
  Ru  Ru7  1  0.862917  0.862917  0.137083  1
  Ru  Ru8  1  0.136846  0.136846  0.863154  1
  Ru  Ru9  1  0.386966  0.386966  0.113034  1
