# generated using pymatgen
data_Tb5Sn3Sb
_symmetry_space_group_name_H-M   'P 1'
_cell_length_a   8.14663300
_cell_length_b   8.18711000
_cell_length_c   15.44385700
_cell_angle_alpha   90.00000000
_cell_angle_beta   90.00000000
_cell_angle_gamma   90.00000000
_symmetry_Int_Tables_number   1
_chemical_formula_structural   Tb5Sn3Sb
_chemical_formula_sum   'Tb20 Sn12 Sb4'
_cell_volume   1030.06480673
_cell_formula_units_Z   4
loop_
 _symmetry_equiv_pos_site_id
 _symmetry_equiv_pos_as_xyz
  1  'x, y, z'
loop_
 _atom_site_type_symbol
 _atom_site_label
 _atom_site_symmetry_multiplicity
 _atom_site_fract_x
 _atom_site_fract_y
 _atom_site_fract_z
 _atom_site_occupancy
  Tb  Tb0  1  0.376466  0.840273  0.878867  1
  Tb  Tb1  1  0.876466  0.659727  0.621133  1
  Tb  Tb2  1  0.623534  0.159727  0.378867  1
  Tb  Tb3  1  0.123534  0.340273  0.121133  1
  Tb  Tb4  1  0.625515  0.160890  0.121616  1
  Tb  Tb5  1  0.125515  0.339110  0.378384  1
  Tb  Tb6  1  0.374485  0.839110  0.621616  1
  Tb  Tb7  1  0.874485  0.660890  0.878384  1
  Tb  Tb8  1  0.540227  0.329157  0.895527  1
  Tb  Tb9  1  0.040227  0.170843  0.604473  1
  Tb  Tb10  1  0.459773  0.670843  0.395527  1
  Tb  Tb11  1  0.959773  0.829157  0.104473  1
  Tb  Tb12  1  0.471176  0.676261  0.101531  1
  Tb  Tb13  1  0.971176  0.823739  0.398469  1
  Tb  Tb14  1  0.528824  0.323739  0.601531  1
  Tb  Tb15  1  0.028824  0.176261  0.898469  1
  Tb  Tb16  1  0.203469  0.500868  0.747692  1
  Tb  Tb17  1  0.703469  0.999132  0.752308  1
  Tb  Tb18  1  0.796531  0.499132  0.247692  1
  Tb  Tb19  1  0.296531  0.000868  0.252308  1
  Sn  Sn20  1  0.716625  0.966989  0.957168  1
  Sn  Sn21  1  0.216625  0.533011  0.542832  1
  Sn  Sn22  1  0.283375  0.033011  0.457168  1
  Sn  Sn23  1  0.783375  0.466989  0.042832  1
  Sn  Sn24  1  0.570303  0.622067  0.749037  1
  Sn  Sn25  1  0.070303  0.877933  0.750963  1
  Sn  Sn26  1  0.429697  0.377933  0.249037  1
  Sn  Sn27  1  0.929697  0.122067  0.250963  1
  Sn  Sn28  1  0.339246  0.146728  0.751206  1
  Sn  Sn29  1  0.839246  0.353272  0.748794  1
  Sn  Sn30  1  0.660754  0.853272  0.251206  1
  Sn  Sn31  1  0.160754  0.646728  0.248794  1
  Sb  Sb32  1  0.277940  0.029684  0.044647  1
  Sb  Sb33  1  0.777940  0.470316  0.455353  1
  Sb  Sb34  1  0.722060  0.970316  0.544647  1
  Sb  Sb35  1  0.222060  0.529684  0.955353  1
