# generated using pymatgen
data_RbZr(NiAs)2
_symmetry_space_group_name_H-M   'P 1'
_cell_length_a   4.01760100
_cell_length_b   8.65951944
_cell_length_c   7.12831386
_cell_angle_alpha   91.48956179
_cell_angle_beta   90.00000000
_cell_angle_gamma   90.00000000
_symmetry_Int_Tables_number   1
_chemical_formula_structural   RbZr(NiAs)2
_chemical_formula_sum   'Rb2 Zr2 Ni4 As4'
_cell_volume   247.91375643
_cell_formula_units_Z   2
loop_
 _symmetry_equiv_pos_site_id
 _symmetry_equiv_pos_as_xyz
  1  'x, y, z'
loop_
 _atom_site_type_symbol
 _atom_site_label
 _atom_site_symmetry_multiplicity
 _atom_site_fract_x
 _atom_site_fract_y
 _atom_site_fract_z
 _atom_site_occupancy
  Rb  Rb0  1  0.250000  0.500709  0.231848  1
  Rb  Rb1  1  0.750000  0.499291  0.768152  1
  Zr  Zr2  1  0.750000  0.004896  0.706732  1
  Zr  Zr3  1  0.250000  0.995104  0.293268  1
  Ni  Ni4  1  0.250000  0.894608  0.927317  1
  Ni  Ni5  1  0.750000  0.105392  0.072683  1
  Ni  Ni6  1  0.750000  0.800838  0.419633  1
  Ni  Ni7  1  0.250000  0.199162  0.580367  1
  As  As8  1  0.250000  0.786027  0.596398  1
  As  As9  1  0.750000  0.213973  0.403602  1
  As  As10  1  0.750000  0.817586  0.088533  1
  As  As11  1  0.250000  0.182414  0.911467  1
