# generated using pymatgen
data_Lu10Al3TcTe4
_symmetry_space_group_name_H-M   'P 1'
_cell_length_a   8.58439223
_cell_length_b   8.58439274
_cell_length_c   7.80388955
_cell_angle_alpha   90.39540234
_cell_angle_beta   90.39539725
_cell_angle_gamma   125.81396005
_symmetry_Int_Tables_number   1
_chemical_formula_structural   Lu10Al3TcTe4
_chemical_formula_sum   'Lu10 Al3 Tc1 Te4'
_cell_volume   466.29319315
_cell_formula_units_Z   1
loop_
 _symmetry_equiv_pos_site_id
 _symmetry_equiv_pos_as_xyz
  1  'x, y, z'
loop_
 _atom_site_type_symbol
 _atom_site_label
 _atom_site_symmetry_multiplicity
 _atom_site_fract_x
 _atom_site_fract_y
 _atom_site_fract_z
 _atom_site_occupancy
  Lu  Lu0  1  0.997649  0.997649  0.009224  1
  Lu  Lu1  1  0.509247  0.509247  0.494436  1
  Lu  Lu2  1  0.817047  0.568109  0.187245  1
  Lu  Lu3  1  0.463498  0.210638  0.833926  1
  Lu  Lu4  1  0.952235  0.706800  0.649926  1
  Lu  Lu5  1  0.265248  0.024046  0.337675  1
  Lu  Lu6  1  0.210638  0.463498  0.833926  1
  Lu  Lu7  1  0.568109  0.817047  0.187245  1
  Lu  Lu8  1  0.024046  0.265248  0.337675  1
  Lu  Lu9  1  0.706800  0.952235  0.649926  1
  Al  Al10  1  0.125201  0.125201  0.630312  1
  Al  Al11  1  0.625421  0.625421  0.876466  1
  Al  Al12  1  0.375650  0.375650  0.123252  1
  Tc  Tc13  1  0.871156  0.871156  0.375201  1
  Te  Te14  1  0.224258  0.804670  0.990109  1
  Te  Te15  1  0.686011  0.273118  0.496675  1
  Te  Te16  1  0.804670  0.224258  0.990109  1
  Te  Te17  1  0.273118  0.686011  0.496675  1
