# generated using pymatgen
data_Y3Ho17(Bi2Sb)4
_symmetry_space_group_name_H-M   'P 1'
_cell_length_a   8.16698208
_cell_length_b   9.44401100
_cell_length_c   11.97838411
_cell_angle_alpha   90.00000000
_cell_angle_beta   89.98441603
_cell_angle_gamma   90.00000000
_symmetry_Int_Tables_number   1
_chemical_formula_structural   Y3Ho17(Bi2Sb)4
_chemical_formula_sum   'Y3 Ho17 Bi8 Sb4'
_cell_volume   923.88157512
_cell_formula_units_Z   1
loop_
 _symmetry_equiv_pos_site_id
 _symmetry_equiv_pos_as_xyz
  1  'x, y, z'
loop_
 _atom_site_type_symbol
 _atom_site_label
 _atom_site_symmetry_multiplicity
 _atom_site_fract_x
 _atom_site_fract_y
 _atom_site_fract_z
 _atom_site_occupancy
  Y  Y0  1  0.853721  0.750000  0.286831  1
  Y  Y1  1  0.646329  0.250000  0.786896  1
  Y  Y2  1  0.146378  0.250000  0.713095  1
  Ho  Ho3  1  0.028484  0.750000  0.988078  1
  Ho  Ho4  1  0.528410  0.750000  0.511816  1
  Ho  Ho5  1  0.971565  0.250000  0.012007  1
  Ho  Ho6  1  0.471566  0.250000  0.487912  1
  Ho  Ho7  1  0.183434  0.750000  0.717981  1
  Ho  Ho8  1  0.683282  0.750000  0.782155  1
  Ho  Ho9  1  0.816521  0.250000  0.282048  1
  Ho  Ho10  1  0.316521  0.250000  0.217907  1
  Ho  Ho11  1  0.309839  0.437628  0.941964  1
  Ho  Ho12  1  0.809871  0.062385  0.558015  1
  Ho  Ho13  1  0.689962  0.937627  0.058108  1
  Ho  Ho14  1  0.190243  0.562423  0.441648  1
  Ho  Ho15  1  0.689962  0.562373  0.058108  1
  Ho  Ho16  1  0.190243  0.937577  0.441648  1
  Ho  Ho17  1  0.309839  0.062372  0.941964  1
  Ho  Ho18  1  0.809871  0.437615  0.558015  1
  Ho  Ho19  1  0.353923  0.750000  0.213625  1
  Bi  Bi20  1  0.433423  0.003162  0.673852  1
  Bi  Bi21  1  0.933419  0.496842  0.826189  1
  Bi  Bi22  1  0.566155  0.503543  0.325847  1
  Bi  Bi23  1  0.067106  0.996506  0.173826  1
  Bi  Bi24  1  0.566155  0.996457  0.325847  1
  Bi  Bi25  1  0.067106  0.503494  0.173826  1
  Bi  Bi26  1  0.433423  0.496838  0.673852  1
  Bi  Bi27  1  0.933419  0.003158  0.826189  1
  Sb  Sb28  1  0.408730  0.750000  0.958852  1
  Sb  Sb29  1  0.909030  0.750000  0.541862  1
  Sb  Sb30  1  0.590989  0.250000  0.041842  1
  Sb  Sb31  1  0.091078  0.250000  0.458193  1
