# generated using pymatgen
data_HoAlCu3Au
_symmetry_space_group_name_H-M   'P 1'
_cell_length_a   5.05299909
_cell_length_b   5.05299860
_cell_length_c   5.05299994
_cell_angle_alpha   60.70067355
_cell_angle_beta   60.70068287
_cell_angle_gamma   60.70067473
_symmetry_Int_Tables_number   1
_chemical_formula_structural   HoAlCu3Au
_chemical_formula_sum   'Ho1 Al1 Cu3 Au1'
_cell_volume   92.67167854
_cell_formula_units_Z   1
loop_
 _symmetry_equiv_pos_site_id
 _symmetry_equiv_pos_as_xyz
  1  'x, y, z'
loop_
 _atom_site_type_symbol
 _atom_site_label
 _atom_site_symmetry_multiplicity
 _atom_site_fract_x
 _atom_site_fract_y
 _atom_site_fract_z
 _atom_site_occupancy
  Ho  Ho0  1  0.246160  0.246160  0.246160  1
  Al  Al1  1  0.629715  0.629715  0.629715  1
  Cu  Cu2  1  0.625714  0.625714  0.126143  1
  Cu  Cu3  1  0.625714  0.126143  0.625714  1
  Cu  Cu4  1  0.126143  0.625714  0.625714  1
  Au  Au5  1  0.996553  0.996553  0.996553  1
