# generated using pymatgen
data_Y2ThIn3Ir2Rh
_symmetry_space_group_name_H-M   'P 1'
_cell_length_a   7.61979555
_cell_length_b   7.73520131
_cell_length_c   3.90269400
_cell_angle_alpha   90.00000000
_cell_angle_beta   90.00000000
_cell_angle_gamma   120.50228098
_symmetry_Int_Tables_number   1
_chemical_formula_structural   Y2ThIn3Ir2Rh
_chemical_formula_sum   'Y2 Th1 In3 Ir2 Rh1'
_cell_volume   198.19360809
_cell_formula_units_Z   1
loop_
 _symmetry_equiv_pos_site_id
 _symmetry_equiv_pos_as_xyz
  1  'x, y, z'
loop_
 _atom_site_type_symbol
 _atom_site_label
 _atom_site_symmetry_multiplicity
 _atom_site_fract_x
 _atom_site_fract_y
 _atom_site_fract_z
 _atom_site_occupancy
  Y  Y0  1  0.407064  0.409351  0.500000  1
  Y  Y1  1  0.592936  0.002287  0.500000  1
  Th  Th2  1  0.000000  0.582162  0.500000  1
  In  In3  1  0.000000  0.241256  0.000000  1
  In  In4  1  0.268041  0.012184  0.000000  1
  In  In5  1  0.731959  0.744142  0.000000  1
  Ir  Ir6  1  0.317293  0.667396  0.000000  1
  Ir  Ir7  1  0.682707  0.350101  0.000000  1
  Rh  Rh8  1  0.000000  0.991121  0.500000  1
