# generated using pymatgen
data_Cs6YNpI12
_symmetry_space_group_name_H-M   'P 1'
_cell_length_a   10.73531796
_cell_length_b   10.72858275
_cell_length_c   8.84683100
_cell_angle_alpha   90.00000000
_cell_angle_beta   90.00000000
_cell_angle_gamma   90.21983045
_symmetry_Int_Tables_number   1
_chemical_formula_structural   Cs6YNpI12
_chemical_formula_sum   'Cs6 Y1 Np1 I12'
_cell_volume   1018.92402285
_cell_formula_units_Z   1
loop_
 _symmetry_equiv_pos_site_id
 _symmetry_equiv_pos_as_xyz
  1  'x, y, z'
loop_
 _atom_site_type_symbol
 _atom_site_label
 _atom_site_symmetry_multiplicity
 _atom_site_fract_x
 _atom_site_fract_y
 _atom_site_fract_z
 _atom_site_occupancy
  Cs  Cs0  1  0.000000  0.000000  0.500000  1
  Cs  Cs1  1  0.000000  0.000000  0.000000  1
  Cs  Cs2  1  0.235583  0.586461  0.500000  1
  Cs  Cs3  1  0.764417  0.413539  0.500000  1
  Cs  Cs4  1  0.411482  0.233551  0.000000  1
  Cs  Cs5  1  0.588518  0.766449  0.000000  1
  Y  Y6  1  0.500000  0.000000  0.500000  1
  Np  Np7  1  0.000000  0.500000  0.000000  1
  I  I8  1  0.693988  0.059865  0.745130  1
  I  I9  1  0.306012  0.940135  0.745130  1
  I  I10  1  0.938467  0.698091  0.249201  1
  I  I11  1  0.061533  0.301909  0.249201  1
  I  I12  1  0.306012  0.940135  0.254870  1
  I  I13  1  0.693988  0.059865  0.254870  1
  I  I14  1  0.061533  0.301909  0.750799  1
  I  I15  1  0.938467  0.698091  0.750799  1
  I  I16  1  0.569415  0.726766  0.500000  1
  I  I17  1  0.430585  0.273234  0.500000  1
  I  I18  1  0.280767  0.569838  0.000000  1
  I  I19  1  0.719233  0.430162  0.000000  1
