# generated using pymatgen
data_Ta6ReSi6W5
_symmetry_space_group_name_H-M   'P 1'
_cell_length_a   7.69117455
_cell_length_b   7.70268101
_cell_length_c   7.69306881
_cell_angle_alpha   126.43450144
_cell_angle_beta   128.38358003
_cell_angle_gamma   77.56773669
_symmetry_Int_Tables_number   1
_chemical_formula_structural   Ta6ReSi6W5
_chemical_formula_sum   'Ta6 Re1 Si6 W5'
_cell_volume   278.78311026
_cell_formula_units_Z   1
loop_
 _symmetry_equiv_pos_site_id
 _symmetry_equiv_pos_as_xyz
  1  'x, y, z'
loop_
 _atom_site_type_symbol
 _atom_site_label
 _atom_site_symmetry_multiplicity
 _atom_site_fract_x
 _atom_site_fract_y
 _atom_site_fract_z
 _atom_site_occupancy
  Ta  Ta0  1  0.549996  0.091231  0.041926  1
  Ta  Ta1  1  0.449627  0.497522  0.549573  1
  Ta  Ta2  1  0.948005  0.497370  0.047667  1
  Ta  Ta3  1  0.049241  0.091043  0.541197  1
  Ta  Ta4  1  0.753680  0.903213  0.651400  1
  Ta  Ta5  1  0.251805  0.903093  0.149572  1
  Re  Re6  1  0.370241  0.496522  0.126295  1
  Si  Si7  1  0.746854  0.496610  0.248144  1
  Si  Si8  1  0.248367  0.496543  0.749704  1
  Si  Si9  1  0.334015  0.826360  0.492512  1
  Si  Si10  1  0.667547  0.164482  0.496723  1
  Si  Si11  1  0.833897  0.828935  0.995109  1
  Si  Si12  1  0.169405  0.167038  0.997757  1
  W  W13  1  0.499405  0.237593  0.738147  1
  W  W14  1  0.000733  0.239243  0.238512  1
  W  W15  1  0.129054  0.754772  0.625754  1
  W  W16  1  0.869378  0.496255  0.626630  1
  W  W17  1  0.628749  0.754375  0.125575  1
