# generated using pymatgen
data_Sc16Al4CoNi3
_symmetry_space_group_name_H-M   'P 1'
_cell_length_a   8.83707996
_cell_length_b   8.83706172
_cell_length_c   8.83706700
_cell_angle_alpha   60.08758338
_cell_angle_beta   60.08792070
_cell_angle_gamma   60.08791375
_symmetry_Int_Tables_number   1
_chemical_formula_structural   Sc16Al4CoNi3
_chemical_formula_sum   'Sc16 Al4 Co1 Ni3'
_cell_volume   488.95970313
_cell_formula_units_Z   1
loop_
 _symmetry_equiv_pos_site_id
 _symmetry_equiv_pos_as_xyz
  1  'x, y, z'
loop_
 _atom_site_type_symbol
 _atom_site_label
 _atom_site_symmetry_multiplicity
 _atom_site_fract_x
 _atom_site_fract_y
 _atom_site_fract_z
 _atom_site_occupancy
  Sc  Sc0  1  0.186997  0.812769  0.812750  1
  Sc  Sc1  1  0.811276  0.187631  0.187637  1
  Sc  Sc2  1  0.812681  0.187048  0.812621  1
  Sc  Sc3  1  0.187692  0.811182  0.187680  1
  Sc  Sc4  1  0.812742  0.812663  0.187034  1
  Sc  Sc5  1  0.187691  0.187654  0.811203  1
  Sc  Sc6  1  0.601954  0.602125  0.602133  1
  Sc  Sc7  1  0.599568  0.599694  0.196817  1
  Sc  Sc8  1  0.599562  0.196818  0.599697  1
  Sc  Sc9  1  0.196801  0.599648  0.599660  1
  Sc  Sc10  1  0.062749  0.440497  0.440552  1
  Sc  Sc11  1  0.441123  0.058777  0.058711  1
  Sc  Sc12  1  0.440546  0.062654  0.440556  1
  Sc  Sc13  1  0.058862  0.441123  0.058689  1
  Sc  Sc14  1  0.440574  0.440530  0.062628  1
  Sc  Sc15  1  0.058802  0.058727  0.441138  1
  Al  Al16  1  0.830312  0.830335  0.830339  1
  Al  Al17  1  0.830328  0.830344  0.509093  1
  Al  Al18  1  0.830310  0.509127  0.830334  1
  Al  Al19  1  0.509075  0.830337  0.830352  1
  Co  Co20  1  0.392615  0.392603  0.392592  1
  Ni  Ni21  1  0.392816  0.392800  0.822042  1
  Ni  Ni22  1  0.392815  0.821974  0.392815  1
  Ni  Ni23  1  0.822106  0.392933  0.392923  1
