# generated using pymatgen
data_Sc4GaSe3
_symmetry_space_group_name_H-M   'P 1'
_cell_length_a   6.74916301
_cell_length_b   6.74916340
_cell_length_c   6.74916371
_cell_angle_alpha   131.94941688
_cell_angle_beta   131.94941806
_cell_angle_gamma   70.30892630
_symmetry_Int_Tables_number   1
_chemical_formula_structural   Sc4GaSe3
_chemical_formula_sum   'Sc4 Ga1 Se3'
_cell_volume   166.66308167
_cell_formula_units_Z   1
loop_
 _symmetry_equiv_pos_site_id
 _symmetry_equiv_pos_as_xyz
  1  'x, y, z'
loop_
 _atom_site_type_symbol
 _atom_site_label
 _atom_site_symmetry_multiplicity
 _atom_site_fract_x
 _atom_site_fract_y
 _atom_site_fract_z
 _atom_site_occupancy
  Sc  Sc0  1  0.244480  0.244480  0.000000  1
  Sc  Sc1  1  0.755520  0.755520  0.000000  1
  Sc  Sc2  1  0.500000  0.000000  0.500000  1
  Sc  Sc3  1  0.000000  0.500000  0.500000  1
  Ga  Ga4  1  0.000000  0.000000  0.000000  1
  Se  Se5  1  0.500000  0.500000  0.000000  1
  Se  Se6  1  0.750000  0.250000  0.500000  1
  Se  Se7  1  0.250000  0.750000  0.500000  1
