# generated using pymatgen
data_Ti4P2RuRh9
_symmetry_space_group_name_H-M   'P 1'
_cell_length_a   3.92750100
_cell_length_b   5.43872805
_cell_length_c   10.48001314
_cell_angle_alpha   90.33310740
_cell_angle_beta   90.00000000
_cell_angle_gamma   90.00000000
_symmetry_Int_Tables_number   1
_chemical_formula_structural   Ti4P2RuRh9
_chemical_formula_sum   'Ti4 P2 Ru1 Rh9'
_cell_volume   223.85568873
_cell_formula_units_Z   1
loop_
 _symmetry_equiv_pos_site_id
 _symmetry_equiv_pos_as_xyz
  1  'x, y, z'
loop_
 _atom_site_type_symbol
 _atom_site_label
 _atom_site_symmetry_multiplicity
 _atom_site_fract_x
 _atom_site_fract_y
 _atom_site_fract_z
 _atom_site_occupancy
  Ti  Ti0  1  0.500000  0.336691  0.145808  1
  Ti  Ti1  1  0.500000  0.663962  0.856620  1
  Ti  Ti2  1  0.500000  0.837452  0.357627  1
  Ti  Ti3  1  0.500000  0.165843  0.641284  1
  P  P4  1  0.000000  0.001280  0.000634  1
  P  P5  1  0.000000  0.494482  0.497896  1
  Ru  Ru6  1  0.500000  0.322107  0.398460  1
  Rh  Rh7  1  0.000000  0.997767  0.500834  1
  Rh  Rh8  1  0.000000  0.501654  0.999083  1
  Rh  Rh9  1  0.000000  0.080765  0.237572  1
  Rh  Rh10  1  0.000000  0.918648  0.763210  1
  Rh  Rh11  1  0.000000  0.581879  0.260658  1
  Rh  Rh12  1  0.000000  0.418526  0.737561  1
  Rh  Rh13  1  0.500000  0.678994  0.602497  1
  Rh  Rh14  1  0.500000  0.820704  0.101586  1
  Rh  Rh15  1  0.500000  0.179246  0.898669  1
