# generated using pymatgen
data_Sr2La(CdPt)3
_symmetry_space_group_name_H-M   'P 1'
_cell_length_a   7.77730118
_cell_length_b   7.87075011
_cell_length_c   4.24594800
_cell_angle_alpha   90.00000000
_cell_angle_beta   90.00000000
_cell_angle_gamma   120.39826853
_symmetry_Int_Tables_number   1
_chemical_formula_structural   Sr2La(CdPt)3
_chemical_formula_sum   'Sr2 La1 Cd3 Pt3'
_cell_volume   224.17821106
_cell_formula_units_Z   1
loop_
 _symmetry_equiv_pos_site_id
 _symmetry_equiv_pos_as_xyz
  1  'x, y, z'
loop_
 _atom_site_type_symbol
 _atom_site_label
 _atom_site_symmetry_multiplicity
 _atom_site_fract_x
 _atom_site_fract_y
 _atom_site_fract_z
 _atom_site_occupancy
  Sr  Sr0  1  0.406028  0.406129  0.500000  1
  Sr  Sr1  1  0.593972  0.000101  0.500000  1
  La  La2  1  0.000000  0.593996  0.500000  1
  Cd  Cd3  1  0.744337  0.750152  0.000000  1
  Cd  Cd4  1  0.255663  0.005816  0.000000  1
  Cd  Cd5  1  0.000000  0.241273  0.000000  1
  Pt  Pt6  1  0.688574  0.351661  0.000000  1
  Pt  Pt7  1  0.311426  0.663089  0.000000  1
  Pt  Pt8  1  0.000000  0.987784  0.500000  1
