# generated using pymatgen
data_DyErLu2(WO6)2
_symmetry_space_group_name_H-M   'P 1'
_cell_length_a   5.35204100
_cell_length_b   7.62854084
_cell_length_c   11.33152873
_cell_angle_alpha   75.55023061
_cell_angle_beta   90.00000000
_cell_angle_gamma   90.00000000
_symmetry_Int_Tables_number   1
_chemical_formula_structural   DyErLu2(WO6)2
_chemical_formula_sum   'Dy2 Er2 Lu4 W4 O24'
_cell_volume   448.01163343
_cell_formula_units_Z   2
loop_
 _symmetry_equiv_pos_site_id
 _symmetry_equiv_pos_as_xyz
  1  'x, y, z'
loop_
 _atom_site_type_symbol
 _atom_site_label
 _atom_site_symmetry_multiplicity
 _atom_site_fract_x
 _atom_site_fract_y
 _atom_site_fract_z
 _atom_site_occupancy
  Dy  Dy0  1  0.684596  0.500000  0.750000  1
  Dy  Dy1  1  0.315404  0.500000  0.250000  1
  Er  Er2  1  0.741184  0.000000  0.750000  1
  Er  Er3  1  0.258816  0.000000  0.250000  1
  Lu  Lu4  1  0.185121  0.795515  0.578709  1
  Lu  Lu5  1  0.814879  0.795515  0.078709  1
  Lu  Lu6  1  0.185121  0.204485  0.921291  1
  Lu  Lu7  1  0.814879  0.204485  0.421291  1
  W  W8  1  0.254946  0.723766  0.886193  1
  W  W9  1  0.745054  0.723766  0.386193  1
  W  W10  1  0.254946  0.276234  0.613807  1
  W  W11  1  0.745054  0.276234  0.113807  1
  O  O12  1  0.043520  0.942188  0.896896  1
  O  O13  1  0.536904  0.846645  0.932502  1
  O  O14  1  0.956480  0.942188  0.396896  1
  O  O15  1  0.457556  0.791725  0.725658  1
  O  O16  1  0.463096  0.846645  0.432502  1
  O  O17  1  0.981791  0.713180  0.769590  1
  O  O18  1  0.542444  0.791725  0.225658  1
  O  O19  1  0.856298  0.635879  0.550022  1
  O  O20  1  0.358516  0.487031  0.887497  1
  O  O21  1  0.018209  0.713180  0.269590  1
  O  O22  1  0.358516  0.512969  0.612503  1
  O  O23  1  0.856298  0.364121  0.949978  1
  O  O24  1  0.143702  0.635879  0.050022  1
  O  O25  1  0.641484  0.487031  0.387497  1
  O  O26  1  0.981791  0.286820  0.730410  1
  O  O27  1  0.641484  0.512969  0.112503  1
  O  O28  1  0.143702  0.364121  0.449978  1
  O  O29  1  0.457556  0.208275  0.774342  1
  O  O30  1  0.018209  0.286820  0.230410  1
  O  O31  1  0.536904  0.153355  0.567498  1
  O  O32  1  0.542444  0.208275  0.274342  1
  O  O33  1  0.043520  0.057812  0.603104  1
  O  O34  1  0.463096  0.153355  0.067498  1
  O  O35  1  0.956480  0.057812  0.103104  1
