# generated using pymatgen
data_Ce(Tc2As)2
_symmetry_space_group_name_H-M   'P 1'
_cell_length_a   7.64040500
_cell_length_b   7.64040500
_cell_length_c   4.07369700
_cell_angle_alpha   90.00000000
_cell_angle_beta   90.00000000
_cell_angle_gamma   90.00000000
_symmetry_Int_Tables_number   1
_chemical_formula_structural   Ce(Tc2As)2
_chemical_formula_sum   'Ce2 Tc8 As4'
_cell_volume   237.80527475
_cell_formula_units_Z   2
loop_
 _symmetry_equiv_pos_site_id
 _symmetry_equiv_pos_as_xyz
  1  'x, y, z'
loop_
 _atom_site_type_symbol
 _atom_site_label
 _atom_site_symmetry_multiplicity
 _atom_site_fract_x
 _atom_site_fract_y
 _atom_site_fract_z
 _atom_site_occupancy
  Ce  Ce0  1  0.500000  0.500000  0.000000  1
  Ce  Ce1  1  0.000000  0.000000  0.500000  1
  Tc  Tc2  1  0.585027  0.150853  0.500000  1
  Tc  Tc3  1  0.414973  0.849147  0.500000  1
  Tc  Tc4  1  0.085027  0.349147  0.000000  1
  Tc  Tc5  1  0.914973  0.650853  0.000000  1
  Tc  Tc6  1  0.150853  0.585027  0.500000  1
  Tc  Tc7  1  0.849147  0.414973  0.500000  1
  Tc  Tc8  1  0.349147  0.085027  0.000000  1
  Tc  Tc9  1  0.650853  0.914973  0.000000  1
  As  As10  1  0.712089  0.712089  0.500000  1
  As  As11  1  0.287911  0.287911  0.500000  1
  As  As12  1  0.212089  0.787911  0.000000  1
  As  As13  1  0.787911  0.212089  0.000000  1
