# generated using pymatgen
data_CaPr6NiI12
_symmetry_space_group_name_H-M   'P 1'
_cell_length_a   10.06211527
_cell_length_b   10.06211469
_cell_length_c   10.06211500
_cell_angle_alpha   106.94893840
_cell_angle_beta   106.94893145
_cell_angle_gamma   106.94893678
_symmetry_Int_Tables_number   1
_chemical_formula_structural   CaPr6NiI12
_chemical_formula_sum   'Ca1 Pr6 Ni1 I12'
_cell_volume   849.60422276
_cell_formula_units_Z   1
loop_
 _symmetry_equiv_pos_site_id
 _symmetry_equiv_pos_as_xyz
  1  'x, y, z'
loop_
 _atom_site_type_symbol
 _atom_site_label
 _atom_site_symmetry_multiplicity
 _atom_site_fract_x
 _atom_site_fract_y
 _atom_site_fract_z
 _atom_site_occupancy
  Ca  Ca0  1  0.500000  0.500000  0.500000  1
  Pr  Pr1  1  0.973128  0.899697  0.696886  1
  Pr  Pr2  1  0.026872  0.100303  0.303114  1
  Pr  Pr3  1  0.100303  0.303114  0.026872  1
  Pr  Pr4  1  0.303114  0.026872  0.100303  1
  Pr  Pr5  1  0.899697  0.696886  0.973128  1
  Pr  Pr6  1  0.696886  0.973128  0.899697  1
  Ni  Ni7  1  0.000000  0.000000  0.000000  1
  I  I8  1  0.536278  0.614692  0.839656  1
  I  I9  1  0.463722  0.385308  0.160344  1
  I  I10  1  0.319505  0.926832  0.773686  1
  I  I11  1  0.385308  0.160344  0.463722  1
  I  I12  1  0.926832  0.773686  0.319505  1
  I  I13  1  0.680495  0.073168  0.226314  1
  I  I14  1  0.073168  0.226314  0.680495  1
  I  I15  1  0.773686  0.319505  0.926832  1
  I  I16  1  0.226314  0.680495  0.073168  1
  I  I17  1  0.839656  0.536278  0.614692  1
  I  I18  1  0.160344  0.463722  0.385308  1
  I  I19  1  0.614692  0.839656  0.536278  1
