# generated using pymatgen
data_Nd19TmSi15Rh
_symmetry_space_group_name_H-M   'P 1'
_cell_length_a   7.78690462
_cell_length_b   7.92563905
_cell_length_c   15.12456732
_cell_angle_alpha   89.68974462
_cell_angle_beta   89.54661163
_cell_angle_gamma   89.95527000
_symmetry_Int_Tables_number   1
_chemical_formula_structural   Nd19TmSi15Rh
_chemical_formula_sum   'Nd19 Tm1 Si15 Rh1'
_cell_volume   933.38758840
_cell_formula_units_Z   1
loop_
 _symmetry_equiv_pos_site_id
 _symmetry_equiv_pos_as_xyz
  1  'x, y, z'
loop_
 _atom_site_type_symbol
 _atom_site_label
 _atom_site_symmetry_multiplicity
 _atom_site_fract_x
 _atom_site_fract_y
 _atom_site_fract_z
 _atom_site_occupancy
  Nd  Nd0  1  0.812892  0.332498  0.615153  1
  Nd  Nd1  1  0.456453  0.686098  0.897681  1
  Nd  Nd2  1  0.958084  0.814649  0.897742  1
  Nd  Nd3  1  0.185371  0.682347  0.120515  1
  Nd  Nd4  1  0.691521  0.818749  0.120970  1
  Nd  Nd5  1  0.306860  0.178412  0.877779  1
  Nd  Nd6  1  0.187040  0.678248  0.380397  1
  Nd  Nd7  1  0.043130  0.188233  0.103199  1
  Nd  Nd8  1  0.311932  0.180421  0.622305  1
  Nd  Nd9  1  0.858297  0.491089  0.260136  1
  Nd  Nd10  1  0.364363  0.006886  0.253328  1
  Nd  Nd11  1  0.535890  0.315062  0.398098  1
  Nd  Nd12  1  0.810799  0.318000  0.877895  1
  Nd  Nd13  1  0.964872  0.814672  0.599694  1
  Nd  Nd14  1  0.459176  0.686772  0.603300  1
  Nd  Nd15  1  0.041188  0.185558  0.399871  1
  Nd  Nd16  1  0.692935  0.812966  0.384284  1
  Nd  Nd17  1  0.638750  0.993842  0.748042  1
  Nd  Nd18  1  0.544210  0.311930  0.102825  1
  Tm  Tm19  1  0.137747  0.511025  0.747928  1
  Si  Si20  1  0.479161  0.602472  0.246206  1
  Si  Si21  1  0.251728  0.378271  0.247511  1
  Si  Si22  1  0.512290  0.403222  0.751074  1
  Si  Si23  1  0.631365  0.025431  0.958258  1
  Si  Si24  1  0.016068  0.104347  0.748548  1
  Si  Si25  1  0.752749  0.620794  0.750024  1
  Si  Si26  1  0.750979  0.120215  0.248770  1
  Si  Si27  1  0.364841  0.970160  0.461433  1
  Si  Si28  1  0.982072  0.901250  0.248717  1
  Si  Si29  1  0.365077  0.974590  0.041282  1
  Si  Si30  1  0.635123  0.025340  0.542278  1
  Si  Si31  1  0.133746  0.476039  0.955752  1
  Si  Si32  1  0.145389  0.476598  0.544586  1
  Si  Si33  1  0.866309  0.525655  0.038861  1
  Si  Si34  1  0.244376  0.870668  0.750596  1
  Rh  Rh35  1  0.867216  0.517491  0.454965  1
