# generated using pymatgen
data_Cs4NbSbCl12
_symmetry_space_group_name_H-M   'P 1'
_cell_length_a   13.25042197
_cell_length_b   13.25042214
_cell_length_c   13.25042119
_cell_angle_alpha   131.79378367
_cell_angle_beta   131.79378727
_cell_angle_gamma   70.55491660
_symmetry_Int_Tables_number   1
_chemical_formula_structural   Cs4NbSbCl12
_chemical_formula_sum   'Cs8 Nb2 Sb2 Cl24'
_cell_volume   1266.95812597
_cell_formula_units_Z   2
loop_
 _symmetry_equiv_pos_site_id
 _symmetry_equiv_pos_as_xyz
  1  'x, y, z'
loop_
 _atom_site_type_symbol
 _atom_site_label
 _atom_site_symmetry_multiplicity
 _atom_site_fract_x
 _atom_site_fract_y
 _atom_site_fract_z
 _atom_site_occupancy
  Cs  Cs0  1  0.375000  0.907866  0.032866  1
  Cs  Cs1  1  0.657866  0.625000  0.532866  1
  Cs  Cs2  1  0.875000  0.907866  0.532866  1
  Cs  Cs3  1  0.657866  0.125000  0.032866  1
  Cs  Cs4  1  0.875000  0.342134  0.967134  1
  Cs  Cs5  1  0.092134  0.125000  0.467134  1
  Cs  Cs6  1  0.375000  0.342134  0.467134  1
  Cs  Cs7  1  0.092134  0.625000  0.967134  1
  Nb  Nb8  1  0.500000  0.500000  0.000000  1
  Nb  Nb9  1  0.250000  0.750000  0.500000  1
  Sb  Sb10  1  0.000000  0.000000  0.000000  1
  Sb  Sb11  1  0.750000  0.250000  0.500000  1
  Cl  Cl12  1  0.722813  0.501757  0.221057  1
  Cl  Cl13  1  0.498243  0.277187  0.778943  1
  Cl  Cl14  1  0.389678  0.389678  0.000000  1
  Cl  Cl15  1  0.139678  0.639678  0.500000  1
  Cl  Cl16  1  0.360322  0.860322  0.500000  1
  Cl  Cl17  1  0.610322  0.610322  0.000000  1
  Cl  Cl18  1  0.123343  0.123343  0.000000  1
  Cl  Cl19  1  0.873343  0.373343  0.500000  1
  Cl  Cl20  1  0.626657  0.126657  0.500000  1
  Cl  Cl21  1  0.876657  0.876657  0.000000  1
  Cl  Cl22  1  0.243982  0.996796  0.247186  1
  Cl  Cl23  1  0.746796  0.999610  0.252814  1
  Cl  Cl24  1  0.498243  0.719299  0.221057  1
  Cl  Cl25  1  0.506018  0.253204  0.252814  1
  Cl  Cl26  1  0.000390  0.253204  0.747186  1
  Cl  Cl27  1  0.003204  0.250390  0.247186  1
  Cl  Cl28  1  0.003204  0.756018  0.752814  1
  Cl  Cl29  1  0.749610  0.996796  0.752814  1
  Cl  Cl30  1  0.746796  0.493982  0.747186  1
  Cl  Cl31  1  0.251757  0.530701  0.278943  1
  Cl  Cl32  1  0.251757  0.972813  0.721057  1
  Cl  Cl33  1  0.027187  0.748243  0.278943  1
  Cl  Cl34  1  0.469299  0.748243  0.721057  1
  Cl  Cl35  1  0.280701  0.501757  0.778943  1
