# generated using pymatgen
data_CeDy5(Co3P2)6
_symmetry_space_group_name_H-M   'P 1'
_cell_length_a   3.69969800
_cell_length_b   10.52481200
_cell_length_c   12.17166800
_cell_angle_alpha   90.00000000
_cell_angle_beta   90.00000000
_cell_angle_gamma   90.00000000
_symmetry_Int_Tables_number   1
_chemical_formula_structural   CeDy5(Co3P2)6
_chemical_formula_sum   'Ce1 Dy5 Co18 P12'
_cell_volume   473.94802691
_cell_formula_units_Z   1
loop_
 _symmetry_equiv_pos_site_id
 _symmetry_equiv_pos_as_xyz
  1  'x, y, z'
loop_
 _atom_site_type_symbol
 _atom_site_label
 _atom_site_symmetry_multiplicity
 _atom_site_fract_x
 _atom_site_fract_y
 _atom_site_fract_z
 _atom_site_occupancy
  Ce  Ce0  1  0.750000  0.250000  0.474377  1
  Dy  Dy1  1  0.250000  0.750000  0.522073  1
  Dy  Dy2  1  0.250000  0.932844  0.794046  1
  Dy  Dy3  1  0.250000  0.567156  0.794046  1
  Dy  Dy4  1  0.750000  0.066109  0.204674  1
  Dy  Dy5  1  0.750000  0.433891  0.204674  1
  Co  Co6  1  0.250000  0.250000  0.843090  1
  Co  Co7  1  0.750000  0.750000  0.158998  1
  Co  Co8  1  0.250000  0.250000  0.299587  1
  Co  Co9  1  0.750000  0.750000  0.703520  1
  Co  Co10  1  0.750000  0.250000  0.014042  1
  Co  Co11  1  0.250000  0.750000  0.985596  1
  Co  Co12  1  0.250000  0.416686  0.005608  1
  Co  Co13  1  0.250000  0.083314  0.005608  1
  Co  Co14  1  0.750000  0.583763  0.994736  1
  Co  Co15  1  0.750000  0.916237  0.994736  1
  Co  Co16  1  0.250000  0.453084  0.569383  1
  Co  Co17  1  0.250000  0.046916  0.569383  1
  Co  Co18  1  0.750000  0.549467  0.430346  1
  Co  Co19  1  0.750000  0.950533  0.430346  1
  Co  Co20  1  0.250000  0.869924  0.289126  1
  Co  Co21  1  0.250000  0.630076  0.289126  1
  Co  Co22  1  0.750000  0.129312  0.710480  1
  Co  Co23  1  0.750000  0.370688  0.710480  1
  P  P24  1  0.250000  0.250000  0.118097  1
  P  P25  1  0.750000  0.750000  0.882282  1
  P  P26  1  0.250000  0.250000  0.658440  1
  P  P27  1  0.750000  0.750000  0.344039  1
  P  P28  1  0.250000  0.443967  0.383316  1
  P  P29  1  0.250000  0.056033  0.383316  1
  P  P30  1  0.750000  0.561260  0.616099  1
  P  P31  1  0.750000  0.938740  0.616099  1
  P  P32  1  0.250000  0.901985  0.106127  1
  P  P33  1  0.250000  0.598015  0.106127  1
  P  P34  1  0.750000  0.096902  0.893989  1
  P  P35  1  0.750000  0.403098  0.893989  1
