# generated using pymatgen
data_ErGaCo2NiB
_symmetry_space_group_name_H-M   'P 1'
_cell_length_a   5.11999792
_cell_length_b   5.11999878
_cell_length_c   6.67089400
_cell_angle_alpha   90.00000000
_cell_angle_beta   90.00000000
_cell_angle_gamma   119.23895015
_symmetry_Int_Tables_number   1
_chemical_formula_structural   ErGaCo2NiB
_chemical_formula_sum   'Er2 Ga2 Co4 Ni2 B2'
_cell_volume   152.59279412
_cell_formula_units_Z   2
loop_
 _symmetry_equiv_pos_site_id
 _symmetry_equiv_pos_as_xyz
  1  'x, y, z'
loop_
 _atom_site_type_symbol
 _atom_site_label
 _atom_site_symmetry_multiplicity
 _atom_site_fract_x
 _atom_site_fract_y
 _atom_site_fract_z
 _atom_site_occupancy
  Er  Er0  1  0.000000  0.000000  0.000000  1
  Er  Er1  1  0.000000  0.000000  0.500000  1
  Ga  Ga2  1  0.669315  0.330685  0.000000  1
  Ga  Ga3  1  0.330685  0.669315  0.000000  1
  Co  Co4  1  0.500000  0.000000  0.704642  1
  Co  Co5  1  0.000000  0.500000  0.704642  1
  Co  Co6  1  0.500000  0.000000  0.295358  1
  Co  Co7  1  0.000000  0.500000  0.295358  1
  Ni  Ni8  1  0.500000  0.500000  0.704018  1
  Ni  Ni9  1  0.500000  0.500000  0.295982  1
  B  B10  1  0.673858  0.326142  0.500000  1
  B  B11  1  0.326142  0.673858  0.500000  1
