# generated using pymatgen
data_Hf6Ti3Nb3Sn10
_symmetry_space_group_name_H-M   'P 1'
_cell_length_a   9.56349569
_cell_length_b   9.55973176
_cell_length_c   5.80517404
_cell_angle_alpha   90.51869558
_cell_angle_beta   89.96372211
_cell_angle_gamma   119.79581819
_symmetry_Int_Tables_number   1
_chemical_formula_structural   Hf6Ti3Nb3Sn10
_chemical_formula_sum   'Hf6 Ti3 Nb3 Sn10'
_cell_volume   460.54918800
_cell_formula_units_Z   1
loop_
 _symmetry_equiv_pos_site_id
 _symmetry_equiv_pos_as_xyz
  1  'x, y, z'
loop_
 _atom_site_type_symbol
 _atom_site_label
 _atom_site_symmetry_multiplicity
 _atom_site_fract_x
 _atom_site_fract_y
 _atom_site_fract_z
 _atom_site_occupancy
  Hf  Hf0  1  0.846773  0.690886  0.749349  1
  Hf  Hf1  1  0.153902  0.844851  0.252295  1
  Hf  Hf2  1  0.689984  0.845665  0.252307  1
  Hf  Hf3  1  0.310016  0.154335  0.747693  1
  Hf  Hf4  1  0.846098  0.155149  0.747705  1
  Hf  Hf5  1  0.153227  0.309114  0.250651  1
  Ti  Ti6  1  0.500000  0.500000  0.000000  1
  Ti  Ti7  1  0.500000  0.000000  0.000000  1
  Ti  Ti8  1  0.500000  0.500000  0.500000  1
  Nb  Nb9  1  0.500000  0.000000  0.500000  1
  Nb  Nb10  1  0.000000  0.500000  0.000000  1
  Nb  Nb11  1  0.000000  0.500000  0.500000  1
  Sn  Sn12  1  0.214891  0.421162  0.750217  1
  Sn  Sn13  1  0.787511  0.208083  0.246939  1
  Sn  Sn14  1  0.422209  0.213187  0.246554  1
  Sn  Sn15  1  0.577791  0.786813  0.753446  1
  Sn  Sn16  1  0.212489  0.791917  0.753061  1
  Sn  Sn17  1  0.785109  0.578838  0.249783  1
  Sn  Sn18  1  0.666063  0.333483  0.749046  1
  Sn  Sn19  1  0.333937  0.666517  0.250954  1
  Sn  Sn20  1  0.000000  0.000000  0.500000  1
  Sn  Sn21  1  0.000000  0.000000  0.000000  1
