# generated using pymatgen
data_LiEr3(Co4P3)2
_symmetry_space_group_name_H-M   'P 1'
_cell_length_a   3.70133500
_cell_length_b   10.55027000
_cell_length_c   12.14043300
_cell_angle_alpha   90.00000000
_cell_angle_beta   90.00000000
_cell_angle_gamma   90.00000000
_symmetry_Int_Tables_number   1
_chemical_formula_structural   LiEr3(Co4P3)2
_chemical_formula_sum   'Li2 Er6 Co16 P12'
_cell_volume   474.08492372
_cell_formula_units_Z   2
loop_
 _symmetry_equiv_pos_site_id
 _symmetry_equiv_pos_as_xyz
  1  'x, y, z'
loop_
 _atom_site_type_symbol
 _atom_site_label
 _atom_site_symmetry_multiplicity
 _atom_site_fract_x
 _atom_site_fract_y
 _atom_site_fract_z
 _atom_site_occupancy
  Li  Li0  1  0.250000  0.250000  0.846539  1
  Li  Li1  1  0.750000  0.750000  0.153461  1
  Er  Er2  1  0.750000  0.250000  0.476847  1
  Er  Er3  1  0.250000  0.750000  0.523153  1
  Er  Er4  1  0.250000  0.929976  0.793896  1
  Er  Er5  1  0.250000  0.570024  0.793896  1
  Er  Er6  1  0.750000  0.070024  0.206104  1
  Er  Er7  1  0.750000  0.429976  0.206104  1
  Co  Co8  1  0.250000  0.250000  0.296002  1
  Co  Co9  1  0.750000  0.750000  0.703998  1
  Co  Co10  1  0.750000  0.250000  0.012787  1
  Co  Co11  1  0.250000  0.750000  0.987213  1
  Co  Co12  1  0.250000  0.417090  0.003131  1
  Co  Co13  1  0.250000  0.082910  0.003131  1
  Co  Co14  1  0.750000  0.582910  0.996869  1
  Co  Co15  1  0.750000  0.917090  0.996869  1
  Co  Co16  1  0.250000  0.453320  0.568760  1
  Co  Co17  1  0.250000  0.046680  0.568760  1
  Co  Co18  1  0.750000  0.546680  0.431240  1
  Co  Co19  1  0.750000  0.953320  0.431240  1
  Co  Co20  1  0.250000  0.871725  0.293581  1
  Co  Co21  1  0.250000  0.628275  0.293581  1
  Co  Co22  1  0.750000  0.128275  0.706419  1
  Co  Co23  1  0.750000  0.371725  0.706419  1
  P  P24  1  0.250000  0.250000  0.115349  1
  P  P25  1  0.750000  0.750000  0.884651  1
  P  P26  1  0.250000  0.250000  0.653293  1
  P  P27  1  0.750000  0.750000  0.346707  1
  P  P28  1  0.250000  0.439678  0.383707  1
  P  P29  1  0.250000  0.060322  0.383707  1
  P  P30  1  0.750000  0.560322  0.616293  1
  P  P31  1  0.750000  0.939678  0.616293  1
  P  P32  1  0.250000  0.907054  0.107255  1
  P  P33  1  0.250000  0.592946  0.107255  1
  P  P34  1  0.750000  0.092946  0.892745  1
  P  P35  1  0.750000  0.407054  0.892745  1
