# generated using pymatgen
data_La2Nd2Hg2RhAu3
_symmetry_space_group_name_H-M   'P 1'
_cell_length_a   8.10257600
_cell_length_b   8.10257496
_cell_length_c   3.89921900
_cell_angle_alpha   90.00000000
_cell_angle_beta   90.00000000
_cell_angle_gamma   90.45319057
_symmetry_Int_Tables_number   1
_chemical_formula_structural   La2Nd2Hg2RhAu3
_chemical_formula_sum   'La2 Nd2 Hg2 Rh1 Au3'
_cell_volume   255.98246318
_cell_formula_units_Z   1
loop_
 _symmetry_equiv_pos_site_id
 _symmetry_equiv_pos_as_xyz
  1  'x, y, z'
loop_
 _atom_site_type_symbol
 _atom_site_label
 _atom_site_symmetry_multiplicity
 _atom_site_fract_x
 _atom_site_fract_y
 _atom_site_fract_z
 _atom_site_occupancy
  La  La0  1  0.690897  0.190897  0.500000  1
  La  La1  1  0.327320  0.827320  0.500000  1
  Nd  Nd2  1  0.156044  0.320514  0.500000  1
  Nd  Nd3  1  0.820514  0.656044  0.500000  1
  Hg  Hg4  1  0.998920  0.004118  0.000000  1
  Hg  Hg5  1  0.504118  0.498920  0.000000  1
  Rh  Rh6  1  0.871242  0.371242  0.000000  1
  Au  Au7  1  0.122491  0.622491  0.000000  1
  Au  Au8  1  0.630805  0.877648  0.000000  1
  Au  Au9  1  0.377648  0.130805  0.000000  1
