# generated using pymatgen
data_La5Nd5(Bi3Br)2
_symmetry_space_group_name_H-M   'P 1'
_cell_length_a   9.73435000
_cell_length_b   9.73736012
_cell_length_c   6.81911100
_cell_angle_alpha   90.00000000
_cell_angle_beta   90.00000000
_cell_angle_gamma   119.98977455
_symmetry_Int_Tables_number   1
_chemical_formula_structural   La5Nd5(Bi3Br)2
_chemical_formula_sum   'La5 Nd5 Bi6 Br2'
_cell_volume   559.82375214
_cell_formula_units_Z   1
loop_
 _symmetry_equiv_pos_site_id
 _symmetry_equiv_pos_as_xyz
  1  'x, y, z'
loop_
 _atom_site_type_symbol
 _atom_site_label
 _atom_site_symmetry_multiplicity
 _atom_site_fract_x
 _atom_site_fract_y
 _atom_site_fract_z
 _atom_site_occupancy
  La  La0  1  0.999807  0.272304  0.250000  1
  La  La1  1  0.727503  0.727696  0.250000  1
  La  La2  1  0.272453  0.000000  0.250000  1
  La  La3  1  0.272912  0.272890  0.750000  1
  La  La4  1  0.000022  0.727110  0.750000  1
  Nd  Nd5  1  0.726275  0.000000  0.750000  1
  Nd  Nd6  1  0.333856  0.667004  0.500403  1
  Nd  Nd7  1  0.333856  0.667004  0.999597  1
  Nd  Nd8  1  0.666853  0.332996  0.500403  1
  Nd  Nd9  1  0.666853  0.332996  0.999597  1
  Bi  Bi10  1  0.386880  0.000000  0.750000  1
  Bi  Bi11  1  0.615099  0.000000  0.250000  1
  Bi  Bi12  1  0.999984  0.615053  0.250000  1
  Bi  Bi13  1  0.615672  0.616807  0.750000  1
  Bi  Bi14  1  0.998865  0.383193  0.750000  1
  Bi  Bi15  1  0.384931  0.384947  0.250000  1
  Br  Br16  1  0.999089  0.000000  0.500811  1
  Br  Br17  1  0.999089  0.000000  0.999189  1
