# generated using pymatgen
data_Sm3Gd(MoO4)6
_symmetry_space_group_name_H-M   'P 1'
_cell_length_a   7.55531709
_cell_length_b   7.55531709
_cell_length_c   10.84661715
_cell_angle_alpha   90.01330818
_cell_angle_beta   89.98669182
_cell_angle_gamma   89.98909569
_symmetry_Int_Tables_number   1
_chemical_formula_structural   Sm3Gd(MoO4)6
_chemical_formula_sum   'Sm3 Gd1 Mo6 O24'
_cell_volume   619.15540895
_cell_formula_units_Z   1
loop_
 _symmetry_equiv_pos_site_id
 _symmetry_equiv_pos_as_xyz
  1  'x, y, z'
loop_
 _atom_site_type_symbol
 _atom_site_label
 _atom_site_symmetry_multiplicity
 _atom_site_fract_x
 _atom_site_fract_y
 _atom_site_fract_z
 _atom_site_occupancy
  Sm  Sm0  1  0.688102  0.188055  0.261727  1
  Sm  Sm1  1  0.311945  0.811898  0.261727  1
  Sm  Sm2  1  0.187446  0.312554  0.738390  1
  Gd  Gd3  1  0.811195  0.688805  0.738048  1
  Mo  Mo4  1  0.707924  0.207476  0.644221  1
  Mo  Mo5  1  0.292524  0.792076  0.644221  1
  Mo  Mo6  1  0.207822  0.292178  0.356089  1
  Mo  Mo7  1  0.792238  0.707762  0.357248  1
  Mo  Mo8  1  0.500994  0.500506  0.999335  1
  Mo  Mo9  1  0.999494  0.999006  0.999335  1
  O  O10  1  0.695916  0.195693  0.480346  1
  O  O11  1  0.304307  0.804084  0.480346  1
  O  O12  1  0.195693  0.304307  0.519830  1
  O  O13  1  0.804374  0.695626  0.521185  1
  O  O14  1  0.126262  0.627784  0.690288  1
  O  O15  1  0.872216  0.373738  0.690288  1
  O  O16  1  0.627261  0.872739  0.310496  1
  O  O17  1  0.373007  0.126993  0.310009  1
  O  O18  1  0.274039  0.502348  0.297427  1
  O  O19  1  0.726115  0.497786  0.297992  1
  O  O20  1  0.002214  0.773885  0.297992  1
  O  O21  1  0.997652  0.225961  0.297427  1
  O  O22  1  0.503288  0.725721  0.702518  1
  O  O23  1  0.497396  0.273362  0.702642  1
  O  O24  1  0.226638  0.002604  0.702642  1
  O  O25  1  0.774279  0.996712  0.702518  1
  O  O26  1  0.311960  0.458107  0.904212  1
  O  O27  1  0.688672  0.543740  0.902686  1
  O  O28  1  0.956260  0.811328  0.902686  1
  O  O29  1  0.041893  0.188040  0.904212  1
  O  O30  1  0.458358  0.688285  0.095621  1
  O  O31  1  0.542918  0.312116  0.095336  1
  O  O32  1  0.187884  0.957082  0.095336  1
  O  O33  1  0.811715  0.041642  0.095621  1
