# generated using pymatgen
data_AlV3ReS8
_symmetry_space_group_name_H-M   'P 1'
_cell_length_a   6.89850648
_cell_length_b   6.89850631
_cell_length_c   6.80822331
_cell_angle_alpha   59.56035873
_cell_angle_beta   59.56036533
_cell_angle_gamma   60.00000351
_symmetry_Int_Tables_number   1
_chemical_formula_structural   AlV3ReS8
_chemical_formula_sum   'Al1 V3 Re1 S8'
_cell_volume   227.56780240
_cell_formula_units_Z   1
loop_
 _symmetry_equiv_pos_site_id
 _symmetry_equiv_pos_as_xyz
  1  'x, y, z'
loop_
 _atom_site_type_symbol
 _atom_site_label
 _atom_site_symmetry_multiplicity
 _atom_site_fract_x
 _atom_site_fract_y
 _atom_site_fract_z
 _atom_site_occupancy
  Al  Al0  1  0.000980  0.000980  0.997059  1
  V  V1  1  0.608109  0.187178  0.596603  1
  V  V2  1  0.187178  0.608109  0.596603  1
  V  V3  1  0.608109  0.608109  0.596603  1
  Re  Re4  1  0.601267  0.601267  0.196199  1
  S  S5  1  0.372757  0.372757  0.881729  1
  S  S6  1  0.365301  0.893864  0.375536  1
  S  S7  1  0.893864  0.365301  0.375536  1
  S  S8  1  0.365301  0.365301  0.375536  1
  S  S9  1  0.865117  0.865117  0.404647  1
  S  S10  1  0.861848  0.408320  0.867983  1
  S  S11  1  0.408320  0.861848  0.867983  1
  S  S12  1  0.861848  0.861848  0.867983  1
