# generated using pymatgen
data_TbTm7Re3RuC8
_symmetry_space_group_name_H-M   'P 1'
_cell_length_a   5.03293800
_cell_length_b   6.51786657
_cell_length_c   9.73751562
_cell_angle_alpha   90.29718551
_cell_angle_beta   90.00000000
_cell_angle_gamma   90.00000000
_symmetry_Int_Tables_number   1
_chemical_formula_structural   TbTm7Re3RuC8
_chemical_formula_sum   'Tb1 Tm7 Re3 Ru1 C8'
_cell_volume   319.42534436
_cell_formula_units_Z   1
loop_
 _symmetry_equiv_pos_site_id
 _symmetry_equiv_pos_as_xyz
  1  'x, y, z'
loop_
 _atom_site_type_symbol
 _atom_site_label
 _atom_site_symmetry_multiplicity
 _atom_site_fract_x
 _atom_site_fract_y
 _atom_site_fract_z
 _atom_site_occupancy
  Tb  Tb0  1  0.250000  0.531859  0.213084  1
  Tm  Tm1  1  0.750000  0.829041  0.055901  1
  Tm  Tm2  1  0.250000  0.675639  0.557660  1
  Tm  Tm3  1  0.750000  0.322427  0.442533  1
  Tm  Tm4  1  0.250000  0.177339  0.941503  1
  Tm  Tm5  1  0.750000  0.465994  0.783895  1
  Tm  Tm6  1  0.250000  0.033881  0.284047  1
  Tm  Tm7  1  0.750000  0.966393  0.718020  1
  Re  Re8  1  0.250000  0.217572  0.631237  1
  Re  Re9  1  0.750000  0.782467  0.368089  1
  Re  Re10  1  0.250000  0.719684  0.868077  1
  Ru  Ru11  1  0.750000  0.280712  0.132760  1
  C  C12  1  0.750000  0.170914  0.947278  1
  C  C13  1  0.250000  0.829934  0.053309  1
  C  C14  1  0.750000  0.673452  0.553614  1
  C  C15  1  0.250000  0.323573  0.445787  1
  C  C16  1  0.750000  0.047496  0.260578  1
  C  C17  1  0.250000  0.451035  0.759530  1
  C  C18  1  0.750000  0.549798  0.243555  1
  C  C19  1  0.250000  0.950788  0.739540  1
