# generated using pymatgen
data_Hf2Sc4Pb5
_symmetry_space_group_name_H-M   'P 1'
_cell_length_a   6.12549777
_cell_length_b   9.03822962
_cell_length_c   11.17514431
_cell_angle_alpha   113.85289151
_cell_angle_beta   105.90647463
_cell_angle_gamma   89.99999800
_symmetry_Int_Tables_number   1
_chemical_formula_structural   Hf2Sc4Pb5
_chemical_formula_sum   'Hf4 Sc8 Pb10'
_cell_volume   539.84825991
_cell_formula_units_Z   2
loop_
 _symmetry_equiv_pos_site_id
 _symmetry_equiv_pos_as_xyz
  1  'x, y, z'
loop_
 _atom_site_type_symbol
 _atom_site_label
 _atom_site_symmetry_multiplicity
 _atom_site_fract_x
 _atom_site_fract_y
 _atom_site_fract_z
 _atom_site_occupancy
  Hf  Hf0  1  0.557011  0.307011  0.614021  1
  Hf  Hf1  1  0.442989  0.692989  0.385979  1
  Hf  Hf2  1  0.942989  0.692989  0.385979  1
  Hf  Hf3  1  0.057011  0.307011  0.614021  1
  Sc  Sc4  1  0.437351  0.673718  0.874700  1
  Sc  Sc5  1  0.562649  0.326282  0.125300  1
  Sc  Sc6  1  0.937351  0.200982  0.874700  1
  Sc  Sc7  1  0.062649  0.799018  0.125300  1
  Sc  Sc8  1  0.145654  0.258343  0.291309  1
  Sc  Sc9  1  0.854346  0.741657  0.708691  1
  Sc  Sc10  1  0.645654  0.032967  0.291309  1
  Sc  Sc11  1  0.354346  0.967033  0.708691  1
  Pb  Pb12  1  0.292356  0.594852  0.584710  1
  Pb  Pb13  1  0.707644  0.405148  0.415290  1
  Pb  Pb14  1  0.792356  0.989858  0.584710  1
  Pb  Pb15  1  0.207644  0.010142  0.415290  1
  Pb  Pb16  1  0.250000  0.000000  0.000000  1
  Pb  Pb17  1  0.750000  0.000000  0.000000  1
  Pb  Pb18  1  0.071784  0.466298  0.143567  1
  Pb  Pb19  1  0.928216  0.533702  0.856433  1
  Pb  Pb20  1  0.571784  0.677269  0.143567  1
  Pb  Pb21  1  0.428216  0.322731  0.856433  1
