# generated using pymatgen
data_Cs3Rb(MnN2)4
_symmetry_space_group_name_H-M   'P 1'
_cell_length_a   7.16967540
_cell_length_b   7.16967553
_cell_length_c   8.03147569
_cell_angle_alpha   90.53023757
_cell_angle_beta   89.46976396
_cell_angle_gamma   132.47997216
_symmetry_Int_Tables_number   1
_chemical_formula_structural   Cs3Rb(MnN2)4
_chemical_formula_sum   'Cs3 Rb1 Mn4 N8'
_cell_volume   304.46830182
_cell_formula_units_Z   1
loop_
 _symmetry_equiv_pos_site_id
 _symmetry_equiv_pos_as_xyz
  1  'x, y, z'
loop_
 _atom_site_type_symbol
 _atom_site_label
 _atom_site_symmetry_multiplicity
 _atom_site_fract_x
 _atom_site_fract_y
 _atom_site_fract_z
 _atom_site_occupancy
  Cs  Cs0  1  0.834994  0.165006  0.559447  1
  Cs  Cs1  1  0.162401  0.837599  0.441144  1
  Cs  Cs2  1  0.666507  0.333493  0.055402  1
  Rb  Rb3  1  0.349226  0.650774  0.946643  1
  Mn  Mn4  1  0.532551  0.467449  0.635651  1
  Mn  Mn5  1  0.464365  0.535635  0.364332  1
  Mn  Mn6  1  0.965265  0.034735  0.136082  1
  Mn  Mn7  1  0.033279  0.966721  0.863201  1
  N  N8  1  0.905756  0.094244  0.931796  1
  N  N9  1  0.093006  0.906994  0.066722  1
  N  N10  1  0.591776  0.408224  0.429774  1
  N  N11  1  0.405101  0.594899  0.571794  1
  N  N12  1  0.311770  0.188716  0.748920  1
  N  N13  1  0.186666  0.313946  0.250087  1
  N  N14  1  0.686054  0.813334  0.250087  1
  N  N15  1  0.811284  0.688230  0.748920  1
