# generated using pymatgen
data_Pt(IBr3)2
_symmetry_space_group_name_H-M   'P 1'
_cell_length_a   8.08703500
_cell_length_b   9.15831303
_cell_length_c   16.36207170
_cell_angle_alpha   46.07235645
_cell_angle_beta   90.00000000
_cell_angle_gamma   90.00000000
_symmetry_Int_Tables_number   1
_chemical_formula_structural   Pt(IBr3)2
_chemical_formula_sum   'Pt2 I4 Br12'
_cell_volume   872.78274881
_cell_formula_units_Z   2
loop_
 _symmetry_equiv_pos_site_id
 _symmetry_equiv_pos_as_xyz
  1  'x, y, z'
loop_
 _atom_site_type_symbol
 _atom_site_label
 _atom_site_symmetry_multiplicity
 _atom_site_fract_x
 _atom_site_fract_y
 _atom_site_fract_z
 _atom_site_occupancy
  Pt  Pt0  1  0.000000  0.000000  0.000000  1
  Pt  Pt1  1  0.500000  0.000000  0.500000  1
  I  I2  1  0.311227  0.602340  0.305209  1
  I  I3  1  0.811227  0.397660  0.194791  1
  I  I4  1  0.188773  0.602340  0.805209  1
  I  I5  1  0.688773  0.397660  0.694791  1
  Br  Br6  1  0.934910  0.340847  0.930127  1
  Br  Br7  1  0.547390  0.137992  0.304704  1
  Br  Br8  1  0.452610  0.862008  0.695296  1
  Br  Br9  1  0.303009  0.062069  0.954431  1
  Br  Br10  1  0.434910  0.659153  0.569873  1
  Br  Br11  1  0.196991  0.062069  0.454431  1
  Br  Br12  1  0.065090  0.659153  0.069873  1
  Br  Br13  1  0.803009  0.937931  0.545569  1
  Br  Br14  1  0.696991  0.937931  0.045569  1
  Br  Br15  1  0.047390  0.862008  0.195296  1
  Br  Br16  1  0.952610  0.137992  0.804704  1
  Br  Br17  1  0.565090  0.340847  0.430127  1
