# generated using pymatgen
data_K2AcCl5
_symmetry_space_group_name_H-M   'P 1'
_cell_length_a   8.29915600
_cell_length_b   9.12602100
_cell_length_c   13.22128000
_cell_angle_alpha   90.00000000
_cell_angle_beta   90.00000000
_cell_angle_gamma   90.00000000
_symmetry_Int_Tables_number   1
_chemical_formula_structural   K2AcCl5
_chemical_formula_sum   'K8 Ac4 Cl20'
_cell_volume   1001.35690001
_cell_formula_units_Z   4
loop_
 _symmetry_equiv_pos_site_id
 _symmetry_equiv_pos_as_xyz
  1  'x, y, z'
loop_
 _atom_site_type_symbol
 _atom_site_label
 _atom_site_symmetry_multiplicity
 _atom_site_fract_x
 _atom_site_fract_y
 _atom_site_fract_z
 _atom_site_occupancy
  K  K0  1  0.543038  0.498096  0.827845  1
  K  K1  1  0.456962  0.501904  0.172155  1
  K  K2  1  0.043038  0.501904  0.672155  1
  K  K3  1  0.456962  0.998096  0.172155  1
  K  K4  1  0.956962  0.498096  0.327845  1
  K  K5  1  0.543038  0.001904  0.827845  1
  K  K6  1  0.956962  0.001904  0.327845  1
  K  K7  1  0.043038  0.998096  0.672155  1
  Ac  Ac8  1  0.574646  0.750000  0.505729  1
  Ac  Ac9  1  0.425354  0.250000  0.494271  1
  Ac  Ac10  1  0.074646  0.250000  0.994271  1
  Ac  Ac11  1  0.925354  0.750000  0.005729  1
  Cl  Cl12  1  0.927608  0.750000  0.509507  1
  Cl  Cl13  1  0.072392  0.250000  0.490493  1
  Cl  Cl14  1  0.427608  0.250000  0.990493  1
  Cl  Cl15  1  0.572392  0.750000  0.009507  1
  Cl  Cl16  1  0.663814  0.042025  0.583606  1
  Cl  Cl17  1  0.336186  0.957975  0.416394  1
  Cl  Cl18  1  0.163814  0.957975  0.916394  1
  Cl  Cl19  1  0.336186  0.542025  0.416394  1
  Cl  Cl20  1  0.836186  0.042025  0.083606  1
  Cl  Cl21  1  0.663814  0.457975  0.583606  1
  Cl  Cl22  1  0.836186  0.457975  0.083606  1
  Cl  Cl23  1  0.163814  0.542025  0.916394  1
  Cl  Cl24  1  0.828800  0.750000  0.792777  1
  Cl  Cl25  1  0.171200  0.250000  0.207223  1
  Cl  Cl26  1  0.328800  0.250000  0.707223  1
  Cl  Cl27  1  0.671200  0.750000  0.292777  1
  Cl  Cl28  1  0.363608  0.750000  0.680768  1
  Cl  Cl29  1  0.636392  0.250000  0.319232  1
  Cl  Cl30  1  0.863608  0.250000  0.819232  1
  Cl  Cl31  1  0.136392  0.750000  0.180768  1
