# generated using pymatgen
data_Tm6ScCo17P12
_symmetry_space_group_name_H-M   'P 1'
_cell_length_a   3.69021900
_cell_length_b   10.55116800
_cell_length_c   12.21256400
_cell_angle_alpha   90.00000000
_cell_angle_beta   90.00000000
_cell_angle_gamma   90.00000000
_symmetry_Int_Tables_number   1
_chemical_formula_structural   Tm6ScCo17P12
_chemical_formula_sum   'Tm6 Sc1 Co17 P12'
_cell_volume   475.50986505
_cell_formula_units_Z   1
loop_
 _symmetry_equiv_pos_site_id
 _symmetry_equiv_pos_as_xyz
  1  'x, y, z'
loop_
 _atom_site_type_symbol
 _atom_site_label
 _atom_site_symmetry_multiplicity
 _atom_site_fract_x
 _atom_site_fract_y
 _atom_site_fract_z
 _atom_site_occupancy
  Tm  Tm0  1  0.000000  0.500000  0.528942  1
  Tm  Tm1  1  0.500000  0.000000  0.477165  1
  Tm  Tm2  1  0.500000  0.821769  0.207493  1
  Tm  Tm3  1  0.500000  0.178231  0.207493  1
  Tm  Tm4  1  0.000000  0.682496  0.795583  1
  Tm  Tm5  1  0.000000  0.317504  0.795583  1
  Sc  Sc6  1  0.500000  0.500000  0.153868  1
  Co  Co7  1  0.000000  0.000000  0.835963  1
  Co  Co8  1  0.500000  0.500000  0.702765  1
  Co  Co9  1  0.000000  0.000000  0.296383  1
  Co  Co10  1  0.000000  0.500000  0.983897  1
  Co  Co11  1  0.500000  0.000000  0.013865  1
  Co  Co12  1  0.500000  0.326663  0.988834  1
  Co  Co13  1  0.500000  0.673337  0.988834  1
  Co  Co14  1  0.000000  0.162084  0.001468  1
  Co  Co15  1  0.000000  0.837916  0.001468  1
  Co  Co16  1  0.500000  0.294372  0.434875  1
  Co  Co17  1  0.500000  0.705628  0.434875  1
  Co  Co18  1  0.000000  0.201485  0.570462  1
  Co  Co19  1  0.000000  0.798515  0.570462  1
  Co  Co20  1  0.500000  0.879838  0.707219  1
  Co  Co21  1  0.500000  0.120162  0.707219  1
  Co  Co22  1  0.000000  0.623333  0.297140  1
  Co  Co23  1  0.000000  0.376667  0.297140  1
  P  P24  1  0.500000  0.500000  0.881731  1
  P  P25  1  0.000000  0.000000  0.117168  1
  P  P26  1  0.500000  0.500000  0.360162  1
  P  P27  1  0.000000  0.000000  0.653099  1
  P  P28  1  0.500000  0.310094  0.618545  1
  P  P29  1  0.500000  0.689906  0.618545  1
  P  P30  1  0.000000  0.187438  0.385831  1
  P  P31  1  0.000000  0.812562  0.385831  1
  P  P32  1  0.500000  0.851699  0.888033  1
  P  P33  1  0.500000  0.148301  0.888033  1
  P  P34  1  0.000000  0.663998  0.102011  1
  P  P35  1  0.000000  0.336002  0.102011  1
