# generated using pymatgen
data_Li2Ho2Si2Ge
_symmetry_space_group_name_H-M   'P 1'
_cell_length_a   9.27419207
_cell_length_b   9.27419093
_cell_length_c   6.67332700
_cell_angle_alpha   90.00000000
_cell_angle_beta   90.00000000
_cell_angle_gamma   153.50180325
_symmetry_Int_Tables_number   1
_chemical_formula_structural   Li2Ho2Si2Ge
_chemical_formula_sum   'Li4 Ho4 Si4 Ge2'
_cell_volume   256.09113605
_cell_formula_units_Z   2
loop_
 _symmetry_equiv_pos_site_id
 _symmetry_equiv_pos_as_xyz
  1  'x, y, z'
loop_
 _atom_site_type_symbol
 _atom_site_label
 _atom_site_symmetry_multiplicity
 _atom_site_fract_x
 _atom_site_fract_y
 _atom_site_fract_z
 _atom_site_occupancy
  Li  Li0  1  0.810526  0.189474  0.558580  1
  Li  Li1  1  0.189601  0.810399  0.441503  1
  Li  Li2  1  0.189601  0.810399  0.058497  1
  Li  Li3  1  0.810526  0.189474  0.941420  1
  Ho  Ho4  1  0.653827  0.346173  0.750000  1
  Ho  Ho5  1  0.551239  0.448761  0.250000  1
  Ho  Ho6  1  0.448548  0.551452  0.750000  1
  Ho  Ho7  1  0.346089  0.653911  0.250000  1
  Si  Si8  1  0.940458  0.059542  0.072004  1
  Si  Si9  1  0.059378  0.940622  0.928020  1
  Si  Si10  1  0.059378  0.940622  0.571980  1
  Si  Si11  1  0.940458  0.059542  0.427996  1
  Ge  Ge12  1  0.719764  0.280236  0.250000  1
  Ge  Ge13  1  0.280605  0.719395  0.750000  1
