# generated using pymatgen
data_Ba2EuIrO6
_symmetry_space_group_name_H-M   'P 1'
_cell_length_a   6.04488118
_cell_length_b   6.04488552
_cell_length_c   6.04488300
_cell_angle_alpha   59.99996592
_cell_angle_beta   60.00002539
_cell_angle_gamma   59.99998829
_symmetry_Int_Tables_number   1
_chemical_formula_structural   Ba2EuIrO6
_chemical_formula_sum   'Ba2 Eu1 Ir1 O6'
_cell_volume   156.18836663
_cell_formula_units_Z   1
loop_
 _symmetry_equiv_pos_site_id
 _symmetry_equiv_pos_as_xyz
  1  'x, y, z'
loop_
 _atom_site_type_symbol
 _atom_site_label
 _atom_site_symmetry_multiplicity
 _atom_site_fract_x
 _atom_site_fract_y
 _atom_site_fract_z
 _atom_site_occupancy
  Ba  Ba0  1  0.250000  0.250000  0.250000  1
  Ba  Ba1  1  0.750000  0.750000  0.750000  1
  Eu  Eu2  1  0.499999  0.499999  0.499999  1
  Ir  Ir3  1  0.000000  0.000000  0.000000  1
  O  O4  1  0.768436  0.231563  0.231563  1
  O  O5  1  0.231564  0.768435  0.231564  1
  O  O6  1  0.768437  0.768437  0.231562  1
  O  O7  1  0.231563  0.231563  0.768436  1
  O  O8  1  0.768436  0.231563  0.768436  1
  O  O9  1  0.231562  0.768437  0.768437  1
