# generated using pymatgen
data_Th3HgGe2IrRh2
_symmetry_space_group_name_H-M   'P 1'
_cell_length_a   7.38593996
_cell_length_b   7.51584256
_cell_length_c   4.02764900
_cell_angle_alpha   90.00000000
_cell_angle_beta   90.00000000
_cell_angle_gamma   120.84721253
_symmetry_Int_Tables_number   1
_chemical_formula_structural   Th3HgGe2IrRh2
_chemical_formula_sum   'Th3 Hg1 Ge2 Ir1 Rh2'
_cell_volume   191.95278632
_cell_formula_units_Z   1
loop_
 _symmetry_equiv_pos_site_id
 _symmetry_equiv_pos_as_xyz
  1  'x, y, z'
loop_
 _atom_site_type_symbol
 _atom_site_label
 _atom_site_symmetry_multiplicity
 _atom_site_fract_x
 _atom_site_fract_y
 _atom_site_fract_z
 _atom_site_occupancy
  Th  Th0  1  0.001383  0.409391  0.500000  1
  Th  Th1  1  0.586192  0.587011  0.500000  1
  Th  Th2  1  0.414301  0.999747  0.500000  1
  Hg  Hg3  1  0.998414  0.750634  0.000000  1
  Ge  Ge4  1  0.249021  0.245556  0.000000  1
  Ge  Ge5  1  0.751687  0.998592  0.000000  1
  Ir  Ir6  1  0.348579  0.661058  0.000000  1
  Rh  Rh7  1  0.650453  0.311142  0.000000  1
  Rh  Rh8  1  0.999972  0.036868  0.500000  1
