# generated using pymatgen
data_Er3ThZn4PdRh3
_symmetry_space_group_name_H-M   'P 1'
_cell_length_a   3.98701500
_cell_length_b   7.04242225
_cell_length_c   8.27664013
_cell_angle_alpha   89.89074713
_cell_angle_beta   90.00000000
_cell_angle_gamma   90.00000000
_symmetry_Int_Tables_number   1
_chemical_formula_structural   Er3ThZn4PdRh3
_chemical_formula_sum   'Er3 Th1 Zn4 Pd1 Rh3'
_cell_volume   232.39309161
_cell_formula_units_Z   1
loop_
 _symmetry_equiv_pos_site_id
 _symmetry_equiv_pos_as_xyz
  1  'x, y, z'
loop_
 _atom_site_type_symbol
 _atom_site_label
 _atom_site_symmetry_multiplicity
 _atom_site_fract_x
 _atom_site_fract_y
 _atom_site_fract_z
 _atom_site_occupancy
  Er  Er0  1  0.250000  0.544092  0.183869  1
  Er  Er1  1  0.750000  0.955056  0.687826  1
  Er  Er2  1  0.750000  0.443864  0.812940  1
  Th  Th3  1  0.250000  0.047048  0.318628  1
  Zn  Zn4  1  0.250000  0.627104  0.563837  1
  Zn  Zn5  1  0.250000  0.135643  0.932842  1
  Zn  Zn6  1  0.750000  0.383138  0.439177  1
  Zn  Zn7  1  0.750000  0.862473  0.059738  1
  Pd  Pd8  1  0.250000  0.746847  0.875581  1
  Rh  Rh9  1  0.250000  0.245765  0.621528  1
  Rh  Rh10  1  0.750000  0.759506  0.376050  1
  Rh  Rh11  1  0.750000  0.249463  0.127983  1
