# generated using pymatgen
data_HoZn4Ru
_symmetry_space_group_name_H-M   'P 1'
_cell_length_a   5.14999000
_cell_length_b   5.14998985
_cell_length_c   8.26162500
_cell_angle_alpha   90.00000000
_cell_angle_beta   90.00000000
_cell_angle_gamma   120.00000094
_symmetry_Int_Tables_number   1
_chemical_formula_structural   HoZn4Ru
_chemical_formula_sum   'Ho2 Zn8 Ru2'
_cell_volume   189.76183220
_cell_formula_units_Z   2
loop_
 _symmetry_equiv_pos_site_id
 _symmetry_equiv_pos_as_xyz
  1  'x, y, z'
loop_
 _atom_site_type_symbol
 _atom_site_label
 _atom_site_symmetry_multiplicity
 _atom_site_fract_x
 _atom_site_fract_y
 _atom_site_fract_z
 _atom_site_occupancy
  Ho  Ho0  1  0.666667  0.333333  0.432460  1
  Ho  Ho1  1  0.333333  0.666667  0.932460  1
  Zn  Zn2  1  0.000000  0.000000  0.003242  1
  Zn  Zn3  1  0.000000  0.000000  0.503242  1
  Zn  Zn4  1  0.171360  0.342718  0.249799  1
  Zn  Zn5  1  0.828640  0.171360  0.749799  1
  Zn  Zn6  1  0.342718  0.171360  0.749799  1
  Zn  Zn7  1  0.657282  0.828640  0.249799  1
  Zn  Zn8  1  0.171360  0.828640  0.249799  1
  Zn  Zn9  1  0.828640  0.657282  0.749799  1
  Ru  Ru10  1  0.333333  0.666667  0.564900  1
  Ru  Ru11  1  0.666667  0.333333  0.064900  1
