# generated using pymatgen
data_Pr3Nb(P3Ir4)2
_symmetry_space_group_name_H-M   'P 1'
_cell_length_a   4.04440300
_cell_length_b   11.31117100
_cell_length_c   13.02456200
_cell_angle_alpha   90.00000000
_cell_angle_beta   90.00000000
_cell_angle_gamma   90.00000000
_symmetry_Int_Tables_number   1
_chemical_formula_structural   Pr3Nb(P3Ir4)2
_chemical_formula_sum   'Pr6 Nb2 P12 Ir16'
_cell_volume   595.83377723
_cell_formula_units_Z   2
loop_
 _symmetry_equiv_pos_site_id
 _symmetry_equiv_pos_as_xyz
  1  'x, y, z'
loop_
 _atom_site_type_symbol
 _atom_site_label
 _atom_site_symmetry_multiplicity
 _atom_site_fract_x
 _atom_site_fract_y
 _atom_site_fract_z
 _atom_site_occupancy
  Pr  Pr0  1  0.000000  0.500000  0.518971  1
  Pr  Pr1  1  0.500000  0.000000  0.481029  1
  Pr  Pr2  1  0.500000  0.818336  0.203431  1
  Pr  Pr3  1  0.500000  0.181664  0.203431  1
  Pr  Pr4  1  0.000000  0.681664  0.796569  1
  Pr  Pr5  1  0.000000  0.318336  0.796569  1
  Nb  Nb6  1  0.500000  0.500000  0.155816  1
  Nb  Nb7  1  0.000000  0.000000  0.844184  1
  P  P8  1  0.500000  0.500000  0.879089  1
  P  P9  1  0.000000  0.000000  0.120911  1
  P  P10  1  0.500000  0.500000  0.344230  1
  P  P11  1  0.000000  0.000000  0.655770  1
  P  P12  1  0.500000  0.310819  0.616061  1
  P  P13  1  0.500000  0.689181  0.616061  1
  P  P14  1  0.000000  0.189181  0.383939  1
  P  P15  1  0.000000  0.810819  0.383939  1
  P  P16  1  0.500000  0.846051  0.888524  1
  P  P17  1  0.500000  0.153949  0.888524  1
  P  P18  1  0.000000  0.653949  0.111476  1
  P  P19  1  0.000000  0.346051  0.111476  1
  Ir  Ir20  1  0.500000  0.500000  0.698243  1
  Ir  Ir21  1  0.000000  0.000000  0.301757  1
  Ir  Ir22  1  0.000000  0.500000  0.991693  1
  Ir  Ir23  1  0.500000  0.000000  0.008307  1
  Ir  Ir24  1  0.500000  0.331153  0.983954  1
  Ir  Ir25  1  0.500000  0.668847  0.983954  1
  Ir  Ir26  1  0.000000  0.168847  0.016046  1
  Ir  Ir27  1  0.000000  0.831153  0.016046  1
  Ir  Ir28  1  0.500000  0.290166  0.430425  1
  Ir  Ir29  1  0.500000  0.709834  0.430425  1
  Ir  Ir30  1  0.000000  0.209834  0.569575  1
  Ir  Ir31  1  0.000000  0.790166  0.569575  1
  Ir  Ir32  1  0.500000  0.874740  0.709802  1
  Ir  Ir33  1  0.500000  0.125260  0.709802  1
  Ir  Ir34  1  0.000000  0.625260  0.290198  1
  Ir  Ir35  1  0.000000  0.374740  0.290198  1
