# generated using pymatgen
data_CaNi(As4Ru)3
_symmetry_space_group_name_H-M   'P 1'
_cell_length_a   7.39976529
_cell_length_b   7.45765440
_cell_length_c   7.39976488
_cell_angle_alpha   109.62977057
_cell_angle_beta   109.31220509
_cell_angle_gamma   109.62977905
_symmetry_Int_Tables_number   1
_chemical_formula_structural   CaNi(As4Ru)3
_chemical_formula_sum   'Ca1 Ni1 As12 Ru3'
_cell_volume   313.73477045
_cell_formula_units_Z   1
loop_
 _symmetry_equiv_pos_site_id
 _symmetry_equiv_pos_as_xyz
  1  'x, y, z'
loop_
 _atom_site_type_symbol
 _atom_site_label
 _atom_site_symmetry_multiplicity
 _atom_site_fract_x
 _atom_site_fract_y
 _atom_site_fract_z
 _atom_site_occupancy
  Ca  Ca0  1  0.000000  0.000000  0.000000  1
  Ni  Ni1  1  0.000000  0.500000  0.000000  1
  As  As2  1  0.850767  0.652808  0.502628  1
  As  As3  1  0.149233  0.347192  0.497372  1
  As  As4  1  0.147935  0.650255  0.802409  1
  As  As5  1  0.852065  0.349745  0.197591  1
  As  As6  1  0.654474  0.502321  0.852065  1
  As  As7  1  0.345526  0.497679  0.147935  1
  As  As8  1  0.651861  0.802041  0.149233  1
  As  As9  1  0.348139  0.197959  0.850767  1
  As  As10  1  0.502628  0.849821  0.651861  1
  As  As11  1  0.497372  0.150179  0.348139  1
  As  As12  1  0.197591  0.847847  0.345526  1
  As  As13  1  0.802409  0.152153  0.654474  1
  Ru  Ru14  1  0.500000  0.500000  0.500000  1
  Ru  Ru15  1  0.500000  0.000000  0.000000  1
  Ru  Ru16  1  0.000000  0.000000  0.500000  1
