# generated using pymatgen
data_YbEu3(AlIr)4
_symmetry_space_group_name_H-M   'P 1'
_cell_length_a   4.21901600
_cell_length_b   7.26253129
_cell_length_c   7.98839942
_cell_angle_alpha   90.11620715
_cell_angle_beta   90.00000000
_cell_angle_gamma   90.00000000
_symmetry_Int_Tables_number   1
_chemical_formula_structural   YbEu3(AlIr)4
_chemical_formula_sum   'Yb1 Eu3 Al4 Ir4'
_cell_volume   244.76993190
_cell_formula_units_Z   1
loop_
 _symmetry_equiv_pos_site_id
 _symmetry_equiv_pos_as_xyz
  1  'x, y, z'
loop_
 _atom_site_type_symbol
 _atom_site_label
 _atom_site_symmetry_multiplicity
 _atom_site_fract_x
 _atom_site_fract_y
 _atom_site_fract_z
 _atom_site_occupancy
  Yb  Yb0  1  0.750000  0.474809  0.822701  1
  Eu  Eu1  1  0.250000  0.026076  0.323078  1
  Eu  Eu2  1  0.250000  0.523006  0.173548  1
  Eu  Eu3  1  0.750000  0.975492  0.678073  1
  Al  Al4  1  0.250000  0.142760  0.935008  1
  Al  Al5  1  0.250000  0.639895  0.565892  1
  Al  Al6  1  0.750000  0.857746  0.061423  1
  Al  Al7  1  0.750000  0.360728  0.440744  1
  Ir  Ir8  1  0.250000  0.291483  0.620457  1
  Ir  Ir9  1  0.250000  0.786983  0.882173  1
  Ir  Ir10  1  0.750000  0.709964  0.383033  1
  Ir  Ir11  1  0.750000  0.211056  0.113871  1
