# generated using pymatgen
data_Pr5Y(WO7)2
_symmetry_space_group_name_H-M   'P 1'
_cell_length_a   6.66946675
_cell_length_b   6.70072387
_cell_length_c   7.74820502
_cell_angle_alpha   89.94804359
_cell_angle_beta   89.99240252
_cell_angle_gamma   109.17743589
_symmetry_Int_Tables_number   1
_chemical_formula_structural   Pr5Y(WO7)2
_chemical_formula_sum   'Pr5 Y1 W2 O14'
_cell_volume   327.05315814
_cell_formula_units_Z   1
loop_
 _symmetry_equiv_pos_site_id
 _symmetry_equiv_pos_as_xyz
  1  'x, y, z'
loop_
 _atom_site_type_symbol
 _atom_site_label
 _atom_site_symmetry_multiplicity
 _atom_site_fract_x
 _atom_site_fract_y
 _atom_site_fract_z
 _atom_site_occupancy
  Pr  Pr0  1  0.496770  0.496882  0.247946  1
  Pr  Pr1  1  0.483234  0.478750  0.751185  1
  Pr  Pr2  1  0.997536  0.467802  0.498225  1
  Pr  Pr3  1  0.536389  0.996908  0.501788  1
  Pr  Pr4  1  0.998256  0.535557  0.998434  1
  Y  Y5  1  0.470121  0.997477  0.002112  1
  W  W6  1  0.001540  0.000490  0.247860  1
  W  W7  1  0.001041  0.000996  0.752354  1
  O  O8  1  0.080564  0.316691  0.221671  1
  O  O9  1  0.694945  0.951453  0.788556  1
  O  O10  1  0.922371  0.688218  0.721989  1
  O  O11  1  0.313524  0.061576  0.273733  1
  O  O12  1  0.689854  0.939325  0.215211  1
  O  O13  1  0.082732  0.319576  0.775708  1
  O  O14  1  0.317483  0.070366  0.729141  1
  O  O15  1  0.918876  0.684205  0.275204  1
  O  O16  1  0.368779  0.630399  0.500698  1
  O  O17  1  0.623000  0.353773  0.001387  1
  O  O18  1  0.368268  0.647367  0.998159  1
  O  O19  1  0.628959  0.362089  0.498854  1
  O  O20  1  0.936346  0.064833  0.499827  1
  O  O21  1  0.069411  0.935266  0.999957  1
