# generated using pymatgen
data_TbY5Al24(Ir3Ru)2
_symmetry_space_group_name_H-M   'P 1'
_cell_length_a   8.83135800
_cell_length_b   8.83040456
_cell_length_c   9.49428600
_cell_angle_alpha   90.00000000
_cell_angle_beta   90.00000000
_cell_angle_gamma   120.00356426
_symmetry_Int_Tables_number   1
_chemical_formula_structural   TbY5Al24(Ir3Ru)2
_chemical_formula_sum   'Tb1 Y5 Al24 Ir6 Ru2'
_cell_volume   641.18807093
_cell_formula_units_Z   1
loop_
 _symmetry_equiv_pos_site_id
 _symmetry_equiv_pos_as_xyz
  1  'x, y, z'
loop_
 _atom_site_type_symbol
 _atom_site_label
 _atom_site_symmetry_multiplicity
 _atom_site_fract_x
 _atom_site_fract_y
 _atom_site_fract_z
 _atom_site_occupancy
  Tb  Tb0  1  0.192027  0.384056  0.750000  1
  Y  Y1  1  0.384061  0.192037  0.250000  1
  Y  Y2  1  0.807977  0.192037  0.250000  1
  Y  Y3  1  0.807975  0.615950  0.250000  1
  Y  Y4  1  0.615792  0.807851  0.750000  1
  Y  Y5  1  0.192057  0.807851  0.750000  1
  Al  Al6  1  0.437674  0.875346  0.250000  1
  Al  Al7  1  0.124621  0.562314  0.250000  1
  Al  Al8  1  0.437694  0.562314  0.250000  1
  Al  Al9  1  0.562313  0.124628  0.750000  1
  Al  Al10  1  0.875331  0.437708  0.750000  1
  Al  Al11  1  0.562376  0.437708  0.750000  1
  Al  Al12  1  0.163070  0.836901  0.423905  1
  Al  Al13  1  0.163081  0.326163  0.423893  1
  Al  Al14  1  0.673831  0.836901  0.423905  1
  Al  Al15  1  0.836921  0.163091  0.576074  1
  Al  Al16  1  0.836914  0.673827  0.576060  1
  Al  Al17  1  0.326171  0.163091  0.576074  1
  Al  Al18  1  0.836921  0.163091  0.923926  1
  Al  Al19  1  0.836914  0.673827  0.923940  1
  Al  Al20  1  0.326171  0.163091  0.923926  1
  Al  Al21  1  0.163070  0.836901  0.076095  1
  Al  Al22  1  0.163081  0.326163  0.076107  1
  Al  Al23  1  0.673831  0.836901  0.076095  1
  Al  Al24  1  0.333366  0.666734  0.528855  1
  Al  Al25  1  0.666679  0.333356  0.471299  1
  Al  Al26  1  0.666679  0.333356  0.028701  1
  Al  Al27  1  0.333366  0.666734  0.971145  1
  Al  Al28  1  0.000010  0.000020  0.250000  1
  Al  Al29  1  0.000045  0.000090  0.750000  1
  Ir  Ir30  1  0.500040  0.000080  0.499936  1
  Ir  Ir31  1  0.999931  0.499988  0.499964  1
  Ir  Ir32  1  0.500056  0.499988  0.499964  1
  Ir  Ir33  1  0.500040  0.000080  0.000064  1
  Ir  Ir34  1  0.999931  0.499988  0.000036  1
  Ir  Ir35  1  0.500056  0.499988  0.000036  1
  Ru  Ru36  1  0.999963  0.999925  0.499883  1
  Ru  Ru37  1  0.999963  0.999925  0.000117  1
