# generated using pymatgen
data_DyEr2Hf(Al3Ir)6
_symmetry_space_group_name_H-M   'P 1'
_cell_length_a   7.52758703
_cell_length_b   7.51851345
_cell_length_c   9.39290600
_cell_angle_alpha   90.00000000
_cell_angle_beta   90.00000000
_cell_angle_gamma   119.59272885
_symmetry_Int_Tables_number   1
_chemical_formula_structural   DyEr2Hf(Al3Ir)6
_chemical_formula_sum   'Dy1 Er2 Hf1 Al18 Ir6'
_cell_volume   462.25977194
_cell_formula_units_Z   1
loop_
 _symmetry_equiv_pos_site_id
 _symmetry_equiv_pos_as_xyz
  1  'x, y, z'
loop_
 _atom_site_type_symbol
 _atom_site_label
 _atom_site_symmetry_multiplicity
 _atom_site_fract_x
 _atom_site_fract_y
 _atom_site_fract_z
 _atom_site_occupancy
  Dy  Dy0  1  0.329079  0.006507  0.250000  1
  Er  Er1  1  0.005677  0.327451  0.250000  1
  Er  Er2  1  0.671238  0.995853  0.750000  1
  Hf  Hf3  1  0.997659  0.673277  0.750000  1
  Al  Al4  1  0.126114  0.123601  0.750000  1
  Al  Al5  1  0.870849  0.869525  0.250000  1
  Al  Al6  1  0.000049  0.337760  0.579551  1
  Al  Al7  1  0.999158  0.664754  0.429147  1
  Al  Al8  1  0.999158  0.664754  0.070853  1
  Al  Al9  1  0.332750  0.998265  0.920237  1
  Al  Al10  1  0.000049  0.337760  0.920449  1
  Al  Al11  1  0.664736  0.998305  0.074543  1
  Al  Al12  1  0.664736  0.998305  0.425457  1
  Al  Al13  1  0.332750  0.998265  0.579763  1
  Al  Al14  1  0.333544  0.333749  0.050619  1
  Al  Al15  1  0.668767  0.666873  0.942833  1
  Al  Al16  1  0.668767  0.666873  0.557167  1
  Al  Al17  1  0.333544  0.333749  0.449381  1
  Al  Al18  1  0.336006  0.549219  0.750000  1
  Al  Al19  1  0.661077  0.452429  0.250000  1
  Al  Al20  1  0.555090  0.344769  0.750000  1
  Al  Al21  1  0.450778  0.659436  0.250000  1
  Ir  Ir22  1  0.672585  0.328207  0.501271  1
  Ir  Ir23  1  0.327576  0.672232  0.502033  1
  Ir  Ir24  1  0.327576  0.672232  0.997967  1
  Ir  Ir25  1  0.672585  0.328207  0.998729  1
  Ir  Ir26  1  0.999052  0.998821  0.501512  1
  Ir  Ir27  1  0.999052  0.998821  0.998488  1
