# generated using pymatgen
data_Dy3Er2Zr3(Co4As3)4
_symmetry_space_group_name_H-M   'P 1'
_cell_length_a   12.76132503
_cell_length_b   12.76132597
_cell_length_c   3.83893700
_cell_angle_alpha   90.00000000
_cell_angle_beta   90.00000000
_cell_angle_gamma   119.99173830
_symmetry_Int_Tables_number   1
_chemical_formula_structural   Dy3Er2Zr3(Co4As3)4
_chemical_formula_sum   'Dy3 Er2 Zr3 Co16 As12'
_cell_volume   541.46368993
_cell_formula_units_Z   1
loop_
 _symmetry_equiv_pos_site_id
 _symmetry_equiv_pos_as_xyz
  1  'x, y, z'
loop_
 _atom_site_type_symbol
 _atom_site_label
 _atom_site_symmetry_multiplicity
 _atom_site_fract_x
 _atom_site_fract_y
 _atom_site_fract_z
 _atom_site_occupancy
  Dy  Dy0  1  0.182518  0.182518  0.500000  1
  Dy  Dy1  1  0.333338  0.666669  0.000000  1
  Dy  Dy2  1  0.666669  0.333338  0.000000  1
  Er  Er3  1  0.817413  0.999993  0.500000  1
  Er  Er4  1  0.999993  0.817413  0.500000  1
  Zr  Zr5  1  0.561180  0.561180  0.000000  1
  Zr  Zr6  1  0.439118  0.999984  0.000000  1
  Zr  Zr7  1  0.999984  0.439118  0.000000  1
  Co  Co8  1  0.720378  0.720378  0.500000  1
  Co  Co9  1  0.279710  0.999796  0.500000  1
  Co  Co10  1  0.999796  0.279710  0.500000  1
  Co  Co11  1  0.177727  0.373490  0.000000  1
  Co  Co12  1  0.626838  0.804566  0.000000  1
  Co  Co13  1  0.195405  0.822174  0.000000  1
  Co  Co14  1  0.804566  0.626838  0.000000  1
  Co  Co15  1  0.822174  0.195405  0.000000  1
  Co  Co16  1  0.373490  0.177727  0.000000  1
  Co  Co17  1  0.357397  0.479839  0.500000  1
  Co  Co18  1  0.520288  0.877598  0.500000  1
  Co  Co19  1  0.122392  0.642658  0.500000  1
  Co  Co20  1  0.877598  0.520288  0.500000  1
  Co  Co21  1  0.642658  0.122392  0.500000  1
  Co  Co22  1  0.479839  0.357397  0.500000  1
  Co  Co23  1  0.999666  0.999666  0.000000  1
  As  As24  1  0.823075  0.823075  0.000000  1
  As  As25  1  0.176699  0.999524  0.000000  1
  As  As26  1  0.999524  0.176699  0.000000  1
  As  As27  1  0.173465  0.481534  0.500000  1
  As  As28  1  0.518463  0.691962  0.500000  1
  As  As29  1  0.308101  0.826489  0.500000  1
  As  As30  1  0.691962  0.518463  0.500000  1
  As  As31  1  0.826489  0.308101  0.500000  1
  As  As32  1  0.481534  0.173465  0.500000  1
  As  As33  1  0.351959  0.351959  0.000000  1
  As  As34  1  0.648623  0.999972  0.000000  1
  As  As35  1  0.999972  0.648623  0.000000  1
