# generated using pymatgen
data_YLuMn4Fe8P7
_symmetry_space_group_name_H-M   'P 1'
_cell_length_a   9.15808575
_cell_length_b   9.04455028
_cell_length_c   3.59712200
_cell_angle_alpha   90.00000000
_cell_angle_beta   90.00000000
_cell_angle_gamma   120.20082956
_symmetry_Int_Tables_number   1
_chemical_formula_structural   YLuMn4Fe8P7
_chemical_formula_sum   'Y1 Lu1 Mn4 Fe8 P7'
_cell_volume   257.51055929
_cell_formula_units_Z   1
loop_
 _symmetry_equiv_pos_site_id
 _symmetry_equiv_pos_as_xyz
  1  'x, y, z'
loop_
 _atom_site_type_symbol
 _atom_site_label
 _atom_site_symmetry_multiplicity
 _atom_site_fract_x
 _atom_site_fract_y
 _atom_site_fract_z
 _atom_site_occupancy
  Y  Y0  1  0.994650  0.997956  0.500000  1
  Lu  Lu1  1  0.673416  0.336114  0.000000  1
  Mn  Mn2  1  0.382169  0.277093  0.500000  1
  Mn  Mn3  1  0.557813  0.769254  0.500000  1
  Mn  Mn4  1  0.226581  0.790909  0.500000  1
  Mn  Mn5  1  0.209801  0.440127  0.500000  1
  Fe  Fe6  1  0.759446  0.722932  0.000000  1
  Fe  Fe7  1  0.282339  0.044413  0.000000  1
  Fe  Fe8  1  0.960307  0.240888  0.000000  1
  Fe  Fe9  1  0.487145  0.939043  0.000000  1
  Fe  Fe10  1  0.061600  0.548303  0.000000  1
  Fe  Fe11  1  0.452836  0.507699  0.000000  1
  Fe  Fe12  1  0.720120  0.103816  0.500000  1
  Fe  Fe13  1  0.898225  0.615196  0.500000  1
  P  P14  1  0.462395  0.073226  0.500000  1
  P  P15  1  0.925775  0.378919  0.500000  1
  P  P16  1  0.628125  0.550789  0.500000  1
  P  P17  1  0.743549  0.967560  0.000000  1
  P  P18  1  0.030257  0.775863  0.000000  1
  P  P19  1  0.210117  0.255505  0.000000  1
  P  P20  1  0.333332  0.664396  0.000000  1
