# generated using pymatgen
data_Lu20SnBi6Sb5
_symmetry_space_group_name_H-M   'P 1'
_cell_length_a   8.01973915
_cell_length_b   9.29360060
_cell_length_c   11.69994149
_cell_angle_alpha   89.99361948
_cell_angle_beta   89.97786000
_cell_angle_gamma   90.06770536
_symmetry_Int_Tables_number   1
_chemical_formula_structural   Lu20SnBi6Sb5
_chemical_formula_sum   'Lu20 Sn1 Bi6 Sb5'
_cell_volume   872.02231539
_cell_formula_units_Z   1
loop_
 _symmetry_equiv_pos_site_id
 _symmetry_equiv_pos_as_xyz
  1  'x, y, z'
loop_
 _atom_site_type_symbol
 _atom_site_label
 _atom_site_symmetry_multiplicity
 _atom_site_fract_x
 _atom_site_fract_y
 _atom_site_fract_z
 _atom_site_occupancy
  Lu  Lu0  1  0.191032  0.564476  0.443954  1
  Lu  Lu1  1  0.689809  0.934867  0.058408  1
  Lu  Lu2  1  0.808821  0.064952  0.558802  1
  Lu  Lu3  1  0.308832  0.436337  0.937806  1
  Lu  Lu4  1  0.808783  0.436558  0.561271  1
  Lu  Lu5  1  0.309897  0.065516  0.941446  1
  Lu  Lu6  1  0.190434  0.934273  0.442239  1
  Lu  Lu7  1  0.691733  0.564739  0.056906  1
  Lu  Lu8  1  0.025580  0.747339  0.986730  1
  Lu  Lu9  1  0.526302  0.747582  0.512293  1
  Lu  Lu10  1  0.973195  0.252469  0.008293  1
  Lu  Lu11  1  0.471723  0.252240  0.491168  1
  Lu  Lu12  1  0.185709  0.742780  0.717465  1
  Lu  Lu13  1  0.686350  0.742919  0.783007  1
  Lu  Lu14  1  0.815197  0.250001  0.283408  1
  Lu  Lu15  1  0.315394  0.250295  0.216500  1
  Lu  Lu16  1  0.853668  0.749763  0.285284  1
  Lu  Lu17  1  0.353273  0.750050  0.215444  1
  Lu  Lu18  1  0.146698  0.256634  0.715932  1
  Lu  Lu19  1  0.646022  0.256801  0.784187  1
  Sn  Sn20  1  0.934857  0.496716  0.825550  1
  Bi  Bi21  1  0.434066  0.002740  0.675498  1
  Bi  Bi22  1  0.065980  0.996675  0.174884  1
  Bi  Bi23  1  0.565855  0.503272  0.324434  1
  Bi  Bi24  1  0.066332  0.503526  0.175992  1
  Bi  Bi25  1  0.565816  0.996871  0.326127  1
  Bi  Bi26  1  0.934179  0.002951  0.824160  1
  Sb  Sb27  1  0.435506  0.496233  0.672451  1
  Sb  Sb28  1  0.905096  0.750607  0.542111  1
  Sb  Sb29  1  0.405330  0.750558  0.958107  1
  Sb  Sb30  1  0.093832  0.249512  0.458267  1
  Sb  Sb31  1  0.594701  0.249748  0.041876  1
