# generated using pymatgen
data_CeEr(Tm4Bi3)2
_symmetry_space_group_name_H-M   'P 1'
_cell_length_a   8.23408300
_cell_length_b   9.45568300
_cell_length_c   11.98227100
_cell_angle_alpha   90.00000000
_cell_angle_beta   90.00000000
_cell_angle_gamma   90.00000000
_symmetry_Int_Tables_number   1
_chemical_formula_structural   CeEr(Tm4Bi3)2
_chemical_formula_sum   'Ce2 Er2 Tm16 Bi12'
_cell_volume   932.92618366
_cell_formula_units_Z   2
loop_
 _symmetry_equiv_pos_site_id
 _symmetry_equiv_pos_as_xyz
  1  'x, y, z'
loop_
 _atom_site_type_symbol
 _atom_site_label
 _atom_site_symmetry_multiplicity
 _atom_site_fract_x
 _atom_site_fract_y
 _atom_site_fract_z
 _atom_site_occupancy
  Ce  Ce0  1  0.316450  0.250000  0.220946  1
  Ce  Ce1  1  0.816450  0.250000  0.279054  1
  Er  Er2  1  0.686782  0.750000  0.783494  1
  Er  Er3  1  0.186782  0.750000  0.716506  1
  Tm  Tm4  1  0.351272  0.750000  0.216749  1
  Tm  Tm5  1  0.851272  0.750000  0.283251  1
  Tm  Tm6  1  0.646447  0.250000  0.780768  1
  Tm  Tm7  1  0.146447  0.250000  0.719232  1
  Tm  Tm8  1  0.691972  0.566657  0.059410  1
  Tm  Tm9  1  0.191972  0.933343  0.440590  1
  Tm  Tm10  1  0.307141  0.065841  0.938704  1
  Tm  Tm11  1  0.807141  0.434159  0.561296  1
  Tm  Tm12  1  0.307141  0.434159  0.938704  1
  Tm  Tm13  1  0.807141  0.065841  0.561296  1
  Tm  Tm14  1  0.691972  0.933343  0.059410  1
  Tm  Tm15  1  0.191972  0.566657  0.440590  1
  Tm  Tm16  1  0.477073  0.250000  0.489669  1
  Tm  Tm17  1  0.977073  0.250000  0.010331  1
  Tm  Tm18  1  0.523151  0.750000  0.512710  1
  Tm  Tm19  1  0.023151  0.750000  0.987290  1
  Bi  Bi20  1  0.404668  0.750000  0.958038  1
  Bi  Bi21  1  0.904668  0.750000  0.541962  1
  Bi  Bi22  1  0.596927  0.250000  0.036777  1
  Bi  Bi23  1  0.096927  0.250000  0.463223  1
  Bi  Bi24  1  0.565075  0.990720  0.328040  1
  Bi  Bi25  1  0.065075  0.509280  0.171960  1
  Bi  Bi26  1  0.434427  0.496367  0.674414  1
  Bi  Bi27  1  0.934427  0.003633  0.825586  1
  Bi  Bi28  1  0.434427  0.003633  0.674414  1
  Bi  Bi29  1  0.934427  0.496367  0.825586  1
  Bi  Bi30  1  0.565075  0.509280  0.328040  1
  Bi  Bi31  1  0.065075  0.990720  0.171960  1
