# generated using pymatgen
data_Pr2TcB5Os2
_symmetry_space_group_name_H-M   'P 1'
_cell_length_a   5.74634007
_cell_length_b   5.74633993
_cell_length_c   8.21696464
_cell_angle_alpha   123.46431634
_cell_angle_beta   123.46431352
_cell_angle_gamma   41.76304243
_symmetry_Int_Tables_number   1
_chemical_formula_structural   Pr2TcB5Os2
_chemical_formula_sum   'Pr2 Tc1 B5 Os2'
_cell_volume   145.88855183
_cell_formula_units_Z   1
loop_
 _symmetry_equiv_pos_site_id
 _symmetry_equiv_pos_as_xyz
  1  'x, y, z'
loop_
 _atom_site_type_symbol
 _atom_site_label
 _atom_site_symmetry_multiplicity
 _atom_site_fract_x
 _atom_site_fract_y
 _atom_site_fract_z
 _atom_site_occupancy
  Pr  Pr0  1  0.060122  0.603335  0.239357  1
  Pr  Pr1  1  0.396665  0.939878  0.760643  1
  Tc  Tc2  1  0.012778  0.987221  0.000000  1
  B  B3  1  0.526777  0.516592  0.117509  1
  B  B4  1  0.374689  0.908964  0.312277  1
  B  B5  1  0.732166  0.267835  0.500001  1
  B  B6  1  0.091036  0.625311  0.687723  1
  B  B7  1  0.483407  0.473223  0.882490  1
  Os  Os8  1  0.875082  0.386450  0.403248  1
  Os  Os9  1  0.613551  0.124919  0.596751  1
