# generated using pymatgen
data_DyYSi5IrRh2
_symmetry_space_group_name_H-M   'P 1'
_cell_length_a   8.10163095
_cell_length_b   8.10257533
_cell_length_c   5.72143988
_cell_angle_alpha   71.15929471
_cell_angle_beta   71.15128196
_cell_angle_gamma   93.38267877
_symmetry_Int_Tables_number   1
_chemical_formula_structural   DyYSi5IrRh2
_chemical_formula_sum   'Dy2 Y2 Si10 Ir2 Rh4'
_cell_volume   330.75296229
_cell_formula_units_Z   2
loop_
 _symmetry_equiv_pos_site_id
 _symmetry_equiv_pos_as_xyz
  1  'x, y, z'
loop_
 _atom_site_type_symbol
 _atom_site_label
 _atom_site_symmetry_multiplicity
 _atom_site_fract_x
 _atom_site_fract_y
 _atom_site_fract_z
 _atom_site_occupancy
  Dy  Dy0  1  0.867151  0.598816  0.759704  1
  Dy  Dy1  1  0.133963  0.402319  0.237466  1
  Y  Y2  1  0.401015  0.132835  0.740451  1
  Y  Y3  1  0.597841  0.866002  0.262401  1
  Si  Si4  1  0.774168  0.226195  0.749864  1
  Si  Si5  1  0.224475  0.775172  0.250140  1
  Si  Si6  1  0.513835  0.486251  0.750109  1
  Si  Si7  1  0.486252  0.513704  0.249863  1
  Si  Si8  1  0.209832  0.789855  0.750213  1
  Si  Si9  1  0.791627  0.208685  0.249792  1
  Si  Si10  1  0.265077  0.056520  0.340758  1
  Si  Si11  1  0.733059  0.940599  0.663610  1
  Si  Si12  1  0.943771  0.734819  0.159207  1
  Si  Si13  1  0.059100  0.267105  0.836389  1
  Ir  Ir14  1  0.538768  0.258607  0.129662  1
  Ir  Ir15  1  0.741642  0.461417  0.370050  1
  Rh  Rh16  1  0.460013  0.738916  0.873701  1
  Rh  Rh17  1  0.260750  0.539810  0.626628  1
  Rh  Rh18  1  0.997014  0.003027  0.250071  1
  Rh  Rh19  1  0.000649  0.999343  0.749918  1
