# generated using pymatgen
data_RbLi6PtO6
_symmetry_space_group_name_H-M   'P 1'
_cell_length_a   5.38210190
_cell_length_b   5.38209345
_cell_length_c   5.38210669
_cell_angle_alpha   101.24474932
_cell_angle_beta   101.24446700
_cell_angle_gamma   101.24490225
_symmetry_Int_Tables_number   1
_chemical_formula_structural   RbLi6PtO6
_chemical_formula_sum   'Rb1 Li6 Pt1 O6'
_cell_volume   145.50850536
_cell_formula_units_Z   1
loop_
 _symmetry_equiv_pos_site_id
 _symmetry_equiv_pos_as_xyz
  1  'x, y, z'
loop_
 _atom_site_type_symbol
 _atom_site_label
 _atom_site_symmetry_multiplicity
 _atom_site_fract_x
 _atom_site_fract_y
 _atom_site_fract_z
 _atom_site_occupancy
  Rb  Rb0  1  0.500000  0.500000  0.500000  1
  Li  Li1  1  0.661164  0.338838  0.000000  1
  Li  Li2  1  0.338838  0.661164  0.000000  1
  Li  Li3  1  0.661163  0.999998  0.338837  1
  Li  Li4  1  0.999998  0.661163  0.338837  1
  Li  Li5  1  0.338837  0.000002  0.661164  1
  Li  Li6  1  0.000002  0.338837  0.661164  1
  Pt  Pt7  1  0.000000  0.000000  0.000000  1
  O  O8  1  0.726413  0.726414  0.084979  1
  O  O9  1  0.915021  0.273586  0.273585  1
  O  O10  1  0.273588  0.915022  0.273586  1
  O  O11  1  0.726412  0.084978  0.726414  1
  O  O12  1  0.084979  0.726414  0.726415  1
  O  O13  1  0.273587  0.273586  0.915021  1
