# generated using pymatgen
data_TbSb12(OsRu)2
_symmetry_space_group_name_H-M   'P 1'
_cell_length_a   8.14931195
_cell_length_b   8.13526718
_cell_length_c   8.14910415
_cell_angle_alpha   109.48548880
_cell_angle_beta   109.53507562
_cell_angle_gamma   109.46076274
_symmetry_Int_Tables_number   1
_chemical_formula_structural   TbSb12(OsRu)2
_chemical_formula_sum   'Tb1 Sb12 Os2 Ru2'
_cell_volume   415.54436499
_cell_formula_units_Z   1
loop_
 _symmetry_equiv_pos_site_id
 _symmetry_equiv_pos_as_xyz
  1  'x, y, z'
loop_
 _atom_site_type_symbol
 _atom_site_label
 _atom_site_symmetry_multiplicity
 _atom_site_fract_x
 _atom_site_fract_y
 _atom_site_fract_z
 _atom_site_occupancy
  Tb  Tb0  1  0.000000  0.000000  0.000000  1
  Sb  Sb1  1  0.337108  0.180037  0.842920  1
  Sb  Sb2  1  0.662891  0.819963  0.157080  1
  Sb  Sb3  1  0.661826  0.505285  0.843471  1
  Sb  Sb4  1  0.338174  0.494715  0.156529  1
  Sb  Sb5  1  0.180813  0.844072  0.338353  1
  Sb  Sb6  1  0.819187  0.155928  0.661648  1
  Sb  Sb7  1  0.505728  0.844086  0.663264  1
  Sb  Sb8  1  0.494272  0.155914  0.336737  1
  Sb  Sb9  1  0.842645  0.337118  0.180792  1
  Sb  Sb10  1  0.157355  0.662881  0.819208  1
  Sb  Sb11  1  0.843648  0.662860  0.505511  1
  Sb  Sb12  1  0.156352  0.337140  0.494489  1
  Os  Os13  1  0.000000  0.500000  0.000000  1
  Os  Os14  1  0.500000  0.500000  0.500000  1
  Ru  Ru15  1  0.000000  0.000000  0.500000  1
  Ru  Ru16  1  0.500000  0.000000  0.000000  1
