# generated using pymatgen
data_Ho5Er5(GeB4)4
_symmetry_space_group_name_H-M   'P 1'
_cell_length_a   7.21614801
_cell_length_b   7.21614401
_cell_length_c   8.07755100
_cell_angle_alpha   89.99863613
_cell_angle_beta   89.99662057
_cell_angle_gamma   89.99402914
_symmetry_Int_Tables_number   1
_chemical_formula_structural   Ho5Er5(GeB4)4
_chemical_formula_sum   'Ho5 Er5 Ge4 B16'
_cell_volume   420.62039803
_cell_formula_units_Z   1
loop_
 _symmetry_equiv_pos_site_id
 _symmetry_equiv_pos_as_xyz
  1  'x, y, z'
loop_
 _atom_site_type_symbol
 _atom_site_label
 _atom_site_symmetry_multiplicity
 _atom_site_fract_x
 _atom_site_fract_y
 _atom_site_fract_z
 _atom_site_occupancy
  Ho  Ho0  1  0.680232  0.180268  0.220998  1
  Ho  Ho1  1  0.319782  0.819814  0.778903  1
  Ho  Ho2  1  0.319750  0.819783  0.221080  1
  Ho  Ho3  1  0.819824  0.680165  0.220960  1
  Ho  Ho4  1  0.819782  0.680186  0.779056  1
  Er  Er5  1  0.680235  0.180261  0.779593  1
  Er  Er6  1  0.180235  0.319738  0.779824  1
  Er  Er7  1  0.180202  0.319784  0.220184  1
  Er  Er8  1  0.000025  0.000294  0.500134  1
  Er  Er9  1  0.499835  0.499763  0.500118  1
  Ge  Ge10  1  0.120891  0.620554  0.500043  1
  Ge  Ge11  1  0.879281  0.378942  0.500164  1
  Ge  Ge12  1  0.379068  0.121110  0.500127  1
  Ge  Ge13  1  0.620789  0.879380  0.500144  1
  B  B14  1  0.172356  0.039803  0.999943  1
  B  B15  1  0.827739  0.960738  0.999863  1
  B  B16  1  0.960733  0.172547  0.999918  1
  B  B17  1  0.327557  0.539074  0.999954  1
  B  B18  1  0.039410  0.827759  0.999945  1
  B  B19  1  0.672337  0.460399  0.999910  1
  B  B20  1  0.539428  0.672160  0.999930  1
  B  B21  1  0.460369  0.327540  0.999870  1
  B  B22  1  0.090107  0.589800  0.999978  1
  B  B23  1  0.910165  0.409858  0.999987  1
  B  B24  1  0.409913  0.090237  0.999826  1
  B  B25  1  0.590173  0.909978  0.999829  1
  B  B26  1  0.000165  0.000285  0.163571  1
  B  B27  1  0.999945  0.000404  0.836284  1
  B  B28  1  0.499887  0.499557  0.836289  1
  B  B29  1  0.499788  0.499819  0.163573  1
