# generated using pymatgen
data_TbY(B4Mo)2
_symmetry_space_group_name_H-M   'P 1'
_cell_length_a   3.63184900
_cell_length_b   6.04526911
_cell_length_c   11.67737622
_cell_angle_alpha   90.02222133
_cell_angle_beta   90.00000000
_cell_angle_gamma   90.00000000
_symmetry_Int_Tables_number   1
_chemical_formula_structural   TbY(B4Mo)2
_chemical_formula_sum   'Tb2 Y2 B16 Mo4'
_cell_volume   256.38266785
_cell_formula_units_Z   2
loop_
 _symmetry_equiv_pos_site_id
 _symmetry_equiv_pos_as_xyz
  1  'x, y, z'
loop_
 _atom_site_type_symbol
 _atom_site_label
 _atom_site_symmetry_multiplicity
 _atom_site_fract_x
 _atom_site_fract_y
 _atom_site_fract_z
 _atom_site_occupancy
  Tb  Tb0  1  0.000000  0.126912  0.149870  1
  Tb  Tb1  1  0.000000  0.873088  0.850130  1
  Y  Y2  1  0.000000  0.626911  0.350190  1
  Y  Y3  1  0.000000  0.373089  0.649810  1
  B  B4  1  0.500000  0.023734  0.693387  1
  B  B5  1  0.500000  0.976266  0.306613  1
  B  B6  1  0.500000  0.523714  0.806569  1
  B  B7  1  0.500000  0.476286  0.193431  1
  B  B8  1  0.500000  0.113897  0.547430  1
  B  B9  1  0.500000  0.886103  0.452570  1
  B  B10  1  0.500000  0.613823  0.952602  1
  B  B11  1  0.500000  0.386177  0.047398  1
  B  B12  1  0.500000  0.286728  0.313905  1
  B  B13  1  0.500000  0.713272  0.686095  1
  B  B14  1  0.500000  0.786672  0.186108  1
  B  B15  1  0.500000  0.213328  0.813892  1
  B  B16  1  0.500000  0.366559  0.468111  1
  B  B17  1  0.500000  0.633441  0.531889  1
  B  B18  1  0.500000  0.866383  0.031909  1
  B  B19  1  0.500000  0.133617  0.968091  1
  Mo  Mo20  1  0.000000  0.129600  0.416488  1
  Mo  Mo21  1  0.000000  0.870400  0.583512  1
  Mo  Mo22  1  0.000000  0.629633  0.083566  1
  Mo  Mo23  1  0.000000  0.370367  0.916434  1
