# generated using pymatgen
data_Er2Al3(Ga2Ir)3
_symmetry_space_group_name_H-M   'P 1'
_cell_length_a   7.55450421
_cell_length_b   7.55094248
_cell_length_c   9.50384201
_cell_angle_alpha   90.17227957
_cell_angle_beta   89.92853605
_cell_angle_gamma   119.76314187
_symmetry_Int_Tables_number   1
_chemical_formula_structural   Er2Al3(Ga2Ir)3
_chemical_formula_sum   'Er4 Al6 Ga12 Ir6'
_cell_volume   470.61589968
_cell_formula_units_Z   2
loop_
 _symmetry_equiv_pos_site_id
 _symmetry_equiv_pos_as_xyz
  1  'x, y, z'
loop_
 _atom_site_type_symbol
 _atom_site_label
 _atom_site_symmetry_multiplicity
 _atom_site_fract_x
 _atom_site_fract_y
 _atom_site_fract_z
 _atom_site_occupancy
  Er  Er0  1  0.998832  0.667114  0.251146  1
  Er  Er1  1  0.001168  0.332886  0.748854  1
  Er  Er2  1  0.671841  0.000766  0.254885  1
  Er  Er3  1  0.328159  0.999234  0.745115  1
  Al  Al4  1  0.664289  0.998051  0.928064  1
  Al  Al5  1  0.335711  0.001949  0.071936  1
  Al  Al6  1  0.332256  0.332266  0.554106  1
  Al  Al7  1  0.667744  0.667734  0.445894  1
  Al  Al8  1  0.668251  0.667667  0.055534  1
  Al  Al9  1  0.331749  0.332333  0.944466  1
  Ga  Ga10  1  0.129015  0.125643  0.249304  1
  Ga  Ga11  1  0.870985  0.874357  0.750696  1
  Ga  Ga12  1  0.998642  0.333663  0.078538  1
  Ga  Ga13  1  0.001358  0.666337  0.921462  1
  Ga  Ga14  1  0.998453  0.664481  0.580139  1
  Ga  Ga15  1  0.335167  0.999660  0.417622  1
  Ga  Ga16  1  0.001547  0.335519  0.419861  1
  Ga  Ga17  1  0.664833  0.000340  0.582378  1
  Ga  Ga18  1  0.345220  0.550100  0.249887  1
  Ga  Ga19  1  0.654780  0.449900  0.750113  1
  Ga  Ga20  1  0.547778  0.343835  0.249008  1
  Ga  Ga21  1  0.452222  0.656165  0.750992  1
  Ir  Ir22  1  0.667738  0.325809  0.999112  1
  Ir  Ir23  1  0.332262  0.674191  0.000888  1
  Ir  Ir24  1  0.330151  0.669874  0.500820  1
  Ir  Ir25  1  0.669849  0.330126  0.499180  1
  Ir  Ir26  1  0.000000  0.000000  0.000000  1
  Ir  Ir27  1  0.000000  0.000000  0.500000  1
