# generated using pymatgen
data_Er10Bi3Os2Pb
_symmetry_space_group_name_H-M   'P 1'
_cell_length_a   7.87531484
_cell_length_b   9.00865358
_cell_length_c   12.40683955
_cell_angle_alpha   90.02070666
_cell_angle_beta   90.16798774
_cell_angle_gamma   90.03560416
_symmetry_Int_Tables_number   1
_chemical_formula_structural   Er10Bi3Os2Pb
_chemical_formula_sum   'Er20 Bi6 Os4 Pb2'
_cell_volume   880.21141887
_cell_formula_units_Z   2
loop_
 _symmetry_equiv_pos_site_id
 _symmetry_equiv_pos_as_xyz
  1  'x, y, z'
loop_
 _atom_site_type_symbol
 _atom_site_label
 _atom_site_symmetry_multiplicity
 _atom_site_fract_x
 _atom_site_fract_y
 _atom_site_fract_z
 _atom_site_occupancy
  Er  Er0  1  0.663684  0.752201  0.708762  1
  Er  Er1  1  0.336316  0.247799  0.291238  1
  Er  Er2  1  0.159469  0.247864  0.790499  1
  Er  Er3  1  0.840531  0.752136  0.209501  1
  Er  Er4  1  0.125175  0.751874  0.810488  1
  Er  Er5  1  0.874825  0.248126  0.189512  1
  Er  Er6  1  0.629899  0.248265  0.688402  1
  Er  Er7  1  0.370101  0.751735  0.311598  1
  Er  Er8  1  0.556526  0.749893  0.995426  1
  Er  Er9  1  0.443474  0.250107  0.004574  1
  Er  Er10  1  0.055658  0.246236  0.504855  1
  Er  Er11  1  0.944342  0.753764  0.495145  1
  Er  Er12  1  0.827505  0.459269  0.933261  1
  Er  Er13  1  0.172495  0.540731  0.066739  1
  Er  Er14  1  0.328173  0.539921  0.567203  1
  Er  Er15  1  0.171172  0.960139  0.069014  1
  Er  Er16  1  0.671827  0.460079  0.432797  1
  Er  Er17  1  0.828828  0.039861  0.930986  1
  Er  Er18  1  0.674678  0.039491  0.433893  1
  Er  Er19  1  0.325322  0.960509  0.566107  1
  Bi  Bi20  1  0.435700  0.994486  0.828437  1
  Bi  Bi21  1  0.063927  0.504945  0.328395  1
  Bi  Bi22  1  0.564300  0.005514  0.171563  1
  Bi  Bi23  1  0.936073  0.495055  0.671605  1
  Bi  Bi24  1  0.564001  0.494913  0.172818  1
  Bi  Bi25  1  0.435999  0.505087  0.827182  1
  Os  Os26  1  0.925687  0.749407  0.992551  1
  Os  Os27  1  0.074313  0.250593  0.007449  1
  Os  Os28  1  0.427322  0.250364  0.507644  1
  Os  Os29  1  0.572678  0.749636  0.492356  1
  Pb  Pb30  1  0.935614  0.004451  0.672599  1
  Pb  Pb31  1  0.064386  0.995549  0.327401  1
