# generated using pymatgen
data_Tb3Ce2TcSb2
_symmetry_space_group_name_H-M   'P 1'
_cell_length_a   8.19598000
_cell_length_b   8.72452900
_cell_length_c   12.52710000
_cell_angle_alpha   90.00000000
_cell_angle_beta   90.00000000
_cell_angle_gamma   90.00000000
_symmetry_Int_Tables_number   1
_chemical_formula_structural   Tb3Ce2TcSb2
_chemical_formula_sum   'Tb12 Ce8 Tc4 Sb8'
_cell_volume   895.76362928
_cell_formula_units_Z   4
loop_
 _symmetry_equiv_pos_site_id
 _symmetry_equiv_pos_as_xyz
  1  'x, y, z'
loop_
 _atom_site_type_symbol
 _atom_site_label
 _atom_site_symmetry_multiplicity
 _atom_site_fract_x
 _atom_site_fract_y
 _atom_site_fract_z
 _atom_site_occupancy
  Tb  Tb0  1  0.168071  0.750000  0.212609  1
  Tb  Tb1  1  0.668071  0.250000  0.287391  1
  Tb  Tb2  1  0.831929  0.250000  0.787391  1
  Tb  Tb3  1  0.331929  0.750000  0.712609  1
  Tb  Tb4  1  0.461170  0.750000  0.000358  1
  Tb  Tb5  1  0.961170  0.250000  0.499642  1
  Tb  Tb6  1  0.538830  0.250000  0.999642  1
  Tb  Tb7  1  0.038830  0.750000  0.500358  1
  Tb  Tb8  1  0.634738  0.750000  0.291979  1
  Tb  Tb9  1  0.134738  0.250000  0.208021  1
  Tb  Tb10  1  0.365262  0.250000  0.708021  1
  Tb  Tb11  1  0.865262  0.750000  0.791979  1
  Ce  Ce12  1  0.828512  0.965914  0.060400  1
  Ce  Ce13  1  0.328512  0.034086  0.439600  1
  Ce  Ce14  1  0.171488  0.465914  0.939600  1
  Ce  Ce15  1  0.671488  0.534086  0.560400  1
  Ce  Ce16  1  0.171488  0.034086  0.939600  1
  Ce  Ce17  1  0.671488  0.965914  0.560400  1
  Ce  Ce18  1  0.828512  0.534086  0.060400  1
  Ce  Ce19  1  0.328512  0.465914  0.439600  1
  Tc  Tc20  1  0.411845  0.750000  0.477841  1
  Tc  Tc21  1  0.911845  0.250000  0.022159  1
  Tc  Tc22  1  0.588155  0.250000  0.522159  1
  Tc  Tc23  1  0.088155  0.750000  0.977841  1
  Sb  Sb24  1  0.930480  0.989581  0.327557  1
  Sb  Sb25  1  0.430480  0.010419  0.172443  1
  Sb  Sb26  1  0.069520  0.489581  0.672443  1
  Sb  Sb27  1  0.569520  0.510419  0.827557  1
  Sb  Sb28  1  0.069520  0.010419  0.672443  1
  Sb  Sb29  1  0.569520  0.989581  0.827557  1
  Sb  Sb30  1  0.930480  0.510419  0.327557  1
  Sb  Sb31  1  0.430480  0.489581  0.172443  1
