# generated using pymatgen
data_Nd8ZnCu2Si12Pd
_symmetry_space_group_name_H-M   'P 1'
_cell_length_a   8.17068700
_cell_length_b   8.17068718
_cell_length_c   8.52638200
_cell_angle_alpha   90.00000000
_cell_angle_beta   90.00000000
_cell_angle_gamma   119.99999524
_symmetry_Int_Tables_number   1
_chemical_formula_structural   Nd8ZnCu2Si12Pd
_chemical_formula_sum   'Nd8 Zn1 Cu2 Si12 Pd1'
_cell_volume   492.96103857
_cell_formula_units_Z   1
loop_
 _symmetry_equiv_pos_site_id
 _symmetry_equiv_pos_as_xyz
  1  'x, y, z'
loop_
 _atom_site_type_symbol
 _atom_site_label
 _atom_site_symmetry_multiplicity
 _atom_site_fract_x
 _atom_site_fract_y
 _atom_site_fract_z
 _atom_site_occupancy
  Nd  Nd0  1  0.498912  0.501088  0.749918  1
  Nd  Nd1  1  0.498971  0.501029  0.250053  1
  Nd  Nd2  1  0.002177  0.501088  0.749918  1
  Nd  Nd3  1  0.002058  0.501029  0.250053  1
  Nd  Nd4  1  0.498912  0.997823  0.749918  1
  Nd  Nd5  1  0.498971  0.997942  0.250053  1
  Nd  Nd6  1  0.000000  0.000000  0.749714  1
  Nd  Nd7  1  0.000000  0.000000  0.250272  1
  Zn  Zn8  1  0.666667  0.333333  0.999813  1
  Cu  Cu9  1  0.333333  0.666667  0.000745  1
  Cu  Cu10  1  0.333333  0.666667  0.499585  1
  Si  Si11  1  0.834892  0.165108  0.000051  1
  Si  Si12  1  0.170119  0.829881  0.999935  1
  Si  Si13  1  0.330216  0.165108  0.000051  1
  Si  Si14  1  0.168233  0.831767  0.499897  1
  Si  Si15  1  0.659762  0.829881  0.999935  1
  Si  Si16  1  0.833586  0.166414  0.500098  1
  Si  Si17  1  0.834892  0.669784  0.000051  1
  Si  Si18  1  0.663532  0.831767  0.499897  1
  Si  Si19  1  0.170119  0.340238  0.999935  1
  Si  Si20  1  0.332828  0.166414  0.500098  1
  Si  Si21  1  0.168233  0.336468  0.499897  1
  Si  Si22  1  0.833586  0.667172  0.500098  1
  Pd  Pd23  1  0.666667  0.333333  0.500011  1
