# generated using pymatgen
data_Dy5Si3P9Ru5Rh14
_symmetry_space_group_name_H-M   'P 1'
_cell_length_a   12.70914498
_cell_length_b   12.69078457
_cell_length_c   3.94486500
_cell_angle_alpha   90.00000000
_cell_angle_beta   90.00000000
_cell_angle_gamma   119.91133390
_symmetry_Int_Tables_number   1
_chemical_formula_structural   Dy5Si3P9Ru5Rh14
_chemical_formula_sum   'Dy5 Si3 P9 Ru5 Rh14'
_cell_volume   551.51193384
_cell_formula_units_Z   1
loop_
 _symmetry_equiv_pos_site_id
 _symmetry_equiv_pos_as_xyz
  1  'x, y, z'
loop_
 _atom_site_type_symbol
 _atom_site_label
 _atom_site_symmetry_multiplicity
 _atom_site_fract_x
 _atom_site_fract_y
 _atom_site_fract_z
 _atom_site_occupancy
  Dy  Dy0  1  0.666354  0.331113  0.000000  1
  Dy  Dy1  1  0.333486  0.667802  0.000000  1
  Dy  Dy2  1  0.814370  0.001342  0.500000  1
  Dy  Dy3  1  0.182725  0.184683  0.500000  1
  Dy  Dy4  1  0.999467  0.814791  0.500000  1
  Si  Si5  1  0.632199  0.999451  0.000000  1
  Si  Si6  1  0.368522  0.368184  0.000000  1
  Si  Si7  1  0.000129  0.631090  0.000000  1
  P  P8  1  0.689828  0.520078  0.500000  1
  P  P9  1  0.828123  0.305639  0.500000  1
  P  P10  1  0.314782  0.834662  0.500000  1
  P  P11  1  0.520856  0.691047  0.500000  1
  P  P12  1  0.180136  0.000465  0.000000  1
  P  P13  1  0.818854  0.818260  0.000000  1
  P  P14  1  0.996986  0.181866  0.000000  1
  P  P15  1  0.478294  0.167542  0.500000  1
  P  P16  1  0.168245  0.480380  0.500000  1
  Ru  Ru17  1  0.509972  0.869992  0.500000  1
  Ru  Ru18  1  0.716910  0.716138  0.500000  1
  Ru  Ru19  1  0.001562  0.285048  0.500000  1
  Ru  Ru20  1  0.819883  0.199353  0.000000  1
  Ru  Ru21  1  0.281878  0.000419  0.500000  1
  Rh  Rh22  1  0.624479  0.803434  0.000000  1
  Rh  Rh23  1  0.182329  0.376061  0.000000  1
  Rh  Rh24  1  0.375760  0.180309  0.000000  1
  Rh  Rh25  1  0.194331  0.820455  0.000000  1
  Rh  Rh26  1  0.804249  0.622853  0.000000  1
  Rh  Rh27  1  0.870976  0.506959  0.500000  1
  Rh  Rh28  1  0.491083  0.361171  0.500000  1
  Rh  Rh29  1  0.634201  0.125191  0.500000  1
  Rh  Rh30  1  0.131253  0.641827  0.500000  1
  Rh  Rh31  1  0.362016  0.491436  0.500000  1
  Rh  Rh32  1  0.999040  0.000571  0.000000  1
  Rh  Rh33  1  0.446129  0.998505  0.000000  1
  Rh  Rh34  1  0.553433  0.551693  0.000000  1
  Rh  Rh35  1  0.007164  0.450187  0.000000  1
