# generated using pymatgen
data_Pr8Er12Si15Ru
_symmetry_space_group_name_H-M   'P 1'
_cell_length_a   7.47194134
_cell_length_b   7.78606566
_cell_length_c   14.80214500
_cell_angle_alpha   90.00000000
_cell_angle_beta   90.00000000
_cell_angle_gamma   90.39337534
_symmetry_Int_Tables_number   1
_chemical_formula_structural   Pr8Er12Si15Ru
_chemical_formula_sum   'Pr8 Er12 Si15 Ru1'
_cell_volume   861.12447651
_cell_formula_units_Z   1
loop_
 _symmetry_equiv_pos_site_id
 _symmetry_equiv_pos_as_xyz
  1  'x, y, z'
loop_
 _atom_site_type_symbol
 _atom_site_label
 _atom_site_symmetry_multiplicity
 _atom_site_fract_x
 _atom_site_fract_y
 _atom_site_fract_z
 _atom_site_occupancy
  Pr  Pr0  1  0.019095  0.177613  0.401456  1
  Pr  Pr1  1  0.518500  0.325219  0.402750  1
  Pr  Pr2  1  0.475932  0.681204  0.902401  1
  Pr  Pr3  1  0.475932  0.681204  0.597599  1
  Pr  Pr4  1  0.982946  0.822012  0.598729  1
  Pr  Pr5  1  0.982946  0.822012  0.901271  1
  Pr  Pr6  1  0.518500  0.325219  0.097250  1
  Pr  Pr7  1  0.019095  0.177613  0.098544  1
  Er  Er8  1  0.320216  0.172544  0.625549  1
  Er  Er9  1  0.677255  0.820063  0.377066  1
  Er  Er10  1  0.642938  0.982982  0.750000  1
  Er  Er11  1  0.176402  0.679195  0.376481  1
  Er  Er12  1  0.825598  0.321785  0.876497  1
  Er  Er13  1  0.825598  0.321785  0.623503  1
  Er  Er14  1  0.844667  0.491815  0.250000  1
  Er  Er15  1  0.344637  0.012090  0.250000  1
  Er  Er16  1  0.320216  0.172544  0.874451  1
  Er  Er17  1  0.176402  0.679195  0.123519  1
  Er  Er18  1  0.677255  0.820063  0.122934  1
  Er  Er19  1  0.162994  0.517829  0.750000  1
  Si  Si20  1  0.469581  0.615516  0.250000  1
  Si  Si21  1  0.025506  0.109078  0.750000  1
  Si  Si22  1  0.534118  0.385104  0.750000  1
  Si  Si23  1  0.149064  0.465683  0.538043  1
  Si  Si24  1  0.970357  0.885534  0.250000  1
  Si  Si25  1  0.724235  0.120436  0.250000  1
  Si  Si26  1  0.854122  0.529529  0.040149  1
  Si  Si27  1  0.354690  0.970059  0.040324  1
  Si  Si28  1  0.149064  0.465683  0.961957  1
  Si  Si29  1  0.650171  0.036346  0.537404  1
  Si  Si30  1  0.354690  0.970059  0.459676  1
  Si  Si31  1  0.854122  0.529529  0.459851  1
  Si  Si32  1  0.772257  0.613402  0.750000  1
  Si  Si33  1  0.226277  0.380875  0.250000  1
  Si  Si34  1  0.650171  0.036346  0.962596  1
  Ru  Ru35  1  0.274446  0.882837  0.750000  1
