# generated using pymatgen
data_Tb2Nb3P7(Ir2Rh)3
_symmetry_space_group_name_H-M   'P 1'
_cell_length_a   3.98096900
_cell_length_b   9.63619515
_cell_length_c   9.63542819
_cell_angle_alpha   119.99094850
_cell_angle_beta   90.00010757
_cell_angle_gamma   90.00013116
_symmetry_Int_Tables_number   1
_chemical_formula_structural   Tb2Nb3P7(Ir2Rh)3
_chemical_formula_sum   'Tb2 Nb3 P7 Ir6 Rh3'
_cell_volume   320.13682797
_cell_formula_units_Z   1
loop_
 _symmetry_equiv_pos_site_id
 _symmetry_equiv_pos_as_xyz
  1  'x, y, z'
loop_
 _atom_site_type_symbol
 _atom_site_label
 _atom_site_symmetry_multiplicity
 _atom_site_fract_x
 _atom_site_fract_y
 _atom_site_fract_z
 _atom_site_occupancy
  Tb  Tb0  1  0.261421  0.666678  0.333399  1
  Tb  Tb1  1  0.762133  0.333294  0.666618  1
  Nb  Nb2  1  0.762055  0.094183  0.871851  1
  Nb  Nb3  1  0.762057  0.127989  0.222253  1
  Nb  Nb4  1  0.762065  0.777626  0.905671  1
  P  P5  1  0.262393  0.000018  0.999986  1
  P  P6  1  0.761683  0.876743  0.590598  1
  P  P7  1  0.761676  0.409511  0.286116  1
  P  P8  1  0.761676  0.713880  0.123426  1
  P  P9  1  0.262220  0.118294  0.417345  1
  P  P10  1  0.262234  0.582764  0.701062  1
  P  P11  1  0.262222  0.299011  0.881710  1
  Ir  Ir12  1  0.261859  0.886403  0.162628  1
  Ir  Ir13  1  0.261855  0.837307  0.723733  1
  Ir  Ir14  1  0.261850  0.276248  0.113638  1
  Ir  Ir15  1  0.261774  0.367209  0.440076  1
  Ir  Ir16  1  0.261782  0.559895  0.927081  1
  Ir  Ir17  1  0.261784  0.072896  0.632916  1
  Rh  Rh18  1  0.761751  0.610288  0.553815  1
  Rh  Rh19  1  0.761754  0.446109  0.056334  1
  Rh  Rh20  1  0.761756  0.943659  0.389742  1
