# generated using pymatgen
data_Cs4Li2TiInP4
_symmetry_space_group_name_H-M   'P 1'
_cell_length_a   12.98605567
_cell_length_b   12.98605583
_cell_length_c   12.98605655
_cell_angle_alpha   152.21249163
_cell_angle_beta   39.43097100
_cell_angle_gamma   152.58659916
_symmetry_Int_Tables_number   1
_chemical_formula_structural   Cs4Li2TiInP4
_chemical_formula_sum   'Cs4 Li2 Ti1 In1 P4'
_cell_volume   469.19005326
_cell_formula_units_Z   1
loop_
 _symmetry_equiv_pos_site_id
 _symmetry_equiv_pos_as_xyz
  1  'x, y, z'
loop_
 _atom_site_type_symbol
 _atom_site_label
 _atom_site_symmetry_multiplicity
 _atom_site_fract_x
 _atom_site_fract_y
 _atom_site_fract_z
 _atom_site_occupancy
  Cs  Cs0  1  0.368276  0.765171  0.125065  1
  Cs  Cs1  1  0.131724  0.256789  0.396896  1
  Cs  Cs2  1  0.859892  0.734828  0.603104  1
  Cs  Cs3  1  0.640108  0.243211  0.874935  1
  Li  Li4  1  0.750001  0.250001  0.500000  1
  Li  Li5  1  0.250001  0.750000  0.500000  1
  Ti  Ti6  1  0.250001  0.250001  0.000000  1
  In  In7  1  0.750000  0.750000  0.000000  1
  P  P8  1  0.966313  0.253235  0.175459  1
  P  P9  1  0.533687  0.709145  0.286922  1
  P  P10  1  0.422224  0.246765  0.713078  1
  P  P11  1  0.077776  0.790853  0.824541  1
