# generated using pymatgen
data_Yb11Sm(CuSi)12
_symmetry_space_group_name_H-M   'P 1'
_cell_length_a   4.26267700
_cell_length_b   7.23896228
_cell_length_c   20.80939562
_cell_angle_alpha   89.96146700
_cell_angle_beta   90.00000000
_cell_angle_gamma   90.00000000
_symmetry_Int_Tables_number   1
_chemical_formula_structural   Yb11Sm(CuSi)12
_chemical_formula_sum   'Yb11 Sm1 Cu12 Si12'
_cell_volume   642.12282548
_cell_formula_units_Z   1
loop_
 _symmetry_equiv_pos_site_id
 _symmetry_equiv_pos_as_xyz
  1  'x, y, z'
loop_
 _atom_site_type_symbol
 _atom_site_label
 _atom_site_symmetry_multiplicity
 _atom_site_fract_x
 _atom_site_fract_y
 _atom_site_fract_z
 _atom_site_occupancy
  Yb  Yb0  1  0.250000  0.711790  0.004485  1
  Yb  Yb1  1  0.750000  0.289400  0.998482  1
  Yb  Yb2  1  0.750000  0.209070  0.496884  1
  Yb  Yb3  1  0.250000  0.791893  0.502428  1
  Yb  Yb4  1  0.250000  0.797917  0.166767  1
  Yb  Yb5  1  0.750000  0.208032  0.833006  1
  Yb  Yb6  1  0.750000  0.298569  0.333582  1
  Yb  Yb7  1  0.250000  0.702490  0.664756  1
  Yb  Yb8  1  0.250000  0.702003  0.333021  1
  Yb  Yb9  1  0.750000  0.295360  0.665427  1
  Yb  Yb10  1  0.750000  0.202039  0.167331  1
  Sm  Sm11  1  0.250000  0.797605  0.833066  1
  Cu  Cu12  1  0.250000  0.413445  0.097126  1
  Cu  Cu13  1  0.750000  0.581579  0.904980  1
  Cu  Cu14  1  0.750000  0.913788  0.403438  1
  Cu  Cu15  1  0.250000  0.087354  0.595794  1
  Cu  Cu16  1  0.250000  0.412191  0.236489  1
  Cu  Cu17  1  0.750000  0.583444  0.761541  1
  Cu  Cu18  1  0.750000  0.913147  0.264350  1
  Cu  Cu19  1  0.250000  0.090161  0.735010  1
  Cu  Cu20  1  0.250000  0.417800  0.436649  1
  Cu  Cu21  1  0.750000  0.582821  0.562687  1
  Cu  Cu22  1  0.750000  0.918529  0.065008  1
  Cu  Cu23  1  0.250000  0.082429  0.941356  1
  Si  Si24  1  0.250000  0.089707  0.066766  1
  Si  Si25  1  0.750000  0.908627  0.929501  1
  Si  Si26  1  0.750000  0.589050  0.434074  1
  Si  Si27  1  0.250000  0.411117  0.565506  1
  Si  Si28  1  0.250000  0.081260  0.273172  1
  Si  Si29  1  0.750000  0.917636  0.727670  1
  Si  Si30  1  0.750000  0.580842  0.226965  1
  Si  Si31  1  0.250000  0.419198  0.772220  1
  Si  Si32  1  0.250000  0.082967  0.394424  1
  Si  Si33  1  0.750000  0.917061  0.605077  1
  Si  Si34  1  0.750000  0.583821  0.105865  1
  Si  Si35  1  0.250000  0.415858  0.895093  1
