# generated using pymatgen
data_Nd20Ir3Ru8Au
_symmetry_space_group_name_H-M   'P 1'
_cell_length_a   11.24142489
_cell_length_b   11.24142385
_cell_length_c   6.63951656
_cell_angle_alpha   89.95998072
_cell_angle_beta   89.95997766
_cell_angle_gamma   89.98150351
_symmetry_Int_Tables_number   1
_chemical_formula_structural   Nd20Ir3Ru8Au
_chemical_formula_sum   'Nd20 Ir3 Ru8 Au1'
_cell_volume   839.03274410
_cell_formula_units_Z   1
loop_
 _symmetry_equiv_pos_site_id
 _symmetry_equiv_pos_as_xyz
  1  'x, y, z'
loop_
 _atom_site_type_symbol
 _atom_site_label
 _atom_site_symmetry_multiplicity
 _atom_site_fract_x
 _atom_site_fract_y
 _atom_site_fract_z
 _atom_site_occupancy
  Nd  Nd0  1  0.087316  0.289566  0.115315  1
  Nd  Nd1  1  0.793645  0.411586  0.117640  1
  Nd  Nd2  1  0.207403  0.577130  0.120222  1
  Nd  Nd3  1  0.904173  0.704792  0.114558  1
  Nd  Nd4  1  0.422870  0.792597  0.379778  1
  Nd  Nd5  1  0.588414  0.206355  0.382360  1
  Nd  Nd6  1  0.295208  0.095827  0.385442  1
  Nd  Nd7  1  0.710434  0.912684  0.384685  1
  Nd  Nd8  1  0.410847  0.209567  0.886029  1
  Nd  Nd9  1  0.703634  0.088573  0.881956  1
  Nd  Nd10  1  0.299670  0.916539  0.865014  1
  Nd  Nd11  1  0.590877  0.792369  0.885596  1
  Nd  Nd12  1  0.083461  0.700330  0.634986  1
  Nd  Nd13  1  0.911427  0.296366  0.618044  1
  Nd  Nd14  1  0.207631  0.409123  0.614404  1
  Nd  Nd15  1  0.790433  0.589153  0.613971  1
  Nd  Nd16  1  0.995255  0.002135  0.996462  1
  Nd  Nd17  1  0.500835  0.500941  0.999625  1
  Nd  Nd18  1  0.499059  0.499165  0.500375  1
  Nd  Nd19  1  0.997865  0.004745  0.503538  1
  Ir  Ir20  1  0.844989  0.155011  0.250000  1
  Ir  Ir21  1  0.344972  0.655028  0.750000  1
  Ir  Ir22  1  0.653841  0.346159  0.750000  1
  Ru  Ru23  1  0.349924  0.351274  0.248527  1
  Ru  Ru24  1  0.648726  0.650076  0.251473  1
  Ru  Ru25  1  0.147716  0.147705  0.750191  1
  Ru  Ru26  1  0.852295  0.852284  0.749809  1
  Ru  Ru27  1  0.000125  0.500331  0.378601  1
  Ru  Ru28  1  0.499669  0.999875  0.121399  1
  Ru  Ru29  1  0.500315  0.000326  0.619130  1
  Ru  Ru30  1  0.999674  0.499685  0.880870  1
  Au  Au31  1  0.157303  0.842697  0.250000  1
