# generated using pymatgen
data_Cs4IrRh7Se16
_symmetry_space_group_name_H-M   'P 1'
_cell_length_a   6.37043058
_cell_length_b   7.64652265
_cell_length_c   16.81047112
_cell_angle_alpha   89.96009524
_cell_angle_beta   90.10537049
_cell_angle_gamma   89.91270381
_symmetry_Int_Tables_number   1
_chemical_formula_structural   Cs4IrRh7Se16
_chemical_formula_sum   'Cs4 Ir1 Rh7 Se16'
_cell_volume   818.86311041
_cell_formula_units_Z   1
loop_
 _symmetry_equiv_pos_site_id
 _symmetry_equiv_pos_as_xyz
  1  'x, y, z'
loop_
 _atom_site_type_symbol
 _atom_site_label
 _atom_site_symmetry_multiplicity
 _atom_site_fract_x
 _atom_site_fract_y
 _atom_site_fract_z
 _atom_site_occupancy
  Cs  Cs0  1  0.349180  0.000046  0.999848  1
  Cs  Cs1  1  0.650820  0.499954  0.500152  1
  Cs  Cs2  1  0.033377  0.000234  0.500112  1
  Cs  Cs3  1  0.966623  0.499766  0.999888  1
  Ir  Ir4  1  0.500000  0.250000  0.250000  1
  Rh  Rh5  1  0.003345  0.996344  0.250697  1
  Rh  Rh6  1  0.003170  0.999967  0.749213  1
  Rh  Rh7  1  0.996655  0.503656  0.249303  1
  Rh  Rh8  1  0.996830  0.500033  0.750787  1
  Rh  Rh9  1  0.500000  0.750000  0.750000  1
  Rh  Rh10  1  0.500000  0.750000  0.250000  1
  Rh  Rh11  1  0.500000  0.250000  0.750000  1
  Se  Se12  1  0.839850  0.250209  0.325384  1
  Se  Se13  1  0.840877  0.749988  0.673266  1
  Se  Se14  1  0.158511  0.750146  0.172647  1
  Se  Se15  1  0.159128  0.249690  0.826723  1
  Se  Se16  1  0.160150  0.249791  0.174616  1
  Se  Se17  1  0.159123  0.750012  0.826734  1
  Se  Se18  1  0.841489  0.749854  0.327353  1
  Se  Se19  1  0.840872  0.250310  0.673277  1
  Se  Se20  1  0.664809  0.001553  0.173717  1
  Se  Se21  1  0.664786  0.999920  0.826119  1
  Se  Se22  1  0.335191  0.498447  0.326283  1
  Se  Se23  1  0.335214  0.500080  0.673881  1
  Se  Se24  1  0.346064  0.001288  0.327237  1
  Se  Se25  1  0.346838  0.000163  0.673027  1
  Se  Se26  1  0.653936  0.498712  0.172763  1
  Se  Se27  1  0.653162  0.499837  0.826973  1
