# generated using pymatgen
data_CaNd3(AlPt)4
_symmetry_space_group_name_H-M   'P 1'
_cell_length_a   4.50739700
_cell_length_b   7.11746186
_cell_length_c   7.83879682
_cell_angle_alpha   89.50100218
_cell_angle_beta   90.00000000
_cell_angle_gamma   90.00000000
_symmetry_Int_Tables_number   1
_chemical_formula_structural   CaNd3(AlPt)4
_chemical_formula_sum   'Ca1 Nd3 Al4 Pt4'
_cell_volume   251.46867697
_cell_formula_units_Z   1
loop_
 _symmetry_equiv_pos_site_id
 _symmetry_equiv_pos_as_xyz
  1  'x, y, z'
loop_
 _atom_site_type_symbol
 _atom_site_label
 _atom_site_symmetry_multiplicity
 _atom_site_fract_x
 _atom_site_fract_y
 _atom_site_fract_z
 _atom_site_occupancy
  Ca  Ca0  1  0.750000  0.473862  0.182325  1
  Nd  Nd1  1  0.250000  0.028580  0.681522  1
  Nd  Nd2  1  0.250000  0.527759  0.823993  1
  Nd  Nd3  1  0.750000  0.969767  0.317305  1
  Al  Al4  1  0.250000  0.148498  0.066668  1
  Al  Al5  1  0.250000  0.641084  0.431526  1
  Al  Al6  1  0.750000  0.853261  0.935345  1
  Al  Al7  1  0.750000  0.357258  0.562704  1
  Pt  Pt8  1  0.250000  0.281459  0.383662  1
  Pt  Pt9  1  0.250000  0.786864  0.114268  1
  Pt  Pt10  1  0.750000  0.716353  0.617248  1
  Pt  Pt11  1  0.750000  0.215256  0.883434  1
