# generated using pymatgen
data_Dy2BiRh5
_symmetry_space_group_name_H-M   'P 1'
_cell_length_a   5.80007630
_cell_length_b   5.80007527
_cell_length_c   8.55621200
_cell_angle_alpha   90.00000000
_cell_angle_beta   90.00000000
_cell_angle_gamma   97.00518410
_symmetry_Int_Tables_number   1
_chemical_formula_structural   Dy2BiRh5
_chemical_formula_sum   'Dy4 Bi2 Rh10'
_cell_volume   285.68981390
_cell_formula_units_Z   2
loop_
 _symmetry_equiv_pos_site_id
 _symmetry_equiv_pos_as_xyz
  1  'x, y, z'
loop_
 _atom_site_type_symbol
 _atom_site_label
 _atom_site_symmetry_multiplicity
 _atom_site_fract_x
 _atom_site_fract_y
 _atom_site_fract_z
 _atom_site_occupancy
  Dy  Dy0  1  0.782090  0.217910  0.500000  1
  Dy  Dy1  1  0.217910  0.782090  0.000000  1
  Dy  Dy2  1  0.217910  0.782090  0.500000  1
  Dy  Dy3  1  0.782090  0.217910  0.000000  1
  Bi  Bi4  1  0.501267  0.501267  0.750000  1
  Bi  Bi5  1  0.498733  0.498733  0.250000  1
  Rh  Rh6  1  0.730743  0.730743  0.000749  1
  Rh  Rh7  1  0.730743  0.730743  0.499251  1
  Rh  Rh8  1  0.269257  0.269257  0.999251  1
  Rh  Rh9  1  0.269257  0.269257  0.500749  1
  Rh  Rh10  1  0.499971  0.000243  0.750000  1
  Rh  Rh11  1  0.500029  0.999757  0.250000  1
  Rh  Rh12  1  0.000196  0.000196  0.250000  1
  Rh  Rh13  1  0.999804  0.999804  0.750000  1
  Rh  Rh14  1  0.000243  0.499971  0.750000  1
  Rh  Rh15  1  0.999757  0.500029  0.250000  1
