# generated using pymatgen
data_Tb3Cd3PdPb2
_symmetry_space_group_name_H-M   'P 1'
_cell_length_a   7.54757200
_cell_length_b   7.54757279
_cell_length_c   4.58055400
_cell_angle_alpha   90.00000000
_cell_angle_beta   90.00000000
_cell_angle_gamma   119.99999654
_symmetry_Int_Tables_number   1
_chemical_formula_structural   Tb3Cd3PdPb2
_chemical_formula_sum   'Tb3 Cd3 Pd1 Pb2'
_cell_volume   225.97647455
_cell_formula_units_Z   1
loop_
 _symmetry_equiv_pos_site_id
 _symmetry_equiv_pos_as_xyz
  1  'x, y, z'
loop_
 _atom_site_type_symbol
 _atom_site_label
 _atom_site_symmetry_multiplicity
 _atom_site_fract_x
 _atom_site_fract_y
 _atom_site_fract_z
 _atom_site_occupancy
  Tb  Tb0  1  0.605306  0.000000  0.000000  1
  Tb  Tb1  1  0.000000  0.605306  0.000000  1
  Tb  Tb2  1  0.394694  0.394694  0.000000  1
  Cd  Cd3  1  0.230727  0.000000  0.500000  1
  Cd  Cd4  1  0.000000  0.230727  0.500000  1
  Cd  Cd5  1  0.769273  0.769273  0.500000  1
  Pd  Pd6  1  0.000000  0.000000  0.000000  1
  Pb  Pb7  1  0.333333  0.666667  0.500000  1
  Pb  Pb8  1  0.666667  0.333333  0.500000  1
