# generated using pymatgen
data_Rb4Yb(AsS4)2
_symmetry_space_group_name_H-M   'P 1'
_cell_length_a   9.35132721
_cell_length_b   9.58185186
_cell_length_c   11.59555595
_cell_angle_alpha   106.19289349
_cell_angle_beta   104.04916950
_cell_angle_gamma   93.22543093
_symmetry_Int_Tables_number   1
_chemical_formula_structural   Rb4Yb(AsS4)2
_chemical_formula_sum   'Rb8 Yb2 As4 S16'
_cell_volume   959.32510109
_cell_formula_units_Z   2
loop_
 _symmetry_equiv_pos_site_id
 _symmetry_equiv_pos_as_xyz
  1  'x, y, z'
loop_
 _atom_site_type_symbol
 _atom_site_label
 _atom_site_symmetry_multiplicity
 _atom_site_fract_x
 _atom_site_fract_y
 _atom_site_fract_z
 _atom_site_occupancy
  Rb  Rb0  1  0.443842  0.516489  0.759254  1
  Rb  Rb1  1  0.556158  0.483511  0.240746  1
  Rb  Rb2  1  0.269228  0.997438  0.971861  1
  Rb  Rb3  1  0.730772  0.002562  0.028139  1
  Rb  Rb4  1  0.102351  0.736124  0.529243  1
  Rb  Rb5  1  0.897649  0.263876  0.470757  1
  Rb  Rb6  1  0.879702  0.322377  0.881979  1
  Rb  Rb7  1  0.120298  0.677623  0.118021  1
  Yb  Yb8  1  0.648800  0.859677  0.575422  1
  Yb  Yb9  1  0.351200  0.140323  0.424578  1
  As  As10  1  0.450063  0.110922  0.731673  1
  As  As11  1  0.549937  0.889078  0.268327  1
  As  As12  1  0.872705  0.677329  0.755815  1
  As  As13  1  0.127295  0.322671  0.244185  1
  S  S14  1  0.522244  0.256123  0.920061  1
  S  S15  1  0.477756  0.743877  0.079939  1
  S  S16  1  0.456476  0.882265  0.731939  1
  S  S17  1  0.543524  0.117735  0.268061  1
  S  S18  1  0.230639  0.137736  0.626661  1
  S  S19  1  0.769361  0.862264  0.373339  1
  S  S20  1  0.921324  0.909004  0.761208  1
  S  S21  1  0.078676  0.090996  0.238792  1
  S  S22  1  0.069456  0.565559  0.753878  1
  S  S23  1  0.930544  0.434441  0.246122  1
  S  S24  1  0.606359  0.163458  0.627688  1
  S  S25  1  0.393641  0.836542  0.372312  1
  S  S26  1  0.795347  0.664944  0.915374  1
  S  S27  1  0.204653  0.335056  0.084626  1
  S  S28  1  0.694467  0.573370  0.582269  1
  S  S29  1  0.305533  0.426630  0.417731  1
