# generated using pymatgen
data_K4NdNp3F16
_symmetry_space_group_name_H-M   'P 1'
_cell_length_a   3.80090900
_cell_length_b   6.36961103
_cell_length_c   15.79710345
_cell_angle_alpha   90.08566576
_cell_angle_beta   90.00000000
_cell_angle_gamma   90.00000000
_symmetry_Int_Tables_number   1
_chemical_formula_structural   K4NdNp3F16
_chemical_formula_sum   'K4 Nd1 Np3 F16'
_cell_volume   382.45237387
_cell_formula_units_Z   1
loop_
 _symmetry_equiv_pos_site_id
 _symmetry_equiv_pos_as_xyz
  1  'x, y, z'
loop_
 _atom_site_type_symbol
 _atom_site_label
 _atom_site_symmetry_multiplicity
 _atom_site_fract_x
 _atom_site_fract_y
 _atom_site_fract_z
 _atom_site_occupancy
  K  K0  1  0.250000  0.222510  0.299195  1
  K  K1  1  0.750000  0.778740  0.700031  1
  K  K2  1  0.250000  0.721865  0.200218  1
  K  K3  1  0.750000  0.277590  0.798221  1
  Nd  Nd4  1  0.250000  0.254267  0.561725  1
  Np  Np5  1  0.750000  0.249404  0.061849  1
  Np  Np6  1  0.250000  0.753186  0.938210  1
  Np  Np7  1  0.750000  0.750847  0.438762  1
  F  F8  1  0.250000  0.092846  0.692662  1
  F  F9  1  0.750000  0.909720  0.306028  1
  F  F10  1  0.250000  0.591632  0.805445  1
  F  F11  1  0.750000  0.408425  0.194857  1
  F  F12  1  0.750000  0.393718  0.634703  1
  F  F13  1  0.250000  0.602992  0.365204  1
  F  F14  1  0.750000  0.895564  0.864701  1
  F  F15  1  0.250000  0.100900  0.135133  1
  F  F16  1  0.750000  0.363167  0.463620  1
  F  F17  1  0.250000  0.630688  0.537853  1
  F  F18  1  0.750000  0.864163  0.038567  1
  F  F19  1  0.250000  0.134184  0.961547  1
  F  F20  1  0.250000  0.499513  0.058620  1
  F  F21  1  0.750000  0.498897  0.941511  1
  F  F22  1  0.250000  0.004246  0.443056  1
  F  F23  1  0.750000  0.000936  0.558284  1
