# generated using pymatgen
data_Ce3Lu5(MnB6)4
_symmetry_space_group_name_H-M   'P 1'
_cell_length_a   3.56456900
_cell_length_b   9.04514351
_cell_length_c   11.42668513
_cell_angle_alpha   90.07729649
_cell_angle_beta   90.00000000
_cell_angle_gamma   90.00000000
_symmetry_Int_Tables_number   1
_chemical_formula_structural   Ce3Lu5(MnB6)4
_chemical_formula_sum   'Ce3 Lu5 Mn4 B24'
_cell_volume   368.41928248
_cell_formula_units_Z   1
loop_
 _symmetry_equiv_pos_site_id
 _symmetry_equiv_pos_as_xyz
  1  'x, y, z'
loop_
 _atom_site_type_symbol
 _atom_site_label
 _atom_site_symmetry_multiplicity
 _atom_site_fract_x
 _atom_site_fract_y
 _atom_site_fract_z
 _atom_site_occupancy
  Ce  Ce0  1  0.000000  0.322890  0.414520  1
  Ce  Ce1  1  0.000000  0.676674  0.586440  1
  Ce  Ce2  1  0.000000  0.824914  0.084791  1
  Lu  Lu3  1  0.000000  0.176822  0.914114  1
  Lu  Lu4  1  0.000000  0.944073  0.369843  1
  Lu  Lu5  1  0.000000  0.056869  0.631191  1
  Lu  Lu6  1  0.000000  0.442018  0.129557  1
  Lu  Lu7  1  0.000000  0.555932  0.869618  1
  Mn  Mn8  1  0.000000  0.639572  0.319543  1
  Mn  Mn9  1  0.000000  0.361008  0.679944  1
  Mn  Mn10  1  0.000000  0.139467  0.180218  1
  Mn  Mn11  1  0.000000  0.860190  0.820230  1
  B  B12  1  0.500000  0.555840  0.429970  1
  B  B13  1  0.500000  0.443944  0.570409  1
  B  B14  1  0.500000  0.056185  0.067508  1
  B  B15  1  0.500000  0.946412  0.930881  1
  B  B16  1  0.500000  0.749075  0.416710  1
  B  B17  1  0.500000  0.250852  0.584459  1
  B  B18  1  0.500000  0.248560  0.080663  1
  B  B19  1  0.500000  0.752074  0.916712  1
  B  B20  1  0.500000  0.790480  0.265969  1
  B  B21  1  0.500000  0.208106  0.735907  1
  B  B22  1  0.500000  0.289979  0.232327  1
  B  B23  1  0.500000  0.709802  0.766613  1
  B  B24  1  0.500000  0.630536  0.185733  1
  B  B25  1  0.500000  0.367667  0.815388  1
  B  B26  1  0.500000  0.131056  0.313441  1
  B  B27  1  0.500000  0.870081  0.687167  1
  B  B28  1  0.500000  0.986472  0.211582  1
  B  B29  1  0.500000  0.016947  0.788548  1
  B  B30  1  0.500000  0.485453  0.286945  1
  B  B31  1  0.500000  0.513508  0.713504  1
  B  B32  1  0.500000  0.600235  0.027544  1
  B  B33  1  0.500000  0.395966  0.971277  1
  B  B34  1  0.500000  0.102108  0.472306  1
  B  B35  1  0.500000  0.898232  0.528429  1
