# generated using pymatgen
data_ThCo4(Ni4B3)2
_symmetry_space_group_name_H-M   'P 1'
_cell_length_a   6.00961787
_cell_length_b   6.00283860
_cell_length_c   6.00961930
_cell_angle_alpha   104.50997246
_cell_angle_beta   104.38429791
_cell_angle_gamma   104.50998440
_symmetry_Int_Tables_number   1
_chemical_formula_structural   ThCo4(Ni4B3)2
_chemical_formula_sum   'Th1 Co4 Ni8 B6'
_cell_volume   191.65842880
_cell_formula_units_Z   1
loop_
 _symmetry_equiv_pos_site_id
 _symmetry_equiv_pos_as_xyz
  1  'x, y, z'
loop_
 _atom_site_type_symbol
 _atom_site_label
 _atom_site_symmetry_multiplicity
 _atom_site_fract_x
 _atom_site_fract_y
 _atom_site_fract_z
 _atom_site_occupancy
  Th  Th0  1  0.999958  0.000000  0.000042  1
  Co  Co1  1  0.865080  0.132935  0.501402  1
  Co  Co2  1  0.134084  0.500000  0.865916  1
  Co  Co3  1  0.498598  0.867065  0.134920  1
  Co  Co4  1  0.866307  0.500000  0.133693  1
  Ni  Ni5  1  0.499541  0.131933  0.866941  1
  Ni  Ni6  1  0.133059  0.868067  0.500459  1
  Ni  Ni7  1  0.812775  0.549251  0.546562  1
  Ni  Ni8  1  0.546629  0.546519  0.814596  1
  Ni  Ni9  1  0.545217  0.811718  0.545602  1
  Ni  Ni10  1  0.185404  0.453481  0.453371  1
  Ni  Ni11  1  0.453438  0.450749  0.187225  1
  Ni  Ni12  1  0.454398  0.188282  0.454783  1
  B  B13  1  0.333156  0.766402  0.772282  1
  B  B14  1  0.766064  0.769053  0.324503  1
  B  B15  1  0.774693  0.338671  0.771621  1
  B  B16  1  0.675497  0.230947  0.233936  1
  B  B17  1  0.227718  0.233598  0.666844  1
  B  B18  1  0.228379  0.661329  0.225307  1
