# generated using pymatgen
data_LiY5(P2Rh3)6
_symmetry_space_group_name_H-M   'P 1'
_cell_length_a   12.72585949
_cell_length_b   12.74018865
_cell_length_c   3.93461900
_cell_angle_alpha   90.00000000
_cell_angle_beta   90.00000000
_cell_angle_gamma   120.03724859
_symmetry_Int_Tables_number   1
_chemical_formula_structural   LiY5(P2Rh3)6
_chemical_formula_sum   'Li1 Y5 P12 Rh18'
_cell_volume   552.24674891
_cell_formula_units_Z   1
loop_
 _symmetry_equiv_pos_site_id
 _symmetry_equiv_pos_as_xyz
  1  'x, y, z'
loop_
 _atom_site_type_symbol
 _atom_site_label
 _atom_site_symmetry_multiplicity
 _atom_site_fract_x
 _atom_site_fract_y
 _atom_site_fract_z
 _atom_site_occupancy
  Li  Li0  1  0.000000  0.556309  0.000000  1
  Y  Y1  1  0.000000  0.189938  0.500000  1
  Y  Y2  1  0.810861  0.811295  0.500000  1
  Y  Y3  1  0.189139  0.000434  0.500000  1
  Y  Y4  1  0.667060  0.333835  0.000000  1
  Y  Y5  1  0.332940  0.666777  0.000000  1
  P  P6  1  0.000000  0.818890  0.000000  1
  P  P7  1  0.180100  0.176916  0.000000  1
  P  P8  1  0.819900  0.996814  0.000000  1
  P  P9  1  0.688538  0.168290  0.500000  1
  P  P10  1  0.828816  0.514989  0.500000  1
  P  P11  1  0.483285  0.314924  0.500000  1
  P  P12  1  0.171184  0.686173  0.500000  1
  P  P13  1  0.516715  0.831639  0.500000  1
  P  P14  1  0.311462  0.479752  0.500000  1
  P  P15  1  0.000000  0.366714  0.000000  1
  P  P16  1  0.635136  0.636270  0.000000  1
  P  P17  1  0.364864  0.001135  0.000000  1
  Rh  Rh18  1  0.452604  0.457161  0.000000  1
  Rh  Rh19  1  0.547396  0.004557  0.000000  1
  Rh  Rh20  1  0.000000  0.717198  0.500000  1
  Rh  Rh21  1  0.283145  0.281556  0.500000  1
  Rh  Rh22  1  0.716855  0.998410  0.500000  1
  Rh  Rh23  1  0.803441  0.176419  0.000000  1
  Rh  Rh24  1  0.818930  0.622857  0.000000  1
  Rh  Rh25  1  0.377816  0.196454  0.000000  1
  Rh  Rh26  1  0.181070  0.803926  0.000000  1
  Rh  Rh27  1  0.622184  0.818637  0.000000  1
  Rh  Rh28  1  0.196559  0.372977  0.000000  1
  Rh  Rh29  1  0.869951  0.357098  0.500000  1
  Rh  Rh30  1  0.640441  0.511737  0.500000  1
  Rh  Rh31  1  0.492983  0.133188  0.500000  1
  Rh  Rh32  1  0.359559  0.871296  0.500000  1
  Rh  Rh33  1  0.507017  0.640205  0.500000  1
  Rh  Rh34  1  0.130049  0.487148  0.500000  1
  Rh  Rh35  1  0.000000  0.998080  0.000000  1
