# generated using pymatgen
data_Er3Tm5Cd2IrPt
_symmetry_space_group_name_H-M   'P 1'
_cell_length_a   9.55054237
_cell_length_b   9.55054235
_cell_length_c   9.53105100
_cell_angle_alpha   60.06748481
_cell_angle_beta   60.06748487
_cell_angle_gamma   60.16272165
_symmetry_Int_Tables_number   1
_chemical_formula_structural   Er3Tm5Cd2IrPt
_chemical_formula_sum   'Er6 Tm10 Cd4 Ir2 Pt2'
_cell_volume   616.10741444
_cell_formula_units_Z   2
loop_
 _symmetry_equiv_pos_site_id
 _symmetry_equiv_pos_as_xyz
  1  'x, y, z'
loop_
 _atom_site_type_symbol
 _atom_site_label
 _atom_site_symmetry_multiplicity
 _atom_site_fract_x
 _atom_site_fract_y
 _atom_site_fract_z
 _atom_site_occupancy
  Er  Er0  1  0.186966  0.815554  0.811712  1
  Er  Er1  1  0.815554  0.186966  0.185769  1
  Er  Er2  1  0.815554  0.186966  0.811712  1
  Er  Er3  1  0.186966  0.815554  0.185769  1
  Er  Er4  1  0.814320  0.814320  0.185680  1
  Er  Er5  1  0.186867  0.186867  0.813133  1
  Tm  Tm6  1  0.600451  0.600451  0.596227  1
  Tm  Tm7  1  0.600451  0.600451  0.202870  1
  Tm  Tm8  1  0.606193  0.193757  0.600025  1
  Tm  Tm9  1  0.193757  0.606193  0.600025  1
  Tm  Tm10  1  0.057047  0.440122  0.440015  1
  Tm  Tm11  1  0.440122  0.057047  0.062817  1
  Tm  Tm12  1  0.440122  0.057047  0.440015  1
  Tm  Tm13  1  0.057047  0.440122  0.062817  1
  Tm  Tm14  1  0.440548  0.440548  0.059452  1
  Tm  Tm15  1  0.061611  0.061611  0.438389  1
  Cd  Cd16  1  0.831425  0.831425  0.832056  1
  Cd  Cd17  1  0.831425  0.831425  0.505095  1
  Cd  Cd18  1  0.830249  0.505840  0.831955  1
  Cd  Cd19  1  0.505840  0.830249  0.831955  1
  Ir  Ir20  1  0.390233  0.824056  0.392854  1
  Ir  Ir21  1  0.824056  0.390233  0.392854  1
  Pt  Pt22  1  0.391598  0.391598  0.394985  1
  Pt  Pt23  1  0.391598  0.391598  0.821817  1
