# generated using pymatgen
data_Na6Ca5Yb(AlSb4)2
_symmetry_space_group_name_H-M   'P 1'
_cell_length_a   10.10168700
_cell_length_b   10.09965987
_cell_length_c   7.59973204
_cell_angle_alpha   89.99008649
_cell_angle_beta   90.00000000
_cell_angle_gamma   120.00663647
_symmetry_Int_Tables_number   1
_chemical_formula_structural   Na6Ca5Yb(AlSb4)2
_chemical_formula_sum   'Na6 Ca5 Yb1 Al2 Sb8'
_cell_volume   671.42964417
_cell_formula_units_Z   1
loop_
 _symmetry_equiv_pos_site_id
 _symmetry_equiv_pos_as_xyz
  1  'x, y, z'
loop_
 _atom_site_type_symbol
 _atom_site_label
 _atom_site_symmetry_multiplicity
 _atom_site_fract_x
 _atom_site_fract_y
 _atom_site_fract_z
 _atom_site_occupancy
  Na  Na0  1  0.855522  0.144462  0.548658  1
  Na  Na1  1  0.288937  0.144462  0.548658  1
  Na  Na2  1  0.855536  0.711073  0.548679  1
  Na  Na3  1  0.144502  0.855549  0.048687  1
  Na  Na4  1  0.711049  0.855549  0.048687  1
  Na  Na5  1  0.144468  0.288935  0.048656  1
  Ca  Ca6  1  0.479599  0.520396  0.730367  1
  Ca  Ca7  1  0.040797  0.520396  0.730367  1
  Ca  Ca8  1  0.479610  0.959220  0.730379  1
  Ca  Ca9  1  0.520397  0.479618  0.230362  1
  Ca  Ca10  1  0.959221  0.479618  0.230362  1
  Yb  Yb11  1  0.520355  0.040709  0.230311  1
  Al  Al12  1  0.666658  0.333316  0.859505  1
  Al  Al13  1  0.333371  0.666742  0.359392  1
  Sb  Sb14  1  0.812578  0.187276  0.964023  1
  Sb  Sb15  1  0.374699  0.187276  0.964023  1
  Sb  Sb16  1  0.812675  0.625348  0.963978  1
  Sb  Sb17  1  0.187405  0.812735  0.463882  1
  Sb  Sb18  1  0.625329  0.812735  0.463882  1
  Sb  Sb19  1  0.187337  0.374676  0.463926  1
  Sb  Sb20  1  0.666579  0.333156  0.496916  1
  Sb  Sb21  1  0.333375  0.666751  0.997030  1
