# generated using pymatgen
data_Dy19HoCoBi8Os3
_symmetry_space_group_name_H-M   'P 1'
_cell_length_a   7.96818397
_cell_length_b   8.99999203
_cell_length_c   12.44428956
_cell_angle_alpha   90.00590409
_cell_angle_beta   89.76004088
_cell_angle_gamma   89.99242732
_symmetry_Int_Tables_number   1
_chemical_formula_structural   Dy19HoCoBi8Os3
_chemical_formula_sum   'Dy19 Ho1 Co1 Bi8 Os3'
_cell_volume   892.41686864
_cell_formula_units_Z   1
loop_
 _symmetry_equiv_pos_site_id
 _symmetry_equiv_pos_as_xyz
  1  'x, y, z'
loop_
 _atom_site_type_symbol
 _atom_site_label
 _atom_site_symmetry_multiplicity
 _atom_site_fract_x
 _atom_site_fract_y
 _atom_site_fract_z
 _atom_site_occupancy
  Dy  Dy0  1  0.344387  0.750031  0.701644  1
  Dy  Dy1  1  0.658124  0.249979  0.292484  1
  Dy  Dy2  1  0.842577  0.249934  0.791397  1
  Dy  Dy3  1  0.156306  0.750019  0.206697  1
  Dy  Dy4  1  0.879247  0.750081  0.805729  1
  Dy  Dy5  1  0.120130  0.249886  0.193839  1
  Dy  Dy6  1  0.378494  0.249972  0.693269  1
  Dy  Dy7  1  0.616884  0.750009  0.312097  1
  Dy  Dy8  1  0.675808  0.542141  0.563785  1
  Dy  Dy9  1  0.324851  0.460764  0.436889  1
  Dy  Dy10  1  0.175082  0.457956  0.936027  1
  Dy  Dy11  1  0.324862  0.039223  0.436876  1
  Dy  Dy12  1  0.824183  0.542906  0.064271  1
  Dy  Dy13  1  0.675810  0.957855  0.563786  1
  Dy  Dy14  1  0.824415  0.957128  0.064192  1
  Dy  Dy15  1  0.055171  0.750000  0.496890  1
  Dy  Dy16  1  0.945223  0.249983  0.503033  1
  Dy  Dy17  1  0.557647  0.249932  0.003530  1
  Dy  Dy18  1  0.442383  0.750107  0.995801  1
  Ho  Ho19  1  0.174599  0.042101  0.936092  1
  Co  Co20  1  0.429443  0.749991  0.491052  1
  Bi  Bi21  1  0.570344  0.508758  0.827163  1
  Bi  Bi22  1  0.429399  0.492178  0.173054  1
  Bi  Bi23  1  0.071698  0.491948  0.671888  1
  Bi  Bi24  1  0.429429  0.007809  0.173050  1
  Bi  Bi25  1  0.929055  0.508999  0.328424  1
  Bi  Bi26  1  0.570159  0.991256  0.827220  1
  Bi  Bi27  1  0.929057  0.990995  0.328427  1
  Bi  Bi28  1  0.071742  0.008051  0.671941  1
  Os  Os29  1  0.075630  0.750193  0.989076  1
  Os  Os30  1  0.924139  0.249801  0.010264  1
  Os  Os31  1  0.573723  0.250013  0.510113  1
