# generated using pymatgen
data_Yb3Sc(Al3Ni)6
_symmetry_space_group_name_H-M   'P 1'
_cell_length_a   7.38716111
_cell_length_b   7.38351385
_cell_length_c   9.18666400
_cell_angle_alpha   90.00000000
_cell_angle_beta   90.00000000
_cell_angle_gamma   119.39219950
_symmetry_Int_Tables_number   1
_chemical_formula_structural   Yb3Sc(Al3Ni)6
_chemical_formula_sum   'Yb3 Sc1 Al18 Ni6'
_cell_volume   436.57268473
_cell_formula_units_Z   1
loop_
 _symmetry_equiv_pos_site_id
 _symmetry_equiv_pos_as_xyz
  1  'x, y, z'
loop_
 _atom_site_type_symbol
 _atom_site_label
 _atom_site_symmetry_multiplicity
 _atom_site_fract_x
 _atom_site_fract_y
 _atom_site_fract_z
 _atom_site_occupancy
  Yb  Yb0  1  0.005657  0.326698  0.750000  1
  Yb  Yb1  1  0.670391  0.995353  0.250000  1
  Yb  Yb2  1  0.328835  0.007205  0.750000  1
  Sc  Sc3  1  0.996143  0.671064  0.250000  1
  Al  Al4  1  0.121621  0.118398  0.250000  1
  Al  Al5  1  0.872754  0.871390  0.750000  1
  Al  Al6  1  0.332718  0.332934  0.542633  1
  Al  Al7  1  0.673042  0.670200  0.054269  1
  Al  Al8  1  0.332718  0.332934  0.957367  1
  Al  Al9  1  0.673042  0.670200  0.445731  1
  Al  Al10  1  0.335474  0.553217  0.250000  1
  Al  Al11  1  0.659622  0.448923  0.750000  1
  Al  Al12  1  0.558838  0.345771  0.250000  1
  Al  Al13  1  0.445522  0.658189  0.750000  1
  Al  Al14  1  0.996255  0.337627  0.077004  1
  Al  Al15  1  0.003311  0.665248  0.569943  1
  Al  Al16  1  0.331775  0.994012  0.423077  1
  Al  Al17  1  0.664607  0.001477  0.927661  1
  Al  Al18  1  0.003311  0.665248  0.930057  1
  Al  Al19  1  0.996255  0.337627  0.422996  1
  Al  Al20  1  0.664607  0.001477  0.572339  1
  Al  Al21  1  0.331775  0.994012  0.076923  1
  Ni  Ni22  1  0.000162  0.999922  0.000975  1
  Ni  Ni23  1  0.000162  0.999922  0.499025  1
  Ni  Ni24  1  0.671066  0.329010  0.000930  1
  Ni  Ni25  1  0.329635  0.671466  0.498475  1
  Ni  Ni26  1  0.329635  0.671466  0.001525  1
  Ni  Ni27  1  0.671066  0.329010  0.499070  1
