# generated using pymatgen
data_TbFe2P2Rh
_symmetry_space_group_name_H-M   'P 1'
_cell_length_a   3.75736900
_cell_length_b   10.90205019
_cell_length_c   12.35775022
_cell_angle_alpha   89.97850000
_cell_angle_beta   90.00000000
_cell_angle_gamma   90.00000000
_symmetry_Int_Tables_number   1
_chemical_formula_structural   TbFe2P2Rh
_chemical_formula_sum   'Tb6 Fe12 P12 Rh6'
_cell_volume   506.21080075
_cell_formula_units_Z   6
loop_
 _symmetry_equiv_pos_site_id
 _symmetry_equiv_pos_as_xyz
  1  'x, y, z'
loop_
 _atom_site_type_symbol
 _atom_site_label
 _atom_site_symmetry_multiplicity
 _atom_site_fract_x
 _atom_site_fract_y
 _atom_site_fract_z
 _atom_site_occupancy
  Tb  Tb0  1  0.000000  0.501570  0.521587  1
  Tb  Tb1  1  0.500000  0.999759  0.479194  1
  Tb  Tb2  1  0.500000  0.821597  0.201548  1
  Tb  Tb3  1  0.500000  0.177694  0.200719  1
  Tb  Tb4  1  0.000000  0.682483  0.797527  1
  Tb  Tb5  1  0.000000  0.321426  0.797791  1
  Fe  Fe6  1  0.500000  0.500986  0.152835  1
  Fe  Fe7  1  0.000000  0.500594  0.990549  1
  Fe  Fe8  1  0.500000  0.999410  0.007794  1
  Fe  Fe9  1  0.500000  0.335298  0.996567  1
  Fe  Fe10  1  0.500000  0.667105  0.995939  1
  Fe  Fe11  1  0.000000  0.167120  0.003995  1
  Fe  Fe12  1  0.000000  0.831374  0.004237  1
  Fe  Fe13  1  0.500000  0.295585  0.431205  1
  Fe  Fe14  1  0.500000  0.705822  0.433092  1
  Fe  Fe15  1  0.000000  0.202973  0.569966  1
  Fe  Fe16  1  0.000000  0.798363  0.571314  1
  Fe  Fe17  1  0.500000  0.878091  0.712557  1
  P  P18  1  0.500000  0.501176  0.893025  1
  P  P19  1  0.000000  0.999267  0.105458  1
  P  P20  1  0.500000  0.500076  0.344915  1
  P  P21  1  0.000000  0.984930  0.654773  1
  P  P22  1  0.500000  0.305663  0.610677  1
  P  P23  1  0.500000  0.701724  0.615349  1
  P  P24  1  0.000000  0.193037  0.390520  1
  P  P25  1  0.000000  0.806904  0.391429  1
  P  P26  1  0.500000  0.841503  0.898488  1
  P  P27  1  0.500000  0.160573  0.904371  1
  P  P28  1  0.000000  0.657781  0.096990  1
  P  P29  1  0.000000  0.342632  0.096288  1
  Rh  Rh30  1  0.000000  0.995169  0.845045  1
  Rh  Rh31  1  0.500000  0.501431  0.700302  1
  Rh  Rh32  1  0.000000  0.999822  0.298608  1
  Rh  Rh33  1  0.500000  0.121030  0.713753  1
  Rh  Rh34  1  0.000000  0.625214  0.286395  1
  Rh  Rh35  1  0.000000  0.374819  0.285198  1
