# generated using pymatgen
data_Hf5Zr4Ta2Re2O3
_symmetry_space_group_name_H-M   'P 1'
_cell_length_a   8.62388493
_cell_length_b   8.70080049
_cell_length_c   8.49784053
_cell_angle_alpha   89.92426191
_cell_angle_beta   89.99805730
_cell_angle_gamma   119.84241265
_symmetry_Int_Tables_number   1
_chemical_formula_structural   Hf5Zr4Ta2Re2O3
_chemical_formula_sum   'Hf10 Zr8 Ta4 Re4 O6'
_cell_volume   553.08044873
_cell_formula_units_Z   2
loop_
 _symmetry_equiv_pos_site_id
 _symmetry_equiv_pos_as_xyz
  1  'x, y, z'
loop_
 _atom_site_type_symbol
 _atom_site_label
 _atom_site_symmetry_multiplicity
 _atom_site_fract_x
 _atom_site_fract_y
 _atom_site_fract_z
 _atom_site_occupancy
  Hf  Hf0  1  0.454045  0.907820  0.249990  1
  Hf  Hf1  1  0.546887  0.092219  0.750216  1
  Hf  Hf2  1  0.092879  0.546790  0.249988  1
  Hf  Hf3  1  0.905687  0.451979  0.750229  1
  Hf  Hf4  1  0.453957  0.547967  0.250025  1
  Hf  Hf5  1  0.545805  0.453275  0.750165  1
  Hf  Hf6  1  0.794740  0.202988  0.437967  1
  Hf  Hf7  1  0.591749  0.796918  0.938760  1
  Hf  Hf8  1  0.794727  0.202869  0.062491  1
  Hf  Hf9  1  0.205412  0.796805  0.938709  1
  Zr  Zr10  1  0.203093  0.406452  0.563575  1
  Zr  Zr11  1  0.795928  0.592148  0.436350  1
  Zr  Zr12  1  0.588817  0.795296  0.563582  1
  Zr  Zr13  1  0.796028  0.592260  0.063888  1
  Zr  Zr14  1  0.411299  0.204897  0.437556  1
  Zr  Zr15  1  0.204441  0.409220  0.935952  1
  Zr  Zr16  1  0.206755  0.795129  0.563581  1
  Zr  Zr17  1  0.411659  0.204973  0.062744  1
  Ta  Ta18  1  0.109439  0.221253  0.249647  1
  Ta  Ta19  1  0.889595  0.778762  0.750444  1
  Ta  Ta20  1  0.999675  0.000135  0.999770  1
  Ta  Ta21  1  0.999535  0.999854  0.499744  1
  Re  Re22  1  0.772784  0.886979  0.249153  1
  Re  Re23  1  0.226126  0.113784  0.750217  1
  Re  Re24  1  0.110767  0.885238  0.249112  1
  Re  Re25  1  0.887391  0.113898  0.750203  1
  O  O26  1  0.500330  0.997049  0.998792  1
  O  O27  1  0.999763  0.500155  0.000018  1
  O  O28  1  0.503627  0.003045  0.498753  1
  O  O29  1  0.500688  0.503913  0.999199  1
  O  O30  1  0.996751  0.496053  0.499182  1
  O  O31  1  0.499622  0.499876  0.499999  1
