# generated using pymatgen
data_Tm2Sc(Ni10P3)2
_symmetry_space_group_name_H-M   'P 1'
_cell_length_a   7.89767459
_cell_length_b   7.89767493
_cell_length_c   7.89767500
_cell_angle_alpha   60.00000391
_cell_angle_beta   60.00000249
_cell_angle_gamma   60.00000550
_symmetry_Int_Tables_number   1
_chemical_formula_structural   Tm2Sc(Ni10P3)2
_chemical_formula_sum   'Tm2 Sc1 Ni20 P6'
_cell_volume   348.32351091
_cell_formula_units_Z   1
loop_
 _symmetry_equiv_pos_site_id
 _symmetry_equiv_pos_as_xyz
  1  'x, y, z'
loop_
 _atom_site_type_symbol
 _atom_site_label
 _atom_site_symmetry_multiplicity
 _atom_site_fract_x
 _atom_site_fract_y
 _atom_site_fract_z
 _atom_site_occupancy
  Tm  Tm0  1  0.750000  0.750000  0.750000  1
  Tm  Tm1  1  0.250000  0.250000  0.250000  1
  Sc  Sc2  1  0.000000  0.000000  0.000000  1
  Ni  Ni3  1  0.000000  0.649342  0.000000  1
  Ni  Ni4  1  0.159610  0.613463  0.613463  1
  Ni  Ni5  1  0.000000  0.000000  0.649342  1
  Ni  Ni6  1  0.000000  0.000000  0.350658  1
  Ni  Ni7  1  0.649342  0.000000  0.350658  1
  Ni  Ni8  1  0.350658  0.000000  0.000000  1
  Ni  Ni9  1  0.840390  0.386537  0.386537  1
  Ni  Ni10  1  0.000000  0.649342  0.350658  1
  Ni  Ni11  1  0.613463  0.613463  0.613463  1
  Ni  Ni12  1  0.386537  0.840390  0.386537  1
  Ni  Ni13  1  0.649342  0.350658  0.000000  1
  Ni  Ni14  1  0.000000  0.350658  0.649342  1
  Ni  Ni15  1  0.350658  0.649342  0.000000  1
  Ni  Ni16  1  0.350658  0.000000  0.649342  1
  Ni  Ni17  1  0.386537  0.386537  0.386537  1
  Ni  Ni18  1  0.649342  0.000000  0.000000  1
  Ni  Ni19  1  0.000000  0.350658  0.000000  1
  Ni  Ni20  1  0.613463  0.613463  0.159610  1
  Ni  Ni21  1  0.386537  0.386537  0.840390  1
  Ni  Ni22  1  0.613463  0.159610  0.613463  1
  P  P23  1  0.261271  0.738729  0.261271  1
  P  P24  1  0.738729  0.738729  0.261271  1
  P  P25  1  0.738729  0.261271  0.261271  1
  P  P26  1  0.261271  0.738729  0.738729  1
  P  P27  1  0.261271  0.261271  0.738729  1
  P  P28  1  0.738729  0.261271  0.738729  1
