# generated using pymatgen
data_Dy3P6RuRh8
_symmetry_space_group_name_H-M   'P 1'
_cell_length_a   3.93171700
_cell_length_b   11.28164100
_cell_length_c   12.65917800
_cell_angle_alpha   90.00000000
_cell_angle_beta   90.00000000
_cell_angle_gamma   90.00000000
_symmetry_Int_Tables_number   1
_chemical_formula_structural   Dy3P6RuRh8
_chemical_formula_sum   'Dy6 P12 Ru2 Rh16'
_cell_volume   561.51328069
_cell_formula_units_Z   2
loop_
 _symmetry_equiv_pos_site_id
 _symmetry_equiv_pos_as_xyz
  1  'x, y, z'
loop_
 _atom_site_type_symbol
 _atom_site_label
 _atom_site_symmetry_multiplicity
 _atom_site_fract_x
 _atom_site_fract_y
 _atom_site_fract_z
 _atom_site_occupancy
  Dy  Dy0  1  0.000000  0.500000  0.520220  1
  Dy  Dy1  1  0.500000  0.000000  0.479780  1
  Dy  Dy2  1  0.500000  0.818987  0.205052  1
  Dy  Dy3  1  0.500000  0.181013  0.205052  1
  Dy  Dy4  1  0.000000  0.681013  0.794948  1
  Dy  Dy5  1  0.000000  0.318987  0.794948  1
  P  P6  1  0.500000  0.500000  0.882833  1
  P  P7  1  0.000000  0.000000  0.117167  1
  P  P8  1  0.500000  0.500000  0.349633  1
  P  P9  1  0.000000  0.000000  0.650367  1
  P  P10  1  0.500000  0.313943  0.619477  1
  P  P11  1  0.500000  0.686057  0.619477  1
  P  P12  1  0.000000  0.186057  0.380523  1
  P  P13  1  0.000000  0.813943  0.380523  1
  P  P14  1  0.500000  0.845540  0.892864  1
  P  P15  1  0.500000  0.154460  0.892864  1
  P  P16  1  0.000000  0.654460  0.107136  1
  P  P17  1  0.000000  0.345540  0.107136  1
  Ru  Ru18  1  0.000000  0.500000  0.988359  1
  Ru  Ru19  1  0.500000  0.000000  0.011641  1
  Rh  Rh20  1  0.500000  0.500000  0.163526  1
  Rh  Rh21  1  0.000000  0.000000  0.836474  1
  Rh  Rh22  1  0.500000  0.500000  0.700997  1
  Rh  Rh23  1  0.000000  0.000000  0.299003  1
  Rh  Rh24  1  0.500000  0.331916  0.992261  1
  Rh  Rh25  1  0.500000  0.668084  0.992261  1
  Rh  Rh26  1  0.000000  0.168084  0.007739  1
  Rh  Rh27  1  0.000000  0.831916  0.007739  1
  Rh  Rh28  1  0.500000  0.295330  0.431123  1
  Rh  Rh29  1  0.500000  0.704670  0.431123  1
  Rh  Rh30  1  0.000000  0.204670  0.568877  1
  Rh  Rh31  1  0.000000  0.795330  0.568877  1
  Rh  Rh32  1  0.500000  0.872535  0.711564  1
  Rh  Rh33  1  0.500000  0.127465  0.711564  1
  Rh  Rh34  1  0.000000  0.627465  0.288436  1
  Rh  Rh35  1  0.000000  0.372535  0.288436  1
