# generated using pymatgen
data_TbDy2Ni8Ir
_symmetry_space_group_name_H-M   'P 1'
_cell_length_a   4.97287460
_cell_length_b   4.97287627
_cell_length_c   8.78613967
_cell_angle_alpha   73.56092600
_cell_angle_beta   73.56093499
_cell_angle_gamma   60.00000406
_symmetry_Int_Tables_number   1
_chemical_formula_structural   TbDy2Ni8Ir
_chemical_formula_sum   'Tb1 Dy2 Ni8 Ir1'
_cell_volume   177.83721719
_cell_formula_units_Z   1
loop_
 _symmetry_equiv_pos_site_id
 _symmetry_equiv_pos_as_xyz
  1  'x, y, z'
loop_
 _atom_site_type_symbol
 _atom_site_label
 _atom_site_symmetry_multiplicity
 _atom_site_fract_x
 _atom_site_fract_y
 _atom_site_fract_z
 _atom_site_occupancy
  Tb  Tb0  1  0.000000  0.000000  0.000000  1
  Dy  Dy1  1  0.138383  0.138383  0.584854  1
  Dy  Dy2  1  0.861617  0.861617  0.415146  1
  Ni  Ni3  1  0.077808  0.581149  0.759891  1
  Ni  Ni4  1  0.581149  0.581149  0.759891  1
  Ni  Ni5  1  0.581149  0.077808  0.759891  1
  Ni  Ni6  1  0.922192  0.418851  0.240109  1
  Ni  Ni7  1  0.418851  0.418851  0.240109  1
  Ni  Ni8  1  0.418851  0.922192  0.240109  1
  Ni  Ni9  1  0.333140  0.333140  0.000579  1
  Ni  Ni10  1  0.666860  0.666860  0.999421  1
  Ir  Ir11  1  0.500000  0.500000  0.500000  1
