# generated using pymatgen
data_Sm7Er(Pt2Pb)4
_symmetry_space_group_name_H-M   'P 1'
_cell_length_a   8.03738352
_cell_length_b   8.03738508
_cell_length_c   7.36989900
_cell_angle_alpha   90.00000000
_cell_angle_beta   90.00000000
_cell_angle_gamma   89.53091846
_symmetry_Int_Tables_number   1
_chemical_formula_structural   Sm7Er(Pt2Pb)4
_chemical_formula_sum   'Sm7 Er1 Pt8 Pb4'
_cell_volume   476.07617637
_cell_formula_units_Z   1
loop_
 _symmetry_equiv_pos_site_id
 _symmetry_equiv_pos_as_xyz
  1  'x, y, z'
loop_
 _atom_site_type_symbol
 _atom_site_label
 _atom_site_symmetry_multiplicity
 _atom_site_fract_x
 _atom_site_fract_y
 _atom_site_fract_z
 _atom_site_occupancy
  Sm  Sm0  1  0.673778  0.671476  0.000000  1
  Sm  Sm1  1  0.334410  0.335830  0.500000  1
  Sm  Sm2  1  0.828241  0.171759  0.500000  1
  Sm  Sm3  1  0.664170  0.665590  0.500000  1
  Sm  Sm4  1  0.328524  0.326222  0.000000  1
  Sm  Sm5  1  0.174329  0.825671  0.500000  1
  Sm  Sm6  1  0.833650  0.166350  0.000000  1
  Er  Er7  1  0.162145  0.837855  0.000000  1
  Pt  Pt8  1  0.875689  0.871488  0.744718  1
  Pt  Pt9  1  0.128512  0.124311  0.744718  1
  Pt  Pt10  1  0.626295  0.373705  0.756619  1
  Pt  Pt11  1  0.626295  0.373705  0.243381  1
  Pt  Pt12  1  0.369128  0.630872  0.233187  1
  Pt  Pt13  1  0.128512  0.124311  0.255282  1
  Pt  Pt14  1  0.875689  0.871488  0.255282  1
  Pt  Pt15  1  0.369128  0.630872  0.766813  1
  Pb  Pb16  1  0.499158  0.998405  0.751901  1
  Pb  Pb17  1  0.499158  0.998405  0.248099  1
  Pb  Pb18  1  0.001595  0.500842  0.751901  1
  Pb  Pb19  1  0.001595  0.500842  0.248099  1
