# generated using pymatgen
data_Dy3ThMgCo
_symmetry_space_group_name_H-M   'P 1'
_cell_length_a   9.65323498
_cell_length_b   9.65323418
_cell_length_c   9.65323600
_cell_angle_alpha   60.00000063
_cell_angle_beta   60.00000335
_cell_angle_gamma   60.00000545
_symmetry_Int_Tables_number   1
_chemical_formula_structural   Dy3ThMgCo
_chemical_formula_sum   'Dy12 Th4 Mg4 Co4'
_cell_volume   636.06818984
_cell_formula_units_Z   4
loop_
 _symmetry_equiv_pos_site_id
 _symmetry_equiv_pos_as_xyz
  1  'x, y, z'
loop_
 _atom_site_type_symbol
 _atom_site_label
 _atom_site_symmetry_multiplicity
 _atom_site_fract_x
 _atom_site_fract_y
 _atom_site_fract_z
 _atom_site_occupancy
  Dy  Dy0  1  0.813425  0.186575  0.186575  1
  Dy  Dy1  1  0.186575  0.813425  0.813425  1
  Dy  Dy2  1  0.186575  0.813425  0.186575  1
  Dy  Dy3  1  0.813425  0.186575  0.813425  1
  Dy  Dy4  1  0.186575  0.186575  0.813425  1
  Dy  Dy5  1  0.813425  0.813425  0.186575  1
  Dy  Dy6  1  0.935563  0.564437  0.564437  1
  Dy  Dy7  1  0.564437  0.935563  0.935563  1
  Dy  Dy8  1  0.564437  0.935563  0.564437  1
  Dy  Dy9  1  0.935563  0.564437  0.935563  1
  Dy  Dy10  1  0.564437  0.564437  0.935563  1
  Dy  Dy11  1  0.935563  0.935563  0.564437  1
  Th  Th12  1  0.344138  0.344138  0.344138  1
  Th  Th13  1  0.344138  0.344138  0.967588  1
  Th  Th14  1  0.344138  0.967588  0.344138  1
  Th  Th15  1  0.967588  0.344138  0.344138  1
  Mg  Mg16  1  0.579840  0.579840  0.579840  1
  Mg  Mg17  1  0.579840  0.579840  0.260478  1
  Mg  Mg18  1  0.579840  0.260478  0.579840  1
  Mg  Mg19  1  0.260478  0.579840  0.579840  1
  Co  Co20  1  0.145123  0.145123  0.145123  1
  Co  Co21  1  0.145123  0.145123  0.564630  1
  Co  Co22  1  0.145123  0.564630  0.145123  1
  Co  Co23  1  0.564630  0.145123  0.145123  1
