# generated using pymatgen
data_YHo2Co7(P3Rh)2
_symmetry_space_group_name_H-M   'P 1'
_cell_length_a   3.71417000
_cell_length_b   10.63678700
_cell_length_c   12.35423200
_cell_angle_alpha   90.00000000
_cell_angle_beta   90.00000000
_cell_angle_gamma   90.00000000
_symmetry_Int_Tables_number   1
_chemical_formula_structural   YHo2Co7(P3Rh)2
_chemical_formula_sum   'Y2 Ho4 Co14 P12 Rh4'
_cell_volume   488.07660730
_cell_formula_units_Z   2
loop_
 _symmetry_equiv_pos_site_id
 _symmetry_equiv_pos_as_xyz
  1  'x, y, z'
loop_
 _atom_site_type_symbol
 _atom_site_label
 _atom_site_symmetry_multiplicity
 _atom_site_fract_x
 _atom_site_fract_y
 _atom_site_fract_z
 _atom_site_occupancy
  Y  Y0  1  0.000000  0.500000  0.520230  1
  Y  Y1  1  0.500000  0.000000  0.479770  1
  Ho  Ho2  1  0.500000  0.813760  0.205695  1
  Ho  Ho3  1  0.500000  0.186240  0.205695  1
  Ho  Ho4  1  0.000000  0.686240  0.794305  1
  Ho  Ho5  1  0.000000  0.313760  0.794305  1
  Co  Co6  1  0.000000  0.500000  0.987902  1
  Co  Co7  1  0.500000  0.000000  0.012098  1
  Co  Co8  1  0.500000  0.332075  0.993650  1
  Co  Co9  1  0.500000  0.667925  0.993650  1
  Co  Co10  1  0.000000  0.167925  0.006350  1
  Co  Co11  1  0.000000  0.832075  0.006350  1
  Co  Co12  1  0.500000  0.299712  0.429811  1
  Co  Co13  1  0.500000  0.700288  0.429811  1
  Co  Co14  1  0.000000  0.200288  0.570189  1
  Co  Co15  1  0.000000  0.799712  0.570189  1
  Co  Co16  1  0.500000  0.880277  0.709738  1
  Co  Co17  1  0.500000  0.119723  0.709738  1
  Co  Co18  1  0.000000  0.619723  0.290262  1
  Co  Co19  1  0.000000  0.380277  0.290262  1
  P  P20  1  0.500000  0.500000  0.889612  1
  P  P21  1  0.000000  0.000000  0.110388  1
  P  P22  1  0.500000  0.500000  0.349578  1
  P  P23  1  0.000000  0.000000  0.650422  1
  P  P24  1  0.500000  0.302229  0.613762  1
  P  P25  1  0.500000  0.697771  0.613762  1
  P  P26  1  0.000000  0.197771  0.386238  1
  P  P27  1  0.000000  0.802229  0.386238  1
  P  P28  1  0.500000  0.844502  0.894642  1
  P  P29  1  0.500000  0.155498  0.894642  1
  P  P30  1  0.000000  0.655498  0.105358  1
  P  P31  1  0.000000  0.344502  0.105358  1
  Rh  Rh32  1  0.500000  0.500000  0.159821  1
  Rh  Rh33  1  0.000000  0.000000  0.840179  1
  Rh  Rh34  1  0.500000  0.500000  0.703894  1
  Rh  Rh35  1  0.000000  0.000000  0.296106  1
