# generated using pymatgen
data_Zr6Bi2B
_symmetry_space_group_name_H-M   'P 1'
_cell_length_a   7.70335200
_cell_length_b   7.70335154
_cell_length_c   3.79129900
_cell_angle_alpha   90.00000000
_cell_angle_beta   90.00000000
_cell_angle_gamma   120.00000196
_symmetry_Int_Tables_number   1
_chemical_formula_structural   Zr6Bi2B
_chemical_formula_sum   'Zr6 Bi2 B1'
_cell_volume   194.83999961
_cell_formula_units_Z   1
loop_
 _symmetry_equiv_pos_site_id
 _symmetry_equiv_pos_as_xyz
  1  'x, y, z'
loop_
 _atom_site_type_symbol
 _atom_site_label
 _atom_site_symmetry_multiplicity
 _atom_site_fract_x
 _atom_site_fract_y
 _atom_site_fract_z
 _atom_site_occupancy
  Zr  Zr0  1  0.380503  0.000000  0.000000  1
  Zr  Zr1  1  0.000000  0.380504  0.000000  1
  Zr  Zr2  1  0.619497  0.619497  0.000000  1
  Zr  Zr3  1  0.773559  0.000000  0.500000  1
  Zr  Zr4  1  0.226442  0.226442  0.500000  1
  Zr  Zr5  1  0.000000  0.773558  0.500000  1
  Bi  Bi6  1  0.666666  0.333333  0.500000  1
  Bi  Bi7  1  0.333334  0.666667  0.500000  1
  B  B8  1  0.000000  0.000000  0.000000  1
