# generated using pymatgen
data_NaLa3P7Ir8
_symmetry_space_group_name_H-M   'P 1'
_cell_length_a   4.01651600
_cell_length_b   12.72855245
_cell_length_c   13.28088601
_cell_angle_alpha   82.11115148
_cell_angle_beta   90.00000000
_cell_angle_gamma   90.00000000
_symmetry_Int_Tables_number   1
_chemical_formula_structural   NaLa3P7Ir8
_chemical_formula_sum   'Na2 La6 P14 Ir16'
_cell_volume   672.55207467
_cell_formula_units_Z   2
loop_
 _symmetry_equiv_pos_site_id
 _symmetry_equiv_pos_as_xyz
  1  'x, y, z'
loop_
 _atom_site_type_symbol
 _atom_site_label
 _atom_site_symmetry_multiplicity
 _atom_site_fract_x
 _atom_site_fract_y
 _atom_site_fract_z
 _atom_site_occupancy
  Na  Na0  1  0.250000  0.211607  0.437038  1
  Na  Na1  1  0.750000  0.788393  0.562962  1
  La  La2  1  0.250000  0.104655  0.794269  1
  La  La3  1  0.750000  0.895345  0.205731  1
  La  La4  1  0.250000  0.283018  0.103584  1
  La  La5  1  0.750000  0.716982  0.896416  1
  La  La6  1  0.250000  0.510976  0.291423  1
  La  La7  1  0.750000  0.489024  0.708577  1
  P  P8  1  0.250000  0.055936  0.100039  1
  P  P9  1  0.750000  0.944064  0.899961  1
  P  P10  1  0.250000  0.311775  0.684459  1
  P  P11  1  0.750000  0.688225  0.315541  1
  P  P12  1  0.250000  0.613067  0.559899  1
  P  P13  1  0.750000  0.386933  0.440101  1
  P  P14  1  0.250000  0.846704  0.715032  1
  P  P15  1  0.750000  0.153296  0.284968  1
  P  P16  1  0.750000  0.256068  0.916069  1
  P  P17  1  0.250000  0.743932  0.083931  1
  P  P18  1  0.750000  0.089276  0.587676  1
  P  P19  1  0.250000  0.910724  0.412324  1
  P  P20  1  0.750000  0.471338  0.125669  1
  P  P21  1  0.250000  0.528662  0.874331  1
  Ir  Ir22  1  0.250000  0.985840  0.573191  1
  Ir  Ir23  1  0.750000  0.014160  0.426809  1
  Ir  Ir24  1  0.250000  0.664055  0.729501  1
  Ir  Ir25  1  0.750000  0.335945  0.270499  1
  Ir  Ir26  1  0.250000  0.551225  0.050107  1
  Ir  Ir27  1  0.750000  0.448775  0.949893  1
  Ir  Ir28  1  0.250000  0.061613  0.277033  1
  Ir  Ir29  1  0.750000  0.938387  0.722967  1
  Ir  Ir30  1  0.250000  0.422890  0.527397  1
  Ir  Ir31  1  0.750000  0.577110  0.472603  1
  Ir  Ir32  1  0.250000  0.917351  0.996850  1
  Ir  Ir33  1  0.750000  0.082649  0.003150  1
  Ir  Ir34  1  0.250000  0.730185  0.397070  1
  Ir  Ir35  1  0.750000  0.269815  0.602930  1
  Ir  Ir36  1  0.250000  0.340409  0.855229  1
  Ir  Ir37  1  0.750000  0.659591  0.144771  1
