# generated using pymatgen
data_Gd6Zn20Pd3C
_symmetry_space_group_name_H-M   'P 1'
_cell_length_a   8.97333450
_cell_length_b   8.97333338
_cell_length_c   8.95738000
_cell_angle_alpha   60.05880864
_cell_angle_beta   60.05881278
_cell_angle_gamma   59.88239382
_symmetry_Int_Tables_number   1
_chemical_formula_structural   Gd6Zn20Pd3C
_chemical_formula_sum   'Gd6 Zn20 Pd3 C1'
_cell_volume   510.00093186
_cell_formula_units_Z   1
loop_
 _symmetry_equiv_pos_site_id
 _symmetry_equiv_pos_as_xyz
  1  'x, y, z'
loop_
 _atom_site_type_symbol
 _atom_site_label
 _atom_site_symmetry_multiplicity
 _atom_site_fract_x
 _atom_site_fract_y
 _atom_site_fract_z
 _atom_site_occupancy
  Gd  Gd0  1  0.696303  0.303697  0.303697  1
  Gd  Gd1  1  0.303697  0.696303  0.696303  1
  Gd  Gd2  1  0.303697  0.696303  0.303697  1
  Gd  Gd3  1  0.696303  0.303697  0.696303  1
  Gd  Gd4  1  0.298585  0.298585  0.701415  1
  Gd  Gd5  1  0.701415  0.701415  0.298585  1
  Zn  Zn6  1  0.116995  0.116995  0.124450  1
  Zn  Zn7  1  0.883005  0.883005  0.875550  1
  Zn  Zn8  1  0.116995  0.116995  0.641561  1
  Zn  Zn9  1  0.124450  0.641561  0.116995  1
  Zn  Zn10  1  0.883005  0.883005  0.358439  1
  Zn  Zn11  1  0.875550  0.358439  0.883005  1
  Zn  Zn12  1  0.641561  0.124450  0.116995  1
  Zn  Zn13  1  0.358439  0.875550  0.883005  1
  Zn  Zn14  1  0.500000  0.000000  0.000000  1
  Zn  Zn15  1  0.000000  0.500000  0.500000  1
  Zn  Zn16  1  0.000000  0.500000  0.000000  1
  Zn  Zn17  1  0.500000  0.000000  0.500000  1
  Zn  Zn18  1  0.325465  0.325465  0.328206  1
  Zn  Zn19  1  0.674535  0.674535  0.671794  1
  Zn  Zn20  1  0.325465  0.325465  0.020866  1
  Zn  Zn21  1  0.328206  0.020866  0.325465  1
  Zn  Zn22  1  0.674535  0.674535  0.979134  1
  Zn  Zn23  1  0.671794  0.979134  0.674535  1
  Zn  Zn24  1  0.020866  0.328206  0.325465  1
  Zn  Zn25  1  0.979134  0.671794  0.674535  1
  Pd  Pd26  1  0.000000  0.000000  0.500000  1
  Pd  Pd27  1  0.500000  0.500000  0.000000  1
  Pd  Pd28  1  0.000000  0.000000  0.000000  1
  C  C29  1  0.500000  0.500000  0.500000  1
