# generated using pymatgen
data_Co3Cl4O
_symmetry_space_group_name_H-M   'P 1'
_cell_length_a   8.98712400
_cell_length_b   8.98707000
_cell_length_c   8.98737100
_cell_angle_alpha   90.00000000
_cell_angle_beta   90.00000000
_cell_angle_gamma   90.00000000
_symmetry_Int_Tables_number   1
_chemical_formula_structural   Co3Cl4O
_chemical_formula_sum   'Co12 Cl16 O4'
_cell_volume   725.89119441
_cell_formula_units_Z   4
loop_
 _symmetry_equiv_pos_site_id
 _symmetry_equiv_pos_as_xyz
  1  'x, y, z'
loop_
 _atom_site_type_symbol
 _atom_site_label
 _atom_site_symmetry_multiplicity
 _atom_site_fract_x
 _atom_site_fract_y
 _atom_site_fract_z
 _atom_site_occupancy
  Co  Co0  1  0.151117  0.776294  0.014768  1
  Co  Co1  1  0.776293  0.014769  0.151121  1
  Co  Co2  1  0.514763  0.348877  0.223708  1
  Co  Co3  1  0.485236  0.848878  0.276292  1
  Co  Co4  1  0.223707  0.514769  0.348878  1
  Co  Co5  1  0.848883  0.276294  0.485231  1
  Co  Co6  1  0.348882  0.223706  0.514768  1
  Co  Co7  1  0.723707  0.985231  0.651121  1
  Co  Co8  1  0.985237  0.651122  0.723708  1
  Co  Co9  1  0.014763  0.151122  0.776292  1
  Co  Co10  1  0.276293  0.485230  0.848879  1
  Co  Co11  1  0.651117  0.723706  0.985232  1
  Cl  Cl12  1  0.627666  0.199787  0.051339  1
  Cl  Cl13  1  0.444231  0.555766  0.055773  1
  Cl  Cl14  1  0.300219  0.948657  0.127661  1
  Cl  Cl15  1  0.051343  0.627666  0.199782  1
  Cl  Cl16  1  0.948657  0.127665  0.300218  1
  Cl  Cl17  1  0.699780  0.448658  0.372338  1
  Cl  Cl18  1  0.555768  0.055766  0.444226  1
  Cl  Cl19  1  0.372334  0.699786  0.448662  1
  Cl  Cl20  1  0.872334  0.800214  0.551339  1
  Cl  Cl21  1  0.055768  0.444233  0.555773  1
  Cl  Cl22  1  0.199781  0.051343  0.627662  1
  Cl  Cl23  1  0.448658  0.372334  0.699781  1
  Cl  Cl24  1  0.551343  0.872334  0.800219  1
  Cl  Cl25  1  0.800220  0.551343  0.872338  1
  Cl  Cl26  1  0.944232  0.944234  0.944227  1
  Cl  Cl27  1  0.127665  0.300213  0.948661  1
  O  O28  1  0.664868  0.835135  0.164859  1
  O  O29  1  0.335132  0.335135  0.335140  1
  O  O30  1  0.835132  0.164864  0.664860  1
  O  O31  1  0.164867  0.664865  0.835140  1
