# generated using pymatgen
data_LaDy4(MnB3)2
_symmetry_space_group_name_H-M   'P 1'
_cell_length_a   5.43500139
_cell_length_b   5.43500187
_cell_length_c   8.34613583
_cell_angle_alpha   70.99807377
_cell_angle_beta   70.99807233
_cell_angle_gamma   60.00001008
_symmetry_Int_Tables_number   1
_chemical_formula_structural   LaDy4(MnB3)2
_chemical_formula_sum   'La1 Dy4 Mn2 B6'
_cell_volume   197.84387561
_cell_formula_units_Z   1
loop_
 _symmetry_equiv_pos_site_id
 _symmetry_equiv_pos_as_xyz
  1  'x, y, z'
loop_
 _atom_site_type_symbol
 _atom_site_label
 _atom_site_symmetry_multiplicity
 _atom_site_fract_x
 _atom_site_fract_y
 _atom_site_fract_z
 _atom_site_occupancy
  La  La0  1  0.000000  0.000000  0.000000  1
  Dy  Dy1  1  0.249566  0.249566  0.251302  1
  Dy  Dy2  1  0.750434  0.750434  0.748698  1
  Dy  Dy3  1  0.417869  0.417869  0.746393  1
  Dy  Dy4  1  0.582131  0.582131  0.253607  1
  Mn  Mn5  1  0.114978  0.114978  0.655066  1
  Mn  Mn6  1  0.885022  0.885022  0.344934  1
  B  B7  1  0.165957  0.834043  0.500000  1
  B  B8  1  0.834043  0.500000  0.500000  1
  B  B9  1  0.500000  0.165957  0.500000  1
  B  B10  1  0.165957  0.500000  0.500000  1
  B  B11  1  0.500000  0.834043  0.500000  1
  B  B12  1  0.834043  0.165957  0.500000  1
