# generated using pymatgen
data_LiEr16Hg3Pd4
_symmetry_space_group_name_H-M   'P 1'
_cell_length_a   9.59190423
_cell_length_b   9.60246912
_cell_length_c   9.60247000
_cell_angle_alpha   60.00000385
_cell_angle_beta   59.96356190
_cell_angle_gamma   59.96355656
_symmetry_Int_Tables_number   1
_chemical_formula_structural   LiEr16Hg3Pd4
_chemical_formula_sum   'Li1 Er16 Hg3 Pd4'
_cell_volume   625.05221270
_cell_formula_units_Z   1
loop_
 _symmetry_equiv_pos_site_id
 _symmetry_equiv_pos_as_xyz
  1  'x, y, z'
loop_
 _atom_site_type_symbol
 _atom_site_label
 _atom_site_symmetry_multiplicity
 _atom_site_fract_x
 _atom_site_fract_y
 _atom_site_fract_z
 _atom_site_occupancy
  Li  Li0  1  0.301148  0.566291  0.566291  1
  Er  Er1  1  0.358330  0.354150  0.354150  1
  Er  Er2  1  0.358320  0.354149  0.933380  1
  Er  Er3  1  0.358320  0.933380  0.354149  1
  Er  Er4  1  0.920089  0.359978  0.359978  1
  Er  Er5  1  0.809103  0.189181  0.189181  1
  Er  Er6  1  0.183581  0.814622  0.814622  1
  Er  Er7  1  0.183561  0.814644  0.187150  1
  Er  Er8  1  0.809097  0.189184  0.812550  1
  Er  Er9  1  0.183561  0.187150  0.814644  1
  Er  Er10  1  0.809097  0.812550  0.189184  1
  Er  Er11  1  0.932423  0.566195  0.566195  1
  Er  Er12  1  0.564877  0.934531  0.934531  1
  Er  Er13  1  0.564853  0.934530  0.566057  1
  Er  Er14  1  0.932386  0.566193  0.935215  1
  Er  Er15  1  0.564853  0.566057  0.934530  1
  Er  Er16  1  0.932386  0.935215  0.566193  1
  Hg  Hg17  1  0.581913  0.590670  0.590670  1
  Hg  Hg18  1  0.581903  0.590690  0.236732  1
  Hg  Hg19  1  0.581903  0.236732  0.590690  1
  Pd  Pd20  1  0.141424  0.147565  0.147565  1
  Pd  Pd21  1  0.141510  0.147528  0.563436  1
  Pd  Pd22  1  0.141510  0.563436  0.147528  1
  Pd  Pd23  1  0.563851  0.145383  0.145383  1
