# generated using pymatgen
data_Li12Tb9Nd3(WO6)8
_symmetry_space_group_name_H-M   'P 1'
_cell_length_a   10.76408722
_cell_length_b   10.77679503
_cell_length_c   10.76408698
_cell_angle_alpha   109.37307571
_cell_angle_beta   109.42591555
_cell_angle_gamma   109.56707838
_symmetry_Int_Tables_number   1
_chemical_formula_structural   Li12Tb9Nd3(WO6)8
_chemical_formula_sum   'Li12 Tb9 Nd3 W8 O48'
_cell_volume   961.78048846
_cell_formula_units_Z   1
loop_
 _symmetry_equiv_pos_site_id
 _symmetry_equiv_pos_as_xyz
  1  'x, y, z'
loop_
 _atom_site_type_symbol
 _atom_site_label
 _atom_site_symmetry_multiplicity
 _atom_site_fract_x
 _atom_site_fract_y
 _atom_site_fract_z
 _atom_site_occupancy
  Li  Li0  1  0.876644  0.249999  0.126643  1
  Li  Li1  1  0.624361  0.749999  0.374357  1
  Li  Li2  1  0.126179  0.876238  0.250019  1
  Li  Li3  1  0.249205  0.125073  0.875108  1
  Li  Li4  1  0.750032  0.374924  0.624128  1
  Li  Li5  1  0.373778  0.623760  0.749941  1
  Li  Li6  1  0.249991  0.624292  0.374344  1
  Li  Li7  1  0.750056  0.875708  0.125701  1
  Li  Li8  1  0.623985  0.374015  0.250817  1
  Li  Li9  1  0.373758  0.250002  0.623755  1
  Li  Li10  1  0.125271  0.750001  0.875270  1
  Li  Li11  1  0.876803  0.125986  0.749973  1
  Tb  Tb12  1  0.250090  0.375141  0.124916  1
  Tb  Tb13  1  0.749776  0.124854  0.374941  1
  Tb  Tb14  1  0.125046  0.249993  0.375047  1
  Tb  Tb15  1  0.375075  0.124875  0.249963  1
  Tb  Tb16  1  0.374989  0.749999  0.124989  1
  Tb  Tb17  1  0.125094  0.375141  0.750210  1
  Tb  Tb18  1  0.750738  0.625409  0.874340  1
  Tb  Tb19  1  0.248931  0.874586  0.625322  1
  Tb  Tb20  1  0.875967  0.749993  0.625968  1
  Nd  Nd21  1  0.624688  0.873761  0.749325  1
  Nd  Nd22  1  0.624098  0.249999  0.874098  1
  Nd  Nd23  1  0.875569  0.626255  0.250937  1
  W  W24  1  0.002433  0.000521  0.001112  1
  W  W25  1  0.498084  0.999256  0.496953  1
  W  W26  1  0.497697  0.500742  0.998826  1
  W  W27  1  0.000591  0.499474  0.501912  1
  W  W28  1  0.499514  0.497652  0.498794  1
  W  W29  1  0.498010  0.998653  0.001073  1
  W  W30  1  0.001137  0.002336  0.501848  1
  W  W31  1  0.002420  0.501342  0.999356  1
  O  O32  1  0.300408  0.472772  0.381364  1
  O  O33  1  0.590755  0.917936  0.119319  1
  O  O34  1  0.201383  0.582062  0.172818  1
  O  O35  1  0.908602  0.027234  0.327656  1
  O  O36  1  0.380442  0.298295  0.471518  1
  O  O37  1  0.472142  0.380026  0.299389  1
  O  O38  1  0.326197  0.908253  0.029051  1
  O  O39  1  0.919364  0.119983  0.592129  1
  O  O40  1  0.120798  0.591745  0.917943  1
  O  O41  1  0.580375  0.172362  0.200135  1
  O  O42  1  0.173235  0.201718  0.582161  1
  O  O43  1  0.027773  0.327638  0.908011  1
  O  O44  1  0.027221  0.199191  0.118492  1
  O  O45  1  0.580562  0.908017  0.380156  1
  O  O46  1  0.919300  0.300808  0.328029  1
  O  O47  1  0.472139  0.591982  0.172544  1
  O  O48  1  0.201966  0.119614  0.028537  1
  O  O49  1  0.120029  0.027770  0.200732  1
  O  O50  1  0.590884  0.173015  0.471477  1
  O  O51  1  0.379312  0.581793  0.908370  1
  O  O52  1  0.908924  0.380384  0.582350  1
  O  O53  1  0.326575  0.918205  0.297517  1
  O  O54  1  0.298460  0.326983  0.917867  1
  O  O55  1  0.172961  0.472228  0.592256  1
  O  O56  1  0.699988  0.526757  0.618876  1
  O  O57  1  0.404916  0.077767  0.881159  1
  O  O58  1  0.803391  0.422230  0.827148  1
  O  O59  1  0.092130  0.973251  0.673252  1
  O  O60  1  0.618374  0.696056  0.523819  1
  O  O61  1  0.524337  0.613003  0.697952  1
  O  O62  1  0.673336  0.090980  0.978388  1
  O  O63  1  0.084949  0.887005  0.411347  1
  O  O64  1  0.887409  0.409020  0.082356  1
  O  O65  1  0.414388  0.825509  0.801401  1
  O  O66  1  0.827775  0.803955  0.422331  1
  O  O67  1  0.975892  0.674491  0.088878  1
  O  O68  1  0.973516  0.800243  0.881045  1
  O  O69  1  0.414606  0.088941  0.613223  1
  O  O70  1  0.080801  0.699758  0.673270  1
  O  O71  1  0.524282  0.411058  0.825664  1
  O  O72  1  0.803886  0.881413  0.975954  1
  O  O73  1  0.887286  0.975580  0.801836  1
  O  O74  1  0.405316  0.827068  0.523859  1
  O  O75  1  0.612627  0.417953  0.091353  1
  O  O76  1  0.094541  0.618584  0.422471  1
  O  O77  1  0.673398  0.082045  0.694672  1
  O  O78  1  0.696789  0.672929  0.078246  1
  O  O79  1  0.826255  0.524417  0.411703  1
