# generated using pymatgen
data_Ho16MgAg3Rh4
_symmetry_space_group_name_H-M   'P 1'
_cell_length_a   9.53546186
_cell_length_b   9.53680023
_cell_length_c   9.53680100
_cell_angle_alpha   59.99994072
_cell_angle_beta   59.99570552
_cell_angle_gamma   59.99550264
_symmetry_Int_Tables_number   1
_chemical_formula_structural   Ho16MgAg3Rh4
_chemical_formula_sum   'Ho16 Mg1 Ag3 Rh4'
_cell_volume   613.20132877
_cell_formula_units_Z   1
loop_
 _symmetry_equiv_pos_site_id
 _symmetry_equiv_pos_as_xyz
  1  'x, y, z'
loop_
 _atom_site_type_symbol
 _atom_site_label
 _atom_site_symmetry_multiplicity
 _atom_site_fract_x
 _atom_site_fract_y
 _atom_site_fract_z
 _atom_site_occupancy
  Ho  Ho0  1  0.353204  0.351061  0.351054  1
  Ho  Ho1  1  0.353217  0.351065  0.944666  1
  Ho  Ho2  1  0.353215  0.944666  0.351060  1
  Ho  Ho3  1  0.932895  0.355711  0.355704  1
  Ho  Ho4  1  0.811716  0.187826  0.187827  1
  Ho  Ho5  1  0.185742  0.813691  0.813698  1
  Ho  Ho6  1  0.185744  0.813685  0.186867  1
  Ho  Ho7  1  0.811718  0.187831  0.812622  1
  Ho  Ho8  1  0.185741  0.186864  0.813694  1
  Ho  Ho9  1  0.811720  0.812618  0.187832  1
  Ho  Ho10  1  0.933338  0.564457  0.564450  1
  Ho  Ho11  1  0.563746  0.935211  0.935207  1
  Ho  Ho12  1  0.563742  0.935212  0.565835  1
  Ho  Ho13  1  0.933344  0.564452  0.937760  1
  Ho  Ho14  1  0.563745  0.565844  0.935205  1
  Ho  Ho15  1  0.933341  0.937766  0.564446  1
  Mg  Mg16  1  0.284103  0.571969  0.571970  1
  Ag  Ag17  1  0.582633  0.583769  0.583773  1
  Ag  Ag18  1  0.582632  0.583765  0.249830  1
  Ag  Ag19  1  0.582636  0.249828  0.583774  1
  Rh  Rh20  1  0.141205  0.145449  0.145451  1
  Rh  Rh21  1  0.141211  0.145434  0.567898  1
  Rh  Rh22  1  0.141215  0.567894  0.145437  1
  Rh  Rh23  1  0.568196  0.143928  0.143937  1
