# generated using pymatgen
data_Cs6DyInBr12
_symmetry_space_group_name_H-M   'P 1'
_cell_length_a   10.00360664
_cell_length_b   9.98240053
_cell_length_c   8.29897700
_cell_angle_alpha   90.00000000
_cell_angle_beta   90.00000000
_cell_angle_gamma   90.25419302
_symmetry_Int_Tables_number   1
_chemical_formula_structural   Cs6DyInBr12
_chemical_formula_sum   'Cs6 Dy1 In1 Br12'
_cell_volume   828.72775584
_cell_formula_units_Z   1
loop_
 _symmetry_equiv_pos_site_id
 _symmetry_equiv_pos_as_xyz
  1  'x, y, z'
loop_
 _atom_site_type_symbol
 _atom_site_label
 _atom_site_symmetry_multiplicity
 _atom_site_fract_x
 _atom_site_fract_y
 _atom_site_fract_z
 _atom_site_occupancy
  Cs  Cs0  1  0.000000  0.000000  0.500000  1
  Cs  Cs1  1  0.000000  0.000000  0.000000  1
  Cs  Cs2  1  0.236617  0.585006  0.500000  1
  Cs  Cs3  1  0.763383  0.414994  0.500000  1
  Cs  Cs4  1  0.416783  0.233589  0.000000  1
  Cs  Cs5  1  0.583217  0.766411  0.000000  1
  Dy  Dy6  1  0.000000  0.500000  0.000000  1
  In  In7  1  0.500000  0.000000  0.500000  1
  Br  Br8  1  0.686539  0.057477  0.734643  1
  Br  Br9  1  0.313461  0.942523  0.734643  1
  Br  Br10  1  0.942624  0.692068  0.240403  1
  Br  Br11  1  0.057376  0.307932  0.240403  1
  Br  Br12  1  0.313461  0.942523  0.265357  1
  Br  Br13  1  0.686539  0.057477  0.265357  1
  Br  Br14  1  0.057376  0.307932  0.759597  1
  Br  Br15  1  0.942624  0.692068  0.759597  1
  Br  Br16  1  0.569938  0.737554  0.500000  1
  Br  Br17  1  0.430062  0.262446  0.500000  1
  Br  Br18  1  0.270258  0.571932  0.000000  1
  Br  Br19  1  0.729742  0.428068  0.000000  1
