# generated using pymatgen
data_Gd2In4IrPt
_symmetry_space_group_name_H-M   'P 1'
_cell_length_a   5.60164000
_cell_length_b   5.60163879
_cell_length_c   8.23622700
_cell_angle_alpha   90.00000000
_cell_angle_beta   90.00000000
_cell_angle_gamma   135.31079221
_symmetry_Int_Tables_number   1
_chemical_formula_structural   Gd2In4IrPt
_chemical_formula_sum   'Gd2 In4 Ir1 Pt1'
_cell_volume   181.75024968
_cell_formula_units_Z   1
loop_
 _symmetry_equiv_pos_site_id
 _symmetry_equiv_pos_as_xyz
  1  'x, y, z'
loop_
 _atom_site_type_symbol
 _atom_site_label
 _atom_site_symmetry_multiplicity
 _atom_site_fract_x
 _atom_site_fract_y
 _atom_site_fract_z
 _atom_site_occupancy
  Gd  Gd0  1  0.569136  0.430864  0.250000  1
  Gd  Gd1  1  0.432720  0.567280  0.750000  1
  In  In2  1  0.857873  0.142127  0.449234  1
  In  In3  1  0.141550  0.858450  0.546738  1
  In  In4  1  0.857873  0.142127  0.050766  1
  In  In5  1  0.141550  0.858450  0.953262  1
  Ir  Ir6  1  0.276099  0.723901  0.250000  1
  Pt  Pt7  1  0.723198  0.276802  0.750000  1
