# generated using pymatgen
data_Ba5TcN5
_symmetry_space_group_name_H-M   'P 1'
_cell_length_a   8.12270761
_cell_length_b   8.12215280
_cell_length_c   9.60842408
_cell_angle_alpha   76.30882342
_cell_angle_beta   76.30593944
_cell_angle_gamma   97.05630297
_symmetry_Int_Tables_number   1
_chemical_formula_structural   Ba5TcN5
_chemical_formula_sum   'Ba10 Tc2 N10'
_cell_volume   587.54351318
_cell_formula_units_Z   2
loop_
 _symmetry_equiv_pos_site_id
 _symmetry_equiv_pos_as_xyz
  1  'x, y, z'
loop_
 _atom_site_type_symbol
 _atom_site_label
 _atom_site_symmetry_multiplicity
 _atom_site_fract_x
 _atom_site_fract_y
 _atom_site_fract_z
 _atom_site_occupancy
  Ba  Ba0  1  0.386262  0.386237  0.389969  1
  Ba  Ba1  1  0.613738  0.613763  0.610031  1
  Ba  Ba2  1  0.667060  0.667075  0.011014  1
  Ba  Ba3  1  0.332940  0.332925  0.988986  1
  Ba  Ba4  1  0.921234  0.921187  0.208092  1
  Ba  Ba5  1  0.078766  0.078813  0.791908  1
  Ba  Ba6  1  0.565184  0.096755  0.750268  1
  Ba  Ba7  1  0.903225  0.434748  0.249747  1
  Ba  Ba8  1  0.434816  0.903245  0.249732  1
  Ba  Ba9  1  0.096775  0.565252  0.750253  1
  Tc  Tc10  1  0.756448  0.243574  0.999993  1
  Tc  Tc11  1  0.243552  0.756426  0.000007  1
  N  N12  1  0.653093  0.653040  0.307158  1
  N  N13  1  0.346907  0.346960  0.692842  1
  N  N14  1  0.713902  0.016682  0.991526  1
  N  N15  1  0.983323  0.286074  0.008496  1
  N  N16  1  0.286098  0.983318  0.008474  1
  N  N17  1  0.016677  0.713926  0.991504  1
  N  N18  1  0.390541  0.729886  0.832704  1
  N  N19  1  0.270106  0.609468  0.167290  1
  N  N20  1  0.609459  0.270114  0.167295  1
  N  N21  1  0.729894  0.390532  0.832709  1
