# generated using pymatgen
data_Hf4Fe6SiGe
_symmetry_space_group_name_H-M   'P 1'
_cell_length_a   4.97650303
_cell_length_b   4.97650307
_cell_length_c   8.05795600
_cell_angle_alpha   90.00051749
_cell_angle_beta   89.99948288
_cell_angle_gamma   120.00078425
_symmetry_Int_Tables_number   1
_chemical_formula_structural   Hf4Fe6SiGe
_chemical_formula_sum   'Hf4 Fe6 Si1 Ge1'
_cell_volume   172.82264225
_cell_formula_units_Z   1
loop_
 _symmetry_equiv_pos_site_id
 _symmetry_equiv_pos_as_xyz
  1  'x, y, z'
loop_
 _atom_site_type_symbol
 _atom_site_label
 _atom_site_symmetry_multiplicity
 _atom_site_fract_x
 _atom_site_fract_y
 _atom_site_fract_z
 _atom_site_occupancy
  Hf  Hf0  1  0.666667  0.333333  0.064526  1
  Hf  Hf1  1  0.333333  0.666667  0.935474  1
  Hf  Hf2  1  0.333330  0.666670  0.565637  1
  Hf  Hf3  1  0.666670  0.333330  0.434363  1
  Fe  Fe4  1  0.828514  0.657024  0.753532  1
  Fe  Fe5  1  0.828532  0.171468  0.753536  1
  Fe  Fe6  1  0.342976  0.171486  0.753532  1
  Fe  Fe7  1  0.171486  0.342976  0.246468  1
  Fe  Fe8  1  0.171468  0.828532  0.246464  1
  Fe  Fe9  1  0.657024  0.828514  0.246468  1
  Si  Si10  1  0.000000  0.000000  0.000000  1
  Ge  Ge11  1  0.000000  0.000000  0.500000  1
