# generated using pymatgen
data_BaSi2(Ni3P)3
_symmetry_space_group_name_H-M   'P 1'
_cell_length_a   6.63450500
_cell_length_b   6.63450536
_cell_length_c   10.71789600
_cell_angle_alpha   90.00000000
_cell_angle_beta   90.00000000
_cell_angle_gamma   120.00000318
_symmetry_Int_Tables_number   1
_chemical_formula_structural   BaSi2(Ni3P)3
_chemical_formula_sum   'Ba2 Si4 Ni18 P6'
_cell_volume   408.56130444
_cell_formula_units_Z   2
loop_
 _symmetry_equiv_pos_site_id
 _symmetry_equiv_pos_as_xyz
  1  'x, y, z'
loop_
 _atom_site_type_symbol
 _atom_site_label
 _atom_site_symmetry_multiplicity
 _atom_site_fract_x
 _atom_site_fract_y
 _atom_site_fract_z
 _atom_site_occupancy
  Ba  Ba0  1  0.000000  0.000000  0.500000  1
  Ba  Ba1  1  0.000000  0.000000  0.000000  1
  Si  Si2  1  0.333333  0.666667  0.435327  1
  Si  Si3  1  0.666667  0.333333  0.935327  1
  Si  Si4  1  0.666667  0.333333  0.564673  1
  Si  Si5  1  0.333333  0.666667  0.064673  1
  Ni  Ni6  1  0.461457  0.922913  0.889074  1
  Ni  Ni7  1  0.922913  0.461457  0.110926  1
  Ni  Ni8  1  0.538543  0.077087  0.110926  1
  Ni  Ni9  1  0.077087  0.538543  0.610926  1
  Ni  Ni10  1  0.202927  0.405852  0.250000  1
  Ni  Ni11  1  0.797073  0.202927  0.750000  1
  Ni  Ni12  1  0.405852  0.202927  0.750000  1
  Ni  Ni13  1  0.594148  0.797073  0.250000  1
  Ni  Ni14  1  0.202927  0.797073  0.250000  1
  Ni  Ni15  1  0.797073  0.594148  0.750000  1
  Ni  Ni16  1  0.461457  0.922913  0.610926  1
  Ni  Ni17  1  0.538543  0.461457  0.389074  1
  Ni  Ni18  1  0.922913  0.461457  0.389074  1
  Ni  Ni19  1  0.077087  0.538543  0.889074  1
  Ni  Ni20  1  0.461457  0.538543  0.889074  1
  Ni  Ni21  1  0.538543  0.077087  0.389074  1
  Ni  Ni22  1  0.538543  0.461457  0.110926  1
  Ni  Ni23  1  0.461457  0.538543  0.610926  1
  P  P24  1  0.174295  0.348590  0.750000  1
  P  P25  1  0.825705  0.174295  0.250000  1
  P  P26  1  0.174295  0.825705  0.750000  1
  P  P27  1  0.825705  0.651410  0.250000  1
  P  P28  1  0.348590  0.174295  0.250000  1
  P  P29  1  0.651410  0.825705  0.750000  1
