# generated using pymatgen
data_YEr2GaSn3Ir2
_symmetry_space_group_name_H-M   'P 1'
_cell_length_a   7.40968400
_cell_length_b   7.43608134
_cell_length_c   4.10869800
_cell_angle_alpha   90.00000000
_cell_angle_beta   90.00000000
_cell_angle_gamma   120.16126099
_symmetry_Int_Tables_number   1
_chemical_formula_structural   YEr2GaSn3Ir2
_chemical_formula_sum   'Y1 Er2 Ga1 Sn3 Ir2'
_cell_volume   195.73597717
_cell_formula_units_Z   1
loop_
 _symmetry_equiv_pos_site_id
 _symmetry_equiv_pos_as_xyz
  1  'x, y, z'
loop_
 _atom_site_type_symbol
 _atom_site_label
 _atom_site_symmetry_multiplicity
 _atom_site_fract_x
 _atom_site_fract_y
 _atom_site_fract_z
 _atom_site_occupancy
  Y  Y0  1  0.398471  0.410416  0.500000  1
  Er  Er1  1  0.589428  0.985347  0.500000  1
  Er  Er2  1  0.014819  0.604268  0.500000  1
  Ga  Ga3  1  0.667706  0.333006  0.000000  1
  Sn  Sn4  1  0.743333  0.748454  0.000000  1
  Sn  Sn5  1  0.251866  0.995019  0.000000  1
  Sn  Sn6  1  0.004089  0.256579  0.000000  1
  Ir  Ir7  1  0.332587  0.669220  0.000000  1
  Ir  Ir8  1  0.997701  0.997689  0.500000  1
