# generated using pymatgen
data_TbHo4Co16(MoP4)3
_symmetry_space_group_name_H-M   'P 1'
_cell_length_a   12.08069400
_cell_length_b   12.08069459
_cell_length_c   3.70623500
_cell_angle_alpha   90.00000000
_cell_angle_beta   90.00000000
_cell_angle_gamma   120.00000387
_symmetry_Int_Tables_number   1
_chemical_formula_structural   TbHo4Co16(MoP4)3
_chemical_formula_sum   'Tb1 Ho4 Co16 Mo3 P12'
_cell_volume   468.43286437
_cell_formula_units_Z   1
loop_
 _symmetry_equiv_pos_site_id
 _symmetry_equiv_pos_as_xyz
  1  'x, y, z'
loop_
 _atom_site_type_symbol
 _atom_site_label
 _atom_site_symmetry_multiplicity
 _atom_site_fract_x
 _atom_site_fract_y
 _atom_site_fract_z
 _atom_site_occupancy
  Tb  Tb0  1  0.666667  0.333333  0.000000  1
  Ho  Ho1  1  0.333333  0.666667  0.000000  1
  Ho  Ho2  1  0.814718  0.814743  0.500000  1
  Ho  Ho3  1  0.185257  0.999974  0.500000  1
  Ho  Ho4  1  0.000026  0.185282  0.500000  1
  Co  Co5  1  0.873366  0.355246  0.500000  1
  Co  Co6  1  0.644754  0.518120  0.500000  1
  Co  Co7  1  0.481880  0.126634  0.500000  1
  Co  Co8  1  0.355198  0.872809  0.500000  1
  Co  Co9  1  0.517611  0.644802  0.500000  1
  Co  Co10  1  0.127191  0.482389  0.500000  1
  Co  Co11  1  0.802409  0.177034  0.000000  1
  Co  Co12  1  0.822966  0.625374  0.000000  1
  Co  Co13  1  0.374626  0.197591  0.000000  1
  Co  Co14  1  0.177231  0.802295  0.000000  1
  Co  Co15  1  0.625063  0.822769  0.000000  1
  Co  Co16  1  0.197705  0.374937  0.000000  1
  Co  Co17  1  0.280112  0.280224  0.500000  1
  Co  Co18  1  0.719776  0.999888  0.500000  1
  Co  Co19  1  0.000112  0.719888  0.500000  1
  Co  Co20  1  0.000000  0.000000  0.000000  1
  Mo  Mo21  1  0.446019  0.446137  0.000000  1
  Mo  Mo22  1  0.553863  0.999882  0.000000  1
  Mo  Mo23  1  0.000118  0.553981  0.000000  1
  P  P24  1  0.686350  0.165090  0.500000  1
  P  P25  1  0.834910  0.521260  0.500000  1
  P  P26  1  0.478740  0.313650  0.500000  1
  P  P27  1  0.165716  0.686299  0.500000  1
  P  P28  1  0.520583  0.834284  0.500000  1
  P  P29  1  0.313701  0.479417  0.500000  1
  P  P30  1  0.178321  0.178366  0.000000  1
  P  P31  1  0.821634  0.999955  0.000000  1
  P  P32  1  0.000045  0.821679  0.000000  1
  P  P33  1  0.639297  0.639249  0.000000  1
  P  P34  1  0.360751  0.000049  0.000000  1
  P  P35  1  0.999951  0.360703  0.000000  1
