# generated using pymatgen
data_Zr8P12Ir15Ru
_symmetry_space_group_name_H-M   'P 1'
_cell_length_a   12.80517298
_cell_length_b   12.79857474
_cell_length_c   3.93127900
_cell_angle_alpha   90.00000000
_cell_angle_beta   90.00000000
_cell_angle_gamma   120.23426239
_symmetry_Int_Tables_number   1
_chemical_formula_structural   Zr8P12Ir15Ru
_chemical_formula_sum   'Zr8 P12 Ir15 Ru1'
_cell_volume   556.64911219
_cell_formula_units_Z   1
loop_
 _symmetry_equiv_pos_site_id
 _symmetry_equiv_pos_as_xyz
  1  'x, y, z'
loop_
 _atom_site_type_symbol
 _atom_site_label
 _atom_site_symmetry_multiplicity
 _atom_site_fract_x
 _atom_site_fract_y
 _atom_site_fract_z
 _atom_site_occupancy
  Zr  Zr0  1  0.449556  0.450039  0.000000  1
  Zr  Zr1  1  0.549656  0.999642  0.000000  1
  Zr  Zr2  1  0.998495  0.549092  0.000000  1
  Zr  Zr3  1  0.666176  0.333252  0.000000  1
  Zr  Zr4  1  0.332506  0.663492  0.000000  1
  Zr  Zr5  1  0.820815  0.820976  0.500000  1
  Zr  Zr6  1  0.178853  0.000919  0.500000  1
  Zr  Zr7  1  0.001310  0.180444  0.500000  1
  P  P8  1  0.650234  0.650605  0.000000  1
  P  P9  1  0.349729  0.000159  0.000000  1
  P  P10  1  0.005058  0.349873  0.000000  1
  P  P11  1  0.482860  0.314003  0.500000  1
  P  P12  1  0.685755  0.168902  0.500000  1
  P  P13  1  0.830664  0.516702  0.500000  1
  P  P14  1  0.516309  0.830387  0.500000  1
  P  P15  1  0.168526  0.684736  0.500000  1
  P  P16  1  0.827343  0.001284  0.000000  1
  P  P17  1  0.000690  0.827174  0.000000  1
  P  P18  1  0.310810  0.480173  0.500000  1
  P  P19  1  0.173136  0.177408  0.000000  1
  Ir  Ir20  1  0.178004  0.811460  0.000000  1
  Ir  Ir21  1  0.821828  0.633991  0.000000  1
  Ir  Ir22  1  0.812714  0.179248  0.000000  1
  Ir  Ir23  1  0.367392  0.188179  0.000000  1
  Ir  Ir24  1  0.135135  0.492012  0.500000  1
  Ir  Ir25  1  0.354666  0.859535  0.500000  1
  Ir  Ir26  1  0.505156  0.644535  0.500000  1
  Ir  Ir27  1  0.645309  0.506033  0.500000  1
  Ir  Ir28  1  0.859269  0.355209  0.500000  1
  Ir  Ir29  1  0.494428  0.139054  0.500000  1
  Ir  Ir30  1  0.000373  0.000430  0.000000  1
  Ir  Ir31  1  0.721056  0.000285  0.500000  1
  Ir  Ir32  1  0.000009  0.721045  0.500000  1
  Ir  Ir33  1  0.633796  0.822204  0.000000  1
  Ir  Ir34  1  0.279066  0.276865  0.500000  1
  Ru  Ru35  1  0.193320  0.370653  0.000000  1
