# generated using pymatgen
data_ErTm4(In2Pt)2
_symmetry_space_group_name_H-M   'P 1'
_cell_length_a   3.57039200
_cell_length_b   8.11896500
_cell_length_c   18.14099700
_cell_angle_alpha   90.00000000
_cell_angle_beta   90.00000000
_cell_angle_gamma   90.00000000
_symmetry_Int_Tables_number   1
_chemical_formula_structural   ErTm4(In2Pt)2
_chemical_formula_sum   'Er2 Tm8 In8 Pt4'
_cell_volume   525.86918352
_cell_formula_units_Z   2
loop_
 _symmetry_equiv_pos_site_id
 _symmetry_equiv_pos_as_xyz
  1  'x, y, z'
loop_
 _atom_site_type_symbol
 _atom_site_label
 _atom_site_symmetry_multiplicity
 _atom_site_fract_x
 _atom_site_fract_y
 _atom_site_fract_z
 _atom_site_occupancy
  Er  Er0  1  0.000000  0.000000  0.000000  1
  Er  Er1  1  0.000000  0.500000  0.500000  1
  Tm  Tm2  1  0.000000  0.116580  0.414771  1
  Tm  Tm3  1  0.000000  0.883420  0.585229  1
  Tm  Tm4  1  0.000000  0.383420  0.914771  1
  Tm  Tm5  1  0.000000  0.616580  0.085229  1
  Tm  Tm6  1  0.000000  0.243409  0.220711  1
  Tm  Tm7  1  0.000000  0.756591  0.779289  1
  Tm  Tm8  1  0.000000  0.256591  0.720711  1
  Tm  Tm9  1  0.000000  0.743409  0.279289  1
  In  In10  1  0.500000  0.423551  0.351531  1
  In  In11  1  0.500000  0.576449  0.648469  1
  In  In12  1  0.500000  0.076449  0.851531  1
  In  In13  1  0.500000  0.923551  0.148469  1
  In  In14  1  0.500000  0.292306  0.066679  1
  In  In15  1  0.500000  0.707694  0.933321  1
  In  In16  1  0.500000  0.207694  0.566679  1
  In  In17  1  0.500000  0.792306  0.433321  1
  Pt  Pt18  1  0.500000  0.025245  0.303748  1
  Pt  Pt19  1  0.500000  0.974755  0.696252  1
  Pt  Pt20  1  0.500000  0.474755  0.803748  1
  Pt  Pt21  1  0.500000  0.525245  0.196252  1
