# generated using pymatgen
data_Ho6Al24GaFe6Ir
_symmetry_space_group_name_H-M   'P 1'
_cell_length_a   8.67482131
_cell_length_b   8.67479247
_cell_length_c   9.33110400
_cell_angle_alpha   90.31106396
_cell_angle_beta   89.75040243
_cell_angle_gamma   119.70562124
_symmetry_Int_Tables_number   1
_chemical_formula_structural   Ho6Al24GaFe6Ir
_chemical_formula_sum   'Ho6 Al24 Ga1 Fe6 Ir1'
_cell_volume   609.89733784
_cell_formula_units_Z   1
loop_
 _symmetry_equiv_pos_site_id
 _symmetry_equiv_pos_as_xyz
  1  'x, y, z'
loop_
 _atom_site_type_symbol
 _atom_site_label
 _atom_site_symmetry_multiplicity
 _atom_site_fract_x
 _atom_site_fract_y
 _atom_site_fract_z
 _atom_site_occupancy
  Ho  Ho0  1  0.194174  0.386862  0.244825  1
  Ho  Ho1  1  0.805826  0.613138  0.755175  1
  Ho  Ho2  1  0.613495  0.805338  0.245530  1
  Ho  Ho3  1  0.386505  0.194662  0.754470  1
  Ho  Ho4  1  0.193990  0.803829  0.255565  1
  Ho  Ho5  1  0.806010  0.196171  0.744435  1
  Al  Al6  1  0.323906  0.675866  0.016421  1
  Al  Al7  1  0.676094  0.324134  0.983579  1
  Al  Al8  1  0.670901  0.341932  0.517748  1
  Al  Al9  1  0.329099  0.658068  0.482252  1
  Al  Al10  1  0.160096  0.321801  0.572031  1
  Al  Al11  1  0.839904  0.678199  0.427969  1
  Al  Al12  1  0.679375  0.836177  0.572532  1
  Al  Al13  1  0.856379  0.681684  0.080176  1
  Al  Al14  1  0.320625  0.163823  0.427468  1
  Al  Al15  1  0.143621  0.318316  0.919824  1
  Al  Al16  1  0.156949  0.834836  0.577913  1
  Al  Al17  1  0.317491  0.143266  0.079660  1
  Al  Al18  1  0.843051  0.165164  0.422087  1
  Al  Al19  1  0.682509  0.856734  0.920340  1
  Al  Al20  1  0.839720  0.160920  0.077814  1
  Al  Al21  1  0.160280  0.839080  0.922186  1
  Al  Al22  1  0.561169  0.119577  0.243279  1
  Al  Al23  1  0.438831  0.880423  0.756721  1
  Al  Al24  1  0.884074  0.440795  0.249506  1
  Al  Al25  1  0.115926  0.559205  0.750494  1
  Al  Al26  1  0.564671  0.436102  0.263657  1
  Al  Al27  1  0.435329  0.563898  0.736343  1
  Al  Al28  1  0.998906  0.000797  0.250865  1
  Al  Al29  1  0.001094  0.999203  0.749135  1
  Ga  Ga30  1  0.500000  0.500000  0.000000  1
  Fe  Fe31  1  0.500000  0.000000  0.000000  1
  Fe  Fe32  1  0.000000  0.500000  0.000000  1
  Fe  Fe33  1  0.000000  0.500000  0.500000  1
  Fe  Fe34  1  0.500000  0.500000  0.500000  1
  Fe  Fe35  1  0.000000  0.000000  0.000000  1
  Fe  Fe36  1  0.000000  0.000000  0.500000  1
  Ir  Ir37  1  0.500000  0.000000  0.500000  1
