# generated using pymatgen
data_Tc2Br2F11
_symmetry_space_group_name_H-M   'P 1'
_cell_length_a   7.88831130
_cell_length_b   7.88831102
_cell_length_c   5.36942332
_cell_angle_alpha   79.05702547
_cell_angle_beta   79.05702538
_cell_angle_gamma   66.02522860
_symmetry_Int_Tables_number   1
_chemical_formula_structural   Tc2Br2F11
_chemical_formula_sum   'Tc2 Br2 F11'
_cell_volume   297.36321089
_cell_formula_units_Z   1
loop_
 _symmetry_equiv_pos_site_id
 _symmetry_equiv_pos_as_xyz
  1  'x, y, z'
loop_
 _atom_site_type_symbol
 _atom_site_label
 _atom_site_symmetry_multiplicity
 _atom_site_fract_x
 _atom_site_fract_y
 _atom_site_fract_z
 _atom_site_occupancy
  Tc  Tc0  1  0.345721  0.356018  0.456199  1
  Tc  Tc1  1  0.643982  0.654279  0.543801  1
  Br  Br2  1  0.054523  0.060524  0.128738  1
  Br  Br3  1  0.939476  0.945477  0.871262  1
  F  F4  1  0.199639  0.560058  0.247691  1
  F  F5  1  0.439942  0.800361  0.752309  1
  F  F6  1  0.522137  0.274851  0.175274  1
  F  F7  1  0.725149  0.477863  0.824726  1
  F  F8  1  0.479793  0.520207  0.500000  1
  F  F9  1  0.792996  0.779505  0.584857  1
  F  F10  1  0.220495  0.207004  0.415143  1
  F  F11  1  0.556755  0.822436  0.257632  1
  F  F12  1  0.177564  0.443245  0.742368  1
  F  F13  1  0.836406  0.498576  0.331497  1
  F  F14  1  0.501424  0.163594  0.668503  1
