# generated using pymatgen
data_CdBi3Ir3RuO14
_symmetry_space_group_name_H-M   'P 1'
_cell_length_a   7.26040959
_cell_length_b   7.29111427
_cell_length_c   7.26040933
_cell_angle_alpha   61.16107247
_cell_angle_beta   61.00471097
_cell_angle_gamma   61.16106673
_symmetry_Int_Tables_number   1
_chemical_formula_structural   CdBi3Ir3RuO14
_chemical_formula_sum   'Cd1 Bi3 Ir3 Ru1 O14'
_cell_volume   278.55192930
_cell_formula_units_Z   1
loop_
 _symmetry_equiv_pos_site_id
 _symmetry_equiv_pos_as_xyz
  1  'x, y, z'
loop_
 _atom_site_type_symbol
 _atom_site_label
 _atom_site_symmetry_multiplicity
 _atom_site_fract_x
 _atom_site_fract_y
 _atom_site_fract_z
 _atom_site_occupancy
  Cd  Cd0  1  0.125000  0.125000  0.125000  1
  Bi  Bi1  1  0.125000  0.625000  0.125000  1
  Bi  Bi2  1  0.125000  0.125000  0.625000  1
  Bi  Bi3  1  0.625000  0.125000  0.125000  1
  Ir  Ir4  1  0.625000  0.625000  0.125000  1
  Ir  Ir5  1  0.125000  0.625000  0.625000  1
  Ir  Ir6  1  0.625000  0.625000  0.625000  1
  Ru  Ru7  1  0.625000  0.125000  0.625000  1
  O  O8  1  0.706058  0.707122  0.295074  1
  O  O9  1  0.954926  0.542878  0.543942  1
  O  O10  1  0.558105  0.949946  0.949239  1
  O  O11  1  0.949239  0.949946  0.558105  1
  O  O12  1  0.955127  0.546140  0.955127  1
  O  O13  1  0.544895  0.952273  0.544895  1
  O  O14  1  0.294873  0.703860  0.294873  1
  O  O15  1  0.295074  0.707122  0.706058  1
  O  O16  1  0.691895  0.300054  0.300761  1
  O  O17  1  0.705105  0.297727  0.705105  1
  O  O18  1  0.543942  0.542878  0.954926  1
  O  O19  1  0.300761  0.300054  0.691895  1
  O  O20  1  0.246026  0.247596  0.246026  1
  O  O21  1  0.003974  0.002404  0.003974  1
