# generated using pymatgen
data_Hf4Al4CuRe3
_symmetry_space_group_name_H-M   'P 1'
_cell_length_a   5.21580593
_cell_length_b   5.21580567
_cell_length_c   8.56286200
_cell_angle_alpha   90.00000000
_cell_angle_beta   90.00000000
_cell_angle_gamma   119.15329962
_symmetry_Int_Tables_number   1
_chemical_formula_structural   Hf4Al4CuRe3
_chemical_formula_sum   'Hf4 Al4 Cu1 Re3'
_cell_volume   203.43931896
_cell_formula_units_Z   1
loop_
 _symmetry_equiv_pos_site_id
 _symmetry_equiv_pos_as_xyz
  1  'x, y, z'
loop_
 _atom_site_type_symbol
 _atom_site_label
 _atom_site_symmetry_multiplicity
 _atom_site_fract_x
 _atom_site_fract_y
 _atom_site_fract_z
 _atom_site_occupancy
  Hf  Hf0  1  0.667136  0.332864  0.307386  1
  Hf  Hf1  1  0.334090  0.665910  0.180999  1
  Hf  Hf2  1  0.334090  0.665910  0.819001  1
  Hf  Hf3  1  0.667136  0.332864  0.692614  1
  Al  Al4  1  0.005886  0.994114  0.256359  1
  Al  Al5  1  0.005886  0.994114  0.743641  1
  Al  Al6  1  0.647584  0.832981  0.500000  1
  Al  Al7  1  0.167019  0.352416  0.500000  1
  Cu  Cu8  1  0.166341  0.833659  0.500000  1
  Re  Re9  1  0.339709  0.168205  0.000000  1
  Re  Re10  1  0.831795  0.660291  0.000000  1
  Re  Re11  1  0.833181  0.166819  0.000000  1
