# generated using pymatgen
data_Pr3Re(P3Rh4)2
_symmetry_space_group_name_H-M   'P 1'
_cell_length_a   4.02290300
_cell_length_b   11.44864600
_cell_length_c   12.81800700
_cell_angle_alpha   90.00000000
_cell_angle_beta   90.00000000
_cell_angle_gamma   90.00000000
_symmetry_Int_Tables_number   1
_chemical_formula_structural   Pr3Re(P3Rh4)2
_chemical_formula_sum   'Pr6 Re2 P12 Rh16'
_cell_volume   590.35628660
_cell_formula_units_Z   2
loop_
 _symmetry_equiv_pos_site_id
 _symmetry_equiv_pos_as_xyz
  1  'x, y, z'
loop_
 _atom_site_type_symbol
 _atom_site_label
 _atom_site_symmetry_multiplicity
 _atom_site_fract_x
 _atom_site_fract_y
 _atom_site_fract_z
 _atom_site_occupancy
  Pr  Pr0  1  0.000000  0.500000  0.518968  1
  Pr  Pr1  1  0.500000  0.000000  0.481032  1
  Pr  Pr2  1  0.500000  0.820729  0.203977  1
  Pr  Pr3  1  0.500000  0.179271  0.203977  1
  Pr  Pr4  1  0.000000  0.679271  0.796023  1
  Pr  Pr5  1  0.000000  0.320729  0.796023  1
  Re  Re6  1  0.000000  0.500000  0.993501  1
  Re  Re7  1  0.500000  0.000000  0.006499  1
  P  P8  1  0.500000  0.500000  0.885180  1
  P  P9  1  0.000000  0.000000  0.114820  1
  P  P10  1  0.500000  0.500000  0.344052  1
  P  P11  1  0.000000  0.000000  0.655948  1
  P  P12  1  0.500000  0.310455  0.617342  1
  P  P13  1  0.500000  0.689545  0.617342  1
  P  P14  1  0.000000  0.189545  0.382658  1
  P  P15  1  0.000000  0.810455  0.382658  1
  P  P16  1  0.500000  0.843389  0.894872  1
  P  P17  1  0.500000  0.156611  0.894872  1
  P  P18  1  0.000000  0.656611  0.105128  1
  P  P19  1  0.000000  0.343389  0.105128  1
  Rh  Rh20  1  0.500000  0.500000  0.161785  1
  Rh  Rh21  1  0.000000  0.000000  0.838215  1
  Rh  Rh22  1  0.500000  0.500000  0.699365  1
  Rh  Rh23  1  0.000000  0.000000  0.300635  1
  Rh  Rh24  1  0.500000  0.332405  0.995203  1
  Rh  Rh25  1  0.500000  0.667595  0.995203  1
  Rh  Rh26  1  0.000000  0.167595  0.004797  1
  Rh  Rh27  1  0.000000  0.832405  0.004797  1
  Rh  Rh28  1  0.500000  0.293750  0.429623  1
  Rh  Rh29  1  0.500000  0.706250  0.429623  1
  Rh  Rh30  1  0.000000  0.206250  0.570377  1
  Rh  Rh31  1  0.000000  0.793750  0.570377  1
  Rh  Rh32  1  0.500000  0.874080  0.712457  1
  Rh  Rh33  1  0.500000  0.125920  0.712457  1
  Rh  Rh34  1  0.000000  0.625920  0.287543  1
  Rh  Rh35  1  0.000000  0.374080  0.287543  1
