# generated using pymatgen
data_Zr13Mn2(Al3Ir2)3
_symmetry_space_group_name_H-M   'P 1'
_cell_length_a   9.15215906
_cell_length_b   9.15215825
_cell_length_c   9.15215912
_cell_angle_alpha   59.80927226
_cell_angle_beta   59.80927565
_cell_angle_gamma   59.80928636
_symmetry_Int_Tables_number   1
_chemical_formula_structural   Zr13Mn2(Al3Ir2)3
_chemical_formula_sum   'Zr13 Mn2 Al9 Ir6'
_cell_volume   539.72355317
_cell_formula_units_Z   1
loop_
 _symmetry_equiv_pos_site_id
 _symmetry_equiv_pos_as_xyz
  1  'x, y, z'
loop_
 _atom_site_type_symbol
 _atom_site_label
 _atom_site_symmetry_multiplicity
 _atom_site_fract_x
 _atom_site_fract_y
 _atom_site_fract_z
 _atom_site_occupancy
  Zr  Zr0  1  0.203788  0.203788  0.799078  1
  Zr  Zr1  1  0.799078  0.203788  0.203788  1
  Zr  Zr2  1  0.203788  0.799078  0.203788  1
  Zr  Zr3  1  0.807022  0.807022  0.172565  1
  Zr  Zr4  1  0.172565  0.807022  0.807022  1
  Zr  Zr5  1  0.807022  0.172565  0.807022  1
  Zr  Zr6  1  0.381666  0.381666  0.381666  1
  Zr  Zr7  1  0.382917  0.856653  0.382917  1
  Zr  Zr8  1  0.856653  0.382917  0.382917  1
  Zr  Zr9  1  0.382917  0.382917  0.856653  1
  Zr  Zr10  1  0.838588  0.482774  0.838588  1
  Zr  Zr11  1  0.482774  0.838588  0.838588  1
  Zr  Zr12  1  0.838588  0.838588  0.482774  1
  Mn  Mn13  1  0.499850  0.499850  0.499850  1
  Mn  Mn14  1  0.003790  0.003790  0.003790  1
  Al  Al15  1  0.159709  0.159709  0.159709  1
  Al  Al16  1  0.162261  0.517026  0.162261  1
  Al  Al17  1  0.517026  0.162261  0.162261  1
  Al  Al18  1  0.162261  0.162261  0.517026  1
  Al  Al19  1  0.614486  0.614486  0.614486  1
  Al  Al20  1  0.617494  0.154659  0.617494  1
  Al  Al21  1  0.154659  0.617494  0.617494  1
  Al  Al22  1  0.617494  0.617494  0.154659  1
  Al  Al23  1  0.826877  0.826877  0.826877  1
  Ir  Ir24  1  0.004733  0.004733  0.500680  1
  Ir  Ir25  1  0.500680  0.004733  0.004733  1
  Ir  Ir26  1  0.004733  0.500680  0.004733  1
  Ir  Ir27  1  0.495450  0.495450  0.005682  1
  Ir  Ir28  1  0.005682  0.495450  0.495450  1
  Ir  Ir29  1  0.495450  0.005682  0.495450  1
