# generated using pymatgen
data_Pr4LuSi2Pb
_symmetry_space_group_name_H-M   'P 1'
_cell_length_a   7.75159285
_cell_length_b   7.75159374
_cell_length_c   9.41467916
_cell_angle_alpha   114.31015619
_cell_angle_beta   114.31015892
_cell_angle_gamma   90.00000128
_symmetry_Int_Tables_number   1
_chemical_formula_structural   Pr4LuSi2Pb
_chemical_formula_sum   'Pr8 Lu2 Si4 Pb2'
_cell_volume   459.94221695
_cell_formula_units_Z   2
loop_
 _symmetry_equiv_pos_site_id
 _symmetry_equiv_pos_as_xyz
  1  'x, y, z'
loop_
 _atom_site_type_symbol
 _atom_site_label
 _atom_site_symmetry_multiplicity
 _atom_site_fract_x
 _atom_site_fract_y
 _atom_site_fract_z
 _atom_site_occupancy
  Pr  Pr0  1  0.962608  0.810383  0.272991  1
  Pr  Pr1  1  0.310383  0.462608  0.272991  1
  Pr  Pr2  1  0.810383  0.310383  0.272991  1
  Pr  Pr3  1  0.462608  0.962608  0.272991  1
  Pr  Pr4  1  0.037392  0.189617  0.727009  1
  Pr  Pr5  1  0.689617  0.537392  0.727009  1
  Pr  Pr6  1  0.189617  0.689617  0.727009  1
  Pr  Pr7  1  0.537392  0.037392  0.727009  1
  Lu  Lu8  1  0.500000  0.500000  0.000000  1
  Lu  Lu9  1  0.000000  0.000000  0.000000  1
  Si  Si10  1  0.622628  0.877372  0.000000  1
  Si  Si11  1  0.377372  0.122628  0.000000  1
  Si  Si12  1  0.877372  0.377372  0.000000  1
  Si  Si13  1  0.122628  0.622628  0.000000  1
  Pb  Pb14  1  0.750000  0.750000  0.500000  1
  Pb  Pb15  1  0.250000  0.250000  0.500000  1
