# generated using pymatgen
data_Sr2SiNi2
_symmetry_space_group_name_H-M   'P 1'
_cell_length_a   4.06665900
_cell_length_b   4.06664655
_cell_length_c   8.84434300
_cell_angle_alpha   89.99994293
_cell_angle_beta   89.99765722
_cell_angle_gamma   119.99983718
_symmetry_Int_Tables_number   1
_chemical_formula_structural   Sr2SiNi2
_chemical_formula_sum   'Sr2 Si1 Ni2'
_cell_volume   126.66922282
_cell_formula_units_Z   1
loop_
 _symmetry_equiv_pos_site_id
 _symmetry_equiv_pos_as_xyz
  1  'x, y, z'
loop_
 _atom_site_type_symbol
 _atom_site_label
 _atom_site_symmetry_multiplicity
 _atom_site_fract_x
 _atom_site_fract_y
 _atom_site_fract_z
 _atom_site_occupancy
  Sr  Sr0  1  0.666621  0.333312  0.286594  1
  Sr  Sr1  1  0.333378  0.666689  0.713406  1
  Si  Si2  1  0.000000  0.000000  0.000000  1
  Ni  Ni3  1  0.333332  0.666667  0.047941  1
  Ni  Ni4  1  0.666667  0.333334  0.952059  1
