# generated using pymatgen
data_Zr6Zn17Ag6P
_symmetry_space_group_name_H-M   'P 1'
_cell_length_a   8.90683703
_cell_length_b   8.90507392
_cell_length_c   8.90507400
_cell_angle_alpha   59.99999969
_cell_angle_beta   60.00654764
_cell_angle_gamma   60.00654268
_symmetry_Int_Tables_number   1
_chemical_formula_structural   Zr6Zn17Ag6P
_chemical_formula_sum   'Zr6 Zn17 Ag6 P1'
_cell_volume   499.48968784
_cell_formula_units_Z   1
loop_
 _symmetry_equiv_pos_site_id
 _symmetry_equiv_pos_as_xyz
  1  'x, y, z'
loop_
 _atom_site_type_symbol
 _atom_site_label
 _atom_site_symmetry_multiplicity
 _atom_site_fract_x
 _atom_site_fract_y
 _atom_site_fract_z
 _atom_site_occupancy
  Zr  Zr0  1  0.702680  0.297238  0.297238  1
  Zr  Zr1  1  0.297320  0.702762  0.702762  1
  Zr  Zr2  1  0.297320  0.702762  0.297155  1
  Zr  Zr3  1  0.702680  0.297238  0.702845  1
  Zr  Zr4  1  0.297320  0.297155  0.702762  1
  Zr  Zr5  1  0.702680  0.702845  0.297238  1
  Zn  Zn6  1  0.635854  0.121382  0.121382  1
  Zn  Zn7  1  0.364146  0.878618  0.878618  1
  Zn  Zn8  1  0.500000  0.000000  0.000000  1
  Zn  Zn9  1  0.000000  0.500000  0.500000  1
  Zn  Zn10  1  0.000000  0.500000  0.000000  1
  Zn  Zn11  1  0.500000  0.000000  0.500000  1
  Zn  Zn12  1  0.000000  0.000000  0.500000  1
  Zn  Zn13  1  0.500000  0.500000  0.000000  1
  Zn  Zn14  1  0.334980  0.334165  0.334165  1
  Zn  Zn15  1  0.665020  0.665835  0.665835  1
  Zn  Zn16  1  0.334980  0.334165  0.996691  1
  Zn  Zn17  1  0.334980  0.996691  0.334165  1
  Zn  Zn18  1  0.665020  0.665835  0.003309  1
  Zn  Zn19  1  0.665020  0.003309  0.665835  1
  Zn  Zn20  1  0.996844  0.334386  0.334386  1
  Zn  Zn21  1  0.003156  0.665614  0.665614  1
  Zn  Zn22  1  0.000000  0.000000  0.000000  1
  Ag  Ag23  1  0.121633  0.119626  0.119626  1
  Ag  Ag24  1  0.878367  0.880374  0.880374  1
  Ag  Ag25  1  0.121633  0.119626  0.639115  1
  Ag  Ag26  1  0.121633  0.639115  0.119626  1
  Ag  Ag27  1  0.878367  0.880374  0.360885  1
  Ag  Ag28  1  0.878367  0.360885  0.880374  1
  P  P29  1  0.500000  0.500000  0.500000  1
