# generated using pymatgen
data_Y2Ga2CuIr
_symmetry_space_group_name_H-M   'P 1'
_cell_length_a   4.39081300
_cell_length_b   6.91925900
_cell_length_c   7.57155900
_cell_angle_alpha   90.00000000
_cell_angle_beta   90.00000000
_cell_angle_gamma   90.00000000
_symmetry_Int_Tables_number   1
_chemical_formula_structural   Y2Ga2CuIr
_chemical_formula_sum   'Y4 Ga4 Cu2 Ir2'
_cell_volume   230.03283907
_cell_formula_units_Z   2
loop_
 _symmetry_equiv_pos_site_id
 _symmetry_equiv_pos_as_xyz
  1  'x, y, z'
loop_
 _atom_site_type_symbol
 _atom_site_label
 _atom_site_symmetry_multiplicity
 _atom_site_fract_x
 _atom_site_fract_y
 _atom_site_fract_z
 _atom_site_occupancy
  Y  Y0  1  0.250000  0.991019  0.296235  1
  Y  Y1  1  0.250000  0.491019  0.203765  1
  Y  Y2  1  0.750000  0.021743  0.690377  1
  Y  Y3  1  0.750000  0.521743  0.809623  1
  Ga  Ga4  1  0.250000  0.323906  0.581067  1
  Ga  Ga5  1  0.250000  0.823906  0.918933  1
  Ga  Ga6  1  0.750000  0.675277  0.430091  1
  Ga  Ga7  1  0.750000  0.175277  0.069909  1
  Cu  Cu8  1  0.250000  0.209063  0.901695  1
  Cu  Cu9  1  0.250000  0.709063  0.598305  1
  Ir  Ir10  1  0.750000  0.778992  0.099369  1
  Ir  Ir11  1  0.750000  0.278992  0.400631  1
