# generated using pymatgen
data_Lu10CuSn6P
_symmetry_space_group_name_H-M   'P 1'
_cell_length_a   6.45875600
_cell_length_b   8.89347414
_cell_length_c   8.89347400
_cell_angle_alpha   120.00000691
_cell_angle_beta   90.00000000
_cell_angle_gamma   90.00000000
_symmetry_Int_Tables_number   1
_chemical_formula_structural   Lu10CuSn6P
_chemical_formula_sum   'Lu10 Cu1 Sn6 P1'
_cell_volume   442.40738300
_cell_formula_units_Z   1
loop_
 _symmetry_equiv_pos_site_id
 _symmetry_equiv_pos_as_xyz
  1  'x, y, z'
loop_
 _atom_site_type_symbol
 _atom_site_label
 _atom_site_symmetry_multiplicity
 _atom_site_fract_x
 _atom_site_fract_y
 _atom_site_fract_z
 _atom_site_occupancy
  Lu  Lu0  1  0.763961  0.749157  0.749157  1
  Lu  Lu1  1  0.236039  0.250843  0.250843  1
  Lu  Lu2  1  0.763961  0.000000  0.250843  1
  Lu  Lu3  1  0.236039  0.000000  0.749157  1
  Lu  Lu4  1  0.763961  0.250843  0.000000  1
  Lu  Lu5  1  0.236039  0.749157  0.000000  1
  Lu  Lu6  1  0.000000  0.666667  0.333333  1
  Lu  Lu7  1  0.000000  0.333333  0.666667  1
  Lu  Lu8  1  0.500000  0.333333  0.666667  1
  Lu  Lu9  1  0.500000  0.666667  0.333333  1
  Cu  Cu10  1  0.500000  0.000000  0.000000  1
  Sn  Sn11  1  0.747925  0.393440  0.393440  1
  Sn  Sn12  1  0.252075  0.606560  0.606560  1
  Sn  Sn13  1  0.747925  0.000000  0.606560  1
  Sn  Sn14  1  0.252075  0.000000  0.393440  1
  Sn  Sn15  1  0.747925  0.606560  0.000000  1
  Sn  Sn16  1  0.252075  0.393440  0.000000  1
  P  P17  1  0.000000  0.000000  0.000000  1
