# generated using pymatgen
data_Tb6Y4Si5P
_symmetry_space_group_name_H-M   'P 1'
_cell_length_a   8.44572841
_cell_length_b   8.45218940
_cell_length_c   6.34997600
_cell_angle_alpha   90.00000000
_cell_angle_beta   90.00000000
_cell_angle_gamma   119.93904710
_symmetry_Int_Tables_number   1
_chemical_formula_structural   Tb6Y4Si5P
_chemical_formula_sum   'Tb6 Y4 Si5 P1'
_cell_volume   392.80360454
_cell_formula_units_Z   1
loop_
 _symmetry_equiv_pos_site_id
 _symmetry_equiv_pos_as_xyz
  1  'x, y, z'
loop_
 _atom_site_type_symbol
 _atom_site_label
 _atom_site_symmetry_multiplicity
 _atom_site_fract_x
 _atom_site_fract_y
 _atom_site_fract_z
 _atom_site_occupancy
  Tb  Tb0  1  0.000803  0.756381  0.750000  1
  Tb  Tb1  1  0.754441  0.999929  0.750000  1
  Tb  Tb2  1  0.333762  0.667469  0.500524  1
  Tb  Tb3  1  0.666262  0.332519  0.999491  1
  Tb  Tb4  1  0.666262  0.332519  0.500509  1
  Tb  Tb5  1  0.333762  0.667469  0.999476  1
  Y  Y6  1  0.000995  0.244670  0.250000  1
  Y  Y7  1  0.756219  0.755213  0.250000  1
  Y  Y8  1  0.244461  0.243608  0.750000  1
  Y  Y9  1  0.244436  0.000002  0.250000  1
  Si  Si10  1  0.393651  0.393042  0.250000  1
  Si  Si11  1  0.000658  0.607066  0.250000  1
  Si  Si12  1  0.000354  0.393199  0.750000  1
  Si  Si13  1  0.606789  0.606636  0.750000  1
  Si  Si14  1  0.608035  0.000050  0.250000  1
  P  P15  1  0.389106  0.000229  0.750000  1
