# generated using pymatgen
data_Pr8ZnCu(Si6Pd)2
_symmetry_space_group_name_H-M   'P 1'
_cell_length_a   8.22548500
_cell_length_b   8.22548664
_cell_length_c   8.64099500
_cell_angle_alpha   90.00000000
_cell_angle_beta   90.00000000
_cell_angle_gamma   120.00000546
_symmetry_Int_Tables_number   1
_chemical_formula_structural   Pr8ZnCu(Si6Pd)2
_chemical_formula_sum   'Pr8 Zn1 Cu1 Si12 Pd2'
_cell_volume   506.31113406
_cell_formula_units_Z   1
loop_
 _symmetry_equiv_pos_site_id
 _symmetry_equiv_pos_as_xyz
  1  'x, y, z'
loop_
 _atom_site_type_symbol
 _atom_site_label
 _atom_site_symmetry_multiplicity
 _atom_site_fract_x
 _atom_site_fract_y
 _atom_site_fract_z
 _atom_site_occupancy
  Pr  Pr0  1  0.499346  0.500654  0.750247  1
  Pr  Pr1  1  0.500057  0.499943  0.249715  1
  Pr  Pr2  1  0.001308  0.500654  0.750247  1
  Pr  Pr3  1  0.999886  0.499943  0.249715  1
  Pr  Pr4  1  0.499346  0.998692  0.750247  1
  Pr  Pr5  1  0.500057  0.000114  0.249715  1
  Pr  Pr6  1  0.000000  0.000000  0.749727  1
  Pr  Pr7  1  0.000000  0.000000  0.250496  1
  Zn  Zn8  1  0.666667  0.333333  0.995925  1
  Cu  Cu9  1  0.333333  0.666667  0.002296  1
  Si  Si10  1  0.835078  0.164922  0.001036  1
  Si  Si11  1  0.170417  0.829583  0.999404  1
  Si  Si12  1  0.329844  0.164922  0.001036  1
  Si  Si13  1  0.165977  0.834023  0.499844  1
  Si  Si14  1  0.659167  0.829583  0.999404  1
  Si  Si15  1  0.833909  0.166091  0.500314  1
  Si  Si16  1  0.835078  0.670156  0.001036  1
  Si  Si17  1  0.668046  0.834023  0.499844  1
  Si  Si18  1  0.170417  0.340833  0.999404  1
  Si  Si19  1  0.332182  0.166091  0.500314  1
  Si  Si20  1  0.165977  0.331954  0.499844  1
  Si  Si21  1  0.833909  0.667818  0.500314  1
  Pd  Pd22  1  0.333333  0.666667  0.498708  1
  Pd  Pd23  1  0.666667  0.333333  0.501170  1
