# generated using pymatgen
data_Nd4Ga10NiPt5
_symmetry_space_group_name_H-M   'P 1'
_cell_length_a   8.64465679
_cell_length_b   8.64465746
_cell_length_c   8.64465764
_cell_angle_alpha   140.00497625
_cell_angle_beta   107.10822646
_cell_angle_gamma   86.54423509
_symmetry_Int_Tables_number   1
_chemical_formula_structural   Nd4Ga10NiPt5
_chemical_formula_sum   'Nd4 Ga10 Ni1 Pt5'
_cell_volume   382.23530145
_cell_formula_units_Z   1
loop_
 _symmetry_equiv_pos_site_id
 _symmetry_equiv_pos_as_xyz
  1  'x, y, z'
loop_
 _atom_site_type_symbol
 _atom_site_label
 _atom_site_symmetry_multiplicity
 _atom_site_fract_x
 _atom_site_fract_y
 _atom_site_fract_z
 _atom_site_occupancy
  Nd  Nd0  1  0.637351  0.853612  0.765509  1
  Nd  Nd1  1  0.362649  0.128157  0.216260  1
  Nd  Nd2  1  0.088103  0.371843  0.734491  1
  Nd  Nd3  1  0.911897  0.646388  0.283740  1
  Ga  Ga4  1  0.287082  0.037082  0.750000  1
  Ga  Ga5  1  0.711428  0.961428  0.250000  1
  Ga  Ga6  1  0.712918  0.462918  0.750000  1
  Ga  Ga7  1  0.288572  0.538572  0.250000  1
  Ga  Ga8  1  0.435504  0.577671  0.825055  1
  Ga  Ga9  1  0.564496  0.389552  0.142168  1
  Ga  Ga10  1  0.752616  0.110448  0.674945  1
  Ga  Ga11  1  0.247384  0.922329  0.357832  1
  Ga  Ga12  1  0.000000  0.750000  0.750000  1
  Ga  Ga13  1  0.000000  0.250000  0.250000  1
  Ni  Ni14  1  0.500000  0.250000  0.750000  1
  Pt  Pt15  1  0.248288  0.639002  0.599898  1
  Pt  Pt16  1  0.751712  0.351610  0.390714  1
  Pt  Pt17  1  0.039104  0.148390  0.900102  1
  Pt  Pt18  1  0.960896  0.860998  0.109286  1
  Pt  Pt19  1  0.500000  0.750000  0.250000  1
