# generated using pymatgen
data_BeNb4B3W2
_symmetry_space_group_name_H-M   'P 1'
_cell_length_a   6.21278008
_cell_length_b   6.21278070
_cell_length_c   3.30175200
_cell_angle_alpha   90.00000000
_cell_angle_beta   90.00000000
_cell_angle_gamma   90.11148774
_symmetry_Int_Tables_number   1
_chemical_formula_structural   BeNb4B3W2
_chemical_formula_sum   'Be1 Nb4 B3 W2'
_cell_volume   127.44289630
_cell_formula_units_Z   1
loop_
 _symmetry_equiv_pos_site_id
 _symmetry_equiv_pos_as_xyz
  1  'x, y, z'
loop_
 _atom_site_type_symbol
 _atom_site_label
 _atom_site_symmetry_multiplicity
 _atom_site_fract_x
 _atom_site_fract_y
 _atom_site_fract_z
 _atom_site_occupancy
  Be  Be0  1  0.112111  0.612111  0.000000  1
  Nb  Nb1  1  0.677750  0.177750  0.500000  1
  Nb  Nb2  1  0.328621  0.828621  0.500000  1
  Nb  Nb3  1  0.178946  0.315884  0.500000  1
  Nb  Nb4  1  0.815884  0.678946  0.500000  1
  B  B5  1  0.884995  0.384995  0.000000  1
  B  B6  1  0.610224  0.890671  0.000000  1
  B  B7  1  0.390671  0.110224  0.000000  1
  W  W8  1  0.998424  0.002376  0.000000  1
  W  W9  1  0.502376  0.498424  0.000000  1
