# generated using pymatgen
data_Cu7SiSe8
_symmetry_space_group_name_H-M   'P 1'
_cell_length_a   5.50161475
_cell_length_b   6.68925028
_cell_length_c   10.29332712
_cell_angle_alpha   77.63589090
_cell_angle_beta   75.01560208
_cell_angle_gamma   66.60871879
_symmetry_Int_Tables_number   1
_chemical_formula_structural   Cu7SiSe8
_chemical_formula_sum   'Cu7 Si1 Se8'
_cell_volume   333.19143079
_cell_formula_units_Z   1
loop_
 _symmetry_equiv_pos_site_id
 _symmetry_equiv_pos_as_xyz
  1  'x, y, z'
loop_
 _atom_site_type_symbol
 _atom_site_label
 _atom_site_symmetry_multiplicity
 _atom_site_fract_x
 _atom_site_fract_y
 _atom_site_fract_z
 _atom_site_occupancy
  Cu  Cu0  1  0.256638  0.875593  0.625504  1
  Cu  Cu1  1  0.512931  0.249630  0.751993  1
  Cu  Cu2  1  0.487812  0.747944  0.251431  1
  Cu  Cu3  1  0.749085  0.622771  0.874604  1
  Cu  Cu4  1  0.747557  0.123405  0.378129  1
  Cu  Cu5  1  0.983828  0.997023  0.000864  1
  Cu  Cu6  1  0.012084  0.498733  0.500357  1
  Si  Si7  1  0.245237  0.374758  0.125068  1
  Se  Se8  1  0.364656  0.684196  0.061446  1
  Se  Se9  1  0.381637  0.190092  0.564738  1
  Se  Se10  1  0.883049  0.439913  0.308393  1
  Se  Se11  1  0.879189  0.933818  0.807999  1
  Se  Se12  1  0.130221  0.308942  0.940240  1
  Se  Se13  1  0.124004  0.818324  0.439042  1
  Se  Se14  1  0.632961  0.565783  0.682075  1
  Se  Se15  1  0.609112  0.069079  0.188114  1
