# generated using pymatgen
data_LiVCo20B6W
_symmetry_space_group_name_H-M   'P 1'
_cell_length_a   7.36596628
_cell_length_b   7.36596507
_cell_length_c   7.36596500
_cell_angle_alpha   59.99999584
_cell_angle_beta   60.00000125
_cell_angle_gamma   59.99999802
_symmetry_Int_Tables_number   1
_chemical_formula_structural   LiVCo20B6W
_chemical_formula_sum   'Li1 V1 Co20 B6 W1'
_cell_volume   282.60121103
_cell_formula_units_Z   1
loop_
 _symmetry_equiv_pos_site_id
 _symmetry_equiv_pos_as_xyz
  1  'x, y, z'
loop_
 _atom_site_type_symbol
 _atom_site_label
 _atom_site_symmetry_multiplicity
 _atom_site_fract_x
 _atom_site_fract_y
 _atom_site_fract_z
 _atom_site_occupancy
  Li  Li0  1  0.000000  0.000000  0.000000  1
  V  V1  1  0.750000  0.750000  0.750000  1
  Co  Co2  1  0.850390  0.383204  0.383204  1
  Co  Co3  1  0.383204  0.850390  0.383204  1
  Co  Co4  1  0.383204  0.383204  0.850390  1
  Co  Co5  1  0.383204  0.383204  0.383204  1
  Co  Co6  1  0.137613  0.620795  0.620795  1
  Co  Co7  1  0.620795  0.137613  0.620795  1
  Co  Co8  1  0.620795  0.620795  0.137613  1
  Co  Co9  1  0.620795  0.620795  0.620795  1
  Co  Co10  1  0.658682  0.000089  0.000089  1
  Co  Co11  1  0.658682  0.000089  0.341140  1
  Co  Co12  1  0.658682  0.341140  0.000089  1
  Co  Co13  1  0.000089  0.658682  0.341140  1
  Co  Co14  1  0.000089  0.658682  0.000089  1
  Co  Co15  1  0.341140  0.658682  0.000089  1
  Co  Co16  1  0.000089  0.341140  0.658682  1
  Co  Co17  1  0.341140  0.000089  0.658682  1
  Co  Co18  1  0.000089  0.000089  0.658682  1
  Co  Co19  1  0.341140  0.000089  0.000089  1
  Co  Co20  1  0.000089  0.341140  0.000089  1
  Co  Co21  1  0.000089  0.000089  0.341140  1
  B  B22  1  0.726897  0.273103  0.273103  1
  B  B23  1  0.726897  0.273103  0.726897  1
  B  B24  1  0.726897  0.726897  0.273103  1
  B  B25  1  0.273103  0.726897  0.726897  1
  B  B26  1  0.273103  0.726897  0.273103  1
  B  B27  1  0.273103  0.273103  0.726897  1
  W  W28  1  0.250000  0.250000  0.250000  1
