# generated using pymatgen
data_Ce12Mn4Al6FeAu
_symmetry_space_group_name_H-M   'P 1'
_cell_length_a   7.76779274
_cell_length_b   7.81598851
_cell_length_c   9.65102272
_cell_angle_alpha   88.78181994
_cell_angle_beta   90.50289600
_cell_angle_gamma   120.20199558
_symmetry_Int_Tables_number   1
_chemical_formula_structural   Ce12Mn4Al6FeAu
_chemical_formula_sum   'Ce12 Mn4 Al6 Fe1 Au1'
_cell_volume   506.28923170
_cell_formula_units_Z   1
loop_
 _symmetry_equiv_pos_site_id
 _symmetry_equiv_pos_as_xyz
  1  'x, y, z'
loop_
 _atom_site_type_symbol
 _atom_site_label
 _atom_site_symmetry_multiplicity
 _atom_site_fract_x
 _atom_site_fract_y
 _atom_site_fract_z
 _atom_site_occupancy
  Ce  Ce0  1  0.999174  0.620471  0.527317  1
  Ce  Ce1  1  0.550581  0.991741  0.498668  1
  Ce  Ce2  1  0.447549  0.440143  0.498926  1
  Ce  Ce3  1  0.997468  0.436572  0.993205  1
  Ce  Ce4  1  0.437385  0.994805  0.991173  1
  Ce  Ce5  1  0.567600  0.564894  0.990397  1
  Ce  Ce6  1  0.999884  0.744706  0.178318  1
  Ce  Ce7  1  0.723944  0.970757  0.168460  1
  Ce  Ce8  1  0.278921  0.251799  0.165920  1
  Ce  Ce9  1  0.997854  0.263115  0.680045  1
  Ce  Ce10  1  0.257124  0.002847  0.679729  1
  Ce  Ce11  1  0.743024  0.749327  0.678680  1
  Mn  Mn12  1  0.351872  0.998975  0.343124  1
  Mn  Mn13  1  0.647699  0.646810  0.344599  1
  Mn  Mn14  1  0.999372  0.646257  0.845840  1
  Mn  Mn15  1  0.647346  0.000416  0.840386  1
  Al  Al16  1  0.671962  0.333062  0.273200  1
  Al  Al17  1  0.327902  0.661081  0.272968  1
  Al  Al18  1  0.333016  0.667197  0.766524  1
  Al  Al19  1  0.664209  0.335934  0.766465  1
  Al  Al20  1  0.003491  0.998174  0.419438  1
  Al  Al21  1  0.999216  0.999177  0.922004  1
  Fe  Fe22  1  0.353127  0.354144  0.841754  1
  Au  Au23  1  0.000282  0.327596  0.342105  1
