# generated using pymatgen
data_Dy13Ho7Si15Rh
_symmetry_space_group_name_H-M   'P 1'
_cell_length_a   7.43995798
_cell_length_b   7.68231406
_cell_length_c   14.57387251
_cell_angle_alpha   89.71660772
_cell_angle_beta   89.70648237
_cell_angle_gamma   90.21822691
_symmetry_Int_Tables_number   1
_chemical_formula_structural   Dy13Ho7Si15Rh
_chemical_formula_sum   'Dy13 Ho7 Si15 Rh1'
_cell_volume   832.95838306
_cell_formula_units_Z   1
loop_
 _symmetry_equiv_pos_site_id
 _symmetry_equiv_pos_as_xyz
  1  'x, y, z'
loop_
 _atom_site_type_symbol
 _atom_site_label
 _atom_site_symmetry_multiplicity
 _atom_site_fract_x
 _atom_site_fract_y
 _atom_site_fract_z
 _atom_site_occupancy
  Dy  Dy0  1  0.649418  0.992897  0.248916  1
  Dy  Dy1  1  0.148763  0.510393  0.247470  1
  Dy  Dy2  1  0.846767  0.488384  0.757763  1
  Dy  Dy3  1  0.351401  0.010313  0.752001  1
  Dy  Dy4  1  0.974781  0.816571  0.097622  1
  Dy  Dy5  1  0.472196  0.682238  0.401565  1
  Dy  Dy6  1  0.527664  0.322111  0.901014  1
  Dy  Dy7  1  0.028432  0.183909  0.599305  1
  Dy  Dy8  1  0.027280  0.184455  0.902023  1
  Dy  Dy9  1  0.528467  0.318155  0.598522  1
  Dy  Dy10  1  0.474868  0.681620  0.099170  1
  Dy  Dy11  1  0.971120  0.817714  0.400773  1
  Dy  Dy12  1  0.682887  0.812164  0.882181  1
  Ho  Ho13  1  0.178324  0.681297  0.621959  1
  Ho  Ho14  1  0.818237  0.333520  0.118581  1
  Ho  Ho15  1  0.316700  0.177863  0.376070  1
  Ho  Ho16  1  0.321848  0.179154  0.123693  1
  Ho  Ho17  1  0.819986  0.319399  0.377315  1
  Ho  Ho18  1  0.176078  0.675649  0.878222  1
  Ho  Ho19  1  0.682335  0.819161  0.622501  1
  Si  Si20  1  0.765668  0.628621  0.251850  1
  Si  Si21  1  0.266575  0.872751  0.250712  1
  Si  Si22  1  0.732294  0.123648  0.748562  1
  Si  Si23  1  0.234076  0.373417  0.746558  1
  Si  Si24  1  0.021098  0.107347  0.248942  1
  Si  Si25  1  0.524119  0.395624  0.251679  1
  Si  Si26  1  0.471194  0.606295  0.746577  1
  Si  Si27  1  0.976258  0.896560  0.748310  1
  Si  Si28  1  0.353472  0.971524  0.539640  1
  Si  Si29  1  0.647183  0.028408  0.041690  1
  Si  Si30  1  0.148168  0.470098  0.460146  1
  Si  Si31  1  0.155971  0.471161  0.040790  1
  Si  Si32  1  0.644629  0.028889  0.459771  1
  Si  Si33  1  0.351948  0.969101  0.961487  1
  Si  Si34  1  0.853940  0.528992  0.538736  1
  Rh  Rh35  1  0.855855  0.520598  0.957885  1
