# generated using pymatgen
data_NdDy5FeCl10
_symmetry_space_group_name_H-M   'P 1'
_cell_length_a   7.04958935
_cell_length_b   8.89548718
_cell_length_c   8.65115500
_cell_angle_alpha   108.55781288
_cell_angle_beta   104.57406234
_cell_angle_gamma   97.12081180
_symmetry_Int_Tables_number   1
_chemical_formula_structural   NdDy5FeCl10
_chemical_formula_sum   'Nd1 Dy5 Fe1 Cl10'
_cell_volume   485.28713833
_cell_formula_units_Z   1
loop_
 _symmetry_equiv_pos_site_id
 _symmetry_equiv_pos_as_xyz
  1  'x, y, z'
loop_
 _atom_site_type_symbol
 _atom_site_label
 _atom_site_symmetry_multiplicity
 _atom_site_fract_x
 _atom_site_fract_y
 _atom_site_fract_z
 _atom_site_occupancy
  Nd  Nd0  1  0.968732  0.089670  0.288767  1
  Dy  Dy1  1  0.371347  0.187692  0.137689  1
  Dy  Dy2  1  0.032826  0.912958  0.718642  1
  Dy  Dy3  1  0.128468  0.745432  0.051011  1
  Dy  Dy4  1  0.627597  0.811514  0.858719  1
  Dy  Dy5  1  0.868180  0.253965  0.949196  1
  Fe  Fe6  1  0.997895  0.002232  0.007155  1
  Cl  Cl7  1  0.447606  0.078225  0.819420  1
  Cl  Cl8  1  0.749175  0.544300  0.913367  1
  Cl  Cl9  1  0.247493  0.454025  0.080862  1
  Cl  Cl10  1  0.914348  0.167793  0.637052  1
  Cl  Cl11  1  0.658659  0.729986  0.551669  1
  Cl  Cl12  1  0.540467  0.914577  0.172891  1
  Cl  Cl13  1  0.092915  0.821421  0.369037  1
  Cl  Cl14  1  0.782499  0.352796  0.247973  1
  Cl  Cl15  1  0.206443  0.656178  0.745168  1
  Cl  Cl16  1  0.365349  0.277234  0.451382  1
