# generated using pymatgen
data_Nd4Al18(CoPt)3
_symmetry_space_group_name_H-M   'P 1'
_cell_length_a   7.57559748
_cell_length_b   7.57559662
_cell_length_c   9.51450147
_cell_angle_alpha   89.87139914
_cell_angle_beta   89.87139639
_cell_angle_gamma   119.43227797
_symmetry_Int_Tables_number   1
_chemical_formula_structural   Nd4Al18(CoPt)3
_chemical_formula_sum   'Nd4 Al18 Co3 Pt3'
_cell_volume   475.55666021
_cell_formula_units_Z   1
loop_
 _symmetry_equiv_pos_site_id
 _symmetry_equiv_pos_as_xyz
  1  'x, y, z'
loop_
 _atom_site_type_symbol
 _atom_site_label
 _atom_site_symmetry_multiplicity
 _atom_site_fract_x
 _atom_site_fract_y
 _atom_site_fract_z
 _atom_site_occupancy
  Nd  Nd0  1  0.002244  0.326728  0.749149  1
  Nd  Nd1  1  0.331842  0.009384  0.749156  1
  Nd  Nd2  1  0.990616  0.668158  0.250844  1
  Nd  Nd3  1  0.673272  0.997756  0.250851  1
  Al  Al4  1  0.655829  0.987599  0.925282  1
  Al  Al5  1  0.010204  0.673135  0.570316  1
  Al  Al6  1  0.130394  0.127730  0.257983  1
  Al  Al7  1  0.657838  0.666058  0.048446  1
  Al  Al8  1  0.326860  0.333869  0.543715  1
  Al  Al9  1  0.333942  0.342162  0.951554  1
  Al  Al10  1  0.666131  0.673140  0.456285  1
  Al  Al11  1  0.334151  0.989863  0.073469  1
  Al  Al12  1  0.008982  0.335932  0.428658  1
  Al  Al13  1  0.341143  0.556188  0.251600  1
  Al  Al14  1  0.012401  0.344171  0.074718  1
  Al  Al15  1  0.540454  0.340000  0.250669  1
  Al  Al16  1  0.660000  0.459546  0.749331  1
  Al  Al17  1  0.872270  0.869606  0.742017  1
  Al  Al18  1  0.010137  0.665849  0.926531  1
  Al  Al19  1  0.664068  0.991018  0.571342  1
  Al  Al20  1  0.326865  0.989796  0.429684  1
  Al  Al21  1  0.443812  0.658857  0.748400  1
  Co  Co22  1  0.330501  0.669499  0.500000  1
  Co  Co23  1  0.000571  0.999429  0.500000  1
  Co  Co24  1  0.330825  0.669175  0.000000  1
  Pt  Pt25  1  0.672053  0.327947  0.500000  1
  Pt  Pt26  1  0.672087  0.327913  0.000000  1
  Pt  Pt27  1  0.000507  0.999493  0.000000  1
