# generated using pymatgen
data_Er9Lu11(Bi2Rh)4
_symmetry_space_group_name_H-M   'P 1'
_cell_length_a   7.84839741
_cell_length_b   8.95907600
_cell_length_c   12.32754262
_cell_angle_alpha   90.00000000
_cell_angle_beta   89.96328034
_cell_angle_gamma   90.00000000
_symmetry_Int_Tables_number   1
_chemical_formula_structural   Er9Lu11(Bi2Rh)4
_chemical_formula_sum   'Er9 Lu11 Bi8 Rh4'
_cell_volume   866.80344777
_cell_formula_units_Z   1
loop_
 _symmetry_equiv_pos_site_id
 _symmetry_equiv_pos_as_xyz
  1  'x, y, z'
loop_
 _atom_site_type_symbol
 _atom_site_label
 _atom_site_symmetry_multiplicity
 _atom_site_fract_x
 _atom_site_fract_y
 _atom_site_fract_z
 _atom_site_occupancy
  Er  Er0  1  0.838368  0.750000  0.208235  1
  Er  Er1  1  0.125030  0.750000  0.809181  1
  Er  Er2  1  0.874902  0.250000  0.190815  1
  Er  Er3  1  0.625123  0.250000  0.690821  1
  Er  Er4  1  0.374385  0.750000  0.309168  1
  Er  Er5  1  0.550423  0.750000  0.998162  1
  Er  Er6  1  0.448732  0.250000  0.001372  1
  Er  Er7  1  0.051177  0.250000  0.501580  1
  Er  Er8  1  0.949089  0.750000  0.498785  1
  Lu  Lu9  1  0.661268  0.750000  0.707262  1
  Lu  Lu10  1  0.338645  0.250000  0.292711  1
  Lu  Lu11  1  0.161447  0.250000  0.792695  1
  Lu  Lu12  1  0.826592  0.455565  0.933382  1
  Lu  Lu13  1  0.173641  0.543947  0.066310  1
  Lu  Lu14  1  0.326666  0.544211  0.566596  1
  Lu  Lu15  1  0.173641  0.956053  0.066310  1
  Lu  Lu16  1  0.673315  0.455535  0.433555  1
  Lu  Lu17  1  0.826592  0.044435  0.933382  1
  Lu  Lu18  1  0.673315  0.044465  0.433555  1
  Lu  Lu19  1  0.326666  0.955789  0.566596  1
  Bi  Bi20  1  0.934993  0.008999  0.673681  1
  Bi  Bi21  1  0.065731  0.991682  0.326721  1
  Bi  Bi22  1  0.435030  0.991112  0.826288  1
  Bi  Bi23  1  0.065731  0.508318  0.326721  1
  Bi  Bi24  1  0.564405  0.009345  0.173467  1
  Bi  Bi25  1  0.934993  0.491001  0.673681  1
  Bi  Bi26  1  0.564405  0.490655  0.173467  1
  Bi  Bi27  1  0.435030  0.508888  0.826288  1
  Rh  Rh28  1  0.925412  0.750000  0.990508  1
  Rh  Rh29  1  0.075021  0.250000  0.008805  1
  Rh  Rh30  1  0.425246  0.250000  0.508762  1
  Rh  Rh31  1  0.574986  0.750000  0.491139  1
