# generated using pymatgen
data_Ba4Pa(RuO4)3
_symmetry_space_group_name_H-M   'P 1'
_cell_length_a   10.49623572
_cell_length_b   10.49623600
_cell_length_c   10.49623671
_cell_angle_alpha   32.87028255
_cell_angle_beta   32.87027733
_cell_angle_gamma   32.87027821
_symmetry_Int_Tables_number   1
_chemical_formula_structural   Ba4Pa(RuO4)3
_chemical_formula_sum   'Ba4 Pa1 Ru3 O12'
_cell_volume   303.06756117
_cell_formula_units_Z   1
loop_
 _symmetry_equiv_pos_site_id
 _symmetry_equiv_pos_as_xyz
  1  'x, y, z'
loop_
 _atom_site_type_symbol
 _atom_site_label
 _atom_site_symmetry_multiplicity
 _atom_site_fract_x
 _atom_site_fract_y
 _atom_site_fract_z
 _atom_site_occupancy
  Ba  Ba0  1  0.718999  0.718999  0.718999  1
  Ba  Ba1  1  0.281001  0.281001  0.281001  1
  Ba  Ba2  1  0.867663  0.867663  0.867663  1
  Ba  Ba3  1  0.132337  0.132337  0.132337  1
  Pa  Pa4  1  0.000000  0.000000  0.000000  1
  Ru  Ru5  1  0.414431  0.414431  0.414431  1
  Ru  Ru6  1  0.500000  0.500000  0.500000  1
  Ru  Ru7  1  0.585569  0.585569  0.585569  1
  O  O8  1  0.213920  0.213920  0.698579  1
  O  O9  1  0.698579  0.213920  0.213920  1
  O  O10  1  0.213920  0.698579  0.213920  1
  O  O11  1  0.786080  0.301421  0.786080  1
  O  O12  1  0.786080  0.786080  0.301421  1
  O  O13  1  0.301421  0.786080  0.786080  1
  O  O14  1  0.386342  0.386342  0.854488  1
  O  O15  1  0.854488  0.386342  0.386342  1
  O  O16  1  0.145512  0.613658  0.613658  1
  O  O17  1  0.613658  0.613658  0.145512  1
  O  O18  1  0.613658  0.145512  0.613658  1
  O  O19  1  0.386342  0.854488  0.386342  1
