# generated using pymatgen
data_U3V(Co4P3)2
_symmetry_space_group_name_H-M   'P 1'
_cell_length_a   3.69648400
_cell_length_b   10.51812400
_cell_length_c   12.19714200
_cell_angle_alpha   90.00000000
_cell_angle_beta   90.00000000
_cell_angle_gamma   90.00000000
_symmetry_Int_Tables_number   1
_chemical_formula_structural   U3V(Co4P3)2
_chemical_formula_sum   'U6 V2 Co16 P12'
_cell_volume   474.22582107
_cell_formula_units_Z   2
loop_
 _symmetry_equiv_pos_site_id
 _symmetry_equiv_pos_as_xyz
  1  'x, y, z'
loop_
 _atom_site_type_symbol
 _atom_site_label
 _atom_site_symmetry_multiplicity
 _atom_site_fract_x
 _atom_site_fract_y
 _atom_site_fract_z
 _atom_site_occupancy
  U  U0  1  0.000000  0.500000  0.526116  1
  U  U1  1  0.500000  0.000000  0.473884  1
  U  U2  1  0.500000  0.821083  0.206583  1
  U  U3  1  0.500000  0.178917  0.206583  1
  U  U4  1  0.000000  0.678917  0.793417  1
  U  U5  1  0.000000  0.321083  0.793417  1
  V  V6  1  0.500000  0.500000  0.155406  1
  V  V7  1  0.000000  0.000000  0.844594  1
  Co  Co8  1  0.500000  0.500000  0.700053  1
  Co  Co9  1  0.000000  0.000000  0.299947  1
  Co  Co10  1  0.000000  0.500000  0.988266  1
  Co  Co11  1  0.500000  0.000000  0.011734  1
  Co  Co12  1  0.500000  0.332623  0.993698  1
  Co  Co13  1  0.500000  0.667377  0.993698  1
  Co  Co14  1  0.000000  0.167377  0.006302  1
  Co  Co15  1  0.000000  0.832623  0.006302  1
  Co  Co16  1  0.500000  0.300194  0.430877  1
  Co  Co17  1  0.500000  0.699806  0.430877  1
  Co  Co18  1  0.000000  0.199806  0.569123  1
  Co  Co19  1  0.000000  0.800194  0.569123  1
  Co  Co20  1  0.500000  0.879070  0.709023  1
  Co  Co21  1  0.500000  0.120930  0.709023  1
  Co  Co22  1  0.000000  0.620930  0.290977  1
  Co  Co23  1  0.000000  0.379070  0.290977  1
  P  P24  1  0.500000  0.500000  0.884272  1
  P  P25  1  0.000000  0.000000  0.115728  1
  P  P26  1  0.500000  0.500000  0.346864  1
  P  P27  1  0.000000  0.000000  0.653136  1
  P  P28  1  0.500000  0.308376  0.613840  1
  P  P29  1  0.500000  0.691624  0.613840  1
  P  P30  1  0.000000  0.191624  0.386160  1
  P  P31  1  0.000000  0.808376  0.386160  1
  P  P32  1  0.500000  0.844586  0.891708  1
  P  P33  1  0.500000  0.155414  0.891708  1
  P  P34  1  0.000000  0.655414  0.108292  1
  P  P35  1  0.000000  0.344586  0.108292  1
