# generated using pymatgen
data_Zr6Fe16Si6As
_symmetry_space_group_name_H-M   'P 1'
_cell_length_a   8.11127147
_cell_length_b   8.11127144
_cell_length_c   8.11127200
_cell_angle_alpha   59.99999770
_cell_angle_beta   59.99999785
_cell_angle_gamma   59.99999371
_symmetry_Int_Tables_number   1
_chemical_formula_structural   Zr6Fe16Si6As
_chemical_formula_sum   'Zr6 Fe16 Si6 As1'
_cell_volume   377.35647270
_cell_formula_units_Z   1
loop_
 _symmetry_equiv_pos_site_id
 _symmetry_equiv_pos_as_xyz
  1  'x, y, z'
loop_
 _atom_site_type_symbol
 _atom_site_label
 _atom_site_symmetry_multiplicity
 _atom_site_fract_x
 _atom_site_fract_y
 _atom_site_fract_z
 _atom_site_occupancy
  Zr  Zr0  1  0.706507  0.706507  0.293493  1
  Zr  Zr1  1  0.293493  0.706507  0.293493  1
  Zr  Zr2  1  0.706507  0.293493  0.293493  1
  Zr  Zr3  1  0.293493  0.293493  0.706507  1
  Zr  Zr4  1  0.706507  0.293493  0.706507  1
  Zr  Zr5  1  0.293493  0.706507  0.706507  1
  Fe  Fe6  1  0.877391  0.877391  0.367828  1
  Fe  Fe7  1  0.877391  0.367828  0.877391  1
  Fe  Fe8  1  0.367828  0.877391  0.877391  1
  Fe  Fe9  1  0.877391  0.877391  0.877391  1
  Fe  Fe10  1  0.122609  0.122609  0.632172  1
  Fe  Fe11  1  0.122609  0.632172  0.122609  1
  Fe  Fe12  1  0.632172  0.122609  0.122609  1
  Fe  Fe13  1  0.122609  0.122609  0.122609  1
  Fe  Fe14  1  0.676272  0.676272  0.971183  1
  Fe  Fe15  1  0.676272  0.971183  0.676272  1
  Fe  Fe16  1  0.971183  0.676272  0.676272  1
  Fe  Fe17  1  0.676272  0.676272  0.676272  1
  Fe  Fe18  1  0.323728  0.323728  0.028817  1
  Fe  Fe19  1  0.323728  0.028817  0.323728  1
  Fe  Fe20  1  0.028817  0.323728  0.323728  1
  Fe  Fe21  1  0.323728  0.323728  0.323728  1
  Si  Si22  1  0.000000  0.000000  0.500000  1
  Si  Si23  1  0.500000  0.000000  0.500000  1
  Si  Si24  1  0.000000  0.500000  0.500000  1
  Si  Si25  1  0.500000  0.500000  0.000000  1
  Si  Si26  1  0.000000  0.500000  0.000000  1
  Si  Si27  1  0.500000  0.000000  0.000000  1
  As  As28  1  0.000000  0.000000  0.000000  1
