# generated using pymatgen
data_CsNd(TaBr3)6
_symmetry_space_group_name_H-M   'P 1'
_cell_length_a   10.89384211
_cell_length_b   10.89384092
_cell_length_c   10.89384173
_cell_angle_alpha   55.53074205
_cell_angle_beta   55.53074089
_cell_angle_gamma   55.53074225
_symmetry_Int_Tables_number   1
_chemical_formula_structural   CsNd(TaBr3)6
_chemical_formula_sum   'Cs1 Nd1 Ta6 Br18'
_cell_volume   819.32311229
_cell_formula_units_Z   1
loop_
 _symmetry_equiv_pos_site_id
 _symmetry_equiv_pos_as_xyz
  1  'x, y, z'
loop_
 _atom_site_type_symbol
 _atom_site_label
 _atom_site_symmetry_multiplicity
 _atom_site_fract_x
 _atom_site_fract_y
 _atom_site_fract_z
 _atom_site_occupancy
  Cs  Cs0  1  0.222487  0.222487  0.222487  1
  Nd  Nd1  1  0.497901  0.497901  0.497901  1
  Ta  Ta2  1  0.813451  0.138707  0.918736  1
  Ta  Ta3  1  0.918736  0.813451  0.138707  1
  Ta  Ta4  1  0.138707  0.918736  0.813451  1
  Ta  Ta5  1  0.187470  0.861789  0.080394  1
  Ta  Ta6  1  0.080394  0.187470  0.861789  1
  Ta  Ta7  1  0.861789  0.080394  0.187470  1
  Br  Br8  1  0.865870  0.406046  0.729756  1
  Br  Br9  1  0.729756  0.865870  0.406046  1
  Br  Br10  1  0.406046  0.729756  0.865870  1
  Br  Br11  1  0.133063  0.594265  0.273060  1
  Br  Br12  1  0.273060  0.133063  0.594265  1
  Br  Br13  1  0.594265  0.273060  0.133063  1
  Br  Br14  1  0.541785  0.335572  0.806374  1
  Br  Br15  1  0.806374  0.541785  0.335572  1
  Br  Br16  1  0.335572  0.806374  0.541785  1
  Br  Br17  1  0.456911  0.667054  0.193658  1
  Br  Br18  1  0.193658  0.456911  0.667054  1
  Br  Br19  1  0.667054  0.193658  0.456911  1
  Br  Br20  1  0.668053  0.938444  0.069430  1
  Br  Br21  1  0.069430  0.668053  0.938444  1
  Br  Br22  1  0.938444  0.069430  0.668053  1
  Br  Br23  1  0.336518  0.059914  0.924430  1
  Br  Br24  1  0.924430  0.336518  0.059914  1
  Br  Br25  1  0.059914  0.924430  0.336518  1
