# generated using pymatgen
data_Li2Lu3AlGa3
_symmetry_space_group_name_H-M   'P 1'
_cell_length_a   7.19333100
_cell_length_b   7.13671604
_cell_length_c   4.13347500
_cell_angle_alpha   90.00000000
_cell_angle_beta   90.00000000
_cell_angle_gamma   119.73997405
_symmetry_Int_Tables_number   1
_chemical_formula_structural   Li2Lu3AlGa3
_chemical_formula_sum   'Li2 Lu3 Al1 Ga3'
_cell_volume   184.24953137
_cell_formula_units_Z   1
loop_
 _symmetry_equiv_pos_site_id
 _symmetry_equiv_pos_as_xyz
  1  'x, y, z'
loop_
 _atom_site_type_symbol
 _atom_site_label
 _atom_site_symmetry_multiplicity
 _atom_site_fract_x
 _atom_site_fract_y
 _atom_site_fract_z
 _atom_site_occupancy
  Li  Li0  1  0.760150  0.762574  0.000000  1
  Li  Li1  1  0.239850  0.002424  0.000000  1
  Lu  Lu2  1  0.419180  0.418512  0.500000  1
  Lu  Lu3  1  0.580820  0.999332  0.500000  1
  Lu  Lu4  1  0.000000  0.576744  0.500000  1
  Al  Al5  1  0.000000  0.241065  0.000000  1
  Ga  Ga6  1  0.669574  0.332538  0.000000  1
  Ga  Ga7  1  0.330426  0.662965  0.000000  1
  Ga  Ga8  1  0.000000  0.003848  0.500000  1
