# generated using pymatgen
data_ErTh2(Si3Pd10)2
_symmetry_space_group_name_H-M   'P 1'
_cell_length_a   8.75232270
_cell_length_b   8.75232290
_cell_length_c   8.75232300
_cell_angle_alpha   60.00000342
_cell_angle_beta   60.00000264
_cell_angle_gamma   60.00000254
_symmetry_Int_Tables_number   1
_chemical_formula_structural   ErTh2(Si3Pd10)2
_chemical_formula_sum   'Er1 Th2 Si6 Pd20'
_cell_volume   474.08369681
_cell_formula_units_Z   1
loop_
 _symmetry_equiv_pos_site_id
 _symmetry_equiv_pos_as_xyz
  1  'x, y, z'
loop_
 _atom_site_type_symbol
 _atom_site_label
 _atom_site_symmetry_multiplicity
 _atom_site_fract_x
 _atom_site_fract_y
 _atom_site_fract_z
 _atom_site_occupancy
  Er  Er0  1  0.000000  0.000000  0.000000  1
  Th  Th1  1  0.250000  0.250000  0.250000  1
  Th  Th2  1  0.750000  0.750000  0.750000  1
  Si  Si3  1  0.734447  0.265553  0.265553  1
  Si  Si4  1  0.265553  0.734447  0.734447  1
  Si  Si5  1  0.265553  0.734447  0.265553  1
  Si  Si6  1  0.734447  0.265553  0.734447  1
  Si  Si7  1  0.265553  0.265553  0.734447  1
  Si  Si8  1  0.734447  0.734447  0.265553  1
  Pd  Pd9  1  0.345931  0.000000  0.000000  1
  Pd  Pd10  1  0.654069  0.000000  0.000000  1
  Pd  Pd11  1  0.000000  0.345931  0.654069  1
  Pd  Pd12  1  0.000000  0.654069  0.345931  1
  Pd  Pd13  1  0.000000  0.345931  0.000000  1
  Pd  Pd14  1  0.654069  0.000000  0.345931  1
  Pd  Pd15  1  0.000000  0.654069  0.000000  1
  Pd  Pd16  1  0.345931  0.000000  0.654069  1
  Pd  Pd17  1  0.000000  0.000000  0.345931  1
  Pd  Pd18  1  0.000000  0.000000  0.654069  1
  Pd  Pd19  1  0.654069  0.345931  0.000000  1
  Pd  Pd20  1  0.345931  0.654069  0.000000  1
  Pd  Pd21  1  0.384025  0.384025  0.384025  1
  Pd  Pd22  1  0.615975  0.615975  0.615975  1
  Pd  Pd23  1  0.384025  0.384025  0.847927  1
  Pd  Pd24  1  0.384025  0.847927  0.384025  1
  Pd  Pd25  1  0.615975  0.615975  0.152073  1
  Pd  Pd26  1  0.615975  0.152073  0.615975  1
  Pd  Pd27  1  0.847927  0.384025  0.384025  1
  Pd  Pd28  1  0.152073  0.615975  0.615975  1
