# generated using pymatgen
data_Cs2Si3MoO9
_symmetry_space_group_name_H-M   'P 1'
_cell_length_a   7.19847400
_cell_length_b   7.19847493
_cell_length_c   10.39358200
_cell_angle_alpha   90.00000000
_cell_angle_beta   90.00000000
_cell_angle_gamma   120.00000247
_symmetry_Int_Tables_number   1
_chemical_formula_structural   Cs2Si3MoO9
_chemical_formula_sum   'Cs4 Si6 Mo2 O18'
_cell_volume   466.41961305
_cell_formula_units_Z   2
loop_
 _symmetry_equiv_pos_site_id
 _symmetry_equiv_pos_as_xyz
  1  'x, y, z'
loop_
 _atom_site_type_symbol
 _atom_site_label
 _atom_site_symmetry_multiplicity
 _atom_site_fract_x
 _atom_site_fract_y
 _atom_site_fract_z
 _atom_site_occupancy
  Cs  Cs0  1  0.333333  0.666667  0.061981  1
  Cs  Cs1  1  0.666667  0.333333  0.561981  1
  Cs  Cs2  1  0.333333  0.666667  0.438019  1
  Cs  Cs3  1  0.666667  0.333333  0.938019  1
  Si  Si4  1  0.615586  0.765424  0.750000  1
  Si  Si5  1  0.850161  0.615586  0.250000  1
  Si  Si6  1  0.765424  0.149839  0.250000  1
  Si  Si7  1  0.234576  0.850161  0.750000  1
  Si  Si8  1  0.149839  0.384414  0.750000  1
  Si  Si9  1  0.384414  0.234576  0.250000  1
  Mo  Mo10  1  0.000000  0.000000  0.000000  1
  Mo  Mo11  1  0.000000  0.000000  0.500000  1
  O  O12  1  0.253384  0.200986  0.382286  1
  O  O13  1  0.052398  0.253384  0.882286  1
  O  O14  1  0.200986  0.947602  0.882286  1
  O  O15  1  0.799014  0.052398  0.382286  1
  O  O16  1  0.947602  0.746616  0.382286  1
  O  O17  1  0.746616  0.799014  0.882286  1
  O  O18  1  0.746616  0.799014  0.617714  1
  O  O19  1  0.947602  0.746616  0.117714  1
  O  O20  1  0.799014  0.052398  0.117714  1
  O  O21  1  0.200986  0.947602  0.617714  1
  O  O22  1  0.052398  0.253384  0.617714  1
  O  O23  1  0.253384  0.200986  0.117714  1
  O  O24  1  0.508198  0.090884  0.250000  1
  O  O25  1  0.417314  0.508198  0.750000  1
  O  O26  1  0.090884  0.582686  0.750000  1
  O  O27  1  0.909116  0.417314  0.250000  1
  O  O28  1  0.582686  0.491802  0.250000  1
  O  O29  1  0.491802  0.909116  0.750000  1
