# generated using pymatgen
data_Eu6Re2N7
_symmetry_space_group_name_H-M   'P 1'
_cell_length_a   6.67075995
_cell_length_b   6.67076013
_cell_length_c   6.67076000
_cell_angle_alpha   66.96699868
_cell_angle_beta   66.96700732
_cell_angle_gamma   66.96701128
_symmetry_Int_Tables_number   1
_chemical_formula_structural   Eu6Re2N7
_chemical_formula_sum   'Eu6 Re2 N7'
_cell_volume   241.25396587
_cell_formula_units_Z   1
loop_
 _symmetry_equiv_pos_site_id
 _symmetry_equiv_pos_as_xyz
  1  'x, y, z'
loop_
 _atom_site_type_symbol
 _atom_site_label
 _atom_site_symmetry_multiplicity
 _atom_site_fract_x
 _atom_site_fract_y
 _atom_site_fract_z
 _atom_site_occupancy
  Eu  Eu0  1  0.338021  0.180620  0.735417  1
  Eu  Eu1  1  0.180620  0.735417  0.338021  1
  Eu  Eu2  1  0.735417  0.338021  0.180620  1
  Eu  Eu3  1  0.661979  0.819380  0.264583  1
  Eu  Eu4  1  0.819380  0.264583  0.661979  1
  Eu  Eu5  1  0.264583  0.661979  0.819380  1
  Re  Re6  1  0.247672  0.247672  0.247672  1
  Re  Re7  1  0.752328  0.752328  0.752328  1
  N  N8  1  0.238420  0.010571  0.509185  1
  N  N9  1  0.010571  0.509185  0.238420  1
  N  N10  1  0.509185  0.238420  0.010571  1
  N  N11  1  0.761580  0.989429  0.490815  1
  N  N12  1  0.989429  0.490815  0.761580  1
  N  N13  1  0.490815  0.761580  0.989429  1
  N  N14  1  0.500000  0.500000  0.500000  1
