# generated using pymatgen
data_Dy2HoTm9Os4
_symmetry_space_group_name_H-M   'P 1'
_cell_length_a   7.36831786
_cell_length_b   8.91460900
_cell_length_c   6.24725853
_cell_angle_alpha   90.00000000
_cell_angle_beta   90.14219868
_cell_angle_gamma   90.00000000
_symmetry_Int_Tables_number   1
_chemical_formula_structural   Dy2HoTm9Os4
_chemical_formula_sum   'Dy2 Ho1 Tm9 Os4'
_cell_volume   410.35411516
_cell_formula_units_Z   1
loop_
 _symmetry_equiv_pos_site_id
 _symmetry_equiv_pos_as_xyz
  1  'x, y, z'
loop_
 _atom_site_type_symbol
 _atom_site_label
 _atom_site_symmetry_multiplicity
 _atom_site_fract_x
 _atom_site_fract_y
 _atom_site_fract_z
 _atom_site_occupancy
  Dy  Dy0  1  0.039171  0.250000  0.628772  1
  Dy  Dy1  1  0.960825  0.750000  0.371310  1
  Ho  Ho2  1  0.460096  0.750000  0.129243  1
  Tm  Tm3  1  0.539918  0.250000  0.870631  1
  Tm  Tm4  1  0.175759  0.062706  0.164640  1
  Tm  Tm5  1  0.824171  0.937453  0.835301  1
  Tm  Tm6  1  0.327027  0.937626  0.667329  1
  Tm  Tm7  1  0.824171  0.562547  0.835301  1
  Tm  Tm8  1  0.673140  0.062782  0.332446  1
  Tm  Tm9  1  0.175759  0.437294  0.164640  1
  Tm  Tm10  1  0.673140  0.437218  0.332446  1
  Tm  Tm11  1  0.327027  0.562374  0.667329  1
  Os  Os12  1  0.383394  0.250000  0.460860  1
  Os  Os13  1  0.616947  0.750000  0.540084  1
  Os  Os14  1  0.117797  0.750000  0.958581  1
  Os  Os15  1  0.881659  0.250000  0.041085  1
