# generated using pymatgen
data_LiGaPtO4
_symmetry_space_group_name_H-M   'P 1'
_cell_length_a   6.17216252
_cell_length_b   5.93658118
_cell_length_c   6.07426713
_cell_angle_alpha   60.74893969
_cell_angle_beta   59.46226319
_cell_angle_gamma   90.00306370
_symmetry_Int_Tables_number   1
_chemical_formula_structural   LiGaPtO4
_chemical_formula_sum   'Li2 Ga2 Pt2 O8'
_cell_volume   157.85813487
_cell_formula_units_Z   2
loop_
 _symmetry_equiv_pos_site_id
 _symmetry_equiv_pos_as_xyz
  1  'x, y, z'
loop_
 _atom_site_type_symbol
 _atom_site_label
 _atom_site_symmetry_multiplicity
 _atom_site_fract_x
 _atom_site_fract_y
 _atom_site_fract_z
 _atom_site_occupancy
  Li  Li0  1  0.389577  0.139313  0.721388  1
  Li  Li1  1  0.610456  0.860718  0.278560  1
  Ga  Ga2  1  0.999994  0.999979  0.500004  1
  Ga  Ga3  1  0.000004  0.500021  0.499988  1
  Pt  Pt4  1  0.999985  0.500002  0.999993  1
  Pt  Pt5  1  0.500029  0.500005  0.999988  1
  O  O6  1  0.766742  0.737652  0.524724  1
  O  O7  1  0.791462  0.262480  0.475061  1
  O  O8  1  0.208597  0.737527  0.524921  1
  O  O9  1  0.233180  0.262318  0.475331  1
  O  O10  1  0.237344  0.714085  0.025391  1
  O  O11  1  0.237378  0.260531  0.025390  1
  O  O12  1  0.762606  0.739378  0.974637  1
  O  O13  1  0.762646  0.285993  0.974622  1
