# generated using pymatgen
data_Pr7Nd3Si5Pd
_symmetry_space_group_name_H-M   'P 1'
_cell_length_a   7.73419609
_cell_length_b   7.73993892
_cell_length_c   9.12075496
_cell_angle_alpha   115.21613718
_cell_angle_beta   115.19424419
_cell_angle_gamma   89.85509998
_symmetry_Int_Tables_number   1
_chemical_formula_structural   Pr7Nd3Si5Pd
_chemical_formula_sum   'Pr7 Nd3 Si5 Pd1'
_cell_volume   436.17450434
_cell_formula_units_Z   1
loop_
 _symmetry_equiv_pos_site_id
 _symmetry_equiv_pos_as_xyz
  1  'x, y, z'
loop_
 _atom_site_type_symbol
 _atom_site_label
 _atom_site_symmetry_multiplicity
 _atom_site_fract_x
 _atom_site_fract_y
 _atom_site_fract_z
 _atom_site_occupancy
  Pr  Pr0  1  0.328905  0.474092  0.286276  1
  Pr  Pr1  1  0.812681  0.329344  0.286370  1
  Pr  Pr2  1  0.474009  0.957083  0.286286  1
  Pr  Pr3  1  0.026174  0.170840  0.713864  1
  Pr  Pr4  1  0.687444  0.542800  0.713778  1
  Pr  Pr5  1  0.170925  0.687847  0.713626  1
  Pr  Pr6  1  0.542533  0.025963  0.713693  1
  Nd  Nd7  1  0.475044  0.475082  0.949689  1
  Nd  Nd8  1  0.025147  0.025295  0.050583  1
  Nd  Nd9  1  0.956437  0.811384  0.284874  1
  Si  Si10  1  0.249630  0.248676  0.499519  1
  Si  Si11  1  0.615776  0.884793  0.000487  1
  Si  Si12  1  0.385056  0.115122  0.000187  1
  Si  Si13  1  0.884879  0.385686  0.000578  1
  Si  Si14  1  0.114963  0.615695  0.000577  1
  Pd  Pd15  1  0.750396  0.750299  0.499614  1
