# generated using pymatgen
data_LiCr(PSe3)2
_symmetry_space_group_name_H-M   'P 1'
_cell_length_a   6.31715833
_cell_length_b   6.31715921
_cell_length_c   7.55429616
_cell_angle_alpha   82.57601832
_cell_angle_beta   82.57601631
_cell_angle_gamma   119.96739489
_symmetry_Int_Tables_number   1
_chemical_formula_structural   LiCr(PSe3)2
_chemical_formula_sum   'Li1 Cr1 P2 Se6'
_cell_volume   252.30030094
_cell_formula_units_Z   1
loop_
 _symmetry_equiv_pos_site_id
 _symmetry_equiv_pos_as_xyz
  1  'x, y, z'
loop_
 _atom_site_type_symbol
 _atom_site_label
 _atom_site_symmetry_multiplicity
 _atom_site_fract_x
 _atom_site_fract_y
 _atom_site_fract_z
 _atom_site_occupancy
  Li  Li0  1  0.332804  0.667196  0.000000  1
  Cr  Cr1  1  0.670735  0.329265  0.000000  1
  P  P2  1  0.957564  0.950019  0.150556  1
  P  P3  1  0.049981  0.042436  0.849444  1
  Se  Se4  1  0.042714  0.390984  0.768853  1
  Se  Se5  1  0.609016  0.957286  0.231147  1
  Se  Se6  1  0.901996  0.569643  0.229755  1
  Se  Se7  1  0.430357  0.098004  0.770245  1
  Se  Se8  1  0.749254  0.711018  0.770849  1
  Se  Se9  1  0.288982  0.250746  0.229151  1
