# generated using pymatgen
data_HoAl5GaFe6
_symmetry_space_group_name_H-M   'P 1'
_cell_length_a   5.00339686
_cell_length_b   6.55689531
_cell_length_c   6.55689540
_cell_angle_alpha   80.64828292
_cell_angle_beta   67.57107718
_cell_angle_gamma   67.57107368
_symmetry_Int_Tables_number   1
_chemical_formula_structural   HoAl5GaFe6
_chemical_formula_sum   'Ho1 Al5 Ga1 Fe6'
_cell_volume   183.76062702
_cell_formula_units_Z   1
loop_
 _symmetry_equiv_pos_site_id
 _symmetry_equiv_pos_as_xyz
  1  'x, y, z'
loop_
 _atom_site_type_symbol
 _atom_site_label
 _atom_site_symmetry_multiplicity
 _atom_site_fract_x
 _atom_site_fract_y
 _atom_site_fract_z
 _atom_site_occupancy
  Ho  Ho0  1  0.000000  0.998532  0.001468  1
  Al  Al1  1  0.688680  0.812117  0.810524  1
  Al  Al2  1  0.311320  0.189476  0.187883  1
  Al  Al3  1  0.345390  0.656262  0.652959  1
  Al  Al4  1  0.654610  0.347041  0.343738  1
  Al  Al5  1  0.000000  0.660857  0.339143  1
  Ga  Ga6  1  0.000000  0.332410  0.667590  1
  Fe  Fe7  1  0.000316  0.501328  0.000182  1
  Fe  Fe8  1  0.498175  0.501328  0.000182  1
  Fe  Fe9  1  0.999684  0.999818  0.498672  1
  Fe  Fe10  1  0.501825  0.999818  0.498672  1
  Fe  Fe11  1  0.500000  0.242121  0.757879  1
  Fe  Fe12  1  0.500000  0.758892  0.241108  1
