# generated using pymatgen
data_Lu5Ge2PbO
_symmetry_space_group_name_H-M   'P 1'
_cell_length_a   8.57504636
_cell_length_b   8.57504706
_cell_length_c   8.57504700
_cell_angle_alpha   126.23410147
_cell_angle_beta   126.23409665
_cell_angle_gamma   79.50371731
_symmetry_Int_Tables_number   1
_chemical_formula_structural   Lu5Ge2PbO
_chemical_formula_sum   'Lu10 Ge4 Pb2 O2'
_cell_volume   396.45778849
_cell_formula_units_Z   2
loop_
 _symmetry_equiv_pos_site_id
 _symmetry_equiv_pos_as_xyz
  1  'x, y, z'
loop_
 _atom_site_type_symbol
 _atom_site_label
 _atom_site_symmetry_multiplicity
 _atom_site_fract_x
 _atom_site_fract_y
 _atom_site_fract_z
 _atom_site_occupancy
  Lu  Lu0  1  0.493849  0.289819  0.500000  1
  Lu  Lu1  1  0.789819  0.993849  0.500000  1
  Lu  Lu2  1  0.993849  0.493849  0.204030  1
  Lu  Lu3  1  0.289819  0.789819  0.795970  1
  Lu  Lu4  1  0.508774  0.712713  0.500000  1
  Lu  Lu5  1  0.212713  0.008774  0.500000  1
  Lu  Lu6  1  0.008774  0.508774  0.796060  1
  Lu  Lu7  1  0.712713  0.212713  0.203940  1
  Lu  Lu8  1  0.501270  0.501270  0.000000  1
  Lu  Lu9  1  0.001270  0.001270  0.000000  1
  Ge  Ge10  1  0.151620  0.350895  0.500000  1
  Ge  Ge11  1  0.850895  0.651620  0.500000  1
  Ge  Ge12  1  0.651620  0.151620  0.800723  1
  Ge  Ge13  1  0.350895  0.850895  0.199277  1
  Pb  Pb14  1  0.751149  0.751149  0.000000  1
  Pb  Pb15  1  0.251149  0.251149  0.000000  1
  O  O16  1  0.751329  0.251329  0.500000  1
  O  O17  1  0.251329  0.751329  0.500000  1
