# generated using pymatgen
data_Ca2Re7Si4Tc
_symmetry_space_group_name_H-M   'P 1'
_cell_length_a   7.10999185
_cell_length_b   7.65935995
_cell_length_c   4.20098900
_cell_angle_alpha   90.00000000
_cell_angle_beta   90.00000000
_cell_angle_gamma   90.12376924
_symmetry_Int_Tables_number   1
_chemical_formula_structural   Ca2Re7Si4Tc
_chemical_formula_sum   'Ca2 Re7 Si4 Tc1'
_cell_volume   228.77686974
_cell_formula_units_Z   1
loop_
 _symmetry_equiv_pos_site_id
 _symmetry_equiv_pos_as_xyz
  1  'x, y, z'
loop_
 _atom_site_type_symbol
 _atom_site_label
 _atom_site_symmetry_multiplicity
 _atom_site_fract_x
 _atom_site_fract_y
 _atom_site_fract_z
 _atom_site_occupancy
  Ca  Ca0  1  0.499998  0.500992  0.000000  1
  Ca  Ca1  1  0.999804  0.000304  0.500000  1
  Re  Re2  1  0.155103  0.609373  0.500000  1
  Re  Re3  1  0.082213  0.340190  0.000000  1
  Re  Re4  1  0.918802  0.658079  0.000000  1
  Re  Re5  1  0.416809  0.840833  0.500000  1
  Re  Re6  1  0.581029  0.159519  0.500000  1
  Re  Re7  1  0.346419  0.109243  0.000000  1
  Re  Re8  1  0.844458  0.390623  0.500000  1
  Si  Si9  1  0.223415  0.809555  0.000000  1
  Si  Si10  1  0.775672  0.190296  0.000000  1
  Si  Si11  1  0.722560  0.691535  0.500000  1
  Si  Si12  1  0.276704  0.309631  0.500000  1
  Tc  Tc13  1  0.657014  0.889824  0.000000  1
