# generated using pymatgen
data_Cs2Mn(CO3)2
_symmetry_space_group_name_H-M   'P 1'
_cell_length_a   7.27708858
_cell_length_b   7.49068819
_cell_length_c   9.70556388
_cell_angle_alpha   100.49949569
_cell_angle_beta   67.96632626
_cell_angle_gamma   119.06111750
_symmetry_Int_Tables_number   1
_chemical_formula_structural   Cs2Mn(CO3)2
_chemical_formula_sum   'Cs4 Mn2 C4 O12'
_cell_volume   428.67183200
_cell_formula_units_Z   2
loop_
 _symmetry_equiv_pos_site_id
 _symmetry_equiv_pos_as_xyz
  1  'x, y, z'
loop_
 _atom_site_type_symbol
 _atom_site_label
 _atom_site_symmetry_multiplicity
 _atom_site_fract_x
 _atom_site_fract_y
 _atom_site_fract_z
 _atom_site_occupancy
  Cs  Cs0  1  0.698295  0.372047  0.112249  1
  Cs  Cs1  1  0.060216  0.871786  0.387864  1
  Cs  Cs2  1  0.576249  0.127954  0.612249  1
  Cs  Cs3  1  0.438429  0.628215  0.887865  1
  Mn  Mn4  1  0.923832  0.999801  0.999933  1
  Mn  Mn5  1  0.174032  0.500200  0.499933  1
  C  C6  1  0.095879  0.330840  0.247585  1
  C  C7  1  0.593589  0.831002  0.252388  1
  C  C8  1  0.015039  0.169159  0.747585  1
  C  C9  1  0.012586  0.668998  0.752387  1
  O  O10  1  0.083465  0.271926  0.115523  1
  O  O11  1  0.563138  0.914767  0.161486  1
  O  O12  1  0.777647  0.814708  0.207619  1
  O  O13  1  0.235150  0.314301  0.292295  1
  O  O14  1  0.974372  0.414508  0.338726  1
  O  O15  1  0.448973  0.771668  0.384333  1
  O  O16  1  0.061537  0.228074  0.615523  1
  O  O17  1  0.898370  0.585234  0.661486  1
  O  O18  1  0.212939  0.685293  0.707619  1
  O  O19  1  0.170849  0.185698  0.792295  1
  O  O20  1  0.809864  0.085491  0.838727  1
  O  O21  1  0.927304  0.728332  0.884333  1
