# generated using pymatgen
data_Tm20GaCo2Bi9
_symmetry_space_group_name_H-M   'P 1'
_cell_length_a   7.90457941
_cell_length_b   9.26108100
_cell_length_c   11.99797840
_cell_angle_alpha   90.00000000
_cell_angle_beta   89.91664024
_cell_angle_gamma   90.00000000
_symmetry_Int_Tables_number   1
_chemical_formula_structural   Tm20GaCo2Bi9
_chemical_formula_sum   'Tm20 Ga1 Co2 Bi9'
_cell_volume   878.31048227
_cell_formula_units_Z   1
loop_
 _symmetry_equiv_pos_site_id
 _symmetry_equiv_pos_as_xyz
  1  'x, y, z'
loop_
 _atom_site_type_symbol
 _atom_site_label
 _atom_site_symmetry_multiplicity
 _atom_site_fract_x
 _atom_site_fract_y
 _atom_site_fract_z
 _atom_site_occupancy
  Tm  Tm0  1  0.679991  0.926882  0.436242  1
  Tm  Tm1  1  0.820404  0.561545  0.937925  1
  Tm  Tm2  1  0.321576  0.478442  0.566317  1
  Tm  Tm3  1  0.170779  0.030656  0.060986  1
  Tm  Tm4  1  0.321576  0.021558  0.566317  1
  Tm  Tm5  1  0.170779  0.469344  0.060986  1
  Tm  Tm6  1  0.679991  0.573118  0.436242  1
  Tm  Tm7  1  0.820404  0.938455  0.937925  1
  Tm  Tm8  1  0.342534  0.750000  0.299047  1
  Tm  Tm9  1  0.158936  0.750000  0.797797  1
  Tm  Tm10  1  0.683854  0.250000  0.733756  1
  Tm  Tm11  1  0.836285  0.250000  0.213032  1
  Tm  Tm12  1  0.055143  0.750000  0.503454  1
  Tm  Tm13  1  0.440560  0.750000  0.005617  1
  Tm  Tm14  1  0.989350  0.250000  0.506022  1
  Tm  Tm15  1  0.528985  0.250000  0.006174  1
  Tm  Tm16  1  0.882496  0.750000  0.189294  1
  Tm  Tm17  1  0.617581  0.750000  0.690995  1
  Tm  Tm18  1  0.143374  0.250000  0.788954  1
  Tm  Tm19  1  0.342977  0.250000  0.281348  1
  Ga  Ga20  1  0.904305  0.250000  0.971180  1
  Co  Co21  1  0.075479  0.750000  0.009516  1
  Co  Co22  1  0.423297  0.750000  0.512137  1
  Bi  Bi23  1  0.595729  0.250000  0.475588  1
  Bi  Bi24  1  0.569640  0.991997  0.175562  1
  Bi  Bi25  1  0.928505  0.510312  0.673281  1
  Bi  Bi26  1  0.433616  0.489127  0.829156  1
  Bi  Bi27  1  0.065043  0.008836  0.328576  1
  Bi  Bi28  1  0.433616  0.010873  0.829156  1
  Bi  Bi29  1  0.065043  0.491164  0.328576  1
  Bi  Bi30  1  0.569640  0.508003  0.175562  1
  Bi  Bi31  1  0.928505  0.989688  0.673281  1
