# generated using pymatgen
data_Lu4Os5Ru3
_symmetry_space_group_name_H-M   'P 1'
_cell_length_a   5.27189739
_cell_length_b   5.27189840
_cell_length_c   8.85063600
_cell_angle_alpha   90.00000000
_cell_angle_beta   90.00000000
_cell_angle_gamma   121.13672544
_symmetry_Int_Tables_number   1
_chemical_formula_structural   Lu4Os5Ru3
_chemical_formula_sum   'Lu4 Os5 Ru3'
_cell_volume   210.54729345
_cell_formula_units_Z   1
loop_
 _symmetry_equiv_pos_site_id
 _symmetry_equiv_pos_as_xyz
  1  'x, y, z'
loop_
 _atom_site_type_symbol
 _atom_site_label
 _atom_site_symmetry_multiplicity
 _atom_site_fract_x
 _atom_site_fract_y
 _atom_site_fract_z
 _atom_site_occupancy
  Lu  Lu0  1  0.334288  0.665712  0.432927  1
  Lu  Lu1  1  0.665669  0.334331  0.566999  1
  Lu  Lu2  1  0.665669  0.334331  0.933001  1
  Lu  Lu3  1  0.334288  0.665712  0.067073  1
  Os  Os4  1  0.168625  0.341471  0.750000  1
  Os  Os5  1  0.171640  0.828360  0.750000  1
  Os  Os6  1  0.340008  0.173084  0.250000  1
  Os  Os7  1  0.826916  0.659992  0.250000  1
  Os  Os8  1  0.658529  0.831375  0.750000  1
  Ru  Ru9  1  0.003881  0.996119  0.000451  1
  Ru  Ru10  1  0.826608  0.173392  0.250000  1
  Ru  Ru11  1  0.003881  0.996119  0.499549  1
