# generated using pymatgen
data_Tm4FeRu6W
_symmetry_space_group_name_H-M   'P 1'
_cell_length_a   5.48661937
_cell_length_b   5.14576940
_cell_length_c   8.88347700
_cell_angle_alpha   90.00000000
_cell_angle_beta   90.00000000
_cell_angle_gamma   122.25790529
_symmetry_Int_Tables_number   1
_chemical_formula_structural   Tm4FeRu6W
_chemical_formula_sum   'Tm4 Fe1 Ru6 W1'
_cell_volume   212.09524869
_cell_formula_units_Z   1
loop_
 _symmetry_equiv_pos_site_id
 _symmetry_equiv_pos_as_xyz
  1  'x, y, z'
loop_
 _atom_site_type_symbol
 _atom_site_label
 _atom_site_symmetry_multiplicity
 _atom_site_fract_x
 _atom_site_fract_y
 _atom_site_fract_z
 _atom_site_occupancy
  Tm  Tm0  1  0.674161  0.348455  0.562852  1
  Tm  Tm1  1  0.331257  0.662744  0.431086  1
  Tm  Tm2  1  0.331257  0.662744  0.068914  1
  Tm  Tm3  1  0.674161  0.348455  0.937148  1
  Fe  Fe4  1  0.832556  0.666782  0.250000  1
  Ru  Ru5  1  0.005751  0.011248  0.495504  1
  Ru  Ru6  1  0.005751  0.011248  0.004496  1
  Ru  Ru7  1  0.172758  0.817208  0.750000  1
  Ru  Ru8  1  0.645462  0.817543  0.750000  1
  Ru  Ru9  1  0.823351  0.171125  0.250000  1
  Ru  Ru10  1  0.347366  0.170655  0.250000  1
  W  W11  1  0.156171  0.311792  0.750000  1
