# generated using pymatgen
data_Pr2Lu3Pt4
_symmetry_space_group_name_H-M   'P 1'
_cell_length_a   7.72487700
_cell_length_b   7.64155800
_cell_length_c   14.37363600
_cell_angle_alpha   90.00000000
_cell_angle_beta   90.00000000
_cell_angle_gamma   90.00000000
_symmetry_Int_Tables_number   1
_chemical_formula_structural   Pr2Lu3Pt4
_chemical_formula_sum   'Pr8 Lu12 Pt16'
_cell_volume   848.47710775
_cell_formula_units_Z   4
loop_
 _symmetry_equiv_pos_site_id
 _symmetry_equiv_pos_as_xyz
  1  'x, y, z'
loop_
 _atom_site_type_symbol
 _atom_site_label
 _atom_site_symmetry_multiplicity
 _atom_site_fract_x
 _atom_site_fract_y
 _atom_site_fract_z
 _atom_site_occupancy
  Pr  Pr0  1  0.015332  0.173578  0.402361  1
  Pr  Pr1  1  0.515332  0.326422  0.402361  1
  Pr  Pr2  1  0.484668  0.673578  0.902361  1
  Pr  Pr3  1  0.484668  0.673578  0.597639  1
  Pr  Pr4  1  0.984668  0.826422  0.597639  1
  Pr  Pr5  1  0.984668  0.826422  0.902361  1
  Pr  Pr6  1  0.515332  0.326422  0.097639  1
  Pr  Pr7  1  0.015332  0.173578  0.097639  1
  Lu  Lu8  1  0.330946  0.165249  0.622225  1
  Lu  Lu9  1  0.669054  0.834751  0.377775  1
  Lu  Lu10  1  0.663555  0.999041  0.750000  1
  Lu  Lu11  1  0.169054  0.665249  0.377775  1
  Lu  Lu12  1  0.830946  0.334751  0.877775  1
  Lu  Lu13  1  0.830946  0.334751  0.622225  1
  Lu  Lu14  1  0.836445  0.499041  0.250000  1
  Lu  Lu15  1  0.336445  0.000959  0.250000  1
  Lu  Lu16  1  0.330946  0.165249  0.877775  1
  Lu  Lu17  1  0.169054  0.665249  0.122225  1
  Lu  Lu18  1  0.669054  0.834751  0.122225  1
  Lu  Lu19  1  0.163555  0.500959  0.750000  1
  Pt  Pt20  1  0.295709  0.866187  0.750000  1
  Pt  Pt21  1  0.465054  0.632296  0.250000  1
  Pt  Pt22  1  0.034946  0.132296  0.750000  1
  Pt  Pt23  1  0.534946  0.367704  0.750000  1
  Pt  Pt24  1  0.165078  0.459833  0.545693  1
  Pt  Pt25  1  0.965054  0.867704  0.250000  1
  Pt  Pt26  1  0.704291  0.133813  0.250000  1
  Pt  Pt27  1  0.834922  0.540167  0.045693  1
  Pt  Pt28  1  0.334922  0.959833  0.045693  1
  Pt  Pt29  1  0.165078  0.459833  0.954307  1
  Pt  Pt30  1  0.665078  0.040167  0.545693  1
  Pt  Pt31  1  0.334922  0.959833  0.454307  1
  Pt  Pt32  1  0.834922  0.540167  0.454307  1
  Pt  Pt33  1  0.795709  0.633813  0.750000  1
  Pt  Pt34  1  0.204291  0.366187  0.250000  1
  Pt  Pt35  1  0.665078  0.040167  0.954307  1
