# generated using pymatgen
data_Dy15Ho5Bi12
_symmetry_space_group_name_H-M   'P 1'
_cell_length_a   8.26704504
_cell_length_b   9.52670400
_cell_length_c   12.05323106
_cell_angle_alpha   89.99944753
_cell_angle_beta   90.01161197
_cell_angle_gamma   90.00208008
_symmetry_Int_Tables_number   1
_chemical_formula_structural   Dy15Ho5Bi12
_chemical_formula_sum   'Dy15 Ho5 Bi12'
_cell_volume   949.28462859
_cell_formula_units_Z   1
loop_
 _symmetry_equiv_pos_site_id
 _symmetry_equiv_pos_as_xyz
  1  'x, y, z'
loop_
 _atom_site_type_symbol
 _atom_site_label
 _atom_site_symmetry_multiplicity
 _atom_site_fract_x
 _atom_site_fract_y
 _atom_site_fract_z
 _atom_site_occupancy
  Dy  Dy0  1  0.352580  0.749980  0.215215  1
  Dy  Dy1  1  0.852551  0.750034  0.284787  1
  Dy  Dy2  1  0.647403  0.250033  0.784848  1
  Dy  Dy3  1  0.147569  0.250113  0.715224  1
  Dy  Dy4  1  0.807258  0.063927  0.558460  1
  Dy  Dy5  1  0.692733  0.936065  0.058456  1
  Dy  Dy6  1  0.192762  0.563910  0.441545  1
  Dy  Dy7  1  0.475402  0.249975  0.488184  1
  Dy  Dy8  1  0.975506  0.250021  0.011771  1
  Dy  Dy9  1  0.524592  0.750056  0.511820  1
  Dy  Dy10  1  0.024656  0.749997  0.988214  1
  Dy  Dy11  1  0.312622  0.250010  0.218627  1
  Dy  Dy12  1  0.812598  0.250027  0.281337  1
  Dy  Dy13  1  0.687399  0.749964  0.781345  1
  Dy  Dy14  1  0.187397  0.750034  0.718642  1
  Ho  Ho15  1  0.692661  0.563990  0.058440  1
  Ho  Ho16  1  0.192617  0.935979  0.441574  1
  Ho  Ho17  1  0.307319  0.064112  0.941572  1
  Ho  Ho18  1  0.807396  0.436007  0.558416  1
  Ho  Ho19  1  0.307259  0.435924  0.941572  1
  Bi  Bi20  1  0.407289  0.749889  0.956728  1
  Bi  Bi21  1  0.907375  0.749805  0.543219  1
  Bi  Bi22  1  0.592474  0.250293  0.043168  1
  Bi  Bi23  1  0.092602  0.249796  0.456802  1
  Bi  Bi24  1  0.564695  0.995562  0.325219  1
  Bi  Bi25  1  0.064715  0.504461  0.174732  1
  Bi  Bi26  1  0.435243  0.495533  0.674838  1
  Bi  Bi27  1  0.935286  0.004470  0.825232  1
  Bi  Bi28  1  0.435191  0.004483  0.674799  1
  Bi  Bi29  1  0.935255  0.495521  0.825250  1
  Bi  Bi30  1  0.564779  0.504462  0.325181  1
  Bi  Bi31  1  0.064814  0.995568  0.174782  1
