# generated using pymatgen
data_CeLu15(CdNi)4
_symmetry_space_group_name_H-M   'P 1'
_cell_length_a   9.38196897
_cell_length_b   9.38196940
_cell_length_c   9.38196961
_cell_angle_alpha   59.66353333
_cell_angle_beta   59.66353240
_cell_angle_gamma   59.66353726
_symmetry_Int_Tables_number   1
_chemical_formula_structural   CeLu15(CdNi)4
_chemical_formula_sum   'Ce1 Lu15 Cd4 Ni4'
_cell_volume   579.47447532
_cell_formula_units_Z   1
loop_
 _symmetry_equiv_pos_site_id
 _symmetry_equiv_pos_as_xyz
  1  'x, y, z'
loop_
 _atom_site_type_symbol
 _atom_site_label
 _atom_site_symmetry_multiplicity
 _atom_site_fract_x
 _atom_site_fract_y
 _atom_site_fract_z
 _atom_site_occupancy
  Ce  Ce0  1  0.346989  0.346989  0.346989  1
  Lu  Lu1  1  0.348622  0.348622  0.952326  1
  Lu  Lu2  1  0.348622  0.952326  0.348622  1
  Lu  Lu3  1  0.952326  0.348622  0.348622  1
  Lu  Lu4  1  0.813279  0.187358  0.187358  1
  Lu  Lu5  1  0.188862  0.811828  0.811828  1
  Lu  Lu6  1  0.187358  0.813279  0.187358  1
  Lu  Lu7  1  0.811828  0.188862  0.811828  1
  Lu  Lu8  1  0.187358  0.187358  0.813279  1
  Lu  Lu9  1  0.811828  0.811828  0.188862  1
  Lu  Lu10  1  0.936954  0.564059  0.564059  1
  Lu  Lu11  1  0.563889  0.936190  0.936190  1
  Lu  Lu12  1  0.564059  0.936954  0.564059  1
  Lu  Lu13  1  0.936190  0.563889  0.936190  1
  Lu  Lu14  1  0.564059  0.564059  0.936954  1
  Lu  Lu15  1  0.936190  0.936190  0.563889  1
  Cd  Cd16  1  0.581819  0.581819  0.581819  1
  Cd  Cd17  1  0.582463  0.582463  0.253955  1
  Cd  Cd18  1  0.582463  0.253955  0.582463  1
  Cd  Cd19  1  0.253955  0.582463  0.582463  1
  Ni  Ni20  1  0.142474  0.142474  0.142474  1
  Ni  Ni21  1  0.142826  0.142826  0.572759  1
  Ni  Ni22  1  0.142826  0.572759  0.142826  1
  Ni  Ni23  1  0.572759  0.142826  0.142826  1
