# generated using pymatgen
data_Hf8Ti11Si16Ir
_symmetry_space_group_name_H-M   'P 1'
_cell_length_a   6.57643378
_cell_length_b   6.77716916
_cell_length_c   12.87009600
_cell_angle_alpha   90.00000000
_cell_angle_beta   90.00000000
_cell_angle_gamma   90.14344986
_symmetry_Int_Tables_number   1
_chemical_formula_structural   Hf8Ti11Si16Ir
_chemical_formula_sum   'Hf8 Ti11 Si16 Ir1'
_cell_volume   573.61328683
_cell_formula_units_Z   1
loop_
 _symmetry_equiv_pos_site_id
 _symmetry_equiv_pos_as_xyz
  1  'x, y, z'
loop_
 _atom_site_type_symbol
 _atom_site_label
 _atom_site_symmetry_multiplicity
 _atom_site_fract_x
 _atom_site_fract_y
 _atom_site_fract_z
 _atom_site_occupancy
  Hf  Hf0  1  0.998188  0.173901  0.094891  1
  Hf  Hf1  1  0.006896  0.826745  0.906390  1
  Hf  Hf2  1  0.500088  0.671066  0.907446  1
  Hf  Hf3  1  0.006896  0.826745  0.593610  1
  Hf  Hf4  1  0.502059  0.325906  0.094455  1
  Hf  Hf5  1  0.998188  0.173901  0.405109  1
  Hf  Hf6  1  0.502059  0.325906  0.405545  1
  Hf  Hf7  1  0.500088  0.671066  0.592554  1
  Ti  Ti8  1  0.163399  0.495740  0.750000  1
  Ti  Ti9  1  0.835174  0.503373  0.250000  1
  Ti  Ti10  1  0.335039  0.993529  0.250000  1
  Ti  Ti11  1  0.333432  0.174162  0.625360  1
  Ti  Ti12  1  0.662874  0.827996  0.376292  1
  Ti  Ti13  1  0.162655  0.674396  0.374405  1
  Ti  Ti14  1  0.662874  0.827996  0.123708  1
  Ti  Ti15  1  0.835997  0.331695  0.626131  1
  Ti  Ti16  1  0.333432  0.174162  0.874640  1
  Ti  Ti17  1  0.835997  0.331695  0.873869  1
  Ti  Ti18  1  0.162655  0.674396  0.125595  1
  Si  Si19  1  0.033764  0.115149  0.750000  1
  Si  Si20  1  0.958960  0.881505  0.250000  1
  Si  Si21  1  0.462829  0.616827  0.250000  1
  Si  Si22  1  0.536142  0.389405  0.750000  1
  Si  Si23  1  0.300616  0.863368  0.750000  1
  Si  Si24  1  0.702386  0.133609  0.250000  1
  Si  Si25  1  0.203603  0.364318  0.250000  1
  Si  Si26  1  0.796776  0.637907  0.750000  1
  Si  Si27  1  0.169198  0.462740  0.538570  1
  Si  Si28  1  0.829246  0.538270  0.460421  1
  Si  Si29  1  0.330234  0.962975  0.461341  1
  Si  Si30  1  0.829246  0.538270  0.039579  1
  Si  Si31  1  0.671289  0.038981  0.540980  1
  Si  Si32  1  0.169198  0.462740  0.961430  1
  Si  Si33  1  0.671289  0.038981  0.959020  1
  Si  Si34  1  0.330234  0.962975  0.038659  1
  Ir  Ir35  1  0.667001  0.987607  0.750000  1
