# generated using pymatgen
data_LuCdIr2O7
_symmetry_space_group_name_H-M   'P 1'
_cell_length_a   7.20306552
_cell_length_b   7.20306532
_cell_length_c   7.30573600
_cell_angle_alpha   59.52735895
_cell_angle_beta   59.52735989
_cell_angle_gamma   59.18527121
_symmetry_Int_Tables_number   1
_chemical_formula_structural   LuCdIr2O7
_chemical_formula_sum   'Lu2 Cd2 Ir4 O14'
_cell_volume   264.44574156
_cell_formula_units_Z   2
loop_
 _symmetry_equiv_pos_site_id
 _symmetry_equiv_pos_as_xyz
  1  'x, y, z'
loop_
 _atom_site_type_symbol
 _atom_site_label
 _atom_site_symmetry_multiplicity
 _atom_site_fract_x
 _atom_site_fract_y
 _atom_site_fract_z
 _atom_site_occupancy
  Lu  Lu0  1  0.125000  0.125000  0.625000  1
  Lu  Lu1  1  0.125000  0.125000  0.125000  1
  Cd  Cd2  1  0.625000  0.125000  0.125000  1
  Cd  Cd3  1  0.125000  0.625000  0.125000  1
  Ir  Ir4  1  0.125000  0.625000  0.625000  1
  Ir  Ir5  1  0.625000  0.125000  0.625000  1
  Ir  Ir6  1  0.625000  0.625000  0.125000  1
  Ir  Ir7  1  0.625000  0.625000  0.625000  1
  O  O8  1  0.701498  0.701498  0.298502  1
  O  O9  1  0.288430  0.288430  0.711570  1
  O  O10  1  0.718266  0.292098  0.693769  1
  O  O11  1  0.292098  0.718266  0.295867  1
  O  O12  1  0.292098  0.718266  0.693769  1
  O  O13  1  0.718266  0.292098  0.295867  1
  O  O14  1  0.548502  0.548502  0.951498  1
  O  O15  1  0.961570  0.961570  0.538430  1
  O  O16  1  0.531734  0.957902  0.556231  1
  O  O17  1  0.957902  0.531734  0.954133  1
  O  O18  1  0.957902  0.531734  0.556231  1
  O  O19  1  0.531734  0.957902  0.954133  1
  O  O20  1  0.244285  0.244285  0.255715  1
  O  O21  1  0.005715  0.005715  0.994285  1
