# generated using pymatgen
data_Rb6GaTe4I
_symmetry_space_group_name_H-M   'P 1'
_cell_length_a   11.73308300
_cell_length_b   11.73308143
_cell_length_c   8.80746800
_cell_angle_alpha   90.00000000
_cell_angle_beta   90.00000000
_cell_angle_gamma   119.99999596
_symmetry_Int_Tables_number   1
_chemical_formula_structural   Rb6GaTe4I
_chemical_formula_sum   'Rb12 Ga2 Te8 I2'
_cell_volume   1050.04026068
_cell_formula_units_Z   2
loop_
 _symmetry_equiv_pos_site_id
 _symmetry_equiv_pos_as_xyz
  1  'x, y, z'
loop_
 _atom_site_type_symbol
 _atom_site_label
 _atom_site_symmetry_multiplicity
 _atom_site_fract_x
 _atom_site_fract_y
 _atom_site_fract_z
 _atom_site_occupancy
  Rb  Rb0  1  0.139475  0.860525  0.515943  1
  Rb  Rb1  1  0.721048  0.860525  0.515943  1
  Rb  Rb2  1  0.954158  0.477079  0.319300  1
  Rb  Rb3  1  0.522921  0.477079  0.319300  1
  Rb  Rb4  1  0.860525  0.721048  0.015943  1
  Rb  Rb5  1  0.278952  0.139475  0.015943  1
  Rb  Rb6  1  0.522921  0.045842  0.319300  1
  Rb  Rb7  1  0.139475  0.278952  0.515943  1
  Rb  Rb8  1  0.860525  0.139475  0.015943  1
  Rb  Rb9  1  0.045842  0.522921  0.819300  1
  Rb  Rb10  1  0.477079  0.954158  0.819300  1
  Rb  Rb11  1  0.477079  0.522921  0.819300  1
  Ga  Ga12  1  0.666667  0.333333  0.707716  1
  Ga  Ga13  1  0.333333  0.666667  0.207716  1
  Te  Te14  1  0.416651  0.208326  0.612584  1
  Te  Te15  1  0.583349  0.791674  0.112584  1
  Te  Te16  1  0.666667  0.333333  0.018579  1
  Te  Te17  1  0.791674  0.583349  0.612584  1
  Te  Te18  1  0.208326  0.416651  0.112584  1
  Te  Te19  1  0.333333  0.666667  0.518579  1
  Te  Te20  1  0.208326  0.791674  0.112584  1
  Te  Te21  1  0.791674  0.208326  0.612584  1
  I  I22  1  0.000000  0.000000  0.270828  1
  I  I23  1  0.000000  0.000000  0.770828  1
