# generated using pymatgen
data_Pr4DySi12Ir19
_symmetry_space_group_name_H-M   'P 1'
_cell_length_a   12.92408000
_cell_length_b   12.92408035
_cell_length_c   4.02692700
_cell_angle_alpha   90.00000000
_cell_angle_beta   90.00000000
_cell_angle_gamma   119.99999911
_symmetry_Int_Tables_number   1
_chemical_formula_structural   Pr4DySi12Ir19
_chemical_formula_sum   'Pr4 Dy1 Si12 Ir19'
_cell_volume   582.51039425
_cell_formula_units_Z   1
loop_
 _symmetry_equiv_pos_site_id
 _symmetry_equiv_pos_as_xyz
  1  'x, y, z'
loop_
 _atom_site_type_symbol
 _atom_site_label
 _atom_site_symmetry_multiplicity
 _atom_site_fract_x
 _atom_site_fract_y
 _atom_site_fract_z
 _atom_site_occupancy
  Pr  Pr0  1  0.333333  0.666667  0.500000  1
  Pr  Pr1  1  0.000273  0.814518  0.000000  1
  Pr  Pr2  1  0.185482  0.185754  0.000000  1
  Pr  Pr3  1  0.814246  0.999727  0.000000  1
  Dy  Dy4  1  0.666667  0.333333  0.500000  1
  Si  Si5  1  0.999913  0.629364  0.500000  1
  Si  Si6  1  0.370636  0.370549  0.500000  1
  Si  Si7  1  0.629451  0.000087  0.500000  1
  Si  Si8  1  0.520733  0.688456  0.000000  1
  Si  Si9  1  0.311544  0.832277  0.000000  1
  Si  Si10  1  0.167723  0.479267  0.000000  1
  Si  Si11  1  0.482045  0.171013  0.000000  1
  Si  Si12  1  0.688968  0.517955  0.000000  1
  Si  Si13  1  0.828987  0.311032  0.000000  1
  Si  Si14  1  0.998942  0.184089  0.500000  1
  Si  Si15  1  0.815911  0.814852  0.500000  1
  Si  Si16  1  0.185148  0.001058  0.500000  1
  Ir  Ir17  1  0.513392  0.875557  0.000000  1
  Ir  Ir18  1  0.124443  0.637835  0.000000  1
  Ir  Ir19  1  0.362165  0.486608  0.000000  1
  Ir  Ir20  1  0.489571  0.362621  0.000000  1
  Ir  Ir21  1  0.873050  0.510429  0.000000  1
  Ir  Ir22  1  0.637379  0.126950  0.000000  1
  Ir  Ir23  1  0.999905  0.446972  0.500000  1
  Ir  Ir24  1  0.553028  0.552933  0.500000  1
  Ir  Ir25  1  0.447067  0.000095  0.500000  1
  Ir  Ir26  1  0.998568  0.284859  0.000000  1
  Ir  Ir27  1  0.715141  0.713709  0.000000  1
  Ir  Ir28  1  0.286291  0.001432  0.000000  1
  Ir  Ir29  1  0.621910  0.804001  0.500000  1
  Ir  Ir30  1  0.195999  0.817908  0.500000  1
  Ir  Ir31  1  0.182092  0.378090  0.500000  1
  Ir  Ir32  1  0.380635  0.183806  0.500000  1
  Ir  Ir33  1  0.803170  0.619365  0.500000  1
  Ir  Ir34  1  0.816194  0.196830  0.500000  1
  Ir  Ir35  1  0.000000  0.000000  0.500000  1
