# generated using pymatgen
data_Tm2Lu3P12IrRu18
_symmetry_space_group_name_H-M   'P 1'
_cell_length_a   12.49746400
_cell_length_b   12.49746497
_cell_length_c   3.96480600
_cell_angle_alpha   90.00000000
_cell_angle_beta   90.00000000
_cell_angle_gamma   119.99999215
_symmetry_Int_Tables_number   1
_chemical_formula_structural   Tm2Lu3P12IrRu18
_chemical_formula_sum   'Tm2 Lu3 P12 Ir1 Ru18'
_cell_volume   536.28596384
_cell_formula_units_Z   1
loop_
 _symmetry_equiv_pos_site_id
 _symmetry_equiv_pos_as_xyz
  1  'x, y, z'
loop_
 _atom_site_type_symbol
 _atom_site_label
 _atom_site_symmetry_multiplicity
 _atom_site_fract_x
 _atom_site_fract_y
 _atom_site_fract_z
 _atom_site_occupancy
  Tm  Tm0  1  0.333333  0.666667  0.500000  1
  Tm  Tm1  1  0.666667  0.333333  0.500000  1
  Lu  Lu2  1  0.186082  0.186082  0.000000  1
  Lu  Lu3  1  0.813918  0.000000  0.000000  1
  Lu  Lu4  1  0.000000  0.813918  0.000000  1
  P  P5  1  0.307093  0.829112  0.000000  1
  P  P6  1  0.170888  0.477981  0.000000  1
  P  P7  1  0.522019  0.692907  0.000000  1
  P  P8  1  0.829112  0.307093  0.000000  1
  P  P9  1  0.477981  0.170888  0.000000  1
  P  P10  1  0.692907  0.522019  0.000000  1
  P  P11  1  0.372361  0.372361  0.500000  1
  P  P12  1  0.627639  0.000000  0.500000  1
  P  P13  1  0.000000  0.627639  0.500000  1
  P  P14  1  0.815412  0.815412  0.500000  1
  P  P15  1  0.184588  0.000000  0.500000  1
  P  P16  1  0.000000  0.184588  0.500000  1
  Ir  Ir17  1  0.000000  0.000000  0.500000  1
  Ru  Ru18  1  0.191353  0.814859  0.500000  1
  Ru  Ru19  1  0.185141  0.376494  0.500000  1
  Ru  Ru20  1  0.623506  0.808647  0.500000  1
  Ru  Ru21  1  0.814859  0.191353  0.500000  1
  Ru  Ru22  1  0.376494  0.185141  0.500000  1
  Ru  Ru23  1  0.808647  0.623506  0.500000  1
  Ru  Ru24  1  0.126762  0.634720  0.000000  1
  Ru  Ru25  1  0.365280  0.492041  0.000000  1
  Ru  Ru26  1  0.507959  0.873238  0.000000  1
  Ru  Ru27  1  0.634720  0.126762  0.000000  1
  Ru  Ru28  1  0.492041  0.365280  0.000000  1
  Ru  Ru29  1  0.873238  0.507959  0.000000  1
  Ru  Ru30  1  0.554879  0.554879  0.500000  1
  Ru  Ru31  1  0.445121  0.000000  0.500000  1
  Ru  Ru32  1  0.000000  0.445121  0.500000  1
  Ru  Ru33  1  0.718963  0.718963  0.000000  1
  Ru  Ru34  1  0.281037  0.000000  0.000000  1
  Ru  Ru35  1  0.000000  0.281037  0.000000  1
