# generated using pymatgen
data_Nd3GaNi2Ir
_symmetry_space_group_name_H-M   'P 1'
_cell_length_a   5.69151745
_cell_length_b   5.69151737
_cell_length_c   13.30982200
_cell_angle_alpha   90.00000000
_cell_angle_beta   90.00000000
_cell_angle_gamma   136.54532314
_symmetry_Int_Tables_number   1
_chemical_formula_structural   Nd3GaNi2Ir
_chemical_formula_sum   'Nd6 Ga2 Ni4 Ir2'
_cell_volume   296.53658555
_cell_formula_units_Z   2
loop_
 _symmetry_equiv_pos_site_id
 _symmetry_equiv_pos_as_xyz
  1  'x, y, z'
loop_
 _atom_site_type_symbol
 _atom_site_label
 _atom_site_symmetry_multiplicity
 _atom_site_fract_x
 _atom_site_fract_y
 _atom_site_fract_z
 _atom_site_occupancy
  Nd  Nd0  1  0.783137  0.216863  0.394737  1
  Nd  Nd1  1  0.216863  0.783137  0.605263  1
  Nd  Nd2  1  0.783137  0.216863  0.105263  1
  Nd  Nd3  1  0.216863  0.783137  0.894737  1
  Nd  Nd4  1  0.503616  0.496384  0.250000  1
  Nd  Nd5  1  0.496384  0.503616  0.750000  1
  Ga  Ga6  1  0.500000  0.500000  0.500000  1
  Ga  Ga7  1  0.500000  0.500000  0.000000  1
  Ni  Ni8  1  0.070083  0.929917  0.415015  1
  Ni  Ni9  1  0.929917  0.070083  0.584985  1
  Ni  Ni10  1  0.070083  0.929917  0.084985  1
  Ni  Ni11  1  0.929917  0.070083  0.915015  1
  Ir  Ir12  1  0.216937  0.783063  0.250000  1
  Ir  Ir13  1  0.783063  0.216937  0.750000  1
