# generated using pymatgen
data_Ba2LiInSb4
_symmetry_space_group_name_H-M   'P 1'
_cell_length_a   4.54579500
_cell_length_b   4.58997339
_cell_length_c   23.86549200
_cell_angle_alpha   90.08777918
_cell_angle_beta   90.00000000
_cell_angle_gamma   90.00000000
_symmetry_Int_Tables_number   1
_chemical_formula_structural   Ba2LiInSb4
_chemical_formula_sum   'Ba4 Li2 In2 Sb8'
_cell_volume   497.95476940
_cell_formula_units_Z   2
loop_
 _symmetry_equiv_pos_site_id
 _symmetry_equiv_pos_as_xyz
  1  'x, y, z'
loop_
 _atom_site_type_symbol
 _atom_site_label
 _atom_site_symmetry_multiplicity
 _atom_site_fract_x
 _atom_site_fract_y
 _atom_site_fract_z
 _atom_site_occupancy
  Ba  Ba0  1  0.250000  0.772574  0.615154  1
  Ba  Ba1  1  0.750000  0.227426  0.384846  1
  Ba  Ba2  1  0.750000  0.274836  0.884973  1
  Ba  Ba3  1  0.250000  0.725164  0.115027  1
  Li  Li4  1  0.250000  0.273960  0.750285  1
  Li  Li5  1  0.750000  0.726040  0.249715  1
  In  In6  1  0.750000  0.774313  0.749821  1
  In  In7  1  0.250000  0.225687  0.250179  1
  Sb  Sb8  1  0.250000  0.207926  0.002700  1
  Sb  Sb9  1  0.750000  0.792074  0.997300  1
  Sb  Sb10  1  0.750000  0.708605  0.500127  1
  Sb  Sb11  1  0.250000  0.291395  0.499873  1
  Sb  Sb12  1  0.250000  0.725909  0.324530  1
  Sb  Sb13  1  0.750000  0.274091  0.675470  1
  Sb  Sb14  1  0.750000  0.225654  0.175331  1
  Sb  Sb15  1  0.250000  0.774346  0.824669  1
