# generated using pymatgen
data_Ca6NdNi4Sn13
_symmetry_space_group_name_H-M   'P 1'
_cell_length_a   11.30522900
_cell_length_b   11.30522900
_cell_length_c   4.63412700
_cell_angle_alpha   90.00000000
_cell_angle_beta   90.00000000
_cell_angle_gamma   90.00000000
_symmetry_Int_Tables_number   1
_chemical_formula_structural   Ca6NdNi4Sn13
_chemical_formula_sum   'Ca6 Nd1 Ni4 Sn13'
_cell_volume   592.27944315
_cell_formula_units_Z   1
loop_
 _symmetry_equiv_pos_site_id
 _symmetry_equiv_pos_as_xyz
  1  'x, y, z'
loop_
 _atom_site_type_symbol
 _atom_site_label
 _atom_site_symmetry_multiplicity
 _atom_site_fract_x
 _atom_site_fract_y
 _atom_site_fract_z
 _atom_site_occupancy
  Ca  Ca0  1  0.838246  0.169991  0.000000  1
  Ca  Ca1  1  0.830009  0.838246  0.000000  1
  Ca  Ca2  1  0.161754  0.830009  0.000000  1
  Ca  Ca3  1  0.169991  0.161754  0.000000  1
  Ca  Ca4  1  0.000000  0.500000  0.000000  1
  Ca  Ca5  1  0.500000  0.000000  0.000000  1
  Nd  Nd6  1  0.500000  0.500000  0.500000  1
  Ni  Ni7  1  0.775971  0.618471  0.500000  1
  Ni  Ni8  1  0.381529  0.775971  0.500000  1
  Ni  Ni9  1  0.618471  0.224029  0.500000  1
  Ni  Ni10  1  0.224029  0.381529  0.500000  1
  Sn  Sn11  1  0.018563  0.284389  0.500000  1
  Sn  Sn12  1  0.981437  0.715611  0.500000  1
  Sn  Sn13  1  0.215607  0.611913  0.500000  1
  Sn  Sn14  1  0.577571  0.306199  0.000000  1
  Sn  Sn15  1  0.693801  0.577571  0.000000  1
  Sn  Sn16  1  0.784393  0.388087  0.500000  1
  Sn  Sn17  1  0.715611  0.018563  0.500000  1
  Sn  Sn18  1  0.000000  0.000000  0.500000  1
  Sn  Sn19  1  0.284389  0.981437  0.500000  1
  Sn  Sn20  1  0.422429  0.693801  0.000000  1
  Sn  Sn21  1  0.611913  0.784393  0.500000  1
  Sn  Sn22  1  0.306199  0.422429  0.000000  1
  Sn  Sn23  1  0.388087  0.215607  0.500000  1
