# generated using pymatgen
data_La3Ir5Rh4
_symmetry_space_group_name_H-M   'P 1'
_cell_length_a   5.39181511
_cell_length_b   5.39636323
_cell_length_c   17.83056007
_cell_angle_alpha   89.99999983
_cell_angle_beta   90.04774951
_cell_angle_gamma   120.02790525
_symmetry_Int_Tables_number   1
_chemical_formula_structural   La3Ir5Rh4
_chemical_formula_sum   'La6 Ir10 Rh8'
_cell_volume   449.16860392
_cell_formula_units_Z   2
loop_
 _symmetry_equiv_pos_site_id
 _symmetry_equiv_pos_as_xyz
  1  'x, y, z'
loop_
 _atom_site_type_symbol
 _atom_site_label
 _atom_site_symmetry_multiplicity
 _atom_site_fract_x
 _atom_site_fract_y
 _atom_site_fract_z
 _atom_site_occupancy
  La  La0  1  0.333341  0.666671  0.541748  1
  La  La1  1  0.666630  0.333314  0.041518  1
  La  La2  1  0.666203  0.333101  0.457702  1
  La  La3  1  0.333439  0.666720  0.958302  1
  La  La4  1  0.333344  0.666673  0.750014  1
  La  La5  1  0.666750  0.333374  0.249771  1
  Ir  Ir6  1  0.166940  0.333612  0.128577  1
  Ir  Ir7  1  0.833049  0.666030  0.628152  1
  Ir  Ir8  1  0.666175  0.833087  0.128372  1
  Ir  Ir9  1  0.166940  0.833328  0.128577  1
  Ir  Ir10  1  0.833049  0.167019  0.628152  1
  Ir  Ir11  1  0.333993  0.166996  0.628222  1
  Ir  Ir12  1  0.833029  0.666079  0.871696  1
  Ir  Ir13  1  0.833029  0.166950  0.871696  1
  Ir  Ir14  1  0.333976  0.166988  0.871710  1
  Ir  Ir15  1  0.668026  0.834013  0.371860  1
  Rh  Rh16  1  0.167502  0.833777  0.372263  1
  Rh  Rh17  1  0.167502  0.333725  0.372263  1
  Rh  Rh18  1  0.998391  0.999195  0.249786  1
  Rh  Rh19  1  0.999997  0.999998  0.749974  1
  Rh  Rh20  1  0.334038  0.667019  0.249931  1
  Rh  Rh21  1  0.666716  0.333358  0.749848  1
  Rh  Rh22  1  0.000078  0.000039  0.999817  1
  Rh  Rh23  1  0.997864  0.998932  0.500047  1
