# generated using pymatgen
data_Lu5ZnCo5
_symmetry_space_group_name_H-M   'P 1'
_cell_length_a   5.31226344
_cell_length_b   5.31226403
_cell_length_c   20.26455200
_cell_angle_alpha   90.00000000
_cell_angle_beta   90.00000000
_cell_angle_gamma   135.98103450
_symmetry_Int_Tables_number   1
_chemical_formula_structural   Lu5ZnCo5
_chemical_formula_sum   'Lu10 Zn2 Co10'
_cell_volume   397.38946618
_cell_formula_units_Z   2
loop_
 _symmetry_equiv_pos_site_id
 _symmetry_equiv_pos_as_xyz
  1  'x, y, z'
loop_
 _atom_site_type_symbol
 _atom_site_label
 _atom_site_symmetry_multiplicity
 _atom_site_fract_x
 _atom_site_fract_y
 _atom_site_fract_z
 _atom_site_occupancy
  Lu  Lu0  1  0.290886  0.709114  0.250000  1
  Lu  Lu1  1  0.294109  0.705891  0.065311  1
  Lu  Lu2  1  0.997276  0.002724  0.842959  1
  Lu  Lu3  1  0.709114  0.290886  0.750000  1
  Lu  Lu4  1  0.705891  0.294109  0.565311  1
  Lu  Lu5  1  0.002724  0.997276  0.342959  1
  Lu  Lu6  1  0.997276  0.002724  0.657041  1
  Lu  Lu7  1  0.705891  0.294109  0.934689  1
  Lu  Lu8  1  0.002724  0.997276  0.157041  1
  Lu  Lu9  1  0.294109  0.705891  0.434689  1
  Zn  Zn10  1  0.000000  0.000000  0.500000  1
  Zn  Zn11  1  0.000000  0.000000  0.000000  1
  Co  Co12  1  0.290658  0.709342  0.655340  1
  Co  Co13  1  0.586847  0.413153  0.439643  1
  Co  Co14  1  0.415215  0.584785  0.750000  1
  Co  Co15  1  0.413153  0.586847  0.939643  1
  Co  Co16  1  0.584785  0.415215  0.250000  1
  Co  Co17  1  0.413153  0.586847  0.560357  1
  Co  Co18  1  0.709342  0.290658  0.344660  1
  Co  Co19  1  0.709342  0.290658  0.155340  1
  Co  Co20  1  0.586847  0.413153  0.060357  1
  Co  Co21  1  0.290658  0.709342  0.844660  1
