# generated using pymatgen
data_LiNd6Th2MgIr2
_symmetry_space_group_name_H-M   'P 1'
_cell_length_a   10.01728358
_cell_length_b   10.01728389
_cell_length_c   10.01677800
_cell_angle_alpha   60.00167057
_cell_angle_beta   60.00166954
_cell_angle_gamma   60.03452494
_symmetry_Int_Tables_number   1
_chemical_formula_structural   LiNd6Th2MgIr2
_chemical_formula_sum   'Li2 Nd12 Th4 Mg2 Ir4'
_cell_volume   710.94688907
_cell_formula_units_Z   2
loop_
 _symmetry_equiv_pos_site_id
 _symmetry_equiv_pos_as_xyz
  1  'x, y, z'
loop_
 _atom_site_type_symbol
 _atom_site_label
 _atom_site_symmetry_multiplicity
 _atom_site_fract_x
 _atom_site_fract_y
 _atom_site_fract_z
 _atom_site_occupancy
  Li  Li0  1  0.578908  0.264190  0.578449  1
  Li  Li1  1  0.264190  0.578908  0.578449  1
  Nd  Nd2  1  0.810857  0.189360  0.188886  1
  Nd  Nd3  1  0.189360  0.810857  0.810896  1
  Nd  Nd4  1  0.189360  0.810857  0.188886  1
  Nd  Nd5  1  0.810857  0.189360  0.810896  1
  Nd  Nd6  1  0.188078  0.188078  0.811922  1
  Nd  Nd7  1  0.809691  0.809691  0.190309  1
  Nd  Nd8  1  0.938205  0.563420  0.562509  1
  Nd  Nd9  1  0.563420  0.938205  0.935866  1
  Nd  Nd10  1  0.563420  0.938205  0.562509  1
  Nd  Nd11  1  0.938205  0.563420  0.935866  1
  Nd  Nd12  1  0.563960  0.563960  0.936040  1
  Nd  Nd13  1  0.937889  0.937889  0.562111  1
  Th  Th14  1  0.345443  0.345443  0.345263  1
  Th  Th15  1  0.345443  0.345443  0.963852  1
  Th  Th16  1  0.346136  0.961089  0.346388  1
  Th  Th17  1  0.961089  0.346136  0.346388  1
  Mg  Mg18  1  0.577754  0.577754  0.580740  1
  Mg  Mg19  1  0.577754  0.577754  0.263749  1
  Ir  Ir20  1  0.145822  0.145822  0.145628  1
  Ir  Ir21  1  0.145822  0.145822  0.562727  1
  Ir  Ir22  1  0.145960  0.562371  0.145833  1
  Ir  Ir23  1  0.562371  0.145960  0.145833  1
