# generated using pymatgen
data_K5RbBa6(AlSb4)2
_symmetry_space_group_name_H-M   'P 1'
_cell_length_a   11.09426147
_cell_length_b   11.09426216
_cell_length_c   8.43822909
_cell_angle_alpha   89.91509989
_cell_angle_beta   90.08490046
_cell_angle_gamma   119.51004341
_symmetry_Int_Tables_number   1
_chemical_formula_structural   K5RbBa6(AlSb4)2
_chemical_formula_sum   'K5 Rb1 Ba6 Al2 Sb8'
_cell_volume   903.86004806
_cell_formula_units_Z   1
loop_
 _symmetry_equiv_pos_site_id
 _symmetry_equiv_pos_as_xyz
  1  'x, y, z'
loop_
 _atom_site_type_symbol
 _atom_site_label
 _atom_site_symmetry_multiplicity
 _atom_site_fract_x
 _atom_site_fract_y
 _atom_site_fract_z
 _atom_site_occupancy
  K  K0  1  0.278002  0.139746  0.548484  1
  K  K1  1  0.860254  0.721998  0.548484  1
  K  K2  1  0.138251  0.861749  0.048261  1
  K  K3  1  0.722215  0.860403  0.049245  1
  K  K4  1  0.139597  0.277785  0.049245  1
  Rb  Rb5  1  0.865076  0.134924  0.547645  1
  Ba  Ba6  1  0.478989  0.521011  0.732887  1
  Ba  Ba7  1  0.043677  0.522240  0.733811  1
  Ba  Ba8  1  0.477760  0.956323  0.733811  1
  Ba  Ba9  1  0.521304  0.478696  0.232871  1
  Ba  Ba10  1  0.957394  0.479774  0.234100  1
  Ba  Ba11  1  0.520226  0.042606  0.234100  1
  Al  Al12  1  0.666940  0.333060  0.855530  1
  Al  Al13  1  0.332779  0.667221  0.353351  1
  Sb  Sb14  1  0.802668  0.197332  0.960706  1
  Sb  Sb15  1  0.394434  0.197146  0.953918  1
  Sb  Sb16  1  0.802854  0.605566  0.953918  1
  Sb  Sb17  1  0.196294  0.803706  0.455354  1
  Sb  Sb18  1  0.602676  0.799687  0.452873  1
  Sb  Sb19  1  0.200313  0.397324  0.452873  1
  Sb  Sb20  1  0.665591  0.334409  0.520715  1
  Sb  Sb21  1  0.332706  0.667294  0.018545  1
