# generated using pymatgen
data_Tm6Al24FeIrRu6
_symmetry_space_group_name_H-M   'P 1'
_cell_length_a   8.74354905
_cell_length_b   8.74354731
_cell_length_c   9.52009113
_cell_angle_alpha   89.91455200
_cell_angle_beta   90.08544807
_cell_angle_gamma   119.97420365
_symmetry_Int_Tables_number   1
_chemical_formula_structural   Tm6Al24FeIrRu6
_chemical_formula_sum   'Tm6 Al24 Fe1 Ir1 Ru6'
_cell_volume   630.46261712
_cell_formula_units_Z   1
loop_
 _symmetry_equiv_pos_site_id
 _symmetry_equiv_pos_as_xyz
  1  'x, y, z'
loop_
 _atom_site_type_symbol
 _atom_site_label
 _atom_site_symmetry_multiplicity
 _atom_site_fract_x
 _atom_site_fract_y
 _atom_site_fract_z
 _atom_site_occupancy
  Tm  Tm0  1  0.805869  0.194131  0.749905  1
  Tm  Tm1  1  0.194131  0.805869  0.250095  1
  Tm  Tm2  1  0.387506  0.193122  0.749351  1
  Tm  Tm3  1  0.612494  0.806878  0.250649  1
  Tm  Tm4  1  0.806878  0.612494  0.749351  1
  Tm  Tm5  1  0.193122  0.387506  0.250649  1
  Al  Al6  1  0.667685  0.332315  0.980028  1
  Al  Al7  1  0.332315  0.667685  0.019972  1
  Al  Al8  1  0.333327  0.666673  0.479667  1
  Al  Al9  1  0.666673  0.333327  0.520333  1
  Al  Al10  1  0.837209  0.162791  0.422331  1
  Al  Al11  1  0.162791  0.837209  0.577669  1
  Al  Al12  1  0.325133  0.162721  0.422004  1
  Al  Al13  1  0.159990  0.840010  0.922879  1
  Al  Al14  1  0.674867  0.837279  0.577996  1
  Al  Al15  1  0.840010  0.159990  0.077121  1
  Al  Al16  1  0.837279  0.674867  0.422004  1
  Al  Al17  1  0.680105  0.841218  0.923384  1
  Al  Al18  1  0.162721  0.325133  0.577996  1
  Al  Al19  1  0.319895  0.158782  0.076616  1
  Al  Al20  1  0.158782  0.319895  0.923384  1
  Al  Al21  1  0.841218  0.680105  0.076616  1
  Al  Al22  1  0.438138  0.561862  0.749113  1
  Al  Al23  1  0.561862  0.438138  0.250887  1
  Al  Al24  1  0.122951  0.561118  0.750475  1
  Al  Al25  1  0.877049  0.438882  0.249525  1
  Al  Al26  1  0.438882  0.877049  0.750475  1
  Al  Al27  1  0.561118  0.122951  0.249525  1
  Al  Al28  1  0.000084  0.999916  0.756241  1
  Al  Al29  1  0.999916  0.000084  0.243759  1
  Fe  Fe30  1  0.000000  0.000000  0.000000  1
  Ir  Ir31  1  0.500000  0.500000  0.000000  1
  Ru  Ru32  1  0.000000  0.500000  0.000000  1
  Ru  Ru33  1  0.500000  0.500000  0.500000  1
  Ru  Ru34  1  0.500000  0.000000  0.000000  1
  Ru  Ru35  1  0.000000  0.500000  0.500000  1
  Ru  Ru36  1  0.500000  0.000000  0.500000  1
  Ru  Ru37  1  0.000000  0.000000  0.500000  1
