# generated using pymatgen
data_Ho4Ni13P12Ru7
_symmetry_space_group_name_H-M   'P 1'
_cell_length_a   3.74151400
_cell_length_b   10.62164806
_cell_length_c   11.86484805
_cell_angle_alpha   90.22057609
_cell_angle_beta   90.00000000
_cell_angle_gamma   90.00000000
_symmetry_Int_Tables_number   1
_chemical_formula_structural   Ho4Ni13P12Ru7
_chemical_formula_sum   'Ho4 Ni13 P12 Ru7'
_cell_volume   471.51796491
_cell_formula_units_Z   1
loop_
 _symmetry_equiv_pos_site_id
 _symmetry_equiv_pos_as_xyz
  1  'x, y, z'
loop_
 _atom_site_type_symbol
 _atom_site_label
 _atom_site_symmetry_multiplicity
 _atom_site_fract_x
 _atom_site_fract_y
 _atom_site_fract_z
 _atom_site_occupancy
  Ho  Ho0  1  0.250000  0.590148  0.708546  1
  Ho  Ho1  1  0.250000  0.909165  0.205239  1
  Ho  Ho2  1  0.750000  0.410071  0.292015  1
  Ho  Ho3  1  0.750000  0.089156  0.791727  1
  Ni  Ni4  1  0.750000  0.905669  0.011288  1
  Ni  Ni5  1  0.250000  0.222598  0.182979  1
  Ni  Ni6  1  0.250000  0.276159  0.684735  1
  Ni  Ni7  1  0.750000  0.780742  0.818521  1
  Ni  Ni8  1  0.750000  0.723973  0.315779  1
  Ni  Ni9  1  0.250000  0.888390  0.700666  1
  Ni  Ni10  1  0.250000  0.612432  0.200951  1
  Ni  Ni11  1  0.750000  0.109482  0.297597  1
  Ni  Ni12  1  0.750000  0.388704  0.799928  1
  Ni  Ni13  1  0.250000  0.466655  0.930961  1
  Ni  Ni14  1  0.250000  0.034601  0.429241  1
  Ni  Ni15  1  0.750000  0.534438  0.069008  1
  Ni  Ni16  1  0.750000  0.964267  0.568751  1
  P  P17  1  0.250000  0.416868  0.112730  1
  P  P18  1  0.250000  0.083015  0.611478  1
  P  P19  1  0.750000  0.585726  0.888370  1
  P  P20  1  0.750000  0.917274  0.386762  1
  P  P21  1  0.250000  0.270402  0.874621  1
  P  P22  1  0.250000  0.228182  0.372302  1
  P  P23  1  0.750000  0.730024  0.125868  1
  P  P24  1  0.750000  0.771721  0.627788  1
  P  P25  1  0.250000  0.597420  0.388539  1
  P  P26  1  0.250000  0.902492  0.886705  1
  P  P27  1  0.750000  0.402507  0.612307  1
  P  P28  1  0.750000  0.096226  0.112308  1
  Ru  Ru29  1  0.250000  0.714965  0.985481  1
  Ru  Ru30  1  0.250000  0.792214  0.483751  1
  Ru  Ru31  1  0.750000  0.288482  0.014772  1
  Ru  Ru32  1  0.750000  0.207444  0.516501  1
  Ru  Ru33  1  0.250000  0.404178  0.488882  1
  Ru  Ru34  1  0.250000  0.088432  0.990692  1
  Ru  Ru35  1  0.750000  0.595775  0.512214  1
