# generated using pymatgen
data_SrCo7AsO16
_symmetry_space_group_name_H-M   'P 1'
_cell_length_a   5.71407429
_cell_length_b   6.90534519
_cell_length_c   6.88480916
_cell_angle_alpha   87.96407717
_cell_angle_beta   101.88644520
_cell_angle_gamma   102.02370893
_symmetry_Int_Tables_number   1
_chemical_formula_structural   SrCo7AsO16
_chemical_formula_sum   'Sr1 Co7 As1 O16'
_cell_volume   259.99373244
_cell_formula_units_Z   1
loop_
 _symmetry_equiv_pos_site_id
 _symmetry_equiv_pos_as_xyz
  1  'x, y, z'
loop_
 _atom_site_type_symbol
 _atom_site_label
 _atom_site_symmetry_multiplicity
 _atom_site_fract_x
 _atom_site_fract_y
 _atom_site_fract_z
 _atom_site_occupancy
  Sr  Sr0  1  0.003874  0.989020  0.997285  1
  Co  Co1  1  0.076316  0.823510  0.484466  1
  Co  Co2  1  0.926787  0.188368  0.515035  1
  Co  Co3  1  0.425677  0.187990  0.520006  1
  Co  Co4  1  0.162444  0.481848  0.182362  1
  Co  Co5  1  0.667459  0.476563  0.183038  1
  Co  Co6  1  0.334914  0.513634  0.820091  1
  Co  Co7  1  0.830228  0.508031  0.820018  1
  As  As8  1  0.573927  0.815989  0.483928  1
  O  O9  1  0.677036  0.049876  0.648634  1
  O  O10  1  0.171474  0.052525  0.649489  1
  O  O11  1  0.823390  0.954278  0.350676  1
  O  O12  1  0.329798  0.955604  0.351536  1
  O  O13  1  0.653525  0.640482  0.958800  1
  O  O14  1  0.145592  0.642794  0.955488  1
  O  O15  1  0.851363  0.343515  0.046990  1
  O  O16  1  0.343323  0.347609  0.046257  1
  O  O17  1  0.976410  0.622053  0.286548  1
  O  O18  1  0.480755  0.625059  0.291438  1
  O  O19  1  0.519132  0.381301  0.703136  1
  O  O20  1  0.021412  0.379976  0.699932  1
  O  O21  1  0.668555  0.296839  0.379504  1
  O  O22  1  0.166624  0.290738  0.372705  1
  O  O23  1  0.830273  0.718575  0.630034  1
  O  O24  1  0.339711  0.713821  0.622605  1
