# generated using pymatgen
data_Eu4TiCr3O14
_symmetry_space_group_name_H-M   'P 1'
_cell_length_a   7.13373548
_cell_length_b   7.25748465
_cell_length_c   7.13373500
_cell_angle_alpha   60.56246346
_cell_angle_beta   59.99999759
_cell_angle_gamma   60.56246424
_symmetry_Int_Tables_number   1
_chemical_formula_structural   Eu4TiCr3O14
_chemical_formula_sum   'Eu4 Ti1 Cr3 O14'
_cell_volume   263.35735978
_cell_formula_units_Z   1
loop_
 _symmetry_equiv_pos_site_id
 _symmetry_equiv_pos_as_xyz
  1  'x, y, z'
loop_
 _atom_site_type_symbol
 _atom_site_label
 _atom_site_symmetry_multiplicity
 _atom_site_fract_x
 _atom_site_fract_y
 _atom_site_fract_z
 _atom_site_occupancy
  Eu  Eu0  1  0.125000  0.625000  0.125000  1
  Eu  Eu1  1  0.125000  0.125000  0.625000  1
  Eu  Eu2  1  0.625000  0.125000  0.125000  1
  Eu  Eu3  1  0.125000  0.125000  0.125000  1
  Ti  Ti4  1  0.625000  0.125000  0.625000  1
  Cr  Cr5  1  0.625000  0.625000  0.625000  1
  Cr  Cr6  1  0.125000  0.625000  0.625000  1
  Cr  Cr7  1  0.625000  0.625000  0.125000  1
  O  O8  1  0.300667  0.700643  0.698023  1
  O  O9  1  0.545315  0.952460  0.956911  1
  O  O10  1  0.698023  0.700643  0.300667  1
  O  O11  1  0.293089  0.297540  0.704685  1
  O  O12  1  0.000240  0.999282  0.000240  1
  O  O13  1  0.300667  0.700643  0.300667  1
  O  O14  1  0.704685  0.297540  0.704685  1
  O  O15  1  0.949333  0.549357  0.949333  1
  O  O16  1  0.551977  0.549357  0.949333  1
  O  O17  1  0.956911  0.952460  0.545315  1
  O  O18  1  0.249760  0.250718  0.249760  1
  O  O19  1  0.545315  0.952460  0.545315  1
  O  O20  1  0.704685  0.297540  0.293089  1
  O  O21  1  0.949333  0.549357  0.551977  1
