# generated using pymatgen
data_Ti5V13C15
_symmetry_space_group_name_H-M   'P 1'
_cell_length_a   5.16233613
_cell_length_b   5.15237788
_cell_length_c   14.55423085
_cell_angle_alpha   90.07360434
_cell_angle_beta   89.84186801
_cell_angle_gamma   120.03186970
_symmetry_Int_Tables_number   1
_chemical_formula_structural   Ti5V13C15
_chemical_formula_sum   'Ti5 V13 C15'
_cell_volume   335.14493509
_cell_formula_units_Z   1
loop_
 _symmetry_equiv_pos_site_id
 _symmetry_equiv_pos_as_xyz
  1  'x, y, z'
loop_
 _atom_site_type_symbol
 _atom_site_label
 _atom_site_symmetry_multiplicity
 _atom_site_fract_x
 _atom_site_fract_y
 _atom_site_fract_z
 _atom_site_occupancy
  Ti  Ti0  1  0.774295  0.545467  0.416702  1
  Ti  Ti1  1  0.767833  0.228817  0.084969  1
  Ti  Ti2  1  0.457169  0.228575  0.750583  1
  Ti  Ti3  1  0.769775  0.543048  0.916623  1
  Ti  Ti4  1  0.771782  0.228796  0.581905  1
  V  V5  1  0.472034  0.226628  0.252215  1
  V  V6  1  0.105179  0.515432  0.748257  1
  V  V7  1  0.480411  0.589249  0.082848  1
  V  V8  1  0.412697  0.894424  0.414512  1
  V  V9  1  0.482808  0.894669  0.919148  1
  V  V10  1  0.410855  0.516104  0.584193  1
  V  V11  1  0.107441  0.591786  0.251277  1
  V  V12  1  0.130756  0.878438  0.590391  1
  V  V13  1  0.120187  0.252618  0.924573  1
  V  V14  1  0.747430  0.866564  0.256613  1
  V  V15  1  0.118573  0.869894  0.076919  1
  V  V16  1  0.747319  0.877588  0.742393  1
  V  V17  1  0.131040  0.251476  0.407209  1
  C  C18  1  0.445556  0.224756  0.001078  1
  C  C19  1  0.775853  0.551651  0.666262  1
  C  C20  1  0.776919  0.224435  0.332416  1
  C  C21  1  0.127567  0.565199  0.000835  1
  C  C22  1  0.435101  0.869927  0.666339  1
  C  C23  1  0.436480  0.560576  0.331409  1
  C  C24  1  0.791194  0.896700  0.000993  1
  C  C25  1  0.103085  0.206292  0.666319  1
  C  C26  1  0.109087  0.901245  0.331393  1
  C  C27  1  0.425999  0.212604  0.498805  1
  C  C28  1  0.781321  0.569881  0.168411  1
  C  C29  1  0.786554  0.212853  0.833645  1
  C  C30  1  0.112915  0.555697  0.498918  1
  C  C31  1  0.442303  0.892552  0.168264  1
  C  C32  1  0.442481  0.556059  0.833585  1
