# generated using pymatgen
data_Tb5Yb3(ZrIr3)2
_symmetry_space_group_name_H-M   'P 1'
_cell_length_a   10.88254455
_cell_length_b   10.84942800
_cell_length_c   6.30367230
_cell_angle_alpha   90.00000000
_cell_angle_beta   89.96407602
_cell_angle_gamma   90.00000000
_symmetry_Int_Tables_number   1
_chemical_formula_structural   Tb5Yb3(ZrIr3)2
_chemical_formula_sum   'Tb10 Yb6 Zr4 Ir12'
_cell_volume   744.27055641
_cell_formula_units_Z   2
loop_
 _symmetry_equiv_pos_site_id
 _symmetry_equiv_pos_as_xyz
  1  'x, y, z'
loop_
 _atom_site_type_symbol
 _atom_site_label
 _atom_site_symmetry_multiplicity
 _atom_site_fract_x
 _atom_site_fract_y
 _atom_site_fract_z
 _atom_site_occupancy
  Tb  Tb0  1  0.415888  0.795306  0.374582  1
  Tb  Tb1  1  0.415888  0.204694  0.874582  1
  Tb  Tb2  1  0.211708  0.414260  0.628787  1
  Tb  Tb3  1  0.211708  0.585740  0.128787  1
  Tb  Tb4  1  0.787305  0.413754  0.129093  1
  Tb  Tb5  1  0.787305  0.586246  0.629093  1
  Tb  Tb6  1  0.913868  0.712209  0.130845  1
  Tb  Tb7  1  0.913868  0.287791  0.630845  1
  Tb  Tb8  1  0.086107  0.712231  0.629630  1
  Tb  Tb9  1  0.086107  0.287769  0.129630  1
  Yb  Yb10  1  0.291357  0.086190  0.372985  1
  Yb  Yb11  1  0.291357  0.913810  0.872985  1
  Yb  Yb12  1  0.710132  0.081541  0.872240  1
  Yb  Yb13  1  0.710132  0.918459  0.372240  1
  Yb  Yb14  1  0.584342  0.792972  0.871528  1
  Yb  Yb15  1  0.584342  0.207028  0.371528  1
  Zr  Zr16  1  0.001474  0.000312  0.495206  1
  Zr  Zr17  1  0.001474  0.999688  0.995206  1
  Zr  Zr18  1  0.499771  0.502616  0.995278  1
  Zr  Zr19  1  0.499771  0.497384  0.495278  1
  Ir  Ir20  1  0.865676  0.147059  0.248341  1
  Ir  Ir21  1  0.865676  0.852941  0.748341  1
  Ir  Ir22  1  0.138683  0.148628  0.750528  1
  Ir  Ir23  1  0.138683  0.851372  0.250528  1
  Ir  Ir24  1  0.642935  0.360883  0.753169  1
  Ir  Ir25  1  0.642935  0.639117  0.253169  1
  Ir  Ir26  1  0.353377  0.362323  0.241374  1
  Ir  Ir27  1  0.353377  0.637677  0.741374  1
  Ir  Ir28  1  0.498417  0.000364  0.122322  1
  Ir  Ir29  1  0.498417  0.999636  0.622322  1
  Ir  Ir30  1  0.998958  0.500009  0.884092  1
  Ir  Ir31  1  0.998958  0.499991  0.384092  1
