# generated using pymatgen
data_Li4Tb3SmSi8
_symmetry_space_group_name_H-M   'P 1'
_cell_length_a   3.82071000
_cell_length_b   7.61233787
_cell_length_c   10.26399809
_cell_angle_alpha   89.93564164
_cell_angle_beta   90.00000000
_cell_angle_gamma   90.00000000
_symmetry_Int_Tables_number   1
_chemical_formula_structural   Li4Tb3SmSi8
_chemical_formula_sum   'Li4 Tb3 Sm1 Si8'
_cell_volume   298.52342797
_cell_formula_units_Z   1
loop_
 _symmetry_equiv_pos_site_id
 _symmetry_equiv_pos_as_xyz
  1  'x, y, z'
loop_
 _atom_site_type_symbol
 _atom_site_label
 _atom_site_symmetry_multiplicity
 _atom_site_fract_x
 _atom_site_fract_y
 _atom_site_fract_z
 _atom_site_occupancy
  Li  Li0  1  0.250000  0.989925  0.391731  1
  Li  Li1  1  0.250000  0.490804  0.107855  1
  Li  Li2  1  0.750000  0.009554  0.608483  1
  Li  Li3  1  0.750000  0.509430  0.891614  1
  Tb  Tb4  1  0.250000  0.139441  0.864338  1
  Tb  Tb5  1  0.250000  0.639581  0.635934  1
  Tb  Tb6  1  0.750000  0.860956  0.135581  1
  Sm  Sm7  1  0.750000  0.358988  0.364237  1
  Si  Si8  1  0.250000  0.230956  0.570852  1
  Si  Si9  1  0.250000  0.732032  0.931168  1
  Si  Si10  1  0.750000  0.769414  0.431317  1
  Si  Si11  1  0.750000  0.267314  0.067538  1
  Si  Si12  1  0.250000  0.659690  0.320250  1
  Si  Si13  1  0.250000  0.156116  0.177962  1
  Si  Si14  1  0.750000  0.342583  0.680482  1
  Si  Si15  1  0.750000  0.843214  0.820657  1
