# generated using pymatgen
data_YHo11Al12Cr8O48
_symmetry_space_group_name_H-M   'P 1'
_cell_length_a   10.59970933
_cell_length_b   10.59932710
_cell_length_c   10.59931106
_cell_angle_alpha   109.45862922
_cell_angle_beta   109.47684409
_cell_angle_gamma   109.47681808
_symmetry_Int_Tables_number   1
_chemical_formula_structural   YHo11Al12Cr8O48
_chemical_formula_sum   'Y1 Ho11 Al12 Cr8 O48'
_cell_volume   916.71709918
_cell_formula_units_Z   1
loop_
 _symmetry_equiv_pos_site_id
 _symmetry_equiv_pos_as_xyz
  1  'x, y, z'
loop_
 _atom_site_type_symbol
 _atom_site_label
 _atom_site_symmetry_multiplicity
 _atom_site_fract_x
 _atom_site_fract_y
 _atom_site_fract_z
 _atom_site_occupancy
  Y  Y0  1  0.750000  0.624997  0.875001  1
  Ho  Ho1  1  0.250003  0.375003  0.125003  1
  Ho  Ho2  1  0.375011  0.750014  0.125020  1
  Ho  Ho3  1  0.375013  0.124998  0.249992  1
  Ho  Ho4  1  0.875056  0.625013  0.250138  1
  Ho  Ho5  1  0.124989  0.250011  0.375003  1
  Ho  Ho6  1  0.749998  0.124997  0.374998  1
  Ho  Ho7  1  0.875056  0.750040  0.624920  1
  Ho  Ho8  1  0.249998  0.874999  0.624999  1
  Ho  Ho9  1  0.624945  0.875080  0.749961  1
  Ho  Ho10  1  0.124989  0.374979  0.749985  1
  Ho  Ho11  1  0.624945  0.249864  0.874983  1
  Al  Al12  1  0.874990  0.249984  0.124993  1
  Al  Al13  1  0.750001  0.875214  0.125213  1
  Al  Al14  1  0.625008  0.375006  0.250014  1
  Al  Al15  1  0.125179  0.875144  0.250209  1
  Al  Al16  1  0.250001  0.625006  0.375004  1
  Al  Al17  1  0.625009  0.750002  0.374994  1
  Al  Al18  1  0.374819  0.249791  0.624854  1
  Al  Al19  1  0.750001  0.374786  0.624788  1
  Al  Al20  1  0.874988  0.125006  0.749997  1
  Al  Al21  1  0.374820  0.625028  0.749966  1
  Al  Al22  1  0.250001  0.124995  0.874995  1
  Al  Al23  1  0.125180  0.750035  0.874969  1
  Cr  Cr24  1  0.000126  0.000216  0.000052  1
  Cr  Cr25  1  0.500005  0.000012  0.000005  1
  Cr  Cr26  1  0.000125  0.499909  0.000073  1
  Cr  Cr27  1  0.499871  0.499923  0.000090  1
  Cr  Cr28  1  0.999998  0.000002  0.500010  1
  Cr  Cr29  1  0.499874  0.499948  0.499783  1
  Cr  Cr30  1  0.499998  0.999990  0.499997  1
  Cr  Cr31  1  0.999995  0.499995  0.499988  1
  O  O32  1  0.316012  0.901658  0.024700  1
  O  O33  1  0.208753  0.123079  0.024692  1
  O  O34  1  0.708655  0.684417  0.086525  1
  O  O35  1  0.876965  0.401631  0.085684  1
  O  O36  1  0.623040  0.414318  0.098370  1
  O  O37  1  0.975920  0.684075  0.098966  1
  O  O38  1  0.598311  0.914342  0.123047  1
  O  O39  1  0.024705  0.208766  0.123056  1
  O  O40  1  0.475295  0.598349  0.184061  1
  O  O41  1  0.208753  0.585676  0.184057  1
  O  O42  1  0.585678  0.184049  0.208713  1
  O  O43  1  0.123019  0.024654  0.208708  1
  O  O44  1  0.475295  0.376947  0.291236  1
  O  O45  1  0.316011  0.914352  0.291310  1
  O  O46  1  0.914320  0.291283  0.315949  1
  O  O47  1  0.901691  0.024737  0.316030  1
  O  O48  1  0.585677  0.901625  0.376965  1
  O  O49  1  0.291248  0.475308  0.376922  1
  O  O50  1  0.085689  0.877016  0.401699  1
  O  O51  1  0.815982  0.524678  0.401608  1
  O  O52  1  0.098370  0.623034  0.414313  1
  O  O53  1  0.815983  0.791304  0.414374  1
  O  O54  1  0.598312  0.183971  0.475264  1
  O  O55  1  0.376978  0.291289  0.475345  1
  O  O56  1  0.401628  0.815945  0.524663  1
  O  O57  1  0.623041  0.708727  0.524671  1
  O  O58  1  0.901688  0.376953  0.585659  1
  O  O59  1  0.183986  0.208687  0.585645  1
  O  O60  1  0.914323  0.123037  0.598373  1
  O  O61  1  0.183985  0.475299  0.598340  1
  O  O62  1  0.414311  0.098307  0.622985  1
  O  O63  1  0.708658  0.524237  0.622130  1
  O  O64  1  0.085690  0.708676  0.683993  1
  O  O65  1  0.098369  0.975337  0.684051  1
  O  O66  1  0.684020  0.085628  0.708699  1
  O  O67  1  0.524081  0.623042  0.708157  1
  O  O68  1  0.414311  0.816006  0.791326  1
  O  O69  1  0.876963  0.975333  0.791275  1
  O  O70  1  0.524080  0.401039  0.815924  1
  O  O71  1  0.791345  0.413470  0.815583  1
  O  O72  1  0.401630  0.085683  0.876964  1
  O  O73  1  0.975915  0.791842  0.876953  1
  O  O74  1  0.376979  0.585688  0.901638  1
  O  O75  1  0.024703  0.315939  0.901649  1
  O  O76  1  0.291251  0.315942  0.914328  1
  O  O77  1  0.123018  0.598366  0.914311  1
  O  O78  1  0.684019  0.098393  0.975324  1
  O  O79  1  0.791345  0.877872  0.975761  1
