# generated using pymatgen
data_Pr17Lu3(TlGa5)2
_symmetry_space_group_name_H-M   'P 1'
_cell_length_a   7.97992200
_cell_length_b   7.97992200
_cell_length_c   14.67129600
_cell_angle_alpha   90.00000000
_cell_angle_beta   90.00000000
_cell_angle_gamma   90.00000000
_symmetry_Int_Tables_number   1
_chemical_formula_structural   Pr17Lu3(TlGa5)2
_chemical_formula_sum   'Pr17 Lu3 Tl2 Ga10'
_cell_volume   934.25573388
_cell_formula_units_Z   1
loop_
 _symmetry_equiv_pos_site_id
 _symmetry_equiv_pos_as_xyz
  1  'x, y, z'
loop_
 _atom_site_type_symbol
 _atom_site_label
 _atom_site_symmetry_multiplicity
 _atom_site_fract_x
 _atom_site_fract_y
 _atom_site_fract_z
 _atom_site_occupancy
  Pr  Pr0  1  0.818289  0.839101  0.610493  1
  Pr  Pr1  1  0.176158  0.835803  0.099699  1
  Pr  Pr2  1  0.162156  0.821470  0.389083  1
  Pr  Pr3  1  0.837844  0.178530  0.389083  1
  Pr  Pr4  1  0.678530  0.662156  0.389083  1
  Pr  Pr5  1  0.660899  0.318289  0.610493  1
  Pr  Pr6  1  0.339101  0.681711  0.610493  1
  Pr  Pr7  1  0.664197  0.676158  0.099699  1
  Pr  Pr8  1  0.682203  0.340992  0.899662  1
  Pr  Pr9  1  0.840992  0.817797  0.899662  1
  Pr  Pr10  1  0.321470  0.337844  0.389083  1
  Pr  Pr11  1  0.181711  0.160899  0.610493  1
  Pr  Pr12  1  0.823842  0.164197  0.099699  1
  Pr  Pr13  1  0.317797  0.659008  0.899662  1
  Pr  Pr14  1  0.335803  0.323842  0.099699  1
  Pr  Pr15  1  0.159008  0.182203  0.899662  1
  Pr  Pr16  1  0.500000  0.000000  0.795456  1
  Lu  Lu17  1  0.000000  0.500000  0.739662  1
  Lu  Lu18  1  0.000000  0.500000  0.220657  1
  Lu  Lu19  1  0.500000  0.000000  0.249594  1
  Tl  Tl20  1  0.000000  0.500000  0.509568  1
  Tl  Tl21  1  0.500000  0.000000  0.484227  1
  Ga  Ga22  1  0.623397  0.374427  0.244900  1
  Ga  Ga23  1  0.118020  0.873031  0.752927  1
  Ga  Ga24  1  0.373031  0.381980  0.752927  1
  Ga  Ga25  1  0.376603  0.625573  0.244900  1
  Ga  Ga26  1  0.874427  0.876603  0.244900  1
  Ga  Ga27  1  0.626969  0.618020  0.752927  1
  Ga  Ga28  1  0.881980  0.126969  0.752927  1
  Ga  Ga29  1  0.500000  0.000000  0.006119  1
  Ga  Ga30  1  0.125573  0.123397  0.244900  1
  Ga  Ga31  1  0.000000  0.500000  0.007661  1
