# generated using pymatgen
data_Sr4V6O19
_symmetry_space_group_name_H-M   'P 1'
_cell_length_a   7.48730347
_cell_length_b   10.01510549
_cell_length_c   14.01128600
_cell_angle_alpha   109.47828089
_cell_angle_beta   99.89904182
_cell_angle_gamma   91.87270845
_symmetry_Int_Tables_number   1
_chemical_formula_structural   Sr4V6O19
_chemical_formula_sum   'Sr8 V12 O38'
_cell_volume   971.18171229
_cell_formula_units_Z   2
loop_
 _symmetry_equiv_pos_site_id
 _symmetry_equiv_pos_as_xyz
  1  'x, y, z'
loop_
 _atom_site_type_symbol
 _atom_site_label
 _atom_site_symmetry_multiplicity
 _atom_site_fract_x
 _atom_site_fract_y
 _atom_site_fract_z
 _atom_site_occupancy
  Sr  Sr0  1  0.360207  0.883153  0.124597  1
  Sr  Sr1  1  0.022182  0.180049  0.143577  1
  Sr  Sr2  1  0.087635  0.649284  0.334877  1
  Sr  Sr3  1  0.812020  0.988275  0.365175  1
  Sr  Sr4  1  0.187979  0.011726  0.634825  1
  Sr  Sr5  1  0.912365  0.350715  0.665123  1
  Sr  Sr6  1  0.977819  0.819951  0.856423  1
  Sr  Sr7  1  0.639792  0.116847  0.875403  1
  V  V8  1  0.293254  0.468352  0.101728  1
  V  V9  1  0.873517  0.815241  0.119051  1
  V  V10  1  0.544433  0.239905  0.154647  1
  V  V11  1  0.280095  0.041917  0.374980  1
  V  V12  1  0.806663  0.358013  0.383576  1
  V  V13  1  0.617527  0.664965  0.416099  1
  V  V14  1  0.382473  0.335035  0.583900  1
  V  V15  1  0.193336  0.641987  0.616425  1
  V  V16  1  0.719905  0.958084  0.625021  1
  V  V17  1  0.455567  0.760094  0.845352  1
  V  V18  1  0.126484  0.184761  0.880950  1
  V  V19  1  0.706746  0.531647  0.898271  1
  O  O20  1  0.755674  0.646505  0.029928  1
  O  O21  1  0.013444  0.893787  0.060818  1
  O  O22  1  0.688656  0.177402  0.072525  1
  O  O23  1  0.314489  0.636007  0.105693  1
  O  O24  1  0.344177  0.135723  0.114027  1
  O  O25  1  0.509638  0.415078  0.157840  1
  O  O26  1  0.122951  0.438958  0.160117  1
  O  O27  1  0.713304  0.925175  0.166742  1
  O  O28  1  0.001468  0.786817  0.221092  1
  O  O29  1  0.637675  0.233609  0.281293  1
  O  O30  1  0.124508  0.088133  0.289545  1
  O  O31  1  0.440503  0.945965  0.315258  1
  O  O32  1  0.968570  0.398802  0.324762  1
  O  O33  1  0.412855  0.616141  0.339023  1
  O  O34  1  0.767553  0.732102  0.361437  1
  O  O35  1  0.161667  0.954770  0.436912  1
  O  O36  1  0.707513  0.513887  0.448407  1
  O  O37  1  0.884881  0.270354  0.464403  1
  O  O38  1  0.414469  0.201786  0.468679  1
  O  O39  1  0.585530  0.798214  0.531321  1
  O  O40  1  0.115119  0.729645  0.535596  1
  O  O41  1  0.292488  0.486113  0.551593  1
  O  O42  1  0.838333  0.045230  0.563088  1
  O  O43  1  0.232448  0.267898  0.638563  1
  O  O44  1  0.587144  0.383859  0.660976  1
  O  O45  1  0.031430  0.601198  0.675238  1
  O  O46  1  0.559498  0.054035  0.684741  1
  O  O47  1  0.875492  0.911867  0.710454  1
  O  O48  1  0.362326  0.766391  0.718707  1
  O  O49  1  0.998532  0.213182  0.778907  1
  O  O50  1  0.286696  0.074825  0.833258  1
  O  O51  1  0.877050  0.561042  0.839883  1
  O  O52  1  0.490362  0.584922  0.842161  1
  O  O53  1  0.655823  0.864277  0.885973  1
  O  O54  1  0.685510  0.363992  0.894307  1
  O  O55  1  0.311343  0.822598  0.927475  1
  O  O56  1  0.986557  0.106213  0.939183  1
  O  O57  1  0.244325  0.353495  0.970072  1
