# generated using pymatgen
data_Tb11Ho9(Bi2Rh)4
_symmetry_space_group_name_H-M   'P 1'
_cell_length_a   8.01554730
_cell_length_b   9.00705500
_cell_length_c   12.51950748
_cell_angle_alpha   90.00000000
_cell_angle_beta   89.96846121
_cell_angle_gamma   90.00000000
_symmetry_Int_Tables_number   1
_chemical_formula_structural   Tb11Ho9(Bi2Rh)4
_chemical_formula_sum   'Tb11 Ho9 Bi8 Rh4'
_cell_volume   903.86417668
_cell_formula_units_Z   1
loop_
 _symmetry_equiv_pos_site_id
 _symmetry_equiv_pos_as_xyz
  1  'x, y, z'
loop_
 _atom_site_type_symbol
 _atom_site_label
 _atom_site_symmetry_multiplicity
 _atom_site_fract_x
 _atom_site_fract_y
 _atom_site_fract_z
 _atom_site_occupancy
  Tb  Tb0  1  0.840035  0.750000  0.793992  1
  Tb  Tb1  1  0.159802  0.250000  0.206138  1
  Tb  Tb2  1  0.340177  0.250000  0.706180  1
  Tb  Tb3  1  0.659791  0.750000  0.293695  1
  Tb  Tb4  1  0.374490  0.750000  0.690720  1
  Tb  Tb5  1  0.625557  0.250000  0.309255  1
  Tb  Tb6  1  0.874492  0.250000  0.809344  1
  Tb  Tb7  1  0.125463  0.750000  0.190593  1
  Tb  Tb8  1  0.953271  0.750000  0.501730  1
  Tb  Tb9  1  0.046748  0.250000  0.498271  1
  Tb  Tb10  1  0.453234  0.250000  0.998215  1
  Ho  Ho11  1  0.547046  0.750000  0.001807  1
  Ho  Ho12  1  0.676959  0.041873  0.566392  1
  Ho  Ho13  1  0.323068  0.958117  0.433632  1
  Ho  Ho14  1  0.177051  0.957989  0.933670  1
  Ho  Ho15  1  0.323068  0.541883  0.433632  1
  Ho  Ho16  1  0.822930  0.041684  0.066315  1
  Ho  Ho17  1  0.676959  0.458127  0.566392  1
  Ho  Ho18  1  0.822930  0.458316  0.066315  1
  Ho  Ho19  1  0.177051  0.542011  0.933670  1
  Bi  Bi20  1  0.566823  0.492370  0.826156  1
  Bi  Bi21  1  0.433367  0.508172  0.173883  1
  Bi  Bi22  1  0.066835  0.507952  0.674153  1
  Bi  Bi23  1  0.433367  0.991828  0.173883  1
  Bi  Bi24  1  0.933144  0.492083  0.325848  1
  Bi  Bi25  1  0.566823  0.007630  0.826156  1
  Bi  Bi26  1  0.933144  0.007917  0.325848  1
  Bi  Bi27  1  0.066835  0.992048  0.674153  1
  Rh  Rh28  1  0.571735  0.750000  0.508985  1
  Rh  Rh29  1  0.428219  0.250000  0.490999  1
  Rh  Rh30  1  0.071722  0.250000  0.990992  1
  Rh  Rh31  1  0.927863  0.750000  0.008986  1
