# generated using pymatgen
data_K3Ho3(PS4)4
_symmetry_space_group_name_H-M   'P 1'
_cell_length_a   9.85497812
_cell_length_b   9.85497860
_cell_length_c   14.66135000
_cell_angle_alpha   89.31411299
_cell_angle_beta   89.31411295
_cell_angle_gamma   71.81701298
_symmetry_Int_Tables_number   1
_chemical_formula_structural   K3Ho3(PS4)4
_chemical_formula_sum   'K6 Ho6 P8 S32'
_cell_volume   1352.66757613
_cell_formula_units_Z   2
loop_
 _symmetry_equiv_pos_site_id
 _symmetry_equiv_pos_as_xyz
  1  'x, y, z'
loop_
 _atom_site_type_symbol
 _atom_site_label
 _atom_site_symmetry_multiplicity
 _atom_site_fract_x
 _atom_site_fract_y
 _atom_site_fract_z
 _atom_site_occupancy
  K  K0  1  0.028763  0.391171  0.662942  1
  K  K1  1  0.000000  0.000000  0.000000  1
  K  K2  1  0.391171  0.028763  0.162942  1
  K  K3  1  0.971237  0.608829  0.337058  1
  K  K4  1  0.608829  0.971237  0.837058  1
  K  K5  1  0.000000  0.000000  0.500000  1
  Ho  Ho6  1  0.250328  0.749672  0.750000  1
  Ho  Ho7  1  0.749672  0.250328  0.250000  1
  Ho  Ho8  1  0.487044  0.251923  0.511838  1
  Ho  Ho9  1  0.512956  0.748077  0.488162  1
  Ho  Ho10  1  0.748077  0.512956  0.988162  1
  Ho  Ho11  1  0.251923  0.487044  0.011838  1
  P  P12  1  0.962789  0.667152  0.861074  1
  P  P13  1  0.236474  0.602478  0.524660  1
  P  P14  1  0.667152  0.962789  0.361074  1
  P  P15  1  0.037211  0.332848  0.138926  1
  P  P16  1  0.763526  0.397522  0.475340  1
  P  P17  1  0.397522  0.763526  0.975340  1
  P  P18  1  0.332848  0.037211  0.638926  1
  P  P19  1  0.602478  0.236474  0.024660  1
  S  S20  1  0.544362  0.419782  0.103959  1
  S  S21  1  0.403306  0.197358  0.685553  1
  S  S22  1  0.741448  0.268135  0.581349  1
  S  S23  1  0.788047  0.581855  0.524356  1
  S  S24  1  0.580218  0.455638  0.396041  1
  S  S25  1  0.706719  0.074020  0.110258  1
  S  S26  1  0.837497  0.475339  0.170895  1
  S  S27  1  0.946867  0.678923  0.000678  1
  S  S28  1  0.162503  0.524661  0.829105  1
  S  S29  1  0.524661  0.162503  0.329105  1
  S  S30  1  0.197358  0.403306  0.185553  1
  S  S31  1  0.960161  0.858166  0.804561  1
  S  S32  1  0.039839  0.141834  0.195439  1
  S  S33  1  0.321077  0.053133  0.499322  1
  S  S34  1  0.475339  0.837497  0.670895  1
  S  S35  1  0.211953  0.418145  0.475644  1
  S  S36  1  0.455638  0.580218  0.896041  1
  S  S37  1  0.581855  0.788047  0.024356  1
  S  S38  1  0.925980  0.293281  0.389742  1
  S  S39  1  0.802642  0.596694  0.814447  1
  S  S40  1  0.053133  0.321077  0.999322  1
  S  S41  1  0.293281  0.925980  0.889742  1
  S  S42  1  0.074020  0.706719  0.610258  1
  S  S43  1  0.858166  0.960161  0.304561  1
  S  S44  1  0.258552  0.731865  0.418651  1
  S  S45  1  0.419782  0.544362  0.603959  1
  S  S46  1  0.596694  0.802642  0.314447  1
  S  S47  1  0.731865  0.258552  0.918651  1
  S  S48  1  0.268135  0.741448  0.081349  1
  S  S49  1  0.678923  0.946867  0.500678  1
  S  S50  1  0.141834  0.039839  0.695439  1
  S  S51  1  0.418145  0.211953  0.975644  1
