# generated using pymatgen
data_CeY5Er2AlPd24
_symmetry_space_group_name_H-M   'P 1'
_cell_length_a   8.36440853
_cell_length_b   8.36429004
_cell_length_c   8.36429107
_cell_angle_alpha   89.96632650
_cell_angle_beta   90.05114849
_cell_angle_gamma   90.05114195
_symmetry_Int_Tables_number   1
_chemical_formula_structural   CeY5Er2AlPd24
_chemical_formula_sum   'Ce1 Y5 Er2 Al1 Pd24'
_cell_volume   585.18479939
_cell_formula_units_Z   1
loop_
 _symmetry_equiv_pos_site_id
 _symmetry_equiv_pos_as_xyz
  1  'x, y, z'
loop_
 _atom_site_type_symbol
 _atom_site_label
 _atom_site_symmetry_multiplicity
 _atom_site_fract_x
 _atom_site_fract_y
 _atom_site_fract_z
 _atom_site_occupancy
  Ce  Ce0  1  0.745871  0.254162  0.254162  1
  Y  Y1  1  0.251267  0.251741  0.251741  1
  Y  Y2  1  0.748178  0.748016  0.748016  1
  Y  Y3  1  0.748287  0.748762  0.251694  1
  Y  Y4  1  0.748287  0.251694  0.748762  1
  Y  Y5  1  0.251984  0.747999  0.747999  1
  Er  Er6  1  0.252126  0.251984  0.747891  1
  Er  Er7  1  0.252126  0.747891  0.251984  1
  Al  Al8  1  0.000367  0.999575  0.999575  1
  Pd  Pd9  1  0.259778  0.499966  0.999735  1
  Pd  Pd10  1  0.740396  0.498787  0.001552  1
  Pd  Pd11  1  0.999305  0.259614  0.499519  1
  Pd  Pd12  1  0.500427  0.259611  0.000770  1
  Pd  Pd13  1  0.001120  0.740240  0.499244  1
  Pd  Pd14  1  0.499248  0.740243  0.000514  1
  Pd  Pd15  1  0.500427  0.000770  0.259611  1
  Pd  Pd16  1  0.259778  0.999735  0.499966  1
  Pd  Pd17  1  0.499248  0.000514  0.740243  1
  Pd  Pd18  1  0.740396  0.001552  0.498787  1
  Pd  Pd19  1  0.999305  0.499519  0.259614  1
  Pd  Pd20  1  0.001120  0.499244  0.740240  1
  Pd  Pd21  1  0.252970  0.499986  0.499986  1
  Pd  Pd22  1  0.746877  0.498954  0.498954  1
  Pd  Pd23  1  0.500154  0.253134  0.499774  1
  Pd  Pd24  1  0.499133  0.747041  0.499186  1
  Pd  Pd25  1  0.500154  0.499774  0.253134  1
  Pd  Pd26  1  0.499133  0.499186  0.747041  1
  Pd  Pd27  1  0.289055  0.999820  0.999820  1
  Pd  Pd28  1  0.710798  0.000406  0.000406  1
  Pd  Pd29  1  0.000380  0.289049  0.999670  1
  Pd  Pd30  1  0.000963  0.710816  0.000546  1
  Pd  Pd31  1  0.000380  0.999670  0.289049  1
  Pd  Pd32  1  0.000963  0.000546  0.710816  1
