# generated using pymatgen
data_Tb3Y2VMoO12
_symmetry_space_group_name_H-M   'P 1'
_cell_length_a   6.82797654
_cell_length_b   6.82797673
_cell_length_c   7.40119531
_cell_angle_alpha   74.15897102
_cell_angle_beta   74.15897009
_cell_angle_gamma   51.31149132
_symmetry_Int_Tables_number   1
_chemical_formula_structural   Tb3Y2VMoO12
_chemical_formula_sum   'Tb3 Y2 V1 Mo1 O12'
_cell_volume   256.68703738
_cell_formula_units_Z   1
loop_
 _symmetry_equiv_pos_site_id
 _symmetry_equiv_pos_as_xyz
  1  'x, y, z'
loop_
 _atom_site_type_symbol
 _atom_site_label
 _atom_site_symmetry_multiplicity
 _atom_site_fract_x
 _atom_site_fract_y
 _atom_site_fract_z
 _atom_site_occupancy
  Tb  Tb0  1  0.312491  0.308313  0.825943  1
  Tb  Tb1  1  0.691687  0.687509  0.174057  1
  Tb  Tb2  1  0.001029  0.998971  0.500000  1
  Y  Y3  1  0.312214  0.297533  0.361383  1
  Y  Y4  1  0.702467  0.687786  0.638617  1
  V  V5  1  0.751310  0.248690  0.000000  1
  Mo  Mo6  1  0.230804  0.769196  0.000000  1
  O  O7  1  0.898254  0.421576  0.919593  1
  O  O8  1  0.427981  0.898243  0.918574  1
  O  O9  1  0.101757  0.572019  0.081426  1
  O  O10  1  0.578424  0.101746  0.080407  1
  O  O11  1  0.100158  0.592228  0.575336  1
  O  O12  1  0.597062  0.091987  0.576588  1
  O  O13  1  0.908013  0.402938  0.423412  1
  O  O14  1  0.407772  0.899842  0.424664  1
  O  O15  1  0.992522  0.008730  0.811556  1
  O  O16  1  0.991270  0.007478  0.188444  1
  O  O17  1  0.497214  0.502429  0.812606  1
  O  O18  1  0.497571  0.502786  0.187394  1
