# generated using pymatgen
data_Hf3Re3SiGeAs
_symmetry_space_group_name_H-M   'P 1'
_cell_length_a   7.01586500
_cell_length_b   7.01586584
_cell_length_c   3.44034700
_cell_angle_alpha   90.00000000
_cell_angle_beta   90.00000000
_cell_angle_gamma   120.00000076
_symmetry_Int_Tables_number   1
_chemical_formula_structural   Hf3Re3SiGeAs
_chemical_formula_sum   'Hf3 Re3 Si1 Ge1 As1'
_cell_volume   146.65449416
_cell_formula_units_Z   1
loop_
 _symmetry_equiv_pos_site_id
 _symmetry_equiv_pos_as_xyz
  1  'x, y, z'
loop_
 _atom_site_type_symbol
 _atom_site_label
 _atom_site_symmetry_multiplicity
 _atom_site_fract_x
 _atom_site_fract_y
 _atom_site_fract_z
 _atom_site_occupancy
  Hf  Hf0  1  0.397946  0.400523  0.500000  1
  Hf  Hf1  1  0.599477  0.997422  0.500000  1
  Hf  Hf2  1  0.002578  0.602054  0.500000  1
  Re  Re3  1  0.749231  0.748725  0.000000  1
  Re  Re4  1  0.251275  0.000506  0.000000  1
  Re  Re5  1  0.999494  0.250769  0.000000  1
  Si  Si6  1  0.000000  0.000000  0.500000  1
  Ge  Ge7  1  0.333333  0.666667  0.000000  1
  As  As8  1  0.666667  0.333333  0.000000  1
