# generated using pymatgen
data_Ho3Er3(BC3)2
_symmetry_space_group_name_H-M   'P 1'
_cell_length_a   3.61377907
_cell_length_b   3.61377872
_cell_length_c   15.87755339
_cell_angle_alpha   90.01805115
_cell_angle_beta   89.98194740
_cell_angle_gamma   90.45914604
_symmetry_Int_Tables_number   1
_chemical_formula_structural   Ho3Er3(BC3)2
_chemical_formula_sum   'Ho3 Er3 B2 C6'
_cell_volume   207.34460942
_cell_formula_units_Z   1
loop_
 _symmetry_equiv_pos_site_id
 _symmetry_equiv_pos_as_xyz
  1  'x, y, z'
loop_
 _atom_site_type_symbol
 _atom_site_label
 _atom_site_symmetry_multiplicity
 _atom_site_fract_x
 _atom_site_fract_y
 _atom_site_fract_z
 _atom_site_occupancy
  Ho  Ho0  1  0.584019  0.415980  0.397216  1
  Ho  Ho1  1  0.415948  0.584051  0.602585  1
  Ho  Ho2  1  0.415898  0.584101  0.897468  1
  Er  Er3  1  0.584376  0.415623  0.102951  1
  Er  Er4  1  0.089308  0.910691  0.249742  1
  Er  Er5  1  0.910867  0.089132  0.749970  1
  B  B6  1  0.999536  0.000464  0.000076  1
  B  B7  1  0.999924  0.000076  0.500017  1
  C  C8  1  0.096751  0.903247  0.086663  1
  C  C9  1  0.595539  0.404459  0.249769  1
  C  C10  1  0.096280  0.903718  0.413367  1
  C  C11  1  0.903741  0.096257  0.586623  1
  C  C12  1  0.404241  0.595757  0.750039  1
  C  C13  1  0.903564  0.096434  0.913514  1
