# generated using pymatgen
data_DyHo5CoCl10
_symmetry_space_group_name_H-M   'P 1'
_cell_length_a   7.07531564
_cell_length_b   8.72303660
_cell_length_c   8.87813751
_cell_angle_alpha   108.66676790
_cell_angle_beta   96.80060763
_cell_angle_gamma   105.58395227
_symmetry_Int_Tables_number   1
_chemical_formula_structural   DyHo5CoCl10
_chemical_formula_sum   'Dy1 Ho5 Co1 Cl10'
_cell_volume   487.33075767
_cell_formula_units_Z   1
loop_
 _symmetry_equiv_pos_site_id
 _symmetry_equiv_pos_as_xyz
  1  'x, y, z'
loop_
 _atom_site_type_symbol
 _atom_site_label
 _atom_site_symmetry_multiplicity
 _atom_site_fract_x
 _atom_site_fract_y
 _atom_site_fract_z
 _atom_site_occupancy
  Dy  Dy0  1  0.366832  0.945246  0.244700  1
  Ho  Ho1  1  0.861746  0.138040  0.186640  1
  Ho  Ho2  1  0.137768  0.861946  0.814258  1
  Ho  Ho3  1  0.530815  0.705052  0.905884  1
  Ho  Ho4  1  0.468986  0.294657  0.092974  1
  Ho  Ho5  1  0.633016  0.054703  0.757397  1
  Co  Co6  1  0.499771  0.999708  0.000514  1
  Cl  Cl7  1  0.741519  0.082549  0.454610  1
  Cl  Cl8  1  0.260863  0.918391  0.548365  1
  Cl  Cl9  1  0.950568  0.824824  0.076633  1
  Cl  Cl10  1  0.047992  0.174604  0.922373  1
  Cl  Cl11  1  0.283313  0.250496  0.339106  1
  Cl  Cl12  1  0.715987  0.751722  0.659643  1
  Cl  Cl13  1  0.589537  0.373142  0.836415  1
  Cl  Cl14  1  0.411700  0.624945  0.161316  1
  Cl  Cl15  1  0.844178  0.450891  0.274874  1
  Cl  Cl16  1  0.155407  0.549086  0.724298  1
