# generated using pymatgen
data_Sc5Si6P6Rh19
_symmetry_space_group_name_H-M   'P 1'
_cell_length_a   12.65108900
_cell_length_b   12.65108835
_cell_length_c   3.86344500
_cell_angle_alpha   90.00000000
_cell_angle_beta   90.00000000
_cell_angle_gamma   119.99999908
_symmetry_Int_Tables_number   1
_chemical_formula_structural   Sc5Si6P6Rh19
_chemical_formula_sum   'Sc5 Si6 P6 Rh19'
_cell_volume   535.50208914
_cell_formula_units_Z   1
loop_
 _symmetry_equiv_pos_site_id
 _symmetry_equiv_pos_as_xyz
  1  'x, y, z'
loop_
 _atom_site_type_symbol
 _atom_site_label
 _atom_site_symmetry_multiplicity
 _atom_site_fract_x
 _atom_site_fract_y
 _atom_site_fract_z
 _atom_site_occupancy
  Sc  Sc0  1  0.333333  0.666667  0.000000  1
  Sc  Sc1  1  0.666667  0.333333  0.000000  1
  Sc  Sc2  1  0.816880  0.000000  0.500000  1
  Sc  Sc3  1  0.000000  0.816880  0.500000  1
  Sc  Sc4  1  0.183120  0.183120  0.500000  1
  Si  Si5  1  0.165167  0.482321  0.500000  1
  Si  Si6  1  0.517679  0.682844  0.500000  1
  Si  Si7  1  0.317156  0.834833  0.500000  1
  Si  Si8  1  0.682844  0.517679  0.500000  1
  Si  Si9  1  0.834833  0.317156  0.500000  1
  Si  Si10  1  0.482321  0.165167  0.500000  1
  P  P11  1  0.176838  0.000000  0.000000  1
  P  P12  1  0.000000  0.176838  0.000000  1
  P  P13  1  0.823162  0.823162  0.000000  1
  P  P14  1  0.636037  0.000000  0.000000  1
  P  P15  1  0.000000  0.636037  0.000000  1
  P  P16  1  0.363963  0.363963  0.000000  1
  Rh  Rh17  1  0.451039  0.000000  0.000000  1
  Rh  Rh18  1  0.000000  0.451039  0.000000  1
  Rh  Rh19  1  0.548961  0.548961  0.000000  1
  Rh  Rh20  1  0.356282  0.484656  0.500000  1
  Rh  Rh21  1  0.515344  0.871626  0.500000  1
  Rh  Rh22  1  0.128374  0.643718  0.500000  1
  Rh  Rh23  1  0.871626  0.515344  0.500000  1
  Rh  Rh24  1  0.643718  0.128374  0.500000  1
  Rh  Rh25  1  0.484656  0.356282  0.500000  1
  Rh  Rh26  1  0.180567  0.369880  0.000000  1
  Rh  Rh27  1  0.630120  0.810688  0.000000  1
  Rh  Rh28  1  0.189312  0.819433  0.000000  1
  Rh  Rh29  1  0.810688  0.630120  0.000000  1
  Rh  Rh30  1  0.819433  0.189312  0.000000  1
  Rh  Rh31  1  0.369880  0.180567  0.000000  1
  Rh  Rh32  1  0.275657  0.000000  0.500000  1
  Rh  Rh33  1  0.000000  0.275657  0.500000  1
  Rh  Rh34  1  0.724343  0.724343  0.500000  1
  Rh  Rh35  1  0.000000  0.000000  0.000000  1
