# generated using pymatgen
data_Ta2ReS6
_symmetry_space_group_name_H-M   'P 1'
_cell_length_a   5.65510379
_cell_length_b   5.65510426
_cell_length_c   6.79259508
_cell_angle_alpha   82.03265456
_cell_angle_beta   82.03265235
_cell_angle_gamma   120.02619301
_symmetry_Int_Tables_number   1
_chemical_formula_structural   Ta2ReS6
_chemical_formula_sum   'Ta2 Re1 S6'
_cell_volume   180.69860382
_cell_formula_units_Z   1
loop_
 _symmetry_equiv_pos_site_id
 _symmetry_equiv_pos_as_xyz
  1  'x, y, z'
loop_
 _atom_site_type_symbol
 _atom_site_label
 _atom_site_symmetry_multiplicity
 _atom_site_fract_x
 _atom_site_fract_y
 _atom_site_fract_z
 _atom_site_occupancy
  Ta  Ta0  1  0.834419  0.500378  0.500050  1
  Ta  Ta1  1  0.500378  0.834419  0.500050  1
  Re  Re2  1  0.165554  0.165554  0.499915  1
  S  S3  1  0.571774  0.247068  0.260950  1
  S  S4  1  0.247068  0.571774  0.260950  1
  S  S5  1  0.920014  0.920014  0.260768  1
  S  S6  1  0.760715  0.760715  0.739420  1
  S  S7  1  0.412261  0.087719  0.739099  1
  S  S8  1  0.087719  0.412261  0.739099  1
