# generated using pymatgen
data_AcCd2Ir9
_symmetry_space_group_name_H-M   'P 1'
_cell_length_a   8.98898600
_cell_length_b   8.98898600
_cell_length_c   5.20141700
_cell_angle_alpha   90.00000000
_cell_angle_beta   90.00000000
_cell_angle_gamma   90.00000000
_symmetry_Int_Tables_number   1
_chemical_formula_structural   AcCd2Ir9
_chemical_formula_sum   'Ac2 Cd4 Ir18'
_cell_volume   420.28421665
_cell_formula_units_Z   2
loop_
 _symmetry_equiv_pos_site_id
 _symmetry_equiv_pos_as_xyz
  1  'x, y, z'
loop_
 _atom_site_type_symbol
 _atom_site_label
 _atom_site_symmetry_multiplicity
 _atom_site_fract_x
 _atom_site_fract_y
 _atom_site_fract_z
 _atom_site_occupancy
  Ac  Ac0  1  0.500000  0.500000  0.000000  1
  Ac  Ac1  1  0.000000  0.000000  0.000000  1
  Cd  Cd2  1  0.116530  0.616530  0.000000  1
  Cd  Cd3  1  0.883470  0.383470  0.000000  1
  Cd  Cd4  1  0.383470  0.116530  0.000000  1
  Cd  Cd5  1  0.616530  0.883470  0.000000  1
  Ir  Ir6  1  0.318498  0.818498  0.757910  1
  Ir  Ir7  1  0.681502  0.181502  0.757910  1
  Ir  Ir8  1  0.181502  0.318498  0.757910  1
  Ir  Ir9  1  0.818498  0.681502  0.757910  1
  Ir  Ir10  1  0.681502  0.181502  0.242090  1
  Ir  Ir11  1  0.318498  0.818498  0.242090  1
  Ir  Ir12  1  0.818498  0.681502  0.242090  1
  Ir  Ir13  1  0.181502  0.318498  0.242090  1
  Ir  Ir14  1  0.557622  0.705860  0.500000  1
  Ir  Ir15  1  0.442378  0.294140  0.500000  1
  Ir  Ir16  1  0.942378  0.205860  0.500000  1
  Ir  Ir17  1  0.057622  0.794140  0.500000  1
  Ir  Ir18  1  0.705860  0.442378  0.500000  1
  Ir  Ir19  1  0.294140  0.557622  0.500000  1
  Ir  Ir20  1  0.205860  0.057622  0.500000  1
  Ir  Ir21  1  0.794140  0.942378  0.500000  1
  Ir  Ir22  1  0.000000  0.500000  0.500000  1
  Ir  Ir23  1  0.500000  0.000000  0.500000  1
