# generated using pymatgen
data_Dy3YIn3Co2
_symmetry_space_group_name_H-M   'P 1'
_cell_length_a   3.66625600
_cell_length_b   7.36194751
_cell_length_c   8.19791172
_cell_angle_alpha   71.99608184
_cell_angle_beta   90.00000000
_cell_angle_gamma   90.00000000
_symmetry_Int_Tables_number   1
_chemical_formula_structural   Dy3YIn3Co2
_chemical_formula_sum   'Dy3 Y1 In3 Co2'
_cell_volume   210.43375987
_cell_formula_units_Z   1
loop_
 _symmetry_equiv_pos_site_id
 _symmetry_equiv_pos_as_xyz
  1  'x, y, z'
loop_
 _atom_site_type_symbol
 _atom_site_label
 _atom_site_symmetry_multiplicity
 _atom_site_fract_x
 _atom_site_fract_y
 _atom_site_fract_z
 _atom_site_occupancy
  Dy  Dy0  1  0.500000  0.092326  0.776445  1
  Dy  Dy1  1  0.500000  0.392511  0.319540  1
  Dy  Dy2  1  0.500000  0.607669  0.680498  1
  Y  Y3  1  0.500000  0.909901  0.222153  1
  In  In4  1  0.000000  0.704677  0.006561  1
  In  In5  1  0.000000  0.295592  0.993183  1
  In  In6  1  0.000000  0.999922  0.500134  1
  Co  Co7  1  0.000000  0.648069  0.398713  1
  Co  Co8  1  0.000000  0.349333  0.602774  1
