# generated using pymatgen
data_Ca20ZnCd3Ni8
_symmetry_space_group_name_H-M   'P 1'
_cell_length_a   7.69800900
_cell_length_b   7.69800900
_cell_length_c   15.07943200
_cell_angle_alpha   90.00000000
_cell_angle_beta   90.00000000
_cell_angle_gamma   90.00000000
_symmetry_Int_Tables_number   1
_chemical_formula_structural   Ca20ZnCd3Ni8
_chemical_formula_sum   'Ca20 Zn1 Cd3 Ni8'
_cell_volume   893.59722656
_cell_formula_units_Z   1
loop_
 _symmetry_equiv_pos_site_id
 _symmetry_equiv_pos_as_xyz
  1  'x, y, z'
loop_
 _atom_site_type_symbol
 _atom_site_label
 _atom_site_symmetry_multiplicity
 _atom_site_fract_x
 _atom_site_fract_y
 _atom_site_fract_z
 _atom_site_occupancy
  Ca  Ca0  1  0.674435  0.167223  0.115060  1
  Ca  Ca1  1  0.171311  0.670158  0.619333  1
  Ca  Ca2  1  0.325565  0.832777  0.115060  1
  Ca  Ca3  1  0.828689  0.329842  0.619333  1
  Ca  Ca4  1  0.832777  0.674435  0.115060  1
  Ca  Ca5  1  0.329842  0.171311  0.619333  1
  Ca  Ca6  1  0.167223  0.325565  0.115060  1
  Ca  Ca7  1  0.670158  0.828689  0.619333  1
  Ca  Ca8  1  0.832777  0.325565  0.884940  1
  Ca  Ca9  1  0.329842  0.828689  0.380667  1
  Ca  Ca10  1  0.167223  0.674435  0.884940  1
  Ca  Ca11  1  0.670158  0.171311  0.380667  1
  Ca  Ca12  1  0.674435  0.832777  0.884940  1
  Ca  Ca13  1  0.171311  0.329842  0.380667  1
  Ca  Ca14  1  0.325565  0.167223  0.884940  1
  Ca  Ca15  1  0.828689  0.670158  0.380667  1
  Ca  Ca16  1  0.500000  0.500000  0.754583  1
  Ca  Ca17  1  0.000000  0.000000  0.249353  1
  Ca  Ca18  1  0.000000  0.000000  0.750647  1
  Ca  Ca19  1  0.500000  0.500000  0.245417  1
  Zn  Zn20  1  0.000000  0.000000  0.000000  1
  Cd  Cd21  1  0.500000  0.500000  0.500000  1
  Cd  Cd22  1  0.500000  0.500000  0.000000  1
  Cd  Cd23  1  0.000000  0.000000  0.500000  1
  Ni  Ni24  1  0.609465  0.109413  0.752147  1
  Ni  Ni25  1  0.109413  0.609465  0.247853  1
  Ni  Ni26  1  0.890587  0.390535  0.247853  1
  Ni  Ni27  1  0.390535  0.890587  0.752147  1
  Ni  Ni28  1  0.890587  0.609465  0.752147  1
  Ni  Ni29  1  0.390535  0.109413  0.247853  1
  Ni  Ni30  1  0.109413  0.390535  0.752147  1
  Ni  Ni31  1  0.609465  0.890587  0.247853  1
