# generated using pymatgen
data_DyTm2Ni2Ir7
_symmetry_space_group_name_H-M   'P 1'
_cell_length_a   5.27180174
_cell_length_b   5.27180232
_cell_length_c   8.96831539
_cell_angle_alpha   72.90765600
_cell_angle_beta   72.90765327
_cell_angle_gamma   59.99999664
_symmetry_Int_Tables_number   1
_chemical_formula_structural   DyTm2Ni2Ir7
_chemical_formula_sum   'Dy1 Tm2 Ni2 Ir7'
_cell_volume   203.04264483
_cell_formula_units_Z   1
loop_
 _symmetry_equiv_pos_site_id
 _symmetry_equiv_pos_as_xyz
  1  'x, y, z'
loop_
 _atom_site_type_symbol
 _atom_site_label
 _atom_site_symmetry_multiplicity
 _atom_site_fract_x
 _atom_site_fract_y
 _atom_site_fract_z
 _atom_site_occupancy
  Dy  Dy0  1  0.000000  0.000000  0.000000  1
  Tm  Tm1  1  0.140246  0.140246  0.579261  1
  Tm  Tm2  1  0.859754  0.859754  0.420739  1
  Ni  Ni3  1  0.333530  0.333530  0.999411  1
  Ni  Ni4  1  0.666470  0.666470  0.000589  1
  Ir  Ir5  1  0.078196  0.581514  0.758776  1
  Ir  Ir6  1  0.581514  0.581514  0.758776  1
  Ir  Ir7  1  0.581514  0.078196  0.758776  1
  Ir  Ir8  1  0.921804  0.418486  0.241224  1
  Ir  Ir9  1  0.418486  0.418486  0.241224  1
  Ir  Ir10  1  0.418486  0.921804  0.241224  1
  Ir  Ir11  1  0.500000  0.500000  0.500000  1
