# generated using pymatgen
data_Y20Ir10PdPt
_symmetry_space_group_name_H-M   'P 1'
_cell_length_a   11.01221577
_cell_length_b   11.00461511
_cell_length_c   6.37772549
_cell_angle_alpha   89.99233434
_cell_angle_beta   89.94629739
_cell_angle_gamma   89.98537782
_symmetry_Int_Tables_number   1
_chemical_formula_structural   Y20Ir10PdPt
_chemical_formula_sum   'Y20 Ir10 Pd1 Pt1'
_cell_volume   772.88554225
_cell_formula_units_Z   1
loop_
 _symmetry_equiv_pos_site_id
 _symmetry_equiv_pos_as_xyz
  1  'x, y, z'
loop_
 _atom_site_type_symbol
 _atom_site_label
 _atom_site_symmetry_multiplicity
 _atom_site_fract_x
 _atom_site_fract_y
 _atom_site_fract_z
 _atom_site_occupancy
  Y  Y0  1  0.291356  0.088259  0.377265  1
  Y  Y1  1  0.291509  0.911484  0.876991  1
  Y  Y2  1  0.703981  0.089840  0.872660  1
  Y  Y3  1  0.704410  0.908166  0.375165  1
  Y  Y4  1  0.584289  0.790926  0.879335  1
  Y  Y5  1  0.582695  0.209515  0.379491  1
  Y  Y6  1  0.410164  0.791450  0.378433  1
  Y  Y7  1  0.410419  0.208385  0.878631  1
  Y  Y8  1  0.209032  0.411533  0.620716  1
  Y  Y9  1  0.208963  0.589027  0.121006  1
  Y  Y10  1  0.790516  0.416361  0.121669  1
  Y  Y11  1  0.791145  0.585405  0.621934  1
  Y  Y12  1  0.913754  0.707210  0.125741  1
  Y  Y13  1  0.913983  0.293673  0.628258  1
  Y  Y14  1  0.091945  0.706331  0.621873  1
  Y  Y15  1  0.093310  0.294008  0.121469  1
  Y  Y16  1  0.003671  0.998438  0.500551  1
  Y  Y17  1  0.003611  0.000152  0.999232  1
  Y  Y18  1  0.499922  0.499384  0.999811  1
  Y  Y19  1  0.500037  0.500658  0.499999  1
  Ir  Ir20  1  0.152255  0.154033  0.749853  1
  Ir  Ir21  1  0.152731  0.846078  0.249964  1
  Ir  Ir22  1  0.655665  0.345483  0.749330  1
  Ir  Ir23  1  0.655331  0.654022  0.249141  1
  Ir  Ir24  1  0.346879  0.346025  0.250659  1
  Ir  Ir25  1  0.346945  0.653801  0.750510  1
  Ir  Ir26  1  0.501131  0.000059  0.126232  1
  Ir  Ir27  1  0.500744  0.000332  0.625911  1
  Ir  Ir28  1  0.999641  0.499895  0.874303  1
  Ir  Ir29  1  0.999434  0.499167  0.373952  1
  Pd  Pd30  1  0.845110  0.153803  0.249988  1
  Pt  Pt31  1  0.845417  0.847097  0.749928  1
