# generated using pymatgen
data_SrPa3(Al8Pt3)3
_symmetry_space_group_name_H-M   'P 1'
_cell_length_a   7.59206945
_cell_length_b   7.60704645
_cell_length_c   13.19511332
_cell_angle_alpha   84.48351265
_cell_angle_beta   78.97706515
_cell_angle_gamma   59.94708502
_symmetry_Int_Tables_number   1
_chemical_formula_structural   SrPa3(Al8Pt3)3
_chemical_formula_sum   'Sr1 Pa3 Al24 Pt9'
_cell_volume   647.44202593
_cell_formula_units_Z   1
loop_
 _symmetry_equiv_pos_site_id
 _symmetry_equiv_pos_as_xyz
  1  'x, y, z'
loop_
 _atom_site_type_symbol
 _atom_site_label
 _atom_site_symmetry_multiplicity
 _atom_site_fract_x
 _atom_site_fract_y
 _atom_site_fract_z
 _atom_site_occupancy
  Sr  Sr0  1  0.394604  0.167571  0.809640  1
  Pa  Pa1  1  0.604839  0.832140  0.195289  1
  Pa  Pa2  1  0.734280  0.499055  0.802735  1
  Pa  Pa3  1  0.265432  0.501561  0.195291  1
  Al  Al4  1  0.686003  0.831052  0.947319  1
  Al  Al5  1  0.315417  0.166438  0.056913  1
  Al  Al6  1  0.145792  0.833486  0.561044  1
  Al  Al7  1  0.853264  0.166234  0.439781  1
  Al  Al8  1  0.481158  0.166962  0.558275  1
  Al  Al9  1  0.518171  0.833980  0.442175  1
  Al  Al10  1  0.212826  0.165742  0.332040  1
  Al  Al11  1  0.783711  0.837854  0.665734  1
  Al  Al12  1  0.435892  0.505577  0.665909  1
  Al  Al13  1  0.564652  0.490632  0.331800  1
  Al  Al14  1  0.115145  0.156679  0.665111  1
  Al  Al15  1  0.889490  0.843497  0.333051  1
  Al  Al16  1  0.351905  0.501678  0.947461  1
  Al  Al17  1  0.647456  0.501302  0.054140  1
  Al  Al18  1  0.013249  0.167892  0.953124  1
  Al  Al19  1  0.984639  0.831789  0.047181  1
  Al  Al20  1  0.187024  0.499757  0.441959  1
  Al  Al21  1  0.814095  0.499869  0.557329  1
  Al  Al22  1  0.736108  0.164311  0.182401  1
  Al  Al23  1  0.267543  0.826882  0.816990  1
  Al  Al24  1  0.052519  0.636822  0.815966  1
  Al  Al25  1  0.937985  0.368443  0.183870  1
  Al  Al26  1  0.862426  0.042949  0.816874  1
  Al  Al27  1  0.142906  0.959897  0.183039  1
  Pt  Pt28  1  0.117680  0.494201  0.637861  1
  Pt  Pt29  1  0.880486  0.509288  0.359795  1
  Pt  Pt30  1  0.658007  0.170656  0.001412  1
  Pt  Pt31  1  0.340875  0.830235  0.001606  1
  Pt  Pt32  1  0.536546  0.167050  0.359536  1
  Pt  Pt33  1  0.463404  0.830003  0.637898  1
  Pt  Pt34  1  0.781700  0.175271  0.636947  1
  Pt  Pt35  1  0.221960  0.824412  0.361057  1
  Pt  Pt36  1  0.000810  0.498835  0.001445  1
