# generated using pymatgen
data_DyHo11Co4BiOs
_symmetry_space_group_name_H-M   'P 1'
_cell_length_a   8.29564740
_cell_length_b   8.29555582
_cell_length_c   8.29550200
_cell_angle_alpha   111.44299314
_cell_angle_beta   110.35502199
_cell_angle_gamma   106.65481166
_symmetry_Int_Tables_number   1
_chemical_formula_structural   DyHo11Co4BiOs
_chemical_formula_sum   'Dy1 Ho11 Co4 Bi1 Os1'
_cell_volume   438.61841842
_cell_formula_units_Z   1
loop_
 _symmetry_equiv_pos_site_id
 _symmetry_equiv_pos_as_xyz
  1  'x, y, z'
loop_
 _atom_site_type_symbol
 _atom_site_label
 _atom_site_symmetry_multiplicity
 _atom_site_fract_x
 _atom_site_fract_y
 _atom_site_fract_z
 _atom_site_occupancy
  Dy  Dy0  1  0.819358  0.717551  0.536916  1
  Ho  Ho1  1  0.180621  0.282434  0.463056  1
  Ho  Ho2  1  0.180640  0.717564  0.898209  1
  Ho  Ho3  1  0.819371  0.282430  0.101802  1
  Ho  Ho4  1  0.687841  0.378738  0.690911  1
  Ho  Ho5  1  0.312147  0.621251  0.309085  1
  Ho  Ho6  1  0.687848  0.996943  0.309079  1
  Ho  Ho7  1  0.312165  0.003077  0.690924  1
  Ho  Ho8  1  0.590375  0.786799  0.803615  1
  Ho  Ho9  1  0.409612  0.213197  0.196389  1
  Ho  Ho10  1  0.983192  0.786794  0.196403  1
  Ho  Ho11  1  0.016816  0.213226  0.803599  1
  Co  Co12  1  0.624206  0.000006  0.624211  1
  Co  Co13  1  0.375790  0.000002  0.375792  1
  Co  Co14  1  0.110862  0.610848  0.499999  1
  Co  Co15  1  0.889149  0.389124  0.499989  1
  Bi  Bi16  1  0.499998  0.499999  0.999997  1
  Os  Os17  1  0.000010  0.000017  0.000026  1
