# generated using pymatgen
data_Ca4Ti(TcO4)3
_symmetry_space_group_name_H-M   'P 1'
_cell_length_a   5.48793000
_cell_length_b   11.13243207
_cell_length_c   15.58913200
_cell_angle_alpha   90.00000000
_cell_angle_beta   90.00000000
_cell_angle_gamma   90.00647975
_symmetry_Int_Tables_number   1
_chemical_formula_structural   Ca4Ti(TcO4)3
_chemical_formula_sum   'Ca16 Ti4 Tc12 O48'
_cell_volume   952.40254804
_cell_formula_units_Z   4
loop_
 _symmetry_equiv_pos_site_id
 _symmetry_equiv_pos_as_xyz
  1  'x, y, z'
loop_
 _atom_site_type_symbol
 _atom_site_label
 _atom_site_symmetry_multiplicity
 _atom_site_fract_x
 _atom_site_fract_y
 _atom_site_fract_z
 _atom_site_occupancy
  Ca  Ca0  1  0.993201  0.024982  0.125000  1
  Ca  Ca1  1  0.990058  0.027944  0.625000  1
  Ca  Ca2  1  0.990838  0.520728  0.125000  1
  Ca  Ca3  1  0.990585  0.525945  0.625000  1
  Ca  Ca4  1  0.014481  0.471783  0.374856  1
  Ca  Ca5  1  0.014481  0.471783  0.875144  1
  Ca  Ca6  1  0.009792  0.979129  0.369393  1
  Ca  Ca7  1  0.009792  0.979129  0.880607  1
  Ca  Ca8  1  0.488770  0.224145  0.372501  1
  Ca  Ca9  1  0.488770  0.224145  0.877499  1
  Ca  Ca10  1  0.486362  0.727976  0.372831  1
  Ca  Ca11  1  0.486362  0.727976  0.877169  1
  Ca  Ca12  1  0.505849  0.269170  0.125000  1
  Ca  Ca13  1  0.513281  0.277220  0.625000  1
  Ca  Ca14  1  0.511157  0.779078  0.125000  1
  Ca  Ca15  1  0.505773  0.776012  0.625000  1
  Ti  Ti16  1  0.500846  0.001711  0.001164  1
  Ti  Ti17  1  0.999639  0.249842  0.001324  1
  Ti  Ti18  1  0.999639  0.249842  0.248676  1
  Ti  Ti19  1  0.500846  0.001711  0.248836  1
  Tc  Tc20  1  0.503071  0.998165  0.499091  1
  Tc  Tc21  1  0.500647  0.499873  0.999808  1
  Tc  Tc22  1  0.499246  0.503350  0.498871  1
  Tc  Tc23  1  0.000318  0.249943  0.498668  1
  Tc  Tc24  1  0.996666  0.749366  0.000128  1
  Tc  Tc25  1  0.998130  0.751743  0.499173  1
  Tc  Tc26  1  0.000318  0.249943  0.751332  1
  Tc  Tc27  1  0.996666  0.749366  0.249872  1
  Tc  Tc28  1  0.998130  0.751743  0.750827  1
  Tc  Tc29  1  0.503071  0.998165  0.750909  1
  Tc  Tc30  1  0.500647  0.499873  0.250192  1
  Tc  Tc31  1  0.499246  0.503350  0.751129  1
  O  O32  1  0.210393  0.105758  0.268634  1
  O  O33  1  0.197724  0.098747  0.777181  1
  O  O34  1  0.205252  0.603608  0.272914  1
  O  O35  1  0.201004  0.603830  0.774410  1
  O  O36  1  0.795679  0.393776  0.227714  1
  O  O37  1  0.804130  0.401022  0.725877  1
  O  O38  1  0.790555  0.897485  0.225882  1
  O  O39  1  0.797766  0.897544  0.726857  1
  O  O40  1  0.710541  0.144754  0.228384  1
  O  O41  1  0.697705  0.149356  0.724760  1
  O  O42  1  0.704444  0.645862  0.225441  1
  O  O43  1  0.701954  0.649592  0.726857  1
  O  O44  1  0.289893  0.351963  0.271668  1
  O  O45  1  0.302111  0.351403  0.777878  1
  O  O46  1  0.295464  0.857064  0.271083  1
  O  O47  1  0.298091  0.851328  0.772673  1
  O  O48  1  0.302111  0.351403  0.472121  1
  O  O49  1  0.289893  0.351963  0.978331  1
  O  O50  1  0.298091  0.851329  0.477326  1
  O  O51  1  0.295464  0.857064  0.978916  1
  O  O52  1  0.710541  0.144754  0.021615  1
  O  O53  1  0.697705  0.149356  0.525239  1
  O  O54  1  0.704444  0.645861  0.024558  1
  O  O55  1  0.701954  0.649591  0.523142  1
  O  O56  1  0.795679  0.393776  0.022285  1
  O  O57  1  0.804130  0.401022  0.524122  1
  O  O58  1  0.790555  0.897484  0.024117  1
  O  O59  1  0.797766  0.897544  0.523142  1
  O  O60  1  0.197724  0.098747  0.472818  1
  O  O61  1  0.210393  0.105758  0.981365  1
  O  O62  1  0.201004  0.603830  0.475589  1
  O  O63  1  0.205252  0.603608  0.977085  1
  O  O64  1  0.585267  0.012385  0.371895  1
  O  O65  1  0.585267  0.012386  0.878105  1
  O  O66  1  0.592782  0.513111  0.374547  1
  O  O67  1  0.592782  0.513111  0.875453  1
  O  O68  1  0.401444  0.479176  0.125000  1
  O  O69  1  0.401325  0.482758  0.625000  1
  O  O70  1  0.419977  0.992153  0.125000  1
  O  O71  1  0.400439  0.984516  0.625000  1
  O  O72  1  0.076893  0.239081  0.125000  1
  O  O73  1  0.100543  0.233417  0.625000  1
  O  O74  1  0.101445  0.733706  0.125000  1
  O  O75  1  0.098834  0.732339  0.625000  1
  O  O76  1  0.914079  0.259827  0.372555  1
  O  O77  1  0.914079  0.259828  0.877445  1
  O  O78  1  0.906375  0.765438  0.374253  1
  O  O79  1  0.906375  0.765438  0.875747  1
