# generated using pymatgen
data_PrDy4FeRuO12
_symmetry_space_group_name_H-M   'P 1'
_cell_length_a   6.89117924
_cell_length_b   6.89117983
_cell_length_c   7.38423163
_cell_angle_alpha   74.49685344
_cell_angle_beta   74.49684953
_cell_angle_gamma   50.73240224
_symmetry_Int_Tables_number   1
_chemical_formula_structural   PrDy4FeRuO12
_chemical_formula_sum   'Pr1 Dy4 Fe1 Ru1 O12'
_cell_volume   259.33437722
_cell_formula_units_Z   1
loop_
 _symmetry_equiv_pos_site_id
 _symmetry_equiv_pos_as_xyz
  1  'x, y, z'
loop_
 _atom_site_type_symbol
 _atom_site_label
 _atom_site_symmetry_multiplicity
 _atom_site_fract_x
 _atom_site_fract_y
 _atom_site_fract_z
 _atom_site_occupancy
  Pr  Pr0  1  0.002682  0.997318  0.500000  1
  Dy  Dy1  1  0.308170  0.300965  0.359064  1
  Dy  Dy2  1  0.699035  0.691830  0.640936  1
  Dy  Dy3  1  0.694139  0.694271  0.166609  1
  Dy  Dy4  1  0.305729  0.305861  0.833391  1
  Fe  Fe5  1  0.749261  0.250739  0.000000  1
  Ru  Ru6  1  0.241814  0.758186  0.000000  1
  O  O7  1  0.097179  0.583393  0.580858  1
  O  O8  1  0.005302  0.992540  0.178402  1
  O  O9  1  0.416607  0.902821  0.419142  1
  O  O10  1  0.490698  0.510003  0.187133  1
  O  O11  1  0.098892  0.573890  0.079877  1
  O  O12  1  0.905980  0.412298  0.419258  1
  O  O13  1  0.007460  0.994698  0.821598  1
  O  O14  1  0.587702  0.094019  0.580742  1
  O  O15  1  0.489997  0.509302  0.812867  1
  O  O16  1  0.576697  0.103455  0.078535  1
  O  O17  1  0.426110  0.901108  0.920123  1
  O  O18  1  0.896545  0.423303  0.921465  1
