# generated using pymatgen
data_Nd3V2(GaO4)3
_symmetry_space_group_name_H-M   'P 1'
_cell_length_a   10.96080074
_cell_length_b   10.96829629
_cell_length_c   10.96113800
_cell_angle_alpha   109.61319663
_cell_angle_beta   109.16092714
_cell_angle_gamma   109.61386814
_symmetry_Int_Tables_number   1
_chemical_formula_structural   Nd3V2(GaO4)3
_chemical_formula_sum   'Nd12 V8 Ga12 O48'
_cell_volume   1014.71937473
_cell_formula_units_Z   4
loop_
 _symmetry_equiv_pos_site_id
 _symmetry_equiv_pos_as_xyz
  1  'x, y, z'
loop_
 _atom_site_type_symbol
 _atom_site_label
 _atom_site_symmetry_multiplicity
 _atom_site_fract_x
 _atom_site_fract_y
 _atom_site_fract_z
 _atom_site_occupancy
  Nd  Nd0  1  0.375065  0.750068  0.124999  1
  Nd  Nd1  1  0.251106  0.376099  0.126017  1
  Nd  Nd2  1  0.373840  0.123829  0.248845  1
  Nd  Nd3  1  0.875102  0.623980  0.249876  1
  Nd  Nd4  1  0.750010  0.123823  0.375033  1
  Nd  Nd5  1  0.124999  0.250006  0.375011  1
  Nd  Nd6  1  0.250064  0.876081  0.624908  1
  Nd  Nd7  1  0.875004  0.749999  0.624992  1
  Nd  Nd8  1  0.124950  0.376112  0.750059  1
  Nd  Nd9  1  0.625991  0.876077  0.751126  1
  Nd  Nd10  1  0.748938  0.623992  0.874144  1
  Nd  Nd11  1  0.624941  0.249929  0.874987  1
  V  V12  1  0.999748  0.000165  0.999788  1
  V  V13  1  0.499783  0.000093  0.999864  1
  V  V14  1  0.500137  0.499896  0.000212  1
  V  V15  1  0.999771  0.499904  0.999694  1
  V  V16  1  0.500298  0.000079  0.500217  1
  V  V17  1  0.999607  0.499852  0.499570  1
  V  V18  1  0.000421  0.000176  0.500392  1
  V  V19  1  0.500240  0.499859  0.500286  1
  Ga  Ga20  1  0.874667  0.249985  0.124665  1
  Ga  Ga21  1  0.750118  0.875396  0.125233  1
  Ga  Ga22  1  0.125258  0.875374  0.250157  1
  Ga  Ga23  1  0.624935  0.375153  0.249888  1
  Ga  Ga24  1  0.249792  0.624616  0.374695  1
  Ga  Ga25  1  0.625146  0.750033  0.375138  1
  Ga  Ga26  1  0.750190  0.375114  0.625239  1
  Ga  Ga27  1  0.375318  0.249972  0.625304  1
  Ga  Ga28  1  0.874795  0.124894  0.749863  1
  Ga  Ga29  1  0.374807  0.624583  0.749907  1
  Ga  Ga30  1  0.250088  0.124866  0.875021  1
  Ga  Ga31  1  0.124880  0.750015  0.874884  1
  O  O32  1  0.203892  0.120930  0.024383  1
  O  O33  1  0.318070  0.904131  0.025236  1
  O  O34  1  0.703863  0.680206  0.084306  1
  O  O35  1  0.878614  0.404254  0.085730  1
  O  O36  1  0.976289  0.680250  0.095876  1
  O  O37  1  0.619662  0.415849  0.095809  1
  O  O38  1  0.595988  0.916044  0.119877  1
  O  O39  1  0.024024  0.204460  0.120219  1
  O  O40  1  0.203470  0.583786  0.179740  1
  O  O41  1  0.474743  0.595877  0.181979  1
  O  O42  1  0.583753  0.179771  0.203416  1
  O  O43  1  0.121217  0.024810  0.206110  1
  O  O44  1  0.475661  0.379082  0.296201  1
  O  O45  1  0.320083  0.916056  0.296191  1
  O  O46  1  0.915723  0.295539  0.319545  1
  O  O47  1  0.903591  0.024813  0.318676  1
  O  O48  1  0.293888  0.475232  0.378733  1
  O  O49  1  0.586046  0.904118  0.378880  1
  O  O50  1  0.818310  0.524661  0.403157  1
  O  O51  1  0.083430  0.879214  0.403632  1
  O  O52  1  0.820147  0.795729  0.416201  1
  O  O53  1  0.096413  0.620795  0.416645  1
  O  O54  1  0.379768  0.295469  0.475937  1
  O  O55  1  0.595993  0.179796  0.476327  1
  O  O56  1  0.404086  0.819871  0.523548  1
  O  O57  1  0.620538  0.704383  0.524476  1
  O  O58  1  0.903391  0.379055  0.582922  1
  O  O59  1  0.180436  0.204430  0.584263  1
  O  O60  1  0.916995  0.120931  0.596564  1
  O  O61  1  0.181386  0.475231  0.596490  1
  O  O62  1  0.706297  0.524654  0.621508  1
  O  O63  1  0.414309  0.095741  0.621359  1
  O  O64  1  0.096770  0.975299  0.681636  1
  O  O65  1  0.083815  0.704306  0.679886  1
  O  O66  1  0.680068  0.084246  0.704070  1
  O  O67  1  0.524391  0.620774  0.704084  1
  O  O68  1  0.415837  0.819910  0.796386  1
  O  O69  1  0.878538  0.975305  0.793703  1
  O  O70  1  0.796266  0.415898  0.820098  1
  O  O71  1  0.525654  0.404248  0.818514  1
  O  O72  1  0.975559  0.795694  0.879479  1
  O  O73  1  0.404162  0.084270  0.880160  1
  O  O74  1  0.023836  0.320078  0.904043  1
  O  O75  1  0.380297  0.583832  0.904034  1
  O  O76  1  0.296337  0.320118  0.916102  1
  O  O77  1  0.121131  0.595879  0.913907  1
  O  O78  1  0.681437  0.095740  0.974379  1
  O  O79  1  0.795827  0.879214  0.975574  1
