# generated using pymatgen
data_ZnHgBi2(Pt2O7)2
_symmetry_space_group_name_H-M   'P 1'
_cell_length_a   7.30576868
_cell_length_b   7.30576891
_cell_length_c   7.17682742
_cell_angle_alpha   60.19924979
_cell_angle_beta   60.19925036
_cell_angle_gamma   61.33699908
_symmetry_Int_Tables_number   1
_chemical_formula_structural   ZnHgBi2(Pt2O7)2
_chemical_formula_sum   'Zn1 Hg1 Bi2 Pt4 O14'
_cell_volume   274.33080874
_cell_formula_units_Z   1
loop_
 _symmetry_equiv_pos_site_id
 _symmetry_equiv_pos_as_xyz
  1  'x, y, z'
loop_
 _atom_site_type_symbol
 _atom_site_label
 _atom_site_symmetry_multiplicity
 _atom_site_fract_x
 _atom_site_fract_y
 _atom_site_fract_z
 _atom_site_occupancy
  Zn  Zn0  1  0.125000  0.125000  0.625000  1
  Hg  Hg1  1  0.125000  0.125000  0.125000  1
  Bi  Bi2  1  0.125000  0.625000  0.125000  1
  Bi  Bi3  1  0.625000  0.125000  0.125000  1
  Pt  Pt4  1  0.625000  0.625000  0.125000  1
  Pt  Pt5  1  0.625000  0.125000  0.625000  1
  Pt  Pt6  1  0.125000  0.625000  0.625000  1
  Pt  Pt7  1  0.625000  0.625000  0.625000  1
  O  O8  1  0.246160  0.246160  0.282616  1
  O  O9  1  0.003840  0.003840  0.967384  1
  O  O10  1  0.541260  0.956110  0.542421  1
  O  O11  1  0.292628  0.707337  0.288317  1
  O  O12  1  0.538649  0.538649  0.961601  1
  O  O13  1  0.956110  0.541260  0.542421  1
  O  O14  1  0.542663  0.957372  0.961683  1
  O  O15  1  0.959131  0.959131  0.549251  1
  O  O16  1  0.957372  0.542663  0.961683  1
  O  O17  1  0.707337  0.292628  0.288317  1
  O  O18  1  0.293890  0.708740  0.707579  1
  O  O19  1  0.708740  0.293890  0.707579  1
  O  O20  1  0.290869  0.290869  0.700749  1
  O  O21  1  0.711351  0.711351  0.288399  1
