# generated using pymatgen
data_NaSr4(AsRu)10
_symmetry_space_group_name_H-M   'P 1'
_cell_length_a   9.40475300
_cell_length_b   8.69674751
_cell_length_c   9.40475300
_cell_angle_alpha   57.26834692
_cell_angle_beta   90.00000000
_cell_angle_gamma   57.26833909
_symmetry_Int_Tables_number   1
_chemical_formula_structural   NaSr4(AsRu)10
_chemical_formula_sum   'Na1 Sr4 As10 Ru10'
_cell_volume   495.70118870
_cell_formula_units_Z   1
loop_
 _symmetry_equiv_pos_site_id
 _symmetry_equiv_pos_as_xyz
  1  'x, y, z'
loop_
 _atom_site_type_symbol
 _atom_site_label
 _atom_site_symmetry_multiplicity
 _atom_site_fract_x
 _atom_site_fract_y
 _atom_site_fract_z
 _atom_site_occupancy
  Na  Na0  1  0.000000  0.000000  0.000000  1
  Sr  Sr1  1  0.198124  0.000000  0.604192  1
  Sr  Sr2  1  0.395808  0.000000  0.198124  1
  Sr  Sr3  1  0.604192  0.000000  0.801876  1
  Sr  Sr4  1  0.801876  0.000000  0.395808  1
  As  As5  1  0.158913  0.280866  0.759483  1
  As  As6  1  0.360187  0.279625  0.360187  1
  As  As7  1  0.560220  0.280866  0.959650  1
  As  As8  1  0.759483  0.280866  0.560220  1
  As  As9  1  0.959650  0.280866  0.158913  1
  As  As10  1  0.639813  0.720375  0.639813  1
  As  As11  1  0.841087  0.719134  0.240517  1
  As  As12  1  0.040349  0.719134  0.841087  1
  As  As13  1  0.240517  0.719134  0.439780  1
  As  As14  1  0.439780  0.719134  0.040349  1
  Ru  Ru15  1  0.949457  0.501081  0.849293  1
  Ru  Ru16  1  0.150707  0.498919  0.450538  1
  Ru  Ru17  1  0.350374  0.498919  0.050543  1
  Ru  Ru18  1  0.549462  0.501081  0.649626  1
  Ru  Ru19  1  0.750000  0.500000  0.250000  1
  Ru  Ru20  1  0.849293  0.501081  0.549462  1
  Ru  Ru21  1  0.050543  0.498919  0.150707  1
  Ru  Ru22  1  0.250000  0.500000  0.750000  1
  Ru  Ru23  1  0.450538  0.498919  0.350374  1
  Ru  Ru24  1  0.649626  0.501081  0.949457  1
