# generated using pymatgen
data_Dy17Ho3(FeSb2)4
_symmetry_space_group_name_H-M   'P 1'
_cell_length_a   7.87994406
_cell_length_b   8.79945608
_cell_length_c   12.21558605
_cell_angle_alpha   90.00838860
_cell_angle_beta   89.99440470
_cell_angle_gamma   90.01263397
_symmetry_Int_Tables_number   1
_chemical_formula_structural   Dy17Ho3(FeSb2)4
_chemical_formula_sum   'Dy17 Ho3 Fe4 Sb8'
_cell_volume   847.01919447
_cell_formula_units_Z   1
loop_
 _symmetry_equiv_pos_site_id
 _symmetry_equiv_pos_as_xyz
  1  'x, y, z'
loop_
 _atom_site_type_symbol
 _atom_site_label
 _atom_site_symmetry_multiplicity
 _atom_site_fract_x
 _atom_site_fract_y
 _atom_site_fract_z
 _atom_site_occupancy
  Dy  Dy0  1  0.154806  0.749961  0.204020  1
  Dy  Dy1  1  0.345115  0.750100  0.704154  1
  Dy  Dy2  1  0.845134  0.249926  0.795831  1
  Dy  Dy3  1  0.654977  0.249956  0.295857  1
  Dy  Dy4  1  0.450345  0.750084  0.996086  1
  Dy  Dy5  1  0.049519  0.750035  0.496133  1
  Dy  Dy6  1  0.549692  0.250073  0.003909  1
  Dy  Dy7  1  0.950206  0.249884  0.503912  1
  Dy  Dy8  1  0.622554  0.750150  0.307296  1
  Dy  Dy9  1  0.877591  0.749980  0.807380  1
  Dy  Dy10  1  0.377648  0.249886  0.692722  1
  Dy  Dy11  1  0.122402  0.249975  0.192655  1
  Dy  Dy12  1  0.323344  0.465282  0.436166  1
  Dy  Dy13  1  0.176330  0.465302  0.936276  1
  Dy  Dy14  1  0.323633  0.034735  0.436260  1
  Dy  Dy15  1  0.823662  0.965183  0.063729  1
  Dy  Dy16  1  0.676530  0.534782  0.563799  1
  Ho  Ho17  1  0.823755  0.535033  0.063843  1
  Ho  Ho18  1  0.676199  0.965007  0.563837  1
  Ho  Ho19  1  0.176221  0.034754  0.936147  1
  Fe  Fe20  1  0.427923  0.750185  0.488828  1
  Fe  Fe21  1  0.072136  0.749843  0.988863  1
  Fe  Fe22  1  0.572500  0.249983  0.511244  1
  Fe  Fe23  1  0.927901  0.249837  0.011175  1
  Sb  Sb24  1  0.928577  0.507020  0.327686  1
  Sb  Sb25  1  0.571218  0.993019  0.827781  1
  Sb  Sb26  1  0.071184  0.006981  0.672253  1
  Sb  Sb27  1  0.428848  0.493042  0.172146  1
  Sb  Sb28  1  0.071365  0.493004  0.672236  1
  Sb  Sb29  1  0.428652  0.007002  0.172192  1
  Sb  Sb30  1  0.928703  0.992990  0.327782  1
  Sb  Sb31  1  0.571330  0.507007  0.827803  1
