# generated using pymatgen
data_CeDyMnN3
_symmetry_space_group_name_H-M   'P 1'
_cell_length_a   3.41518013
_cell_length_b   3.77708510
_cell_length_c   6.64475609
_cell_angle_alpha   106.51194872
_cell_angle_beta   104.89112673
_cell_angle_gamma   90.00001579
_symmetry_Int_Tables_number   1
_chemical_formula_structural   CeDyMnN3
_chemical_formula_sum   'Ce1 Dy1 Mn1 N3'
_cell_volume   79.17172209
_cell_formula_units_Z   1
loop_
 _symmetry_equiv_pos_site_id
 _symmetry_equiv_pos_as_xyz
  1  'x, y, z'
loop_
 _atom_site_type_symbol
 _atom_site_label
 _atom_site_symmetry_multiplicity
 _atom_site_fract_x
 _atom_site_fract_y
 _atom_site_fract_z
 _atom_site_occupancy
  Ce  Ce0  1  0.352456  0.352456  0.704912  1
  Dy  Dy1  1  0.644648  0.644649  0.289298  1
  Mn  Mn2  1  0.002398  0.002398  0.004796  1
  N  N3  1  0.999349  0.499347  0.998695  1
  N  N4  1  0.163819  0.163819  0.327637  1
  N  N5  1  0.837330  0.837330  0.674661  1
