# generated using pymatgen
data_Pr16Cd4Ir3Os
_symmetry_space_group_name_H-M   'P 1'
_cell_length_a   10.05475851
_cell_length_b   10.05475790
_cell_length_c   10.05475754
_cell_angle_alpha   59.76188877
_cell_angle_beta   59.76188897
_cell_angle_gamma   59.76189303
_symmetry_Int_Tables_number   1
_chemical_formula_structural   Pr16Cd4Ir3Os
_chemical_formula_sum   'Pr16 Cd4 Ir3 Os1'
_cell_volume   714.90025580
_cell_formula_units_Z   1
loop_
 _symmetry_equiv_pos_site_id
 _symmetry_equiv_pos_as_xyz
  1  'x, y, z'
loop_
 _atom_site_type_symbol
 _atom_site_label
 _atom_site_symmetry_multiplicity
 _atom_site_fract_x
 _atom_site_fract_y
 _atom_site_fract_z
 _atom_site_occupancy
  Pr  Pr0  1  0.347749  0.347749  0.347749  1
  Pr  Pr1  1  0.346909  0.346909  0.956581  1
  Pr  Pr2  1  0.346909  0.956581  0.346909  1
  Pr  Pr3  1  0.956581  0.346909  0.346909  1
  Pr  Pr4  1  0.810496  0.190736  0.190736  1
  Pr  Pr5  1  0.190838  0.808664  0.808664  1
  Pr  Pr6  1  0.190736  0.810496  0.190736  1
  Pr  Pr7  1  0.808664  0.190838  0.808664  1
  Pr  Pr8  1  0.190736  0.190736  0.810496  1
  Pr  Pr9  1  0.808664  0.808664  0.190838  1
  Pr  Pr10  1  0.939004  0.561308  0.561308  1
  Pr  Pr11  1  0.558027  0.940470  0.940470  1
  Pr  Pr12  1  0.561308  0.939004  0.561308  1
  Pr  Pr13  1  0.940470  0.558027  0.940470  1
  Pr  Pr14  1  0.561308  0.561308  0.939004  1
  Pr  Pr15  1  0.940470  0.940470  0.558027  1
  Cd  Cd16  1  0.579408  0.579408  0.579408  1
  Cd  Cd17  1  0.579566  0.579566  0.260412  1
  Cd  Cd18  1  0.579566  0.260412  0.579566  1
  Cd  Cd19  1  0.260412  0.579566  0.579566  1
  Ir  Ir20  1  0.142269  0.142269  0.577161  1
  Ir  Ir21  1  0.142269  0.577161  0.142269  1
  Ir  Ir22  1  0.577161  0.142269  0.142269  1
  Os  Os23  1  0.140479  0.140479  0.140479  1
