# generated using pymatgen
data_Ce6ZrNbSb10
_symmetry_space_group_name_H-M   'P 1'
_cell_length_a   9.40527506
_cell_length_b   9.40364687
_cell_length_c   6.26407206
_cell_angle_alpha   89.98516423
_cell_angle_beta   90.01229353
_cell_angle_gamma   120.01084445
_symmetry_Int_Tables_number   1
_chemical_formula_structural   Ce6ZrNbSb10
_chemical_formula_sum   'Ce6 Zr1 Nb1 Sb10'
_cell_volume   479.74195969
_cell_formula_units_Z   1
loop_
 _symmetry_equiv_pos_site_id
 _symmetry_equiv_pos_as_xyz
  1  'x, y, z'
loop_
 _atom_site_type_symbol
 _atom_site_label
 _atom_site_symmetry_multiplicity
 _atom_site_fract_x
 _atom_site_fract_y
 _atom_site_fract_z
 _atom_site_occupancy
  Ce  Ce0  1  0.618916  0.000027  0.249934  1
  Ce  Ce1  1  0.381084  0.999973  0.750066  1
  Ce  Ce2  1  0.999982  0.618922  0.249898  1
  Ce  Ce3  1  0.000018  0.381078  0.750102  1
  Ce  Ce4  1  0.381056  0.381120  0.249946  1
  Ce  Ce5  1  0.618944  0.618880  0.750054  1
  Zr  Zr6  1  0.000000  0.000000  0.500000  1
  Nb  Nb7  1  0.000000  0.000000  0.000000  1
  Sb  Sb8  1  0.265193  0.999860  0.245156  1
  Sb  Sb9  1  0.734807  0.000140  0.754844  1
  Sb  Sb10  1  0.999985  0.265359  0.245135  1
  Sb  Sb11  1  0.000015  0.734641  0.754865  1
  Sb  Sb12  1  0.734795  0.734661  0.245136  1
  Sb  Sb13  1  0.265205  0.265339  0.754864  1
  Sb  Sb14  1  0.333209  0.666564  0.000001  1
  Sb  Sb15  1  0.666791  0.333436  0.999999  1
  Sb  Sb16  1  0.666799  0.333438  0.499997  1
  Sb  Sb17  1  0.333201  0.666562  0.500003  1
