# generated using pymatgen
data_SrTc2F12
_symmetry_space_group_name_H-M   'P 1'
_cell_length_a   5.58106145
_cell_length_b   5.51898981
_cell_length_c   10.09631638
_cell_angle_alpha   97.28191906
_cell_angle_beta   95.93046401
_cell_angle_gamma   118.21004931
_symmetry_Int_Tables_number   1
_chemical_formula_structural   SrTc2F12
_chemical_formula_sum   'Sr1 Tc2 F12'
_cell_volume   267.05389093
_cell_formula_units_Z   1
loop_
 _symmetry_equiv_pos_site_id
 _symmetry_equiv_pos_as_xyz
  1  'x, y, z'
loop_
 _atom_site_type_symbol
 _atom_site_label
 _atom_site_symmetry_multiplicity
 _atom_site_fract_x
 _atom_site_fract_y
 _atom_site_fract_z
 _atom_site_occupancy
  Sr  Sr0  1  0.973564  0.953870  0.882335  1
  Tc  Tc1  1  0.212704  0.501416  0.598559  1
  Tc  Tc2  1  0.385217  0.693206  0.130924  1
  F  F3  1  0.355847  0.991786  0.220007  1
  F  F4  1  0.545879  0.599292  0.729082  1
  F  F5  1  0.074260  0.623520  0.989122  1
  F  F6  1  0.134201  0.430143  0.217734  1
  F  F7  1  0.389364  0.383662  0.012644  1
  F  F8  1  0.245415  0.215484  0.500307  1
  F  F9  1  0.689304  0.754325  0.253333  1
  F  F10  1  0.191112  0.795155  0.718330  1
  F  F11  1  0.886196  0.416801  0.487255  1
  F  F12  1  0.003419  0.247334  0.714492  1
  F  F13  1  0.429702  0.765890  0.502956  1
  F  F14  1  0.631813  0.938118  0.020917  1
