# generated using pymatgen
data_K2Eu3Tc2N7
_symmetry_space_group_name_H-M   'P 1'
_cell_length_a   6.53153321
_cell_length_b   9.57361785
_cell_length_c   9.48918000
_cell_angle_alpha   117.53885829
_cell_angle_beta   95.32878631
_cell_angle_gamma   88.09593010
_symmetry_Int_Tables_number   1
_chemical_formula_structural   K2Eu3Tc2N7
_chemical_formula_sum   'K4 Eu6 Tc4 N14'
_cell_volume   523.82724300
_cell_formula_units_Z   2
loop_
 _symmetry_equiv_pos_site_id
 _symmetry_equiv_pos_as_xyz
  1  'x, y, z'
loop_
 _atom_site_type_symbol
 _atom_site_label
 _atom_site_symmetry_multiplicity
 _atom_site_fract_x
 _atom_site_fract_y
 _atom_site_fract_z
 _atom_site_occupancy
  K  K0  1  0.849293  0.591200  0.311269  1
  K  K1  1  0.276144  0.983324  0.553638  1
  K  K2  1  0.716747  0.423836  0.860538  1
  K  K3  1  0.285661  0.592299  0.158713  1
  Eu  Eu4  1  0.410952  0.799088  0.933296  1
  Eu  Eu5  1  0.582289  0.205570  0.047947  1
  Eu  Eu6  1  0.174543  0.411217  0.690844  1
  Eu  Eu7  1  0.910114  0.837839  0.746837  1
  Eu  Eu8  1  0.093476  0.165343  0.244953  1
  Eu  Eu9  1  0.748801  0.020826  0.459355  1
  Tc  Tc10  1  0.584236  0.354452  0.480653  1
  Tc  Tc11  1  0.435876  0.631643  0.526038  1
  Tc  Tc12  1  0.102518  0.193294  0.913268  1
  Tc  Tc13  1  0.877544  0.813230  0.074250  1
  N  N14  1  0.511706  0.544752  0.677409  1
  N  N15  1  0.494836  0.432276  0.326516  1
  N  N16  1  0.172636  0.687770  0.547811  1
  N  N17  1  0.852278  0.290533  0.485920  1
  N  N18  1  0.412517  0.199153  0.458685  1
  N  N19  1  0.603386  0.787826  0.545252  1
  N  N20  1  0.929661  0.091665  0.727642  1
  N  N21  1  0.022959  0.925138  0.269789  1
  N  N22  1  0.239934  0.048445  0.968232  1
  N  N23  1  0.754616  0.954182  0.007613  1
  N  N24  1  0.306325  0.307443  0.887496  1
  N  N25  1  0.950104  0.309715  0.080258  1
  N  N26  1  0.044054  0.678317  0.914865  1
  N  N27  1  0.656798  0.719628  0.100914  1
