# generated using pymatgen
data_DyEr4Co16(P4Ru)3
_symmetry_space_group_name_H-M   'P 1'
_cell_length_a   12.03010700
_cell_length_b   12.03010601
_cell_length_c   3.65914000
_cell_angle_alpha   90.00000000
_cell_angle_beta   90.00000000
_cell_angle_gamma   119.99999446
_symmetry_Int_Tables_number   1
_chemical_formula_structural   DyEr4Co16(P4Ru)3
_chemical_formula_sum   'Dy1 Er4 Co16 P12 Ru3'
_cell_volume   458.61539230
_cell_formula_units_Z   1
loop_
 _symmetry_equiv_pos_site_id
 _symmetry_equiv_pos_as_xyz
  1  'x, y, z'
loop_
 _atom_site_type_symbol
 _atom_site_label
 _atom_site_symmetry_multiplicity
 _atom_site_fract_x
 _atom_site_fract_y
 _atom_site_fract_z
 _atom_site_occupancy
  Dy  Dy0  1  0.333333  0.666667  0.000000  1
  Er  Er1  1  0.666667  0.333333  0.000000  1
  Er  Er2  1  0.184756  0.184857  0.500000  1
  Er  Er3  1  0.815143  0.999900  0.500000  1
  Er  Er4  1  0.000100  0.815244  0.500000  1
  Co  Co5  1  0.820715  0.195828  0.000000  1
  Co  Co6  1  0.804172  0.624888  0.000000  1
  Co  Co7  1  0.375112  0.179285  0.000000  1
  Co  Co8  1  0.195813  0.821332  0.000000  1
  Co  Co9  1  0.625519  0.804187  0.000000  1
  Co  Co10  1  0.178668  0.374481  0.000000  1
  Co  Co11  1  0.643482  0.126750  0.500000  1
  Co  Co12  1  0.873250  0.516732  0.500000  1
  Co  Co13  1  0.483268  0.356518  0.500000  1
  Co  Co14  1  0.125813  0.643570  0.500000  1
  Co  Co15  1  0.517759  0.874187  0.500000  1
  Co  Co16  1  0.356430  0.482241  0.500000  1
  Co  Co17  1  0.717787  0.717291  0.500000  1
  Co  Co18  1  0.282709  0.000496  0.500000  1
  Co  Co19  1  0.999504  0.282213  0.500000  1
  Co  Co20  1  0.000000  0.000000  0.000000  1
  P  P21  1  0.362610  0.362619  0.000000  1
  P  P22  1  0.637381  0.999990  0.000000  1
  P  P23  1  0.000010  0.637390  0.000000  1
  P  P24  1  0.834505  0.314131  0.500000  1
  P  P25  1  0.685869  0.520375  0.500000  1
  P  P26  1  0.479625  0.165495  0.500000  1
  P  P27  1  0.314253  0.835492  0.500000  1
  P  P28  1  0.521238  0.685747  0.500000  1
  P  P29  1  0.164508  0.478762  0.500000  1
  P  P30  1  0.821177  0.820901  0.000000  1
  P  P31  1  0.179099  0.000277  0.000000  1
  P  P32  1  0.999723  0.178823  0.000000  1
  Ru  Ru33  1  0.553785  0.553597  0.000000  1
  Ru  Ru34  1  0.446403  0.000188  0.000000  1
  Ru  Ru35  1  0.999812  0.446215  0.000000  1
