# generated using pymatgen
data_Tb11DyCo5Pb
_symmetry_space_group_name_H-M   'P 1'
_cell_length_a   8.34537662
_cell_length_b   8.34537608
_cell_length_c   8.34674518
_cell_angle_alpha   107.17396923
_cell_angle_beta   110.53744254
_cell_angle_gamma   110.71995789
_symmetry_Int_Tables_number   1
_chemical_formula_structural   Tb11DyCo5Pb
_chemical_formula_sum   'Tb11 Dy1 Co5 Pb1'
_cell_volume   446.99242007
_cell_formula_units_Z   1
loop_
 _symmetry_equiv_pos_site_id
 _symmetry_equiv_pos_as_xyz
  1  'x, y, z'
loop_
 _atom_site_type_symbol
 _atom_site_label
 _atom_site_symmetry_multiplicity
 _atom_site_fract_x
 _atom_site_fract_y
 _atom_site_fract_z
 _atom_site_occupancy
  Tb  Tb0  1  0.479116  0.293911  0.184983  1
  Tb  Tb1  1  0.108583  0.293484  0.815311  1
  Tb  Tb2  1  0.891074  0.705869  0.184983  1
  Tb  Tb3  1  0.521826  0.706727  0.815311  1
  Tb  Tb4  1  0.307200  0.620147  0.312533  1
  Tb  Tb5  1  0.308026  0.994986  0.687428  1
  Tb  Tb6  1  0.692443  0.379401  0.687428  1
  Tb  Tb7  1  0.692385  0.005332  0.312533  1
  Tb  Tb8  1  0.192012  0.204025  0.396036  1
  Tb  Tb9  1  0.807390  0.795976  0.603366  1
  Tb  Tb10  1  0.192281  0.795939  0.988219  1
  Dy  Dy11  1  0.807257  0.204245  0.011503  1
  Co  Co12  1  0.499862  0.611524  0.111386  1
  Co  Co13  1  0.500646  0.388097  0.888743  1
  Co  Co14  1  0.380185  0.999825  0.380011  1
  Co  Co15  1  0.620637  0.000180  0.620817  1
  Co  Co16  1  0.999158  0.000470  0.999629  1
  Pb  Pb17  1  0.999918  0.499863  0.499781  1
