# generated using pymatgen
data_Sr6CrCo4O15
_symmetry_space_group_name_H-M   'P 1'
_cell_length_a   6.91388680
_cell_length_b   6.91388664
_cell_length_c   6.91388604
_cell_angle_alpha   87.87706617
_cell_angle_beta   87.87707101
_cell_angle_gamma   87.87706178
_symmetry_Int_Tables_number   1
_chemical_formula_structural   Sr6CrCo4O15
_chemical_formula_sum   'Sr6 Cr1 Co4 O15'
_cell_volume   329.83225664
_cell_formula_units_Z   1
loop_
 _symmetry_equiv_pos_site_id
 _symmetry_equiv_pos_as_xyz
  1  'x, y, z'
loop_
 _atom_site_type_symbol
 _atom_site_label
 _atom_site_symmetry_multiplicity
 _atom_site_fract_x
 _atom_site_fract_y
 _atom_site_fract_z
 _atom_site_occupancy
  Sr  Sr0  1  0.500000  0.863172  0.136828  1
  Sr  Sr1  1  0.136828  0.500000  0.863172  1
  Sr  Sr2  1  0.863172  0.136828  0.500000  1
  Sr  Sr3  1  0.000000  0.675422  0.324578  1
  Sr  Sr4  1  0.324578  0.000000  0.675422  1
  Sr  Sr5  1  0.675422  0.324578  0.000000  1
  Cr  Cr6  1  0.500000  0.500000  0.500000  1
  Co  Co7  1  0.707042  0.707042  0.707042  1
  Co  Co8  1  0.292958  0.292958  0.292958  1
  Co  Co9  1  0.905721  0.905721  0.905721  1
  Co  Co10  1  0.094279  0.094279  0.094279  1
  O  O11  1  0.382852  0.550562  0.255181  1
  O  O12  1  0.255181  0.382852  0.550562  1
  O  O13  1  0.550562  0.255181  0.382852  1
  O  O14  1  0.617148  0.744819  0.449438  1
  O  O15  1  0.449438  0.617148  0.744819  1
  O  O16  1  0.744819  0.449438  0.617148  1
  O  O17  1  0.201154  0.030893  0.342008  1
  O  O18  1  0.342008  0.201154  0.030893  1
  O  O19  1  0.030893  0.342008  0.201154  1
  O  O20  1  0.798846  0.657992  0.969107  1
  O  O21  1  0.969107  0.798846  0.657992  1
  O  O22  1  0.156944  0.843056  0.000000  1
  O  O23  1  0.843056  0.000000  0.156944  1
  O  O24  1  0.000000  0.156944  0.843056  1
  O  O25  1  0.657992  0.969107  0.798846  1
