# generated using pymatgen
data_Dy2Y2Ga18NiRu5
_symmetry_space_group_name_H-M   'P 1'
_cell_length_a   7.51112680
_cell_length_b   7.51079293
_cell_length_c   9.67317001
_cell_angle_alpha   90.25875735
_cell_angle_beta   90.26188363
_cell_angle_gamma   119.79869335
_symmetry_Int_Tables_number   1
_chemical_formula_structural   Dy2Y2Ga18NiRu5
_chemical_formula_sum   'Dy2 Y2 Ga18 Ni1 Ru5'
_cell_volume   473.53262840
_cell_formula_units_Z   1
loop_
 _symmetry_equiv_pos_site_id
 _symmetry_equiv_pos_as_xyz
  1  'x, y, z'
loop_
 _atom_site_type_symbol
 _atom_site_label
 _atom_site_symmetry_multiplicity
 _atom_site_fract_x
 _atom_site_fract_y
 _atom_site_fract_z
 _atom_site_occupancy
  Dy  Dy0  1  0.997506  0.668121  0.250155  1
  Dy  Dy1  1  0.002494  0.331879  0.749845  1
  Y  Y2  1  0.668199  0.997473  0.250101  1
  Y  Y3  1  0.331801  0.002527  0.749899  1
  Ga  Ga4  1  0.125869  0.125554  0.248023  1
  Ga  Ga5  1  0.874131  0.874446  0.751977  1
  Ga  Ga6  1  0.004873  0.331573  0.076078  1
  Ga  Ga7  1  0.995127  0.668427  0.923922  1
  Ga  Ga8  1  0.995112  0.665390  0.575838  1
  Ga  Ga9  1  0.334378  0.004703  0.423993  1
  Ga  Ga10  1  0.004888  0.334610  0.424162  1
  Ga  Ga11  1  0.665622  0.995297  0.576007  1
  Ga  Ga12  1  0.668750  0.995365  0.923701  1
  Ga  Ga13  1  0.331250  0.004635  0.076299  1
  Ga  Ga14  1  0.337134  0.337239  0.559444  1
  Ga  Ga15  1  0.662866  0.662761  0.440556  1
  Ga  Ga16  1  0.665244  0.665087  0.060009  1
  Ga  Ga17  1  0.334756  0.334913  0.939991  1
  Ga  Ga18  1  0.336964  0.548894  0.249416  1
  Ga  Ga19  1  0.663036  0.451106  0.750584  1
  Ga  Ga20  1  0.549258  0.337639  0.249426  1
  Ga  Ga21  1  0.450742  0.662361  0.750574  1
  Ni  Ni22  1  0.000000  0.000000  0.000000  1
  Ru  Ru23  1  0.674511  0.325496  0.000004  1
  Ru  Ru24  1  0.325489  0.674504  0.999996  1
  Ru  Ru25  1  0.325703  0.674223  0.499992  1
  Ru  Ru26  1  0.674297  0.325777  0.500008  1
  Ru  Ru27  1  0.000000  0.000000  0.500000  1
