# generated using pymatgen
data_Pr7Y6Th3(CdIr)4
_symmetry_space_group_name_H-M   'P 1'
_cell_length_a   9.88572173
_cell_length_b   9.90382238
_cell_length_c   9.86478400
_cell_angle_alpha   60.13031323
_cell_angle_beta   60.07004409
_cell_angle_gamma   60.24206764
_symmetry_Int_Tables_number   1
_chemical_formula_structural   Pr7Y6Th3(CdIr)4
_chemical_formula_sum   'Pr7 Y6 Th3 Cd4 Ir4'
_cell_volume   685.22017829
_cell_formula_units_Z   1
loop_
 _symmetry_equiv_pos_site_id
 _symmetry_equiv_pos_as_xyz
  1  'x, y, z'
loop_
 _atom_site_type_symbol
 _atom_site_label
 _atom_site_symmetry_multiplicity
 _atom_site_fract_x
 _atom_site_fract_y
 _atom_site_fract_z
 _atom_site_occupancy
  Pr  Pr0  1  0.814292  0.813065  0.186321  1
  Pr  Pr1  1  0.943911  0.558448  0.561155  1
  Pr  Pr2  1  0.558757  0.941286  0.938549  1
  Pr  Pr3  1  0.558757  0.941286  0.561407  1
  Pr  Pr4  1  0.943911  0.558448  0.936485  1
  Pr  Pr5  1  0.560810  0.561880  0.938655  1
  Pr  Pr6  1  0.941178  0.937694  0.560564  1
  Y  Y7  1  0.951351  0.346754  0.350947  1
  Y  Y8  1  0.812736  0.190167  0.187063  1
  Y  Y9  1  0.189783  0.813639  0.811692  1
  Y  Y10  1  0.189783  0.813639  0.184887  1
  Y  Y11  1  0.812736  0.190167  0.810033  1
  Y  Y12  1  0.186502  0.185627  0.813936  1
  Th  Th13  1  0.344651  0.348300  0.347769  1
  Th  Th14  1  0.344651  0.348300  0.959279  1
  Th  Th15  1  0.342666  0.958457  0.349437  1
  Cd  Cd16  1  0.580028  0.577717  0.580392  1
  Cd  Cd17  1  0.580028  0.577717  0.261863  1
  Cd  Cd18  1  0.581622  0.260009  0.579184  1
  Cd  Cd19  1  0.259103  0.580645  0.580126  1
  Ir  Ir20  1  0.145067  0.140427  0.142550  1
  Ir  Ir21  1  0.145067  0.140427  0.571955  1
  Ir  Ir22  1  0.147493  0.568712  0.141897  1
  Ir  Ir23  1  0.565114  0.147184  0.143851  1
