# generated using pymatgen
data_Ti8Al14AsRuRh6
_symmetry_space_group_name_H-M   'P 1'
_cell_length_a   8.63246280
_cell_length_b   8.64868941
_cell_length_c   8.64391153
_cell_angle_alpha   120.01445527
_cell_angle_beta   119.84802246
_cell_angle_gamma   90.08934184
_symmetry_Int_Tables_number   1
_chemical_formula_structural   Ti8Al14AsRuRh6
_chemical_formula_sum   'Ti8 Al14 As1 Ru1 Rh6'
_cell_volume   456.92251313
_cell_formula_units_Z   1
loop_
 _symmetry_equiv_pos_site_id
 _symmetry_equiv_pos_as_xyz
  1  'x, y, z'
loop_
 _atom_site_type_symbol
 _atom_site_label
 _atom_site_symmetry_multiplicity
 _atom_site_fract_x
 _atom_site_fract_y
 _atom_site_fract_z
 _atom_site_occupancy
  Ti  Ti0  1  0.796354  0.295038  0.084096  1
  Ti  Ti1  1  0.209265  0.294284  0.498900  1
  Ti  Ti2  1  0.202996  0.705777  0.499673  1
  Ti  Ti3  1  0.210967  0.711939  0.916031  1
  Ti  Ti4  1  0.797950  0.713584  0.500998  1
  Ti  Ti5  1  0.791832  0.288889  0.500731  1
  Ti  Ti6  1  0.375403  0.120848  0.739325  1
  Ti  Ti7  1  0.379975  0.637527  0.257211  1
  Al  Al8  1  0.158885  0.338957  0.179972  1
  Al  Al9  1  0.158688  0.978814  0.820084  1
  Al  Al10  1  0.155542  0.340894  0.815195  1
  Al  Al11  1  0.526703  0.340953  0.185702  1
  Al  Al12  1  0.840079  0.658584  0.818160  1
  Al  Al13  1  0.840238  0.021022  0.181457  1
  Al  Al14  1  0.838934  0.660205  0.179048  1
  Al  Al15  1  0.480412  0.659759  0.820794  1
  Al  Al16  1  0.380499  0.119968  0.260453  1
  Al  Al17  1  0.860218  0.119487  0.738708  1
  Al  Al18  1  0.621789  0.879514  0.260100  1
  Al  Al19  1  0.620101  0.360910  0.741108  1
  Al  Al20  1  0.620190  0.879464  0.741190  1
  Al  Al21  1  0.137774  0.879445  0.259942  1
  As  As22  1  0.997547  0.497798  0.499945  1
  Ru  Ru23  1  0.002733  0.000463  0.502566  1
  Rh  Rh24  1  0.498535  0.000112  0.999079  1
  Rh  Rh25  1  0.498002  0.497733  0.999920  1
  Rh  Rh26  1  0.498566  0.499613  0.498677  1
  Rh  Rh27  1  0.000921  0.499870  0.000929  1
  Rh  Rh28  1  0.000076  0.999887  0.000189  1
  Rh  Rh29  1  0.498820  0.998660  0.499820  1
