# generated using pymatgen
data_Tb16Lu4Si15Ru
_symmetry_space_group_name_H-M   'P 1'
_cell_length_a   7.37137263
_cell_length_b   7.76682703
_cell_length_c   14.56224700
_cell_angle_alpha   90.00000000
_cell_angle_beta   90.00000000
_cell_angle_gamma   90.01889984
_symmetry_Int_Tables_number   1
_chemical_formula_structural   Tb16Lu4Si15Ru
_chemical_formula_sum   'Tb16 Lu4 Si15 Ru1'
_cell_volume   833.72028584
_cell_formula_units_Z   1
loop_
 _symmetry_equiv_pos_site_id
 _symmetry_equiv_pos_as_xyz
  1  'x, y, z'
loop_
 _atom_site_type_symbol
 _atom_site_label
 _atom_site_symmetry_multiplicity
 _atom_site_fract_x
 _atom_site_fract_y
 _atom_site_fract_z
 _atom_site_occupancy
  Tb  Tb0  1  0.672530  0.185013  0.626281  1
  Tb  Tb1  1  0.193724  0.325745  0.872451  1
  Tb  Tb2  1  0.317970  0.819555  0.123972  1
  Tb  Tb3  1  0.816992  0.677415  0.376683  1
  Tb  Tb4  1  0.317970  0.819555  0.376028  1
  Tb  Tb5  1  0.816992  0.677415  0.123317  1
  Tb  Tb6  1  0.672530  0.185013  0.873719  1
  Tb  Tb7  1  0.193724  0.325745  0.627549  1
  Tb  Tb8  1  0.522151  0.674264  0.595905  1
  Tb  Tb9  1  0.025184  0.816303  0.903407  1
  Tb  Tb10  1  0.473576  0.315413  0.097021  1
  Tb  Tb11  1  0.973917  0.182706  0.402992  1
  Tb  Tb12  1  0.473576  0.315413  0.402979  1
  Tb  Tb13  1  0.973917  0.182706  0.097008  1
  Tb  Tb14  1  0.522151  0.674264  0.904095  1
  Tb  Tb15  1  0.025184  0.816303  0.596593  1
  Lu  Lu16  1  0.839905  0.514959  0.750000  1
  Lu  Lu17  1  0.353326  0.981209  0.750000  1
  Lu  Lu18  1  0.150695  0.483007  0.250000  1
  Lu  Lu19  1  0.649226  0.014842  0.250000  1
  Si  Si20  1  0.646409  0.972393  0.459963  1
  Si  Si21  1  0.149773  0.527391  0.039858  1
  Si  Si22  1  0.349058  0.026006  0.960467  1
  Si  Si23  1  0.856764  0.470399  0.540084  1
  Si  Si24  1  0.349058  0.026006  0.539533  1
  Si  Si25  1  0.856764  0.470399  0.959916  1
  Si  Si26  1  0.646409  0.972393  0.040037  1
  Si  Si27  1  0.149773  0.527391  0.460142  1
  Si  Si28  1  0.982191  0.099411  0.750000  1
  Si  Si29  1  0.520585  0.599487  0.250000  1
  Si  Si30  1  0.016939  0.897998  0.250000  1
  Si  Si31  1  0.738785  0.875002  0.750000  1
  Si  Si32  1  0.228120  0.635854  0.750000  1
  Si  Si33  1  0.267497  0.129362  0.250000  1
  Si  Si34  1  0.770549  0.369800  0.250000  1
  Ru  Ru35  1  0.486089  0.413865  0.750000  1
