# generated using pymatgen
data_DyEr15(In3Tc)2
_symmetry_space_group_name_H-M   'P 1'
_cell_length_a   10.32834900
_cell_length_b   10.32700351
_cell_length_c   6.99252653
_cell_angle_alpha   89.93446674
_cell_angle_beta   89.99960391
_cell_angle_gamma   120.00577429
_symmetry_Int_Tables_number   1
_chemical_formula_structural   DyEr15(In3Tc)2
_chemical_formula_sum   'Dy1 Er15 In6 Tc2'
_cell_volume   645.86883665
_cell_formula_units_Z   1
loop_
 _symmetry_equiv_pos_site_id
 _symmetry_equiv_pos_as_xyz
  1  'x, y, z'
loop_
 _atom_site_type_symbol
 _atom_site_label
 _atom_site_symmetry_multiplicity
 _atom_site_fract_x
 _atom_site_fract_y
 _atom_site_fract_z
 _atom_site_occupancy
  Dy  Dy0  1  0.531195  0.062378  0.796261  1
  Er  Er1  1  0.937588  0.468866  0.796675  1
  Er  Er2  1  0.531256  0.468871  0.796682  1
  Er  Er3  1  0.468583  0.937174  0.296447  1
  Er  Er4  1  0.062787  0.531439  0.296826  1
  Er  Er5  1  0.468659  0.531437  0.296808  1
  Er  Er6  1  0.822553  0.645112  0.499324  1
  Er  Er7  1  0.354389  0.177355  0.499111  1
  Er  Er8  1  0.822973  0.177377  0.499075  1
  Er  Er9  1  0.177408  0.354853  0.999379  1
  Er  Er10  1  0.645321  0.822483  0.999527  1
  Er  Er11  1  0.177149  0.822474  0.999545  1
  Er  Er12  1  0.666830  0.333649  0.169348  1
  Er  Er13  1  0.333176  0.666348  0.668835  1
  Er  Er14  1  0.999963  0.999912  0.775794  1
  Er  Er15  1  0.000004  0.999990  0.275657  1
  In  In16  1  0.837098  0.674129  0.038291  1
  In  In17  1  0.325760  0.163131  0.038529  1
  In  In18  1  0.837381  0.163127  0.038446  1
  In  In19  1  0.163025  0.326018  0.538210  1
  In  In20  1  0.673987  0.836830  0.538241  1
  In  In21  1  0.162794  0.836806  0.538208  1
  Tc  Tc22  1  0.666729  0.333466  0.570455  1
  Tc  Tc23  1  0.333391  0.666774  0.070231  1
