# generated using pymatgen
data_La4Sb8(PdRh)3
_symmetry_space_group_name_H-M   'P 1'
_cell_length_a   4.62193300
_cell_length_b   11.36339100
_cell_length_c   16.41446000
_cell_angle_alpha   90.00000000
_cell_angle_beta   90.00000000
_cell_angle_gamma   90.00000000
_symmetry_Int_Tables_number   1
_chemical_formula_structural   La4Sb8(PdRh)3
_chemical_formula_sum   'La8 Sb16 Pd6 Rh6'
_cell_volume   862.10109365
_cell_formula_units_Z   2
loop_
 _symmetry_equiv_pos_site_id
 _symmetry_equiv_pos_as_xyz
  1  'x, y, z'
loop_
 _atom_site_type_symbol
 _atom_site_label
 _atom_site_symmetry_multiplicity
 _atom_site_fract_x
 _atom_site_fract_y
 _atom_site_fract_z
 _atom_site_occupancy
  La  La0  1  0.250000  0.747248  0.503173  1
  La  La1  1  0.250000  0.752752  0.003173  1
  La  La2  1  0.750000  0.248750  0.495725  1
  La  La3  1  0.750000  0.251250  0.995725  1
  La  La4  1  0.250000  0.586674  0.751384  1
  La  La5  1  0.250000  0.913326  0.251384  1
  La  La6  1  0.750000  0.411714  0.247265  1
  La  La7  1  0.750000  0.088286  0.747265  1
  Sb  Sb8  1  0.250000  0.273891  0.651772  1
  Sb  Sb9  1  0.250000  0.226109  0.151772  1
  Sb  Sb10  1  0.750000  0.731888  0.348490  1
  Sb  Sb11  1  0.750000  0.768112  0.848490  1
  Sb  Sb12  1  0.250000  0.882291  0.712108  1
  Sb  Sb13  1  0.250000  0.617709  0.212108  1
  Sb  Sb14  1  0.750000  0.113019  0.291644  1
  Sb  Sb15  1  0.750000  0.386981  0.791644  1
  Sb  Sb16  1  0.250000  0.076457  0.895145  1
  Sb  Sb17  1  0.250000  0.423543  0.395145  1
  Sb  Sb18  1  0.750000  0.926565  0.104136  1
  Sb  Sb19  1  0.750000  0.573435  0.604136  1
  Sb  Sb20  1  0.250000  0.445312  0.930689  1
  Sb  Sb21  1  0.250000  0.054688  0.430689  1
  Sb  Sb22  1  0.750000  0.556829  0.069039  1
  Sb  Sb23  1  0.750000  0.943171  0.569039  1
  Pd  Pd24  1  0.250000  0.466000  0.556894  1
  Pd  Pd25  1  0.250000  0.034000  0.056894  1
  Pd  Pd26  1  0.750000  0.534259  0.440924  1
  Pd  Pd27  1  0.750000  0.965741  0.940924  1
  Pd  Pd28  1  0.250000  0.055866  0.594581  1
  Pd  Pd29  1  0.250000  0.444134  0.094581  1
  Rh  Rh30  1  0.750000  0.946246  0.408324  1
  Rh  Rh31  1  0.750000  0.553754  0.908324  1
  Rh  Rh32  1  0.250000  0.279807  0.815927  1
  Rh  Rh33  1  0.250000  0.220193  0.315927  1
  Rh  Rh34  1  0.750000  0.722737  0.182778  1
  Rh  Rh35  1  0.750000  0.777263  0.682778  1
