# generated using pymatgen
data_La4Tb2PrP12Pd17
_symmetry_space_group_name_H-M   'P 1'
_cell_length_a   12.45336591
_cell_length_b   12.45336694
_cell_length_c   13.67415727
_cell_angle_alpha   68.13735958
_cell_angle_beta   68.13735806
_cell_angle_gamma   18.95918540
_symmetry_Int_Tables_number   1
_chemical_formula_structural   La4Tb2PrP12Pd17
_chemical_formula_sum   'La4 Tb2 Pr1 P12 Pd17'
_cell_volume   638.00586763
_cell_formula_units_Z   1
loop_
 _symmetry_equiv_pos_site_id
 _symmetry_equiv_pos_as_xyz
  1  'x, y, z'
loop_
 _atom_site_type_symbol
 _atom_site_label
 _atom_site_symmetry_multiplicity
 _atom_site_fract_x
 _atom_site_fract_y
 _atom_site_fract_z
 _atom_site_occupancy
  La  La0  1  0.500041  0.500041  0.499771  1
  La  La1  1  0.766062  0.766062  0.687313  1
  La  La2  1  0.417874  0.417874  0.260820  1
  La  La3  1  0.581954  0.581954  0.739134  1
  Tb  Tb4  1  0.364656  0.364656  0.999201  1
  Tb  Tb5  1  0.635124  0.635124  0.001350  1
  Pr  Pr6  1  0.233803  0.233803  0.313137  1
  P  P7  1  0.061287  0.061287  0.928046  1
  P  P8  1  0.938580  0.938580  0.072116  1
  P  P9  1  0.886452  0.886452  0.830258  1
  P  P10  1  0.113535  0.113535  0.169983  1
  P  P11  1  0.187932  0.187932  0.619569  1
  P  P12  1  0.811594  0.811594  0.379531  1
  P  P13  1  0.364819  0.364819  0.579512  1
  P  P14  1  0.635647  0.635647  0.419318  1
  P  P15  1  0.010287  0.010287  0.671163  1
  P  P16  1  0.989785  0.989785  0.328494  1
  P  P17  1  0.231691  0.231691  0.884969  1
  P  P18  1  0.768245  0.768245  0.116471  1
  Pd  Pd19  1  0.839161  0.839161  0.190723  1
  Pd  Pd20  1  0.160803  0.160803  0.809465  1
  Pd  Pd21  1  0.027609  0.027609  0.122318  1
  Pd  Pd22  1  0.972269  0.972269  0.877833  1
  Pd  Pd23  1  0.889709  0.889709  0.458865  1
  Pd  Pd24  1  0.110301  0.110301  0.540875  1
  Pd  Pd25  1  0.499894  0.499894  0.000186  1
  Pd  Pd26  1  0.548317  0.548317  0.250266  1
  Pd  Pd27  1  0.451959  0.451959  0.749315  1
  Pd  Pd28  1  0.296803  0.296803  0.486717  1
  Pd  Pd29  1  0.703445  0.703445  0.511395  1
  Pd  Pd30  1  0.667405  0.667405  0.221957  1
  Pd  Pd31  1  0.332904  0.332904  0.778935  1
  Pd  Pd32  1  0.907026  0.907026  0.645901  1
  Pd  Pd33  1  0.093079  0.093079  0.353956  1
  Pd  Pd34  1  0.216612  0.216612  0.069041  1
  Pd  Pd35  1  0.783335  0.783335  0.932097  1
