# generated using pymatgen
data_DyTm15Cd2(InNi2)2
_symmetry_space_group_name_H-M   'P 1'
_cell_length_a   9.45132825
_cell_length_b   9.45132933
_cell_length_c   9.44683711
_cell_angle_alpha   59.99951479
_cell_angle_beta   59.99959897
_cell_angle_gamma   60.05070763
_symmetry_Int_Tables_number   1
_chemical_formula_structural   DyTm15Cd2(InNi2)2
_chemical_formula_sum   'Dy1 Tm15 Cd2 In2 Ni4'
_cell_volume   596.92589068
_cell_formula_units_Z   1
loop_
 _symmetry_equiv_pos_site_id
 _symmetry_equiv_pos_as_xyz
  1  'x, y, z'
loop_
 _atom_site_type_symbol
 _atom_site_label
 _atom_site_symmetry_multiplicity
 _atom_site_fract_x
 _atom_site_fract_y
 _atom_site_fract_z
 _atom_site_occupancy
  Dy  Dy0  1  0.348545  0.348536  0.348133  1
  Tm  Tm1  1  0.348324  0.348308  0.955337  1
  Tm  Tm2  1  0.348930  0.954557  0.348046  1
  Tm  Tm3  1  0.954548  0.348923  0.348055  1
  Tm  Tm4  1  0.812393  0.187448  0.187624  1
  Tm  Tm5  1  0.187740  0.811993  0.812541  1
  Tm  Tm6  1  0.187445  0.812403  0.187625  1
  Tm  Tm7  1  0.811983  0.187743  0.812548  1
  Tm  Tm8  1  0.186289  0.186293  0.813969  1
  Tm  Tm9  1  0.811248  0.811262  0.188874  1
  Tm  Tm10  1  0.937554  0.564675  0.562933  1
  Tm  Tm11  1  0.564468  0.937812  0.934871  1
  Tm  Tm12  1  0.564677  0.937550  0.562938  1
  Tm  Tm13  1  0.937815  0.564466  0.934874  1
  Tm  Tm14  1  0.564130  0.564132  0.935675  1
  Tm  Tm15  1  0.936761  0.936760  0.563240  1
  Cd  Cd16  1  0.581374  0.253000  0.583112  1
  Cd  Cd17  1  0.253003  0.581375  0.583109  1
  In  In18  1  0.581612  0.581612  0.583636  1
  In  In19  1  0.581855  0.581856  0.253156  1
  Ni  Ni20  1  0.142411  0.142417  0.142941  1
  Ni  Ni21  1  0.141833  0.141836  0.572907  1
  Ni  Ni22  1  0.141665  0.573388  0.141930  1
  Ni  Ni23  1  0.573400  0.141656  0.141926  1
