# generated using pymatgen
data_La7PrHg2OsPt
_symmetry_space_group_name_H-M   'P 1'
_cell_length_a   10.10117765
_cell_length_b   10.10117781
_cell_length_c   10.20951000
_cell_angle_alpha   59.64458421
_cell_angle_beta   59.64458368
_cell_angle_gamma   59.92288910
_symmetry_Int_Tables_number   1
_chemical_formula_structural   La7PrHg2OsPt
_chemical_formula_sum   'La14 Pr2 Hg4 Os2 Pt2'
_cell_volume   732.19854338
_cell_formula_units_Z   2
loop_
 _symmetry_equiv_pos_site_id
 _symmetry_equiv_pos_as_xyz
  1  'x, y, z'
loop_
 _atom_site_type_symbol
 _atom_site_label
 _atom_site_symmetry_multiplicity
 _atom_site_fract_x
 _atom_site_fract_y
 _atom_site_fract_z
 _atom_site_occupancy
  La  La0  1  0.347840  0.347840  0.354625  1
  La  La1  1  0.347840  0.347840  0.949694  1
  La  La2  1  0.343894  0.957835  0.349136  1
  La  La3  1  0.957835  0.343894  0.349136  1
  La  La4  1  0.815182  0.189579  0.192208  1
  La  La5  1  0.189579  0.815182  0.803030  1
  La  La6  1  0.189579  0.815182  0.192208  1
  La  La7  1  0.815182  0.189579  0.803030  1
  La  La8  1  0.188927  0.188927  0.811073  1
  La  La9  1  0.803395  0.803395  0.196605  1
  La  La10  1  0.939150  0.556095  0.565231  1
  La  La11  1  0.556095  0.939150  0.939523  1
  La  La12  1  0.556095  0.939150  0.565231  1
  La  La13  1  0.939150  0.556095  0.939523  1
  Pr  Pr14  1  0.561230  0.561230  0.938770  1
  Pr  Pr15  1  0.938805  0.938805  0.561195  1
  Hg  Hg16  1  0.583146  0.583146  0.583746  1
  Hg  Hg17  1  0.583146  0.583146  0.249963  1
  Hg  Hg18  1  0.585007  0.248385  0.583303  1
  Hg  Hg19  1  0.248385  0.585007  0.583303  1
  Os  Os20  1  0.143450  0.143450  0.135411  1
  Os  Os21  1  0.143450  0.143450  0.577692  1
  Pt  Pt22  1  0.146975  0.576667  0.138179  1
  Pt  Pt23  1  0.576667  0.146975  0.138179  1
