# generated using pymatgen
data_Dy8Er11ScSi15Ge
_symmetry_space_group_name_H-M   'P 1'
_cell_length_a   7.34468313
_cell_length_b   7.63531924
_cell_length_c   14.48354036
_cell_angle_alpha   90.20066383
_cell_angle_beta   89.64968208
_cell_angle_gamma   90.32159338
_symmetry_Int_Tables_number   1
_chemical_formula_structural   Dy8Er11ScSi15Ge
_chemical_formula_sum   'Dy8 Er11 Sc1 Si15 Ge1'
_cell_volume   812.18960543
_cell_formula_units_Z   1
loop_
 _symmetry_equiv_pos_site_id
 _symmetry_equiv_pos_as_xyz
  1  'x, y, z'
loop_
 _atom_site_type_symbol
 _atom_site_label
 _atom_site_symmetry_multiplicity
 _atom_site_fract_x
 _atom_site_fract_y
 _atom_site_fract_z
 _atom_site_occupancy
  Dy  Dy0  1  0.021127  0.180287  0.097769  1
  Dy  Dy1  1  0.981702  0.821065  0.905604  1
  Dy  Dy2  1  0.478444  0.682035  0.902290  1
  Dy  Dy3  1  0.979882  0.819952  0.596558  1
  Dy  Dy4  1  0.518811  0.320587  0.096921  1
  Dy  Dy5  1  0.017717  0.180092  0.400857  1
  Dy  Dy6  1  0.518095  0.319206  0.400771  1
  Dy  Dy7  1  0.484681  0.681127  0.597801  1
  Er  Er8  1  0.158398  0.511141  0.751406  1
  Er  Er9  1  0.841567  0.490465  0.250094  1
  Er  Er10  1  0.342294  0.008784  0.248390  1
  Er  Er11  1  0.657863  0.989438  0.750059  1
  Er  Er12  1  0.328635  0.176332  0.624557  1
  Er  Er13  1  0.671864  0.821889  0.374378  1
  Er  Er14  1  0.170469  0.678541  0.375846  1
  Er  Er15  1  0.673361  0.819557  0.121996  1
  Er  Er16  1  0.828189  0.321683  0.622723  1
  Er  Er17  1  0.325211  0.180394  0.878729  1
  Er  Er18  1  0.825633  0.322413  0.879029  1
  Sc  Sc19  1  0.174959  0.677779  0.125599  1
  Si  Si20  1  0.030289  0.108529  0.751388  1
  Si  Si21  1  0.971539  0.889136  0.247059  1
  Si  Si22  1  0.464187  0.607686  0.245588  1
  Si  Si23  1  0.532188  0.393585  0.751590  1
  Si  Si24  1  0.274371  0.873094  0.751226  1
  Si  Si25  1  0.724553  0.127183  0.248139  1
  Si  Si26  1  0.222854  0.374086  0.247700  1
  Si  Si27  1  0.777209  0.627405  0.750694  1
  Si  Si28  1  0.833866  0.532971  0.459339  1
  Si  Si29  1  0.344952  0.969353  0.460047  1
  Si  Si30  1  0.856686  0.531863  0.042577  1
  Si  Si31  1  0.655258  0.031020  0.538414  1
  Si  Si32  1  0.156590  0.473270  0.965016  1
  Si  Si33  1  0.651296  0.029964  0.960667  1
  Si  Si34  1  0.339403  0.962205  0.039906  1
  Ge  Ge35  1  0.165861  0.465884  0.539273  1
