# generated using pymatgen
data_Ta4Mn3FeP4
_symmetry_space_group_name_H-M   'P 1'
_cell_length_a   3.57707200
_cell_length_b   6.14652322
_cell_length_c   7.08908442
_cell_angle_alpha   89.37664300
_cell_angle_beta   90.00000000
_cell_angle_gamma   90.00000000
_symmetry_Int_Tables_number   1
_chemical_formula_structural   Ta4Mn3FeP4
_chemical_formula_sum   'Ta4 Mn3 Fe1 P4'
_cell_volume   155.85532800
_cell_formula_units_Z   1
loop_
 _symmetry_equiv_pos_site_id
 _symmetry_equiv_pos_as_xyz
  1  'x, y, z'
loop_
 _atom_site_type_symbol
 _atom_site_label
 _atom_site_symmetry_multiplicity
 _atom_site_fract_x
 _atom_site_fract_y
 _atom_site_fract_z
 _atom_site_occupancy
  Ta  Ta0  1  0.250000  0.526115  0.676099  1
  Ta  Ta1  1  0.250000  0.025426  0.828408  1
  Ta  Ta2  1  0.750000  0.976860  0.171787  1
  Ta  Ta3  1  0.750000  0.471008  0.323680  1
  Mn  Mn4  1  0.750000  0.355553  0.940618  1
  Mn  Mn5  1  0.250000  0.142720  0.437351  1
  Mn  Mn6  1  0.750000  0.857419  0.562282  1
  Fe  Fe7  1  0.250000  0.646361  0.060846  1
  P  P8  1  0.250000  0.770901  0.367807  1
  P  P9  1  0.250000  0.279753  0.118575  1
  P  P10  1  0.750000  0.226897  0.631234  1
  P  P11  1  0.750000  0.720985  0.881313  1
