# generated using pymatgen
data_LaBr37
_symmetry_space_group_name_H-M   'P 1'
_cell_length_a   14.20848141
_cell_length_b   15.29732181
_cell_length_c   14.42416200
_cell_angle_alpha   103.00376457
_cell_angle_beta   48.80056783
_cell_angle_gamma   81.50743146
_symmetry_Int_Tables_number   1
_chemical_formula_structural   LaBr37
_chemical_formula_sum   'La1 Br37'
_cell_volume   2102.91272627
_cell_formula_units_Z   1
loop_
 _symmetry_equiv_pos_site_id
 _symmetry_equiv_pos_as_xyz
  1  'x, y, z'
loop_
 _atom_site_type_symbol
 _atom_site_label
 _atom_site_symmetry_multiplicity
 _atom_site_fract_x
 _atom_site_fract_y
 _atom_site_fract_z
 _atom_site_occupancy
  La  La0  1  0.500000  0.000000  0.000000  1
  Br  Br1  1  0.785941  0.300567  0.137303  1
  Br  Br2  1  0.214059  0.699433  0.862697  1
  Br  Br3  1  0.743319  0.084297  0.364081  1
  Br  Br4  1  0.256681  0.915703  0.635919  1
  Br  Br5  1  0.117109  0.349184  0.166307  1
  Br  Br6  1  0.882891  0.650816  0.833693  1
  Br  Br7  1  0.866849  0.529946  0.246408  1
  Br  Br8  1  0.133151  0.470054  0.753592  1
  Br  Br9  1  0.686933  0.275503  0.522153  1
  Br  Br10  1  0.313067  0.724497  0.477847  1
  Br  Br11  1  0.043559  0.143041  0.485574  1
  Br  Br12  1  0.956441  0.856959  0.514426  1
  Br  Br13  1  0.977762  0.007933  0.286895  1
  Br  Br14  1  0.022238  0.992067  0.713105  1
  Br  Br15  1  0.949853  0.339628  0.605303  1
  Br  Br16  1  0.050147  0.660372  0.394697  1
  Br  Br17  1  0.577739  0.429625  0.235095  1
  Br  Br18  1  0.422261  0.570375  0.764905  1
  Br  Br19  1  0.171222  0.478884  0.276867  1
  Br  Br20  1  0.828778  0.521116  0.723133  1
  Br  Br21  1  0.000000  0.500000  0.000000  1
  Br  Br22  1  0.566724  0.959007  0.150585  1
  Br  Br23  1  0.433276  0.040993  0.849415  1
  Br  Br24  1  0.305363  0.051424  0.318363  1
  Br  Br25  1  0.694637  0.948576  0.681637  1
  Br  Br26  1  0.531037  0.135127  0.415128  1
  Br  Br27  1  0.468963  0.864873  0.584872  1
  Br  Br28  1  0.095754  0.215109  0.064555  1
  Br  Br29  1  0.904246  0.784891  0.935445  1
  Br  Br30  1  0.664014  0.689269  0.401198  1
  Br  Br31  1  0.335986  0.310731  0.598802  1
  Br  Br32  1  0.899488  0.147616  0.922409  1
  Br  Br33  1  0.100512  0.852384  0.077591  1
  Br  Br34  1  0.465626  0.194492  0.089626  1
  Br  Br35  1  0.534374  0.805508  0.910374  1
  Br  Br36  1  0.651639  0.430375  0.650301  1
  Br  Br37  1  0.348361  0.569625  0.349699  1
