# generated using pymatgen
data_Er7Sn23Os6
_symmetry_space_group_name_H-M   'P 1'
_cell_length_a   9.84269300
_cell_length_b   9.84269309
_cell_length_c   10.10404000
_cell_angle_alpha   90.00000000
_cell_angle_beta   90.00000000
_cell_angle_gamma   120.00000304
_symmetry_Int_Tables_number   1
_chemical_formula_structural   Er7Sn23Os6
_chemical_formula_sum   'Er7 Sn23 Os6'
_cell_volume   847.72220318
_cell_formula_units_Z   1
loop_
 _symmetry_equiv_pos_site_id
 _symmetry_equiv_pos_as_xyz
  1  'x, y, z'
loop_
 _atom_site_type_symbol
 _atom_site_label
 _atom_site_symmetry_multiplicity
 _atom_site_fract_x
 _atom_site_fract_y
 _atom_site_fract_z
 _atom_site_occupancy
  Er  Er0  1  0.486863  0.513137  0.301046  1
  Er  Er1  1  0.513137  0.486863  0.698954  1
  Er  Er2  1  0.486863  0.973728  0.301046  1
  Er  Er3  1  0.513137  0.026272  0.698954  1
  Er  Er4  1  0.026272  0.513137  0.301046  1
  Er  Er5  1  0.973728  0.486863  0.698954  1
  Er  Er6  1  0.000000  0.000000  0.000000  1
  Sn  Sn7  1  0.117937  0.882063  0.277191  1
  Sn  Sn8  1  0.882063  0.117937  0.722809  1
  Sn  Sn9  1  0.117937  0.235873  0.277191  1
  Sn  Sn10  1  0.882063  0.764127  0.722809  1
  Sn  Sn11  1  0.764127  0.882063  0.277191  1
  Sn  Sn12  1  0.235873  0.117937  0.722809  1
  Sn  Sn13  1  0.779133  0.220867  0.464251  1
  Sn  Sn14  1  0.220867  0.779133  0.535749  1
  Sn  Sn15  1  0.779133  0.558266  0.464251  1
  Sn  Sn16  1  0.220867  0.441734  0.535749  1
  Sn  Sn17  1  0.441734  0.220867  0.464251  1
  Sn  Sn18  1  0.558266  0.779133  0.535749  1
  Sn  Sn19  1  0.349930  0.000000  0.000000  1
  Sn  Sn20  1  0.650070  0.000000  0.000000  1
  Sn  Sn21  1  0.000000  0.349930  0.000000  1
  Sn  Sn22  1  0.000000  0.650070  0.000000  1
  Sn  Sn23  1  0.650070  0.650070  0.000000  1
  Sn  Sn24  1  0.349930  0.349930  0.000000  1
  Sn  Sn25  1  0.333333  0.666667  0.134207  1
  Sn  Sn26  1  0.666667  0.333333  0.865793  1
  Sn  Sn27  1  0.333333  0.666667  0.828088  1
  Sn  Sn28  1  0.666667  0.333333  0.171912  1
  Sn  Sn29  1  0.000000  0.000000  0.500000  1
  Os  Os30  1  0.829399  0.170601  0.202545  1
  Os  Os31  1  0.170601  0.829399  0.797455  1
  Os  Os32  1  0.829399  0.658800  0.202545  1
  Os  Os33  1  0.170601  0.341200  0.797455  1
  Os  Os34  1  0.341200  0.170601  0.202545  1
  Os  Os35  1  0.658800  0.829399  0.797455  1
