# generated using pymatgen
data_Yb3Al3N5
_symmetry_space_group_name_H-M   'P 1'
_cell_length_a   5.65393108
_cell_length_b   6.85546933
_cell_length_c   8.26245377
_cell_angle_alpha   107.98786868
_cell_angle_beta   105.33239882
_cell_angle_gamma   95.48697157
_symmetry_Int_Tables_number   1
_chemical_formula_structural   Yb3Al3N5
_chemical_formula_sum   'Yb6 Al6 N10'
_cell_volume   288.22236777
_cell_formula_units_Z   2
loop_
 _symmetry_equiv_pos_site_id
 _symmetry_equiv_pos_as_xyz
  1  'x, y, z'
loop_
 _atom_site_type_symbol
 _atom_site_label
 _atom_site_symmetry_multiplicity
 _atom_site_fract_x
 _atom_site_fract_y
 _atom_site_fract_z
 _atom_site_occupancy
  Yb  Yb0  1  0.814823  0.421251  0.606884  1
  Yb  Yb1  1  0.185177  0.578749  0.393116  1
  Yb  Yb2  1  0.669320  0.863153  0.885076  1
  Yb  Yb3  1  0.330680  0.136847  0.114924  1
  Yb  Yb4  1  0.661303  0.636051  0.196955  1
  Yb  Yb5  1  0.338697  0.363949  0.803045  1
  Al  Al6  1  0.904715  0.313934  0.968318  1
  Al  Al7  1  0.095285  0.686066  0.031682  1
  Al  Al8  1  0.707485  0.949892  0.569069  1
  Al  Al9  1  0.292515  0.050108  0.430931  1
  Al  Al10  1  0.130474  0.874003  0.711505  1
  Al  Al11  1  0.869526  0.125997  0.288495  1
  N  N12  1  0.968507  0.101193  0.787619  1
  N  N13  1  0.031493  0.898807  0.212381  1
  N  N14  1  0.841763  0.705009  0.512280  1
  N  N15  1  0.158237  0.294991  0.487720  1
  N  N16  1  0.761524  0.524197  0.894863  1
  N  N17  1  0.238476  0.475803  0.105137  1
  N  N18  1  0.391721  0.934629  0.615940  1
  N  N19  1  0.608279  0.065371  0.384060  1
  N  N20  1  0.264470  0.772033  0.893711  1
  N  N21  1  0.735530  0.227967  0.106289  1
