# generated using pymatgen
data_K(Sn3Ir2)2
_symmetry_space_group_name_H-M   'P 1'
_cell_length_a   7.00554499
_cell_length_b   7.00554461
_cell_length_c   7.00554403
_cell_angle_alpha   119.14463117
_cell_angle_beta   119.14463458
_cell_angle_gamma   91.48803712
_symmetry_Int_Tables_number   1
_chemical_formula_structural   K(Sn3Ir2)2
_chemical_formula_sum   'K1 Sn6 Ir4'
_cell_volume   246.16775582
_cell_formula_units_Z   1
loop_
 _symmetry_equiv_pos_site_id
 _symmetry_equiv_pos_as_xyz
  1  'x, y, z'
loop_
 _atom_site_type_symbol
 _atom_site_label
 _atom_site_symmetry_multiplicity
 _atom_site_fract_x
 _atom_site_fract_y
 _atom_site_fract_z
 _atom_site_occupancy
  K  K0  1  0.000000  0.000000  0.000000  1
  Sn  Sn1  1  0.469592  0.121944  0.000000  1
  Sn  Sn2  1  0.121944  0.469592  0.000000  1
  Sn  Sn3  1  0.878056  0.878056  0.347649  1
  Sn  Sn4  1  0.530408  0.530408  0.652351  1
  Sn  Sn5  1  0.000000  0.500000  0.500000  1
  Sn  Sn6  1  0.500000  0.000000  0.500000  1
  Ir  Ir7  1  0.410866  0.752482  0.000000  1
  Ir  Ir8  1  0.752482  0.410866  0.000000  1
  Ir  Ir9  1  0.247518  0.247518  0.658383  1
  Ir  Ir10  1  0.589134  0.589134  0.341617  1
