# generated using pymatgen
data_Tb5Dy14Y(Cd3Fe)2
_symmetry_space_group_name_H-M   'P 1'
_cell_length_a   9.55988205
_cell_length_b   9.55815161
_cell_length_c   9.85005400
_cell_angle_alpha   90.00000000
_cell_angle_beta   90.00000000
_cell_angle_gamma   119.99401397
_symmetry_Int_Tables_number   1
_chemical_formula_structural   Tb5Dy14Y(Cd3Fe)2
_chemical_formula_sum   'Tb5 Dy14 Y1 Cd6 Fe2'
_cell_volume   779.51034913
_cell_formula_units_Z   1
loop_
 _symmetry_equiv_pos_site_id
 _symmetry_equiv_pos_as_xyz
  1  'x, y, z'
loop_
 _atom_site_type_symbol
 _atom_site_label
 _atom_site_symmetry_multiplicity
 _atom_site_fract_x
 _atom_site_fract_y
 _atom_site_fract_z
 _atom_site_occupancy
  Tb  Tb0  1  0.540886  0.459212  0.250000  1
  Tb  Tb1  1  0.540886  0.081674  0.250000  1
  Tb  Tb2  1  0.918140  0.459070  0.250000  1
  Tb  Tb3  1  0.459190  0.540800  0.750000  1
  Tb  Tb4  1  0.459190  0.918388  0.750000  1
  Dy  Dy5  1  0.999772  0.999886  0.500096  1
  Dy  Dy6  1  0.999772  0.999886  0.999904  1
  Dy  Dy7  1  0.212084  0.788042  0.436474  1
  Dy  Dy8  1  0.212084  0.424043  0.436474  1
  Dy  Dy9  1  0.575803  0.787902  0.436735  1
  Dy  Dy10  1  0.787920  0.212034  0.563406  1
  Dy  Dy11  1  0.787920  0.575884  0.563406  1
  Dy  Dy12  1  0.424061  0.212030  0.563530  1
  Dy  Dy13  1  0.787920  0.212034  0.936594  1
  Dy  Dy14  1  0.787920  0.575884  0.936594  1
  Dy  Dy15  1  0.424061  0.212030  0.936470  1
  Dy  Dy16  1  0.212084  0.788042  0.063526  1
  Dy  Dy17  1  0.212084  0.424043  0.063526  1
  Dy  Dy18  1  0.575803  0.787902  0.063265  1
  Y  Y19  1  0.081885  0.540942  0.750000  1
  Cd  Cd20  1  0.886205  0.114066  0.250000  1
  Cd  Cd21  1  0.886205  0.772140  0.250000  1
  Cd  Cd22  1  0.227874  0.113937  0.250000  1
  Cd  Cd23  1  0.114037  0.886035  0.750000  1
  Cd  Cd24  1  0.114037  0.228001  0.750000  1
  Cd  Cd25  1  0.772015  0.886007  0.750000  1
  Fe  Fe26  1  0.333600  0.666801  0.250000  1
  Fe  Fe27  1  0.666566  0.333283  0.750000  1
