# generated using pymatgen
data_Os2NCl7
_symmetry_space_group_name_H-M   'P 1'
_cell_length_a   9.31951654
_cell_length_b   10.35521016
_cell_length_c   13.77528798
_cell_angle_alpha   100.74783990
_cell_angle_beta   105.90170414
_cell_angle_gamma   104.96542871
_symmetry_Int_Tables_number   1
_chemical_formula_structural   Os2NCl7
_chemical_formula_sum   'Os8 N4 Cl28'
_cell_volume   1186.87075456
_cell_formula_units_Z   4
loop_
 _symmetry_equiv_pos_site_id
 _symmetry_equiv_pos_as_xyz
  1  'x, y, z'
loop_
 _atom_site_type_symbol
 _atom_site_label
 _atom_site_symmetry_multiplicity
 _atom_site_fract_x
 _atom_site_fract_y
 _atom_site_fract_z
 _atom_site_occupancy
  Os  Os0  1  0.042927  0.925682  0.729312  1
  Os  Os1  1  0.957073  0.074318  0.270688  1
  Os  Os2  1  0.861663  0.584426  0.676709  1
  Os  Os3  1  0.138337  0.415574  0.323291  1
  Os  Os4  1  0.633689  0.423957  0.815427  1
  Os  Os5  1  0.366311  0.576043  0.184573  1
  Os  Os6  1  0.444714  0.085669  0.764742  1
  Os  Os7  1  0.555286  0.914331  0.235258  1
  N  N8  1  0.243908  0.007035  0.747945  1
  N  N9  1  0.756092  0.992965  0.252055  1
  N  N10  1  0.746955  0.503265  0.745306  1
  N  N11  1  0.253045  0.496735  0.254694  1
  Cl  Cl12  1  0.948369  0.041843  0.616031  1
  Cl  Cl13  1  0.051631  0.958157  0.383969  1
  Cl  Cl14  1  0.036435  0.066839  0.875320  1
  Cl  Cl15  1  0.963565  0.933161  0.124680  1
  Cl  Cl16  1  0.019671  0.730865  0.590104  1
  Cl  Cl17  1  0.980329  0.269135  0.409896  1
  Cl  Cl18  1  0.075997  0.755958  0.829392  1
  Cl  Cl19  1  0.924003  0.244042  0.170608  1
  Cl  Cl20  1  0.759853  0.778199  0.688666  1
  Cl  Cl21  1  0.240147  0.221801  0.311334  1
  Cl  Cl22  1  0.014896  0.444416  0.679656  1
  Cl  Cl23  1  0.985104  0.555584  0.320344  1
  Cl  Cl24  1  0.684761  0.466314  0.513928  1
  Cl  Cl25  1  0.315239  0.533686  0.486072  1
  Cl  Cl26  1  0.488299  0.570370  0.818377  1
  Cl  Cl27  1  0.511701  0.429630  0.181623  1
  Cl  Cl28  1  0.818624  0.537353  0.976477  1
  Cl  Cl29  1  0.181376  0.462647  0.023523  1
  Cl  Cl30  1  0.727478  0.225870  0.799085  1
  Cl  Cl31  1  0.272522  0.774130  0.200915  1
  Cl  Cl32  1  0.412195  0.255898  0.664904  1
  Cl  Cl33  1  0.587805  0.744102  0.335096  1
  Cl  Cl34  1  0.476863  0.282691  0.905026  1
  Cl  Cl35  1  0.523137  0.717309  0.094974  1
  Cl  Cl36  1  0.444559  0.940702  0.618055  1
  Cl  Cl37  1  0.555441  0.059298  0.381945  1
  Cl  Cl38  1  0.538716  0.969853  0.878635  1
  Cl  Cl39  1  0.461284  0.030147  0.121365  1
