# generated using pymatgen
data_YLu(Zr4Sn3)2
_symmetry_space_group_name_H-M   'P 1'
_cell_length_a   8.67267958
_cell_length_b   8.67267795
_cell_length_c   5.89031500
_cell_angle_alpha   90.00000000
_cell_angle_beta   90.00000000
_cell_angle_gamma   121.00438240
_symmetry_Int_Tables_number   1
_chemical_formula_structural   YLu(Zr4Sn3)2
_chemical_formula_sum   'Y1 Lu1 Zr8 Sn6'
_cell_volume   379.74378551
_cell_formula_units_Z   1
loop_
 _symmetry_equiv_pos_site_id
 _symmetry_equiv_pos_as_xyz
  1  'x, y, z'
loop_
 _atom_site_type_symbol
 _atom_site_label
 _atom_site_symmetry_multiplicity
 _atom_site_fract_x
 _atom_site_fract_y
 _atom_site_fract_z
 _atom_site_occupancy
  Y  Y0  1  0.231605  0.231605  0.750000  1
  Lu  Lu1  1  0.767243  0.767243  0.250000  1
  Zr  Zr2  1  0.000697  0.252790  0.250000  1
  Zr  Zr3  1  0.748010  0.999002  0.750000  1
  Zr  Zr4  1  0.333423  0.666266  0.499952  1
  Zr  Zr5  1  0.252790  0.000697  0.250000  1
  Zr  Zr6  1  0.666266  0.333423  0.499952  1
  Zr  Zr7  1  0.999002  0.748010  0.750000  1
  Zr  Zr8  1  0.333423  0.666266  0.000048  1
  Zr  Zr9  1  0.666266  0.333423  0.000048  1
  Sn  Sn10  1  0.609751  0.609751  0.750000  1
  Sn  Sn11  1  0.392915  0.996508  0.750000  1
  Sn  Sn12  1  0.608362  0.002292  0.250000  1
  Sn  Sn13  1  0.996508  0.392915  0.750000  1
  Sn  Sn14  1  0.391447  0.391447  0.250000  1
  Sn  Sn15  1  0.002292  0.608362  0.250000  1
