# generated using pymatgen
data_Dy3Y3P13Rh20
_symmetry_space_group_name_H-M   'P 1'
_cell_length_a   13.34577300
_cell_length_b   13.34577236
_cell_length_c   3.92795700
_cell_angle_alpha   90.00000000
_cell_angle_beta   90.00000000
_cell_angle_gamma   119.99999911
_symmetry_Int_Tables_number   1
_chemical_formula_structural   Dy3Y3P13Rh20
_chemical_formula_sum   'Dy3 Y3 P13 Rh20'
_cell_volume   605.87747497
_cell_formula_units_Z   1
loop_
 _symmetry_equiv_pos_site_id
 _symmetry_equiv_pos_as_xyz
  1  'x, y, z'
loop_
 _atom_site_type_symbol
 _atom_site_label
 _atom_site_symmetry_multiplicity
 _atom_site_fract_x
 _atom_site_fract_y
 _atom_site_fract_z
 _atom_site_occupancy
  Dy  Dy0  1  0.470450  0.282730  0.751815  1
  Dy  Dy1  1  0.717270  0.187721  0.751815  1
  Dy  Dy2  1  0.812279  0.529550  0.751815  1
  Y  Y3  1  0.529491  0.717185  0.248218  1
  Y  Y4  1  0.282815  0.812306  0.248218  1
  Y  Y5  1  0.187694  0.470509  0.248218  1
  P  P6  1  0.526039  0.139316  0.250359  1
  P  P7  1  0.860684  0.386724  0.250359  1
  P  P8  1  0.613276  0.473961  0.250359  1
  P  P9  1  0.945357  0.714804  0.254649  1
  P  P10  1  0.285196  0.230552  0.254649  1
  P  P11  1  0.769448  0.054643  0.254649  1
  P  P12  1  0.386682  0.525984  0.749633  1
  P  P13  1  0.474016  0.860698  0.749633  1
  P  P14  1  0.139302  0.613318  0.749633  1
  P  P15  1  0.714957  0.769582  0.745376  1
  P  P16  1  0.230418  0.945376  0.745376  1
  P  P17  1  0.054624  0.285043  0.745376  1
  P  P18  1  0.000000  0.000000  0.000111  1
  Rh  Rh19  1  0.333333  0.666667  0.751942  1
  Rh  Rh20  1  0.920942  0.250072  0.254377  1
  Rh  Rh21  1  0.749928  0.670870  0.254377  1
  Rh  Rh22  1  0.329130  0.079058  0.254377  1
  Rh  Rh23  1  0.438861  0.023017  0.751569  1
  Rh  Rh24  1  0.976983  0.415845  0.751569  1
  Rh  Rh25  1  0.584155  0.561139  0.751569  1
  Rh  Rh26  1  0.666667  0.333333  0.247990  1
  Rh  Rh27  1  0.094188  0.186820  0.246826  1
  Rh  Rh28  1  0.813180  0.907368  0.246826  1
  Rh  Rh29  1  0.092632  0.905812  0.246826  1
  Rh  Rh30  1  0.022638  0.584028  0.248402  1
  Rh  Rh31  1  0.415972  0.438610  0.248402  1
  Rh  Rh32  1  0.561390  0.977362  0.248402  1
  Rh  Rh33  1  0.670992  0.921221  0.745611  1
  Rh  Rh34  1  0.078779  0.749771  0.745611  1
  Rh  Rh35  1  0.250229  0.329008  0.745611  1
  Rh  Rh36  1  0.905758  0.813067  0.753151  1
  Rh  Rh37  1  0.186933  0.092690  0.753151  1
  Rh  Rh38  1  0.907310  0.094242  0.753151  1
