# generated using pymatgen
data_Nd2Er3TmTa2O14
_symmetry_space_group_name_H-M   'P 1'
_cell_length_a   6.46993237
_cell_length_b   6.46371390
_cell_length_c   7.56812900
_cell_angle_alpha   90.00000000
_cell_angle_beta   90.00000000
_cell_angle_gamma   109.24833287
_symmetry_Int_Tables_number   1
_chemical_formula_structural   Nd2Er3TmTa2O14
_chemical_formula_sum   'Nd2 Er3 Tm1 Ta2 O14'
_cell_volume   298.80492575
_cell_formula_units_Z   1
loop_
 _symmetry_equiv_pos_site_id
 _symmetry_equiv_pos_as_xyz
  1  'x, y, z'
loop_
 _atom_site_type_symbol
 _atom_site_label
 _atom_site_symmetry_multiplicity
 _atom_site_fract_x
 _atom_site_fract_y
 _atom_site_fract_z
 _atom_site_occupancy
  Nd  Nd0  1  0.503665  0.502720  0.499621  1
  Nd  Nd1  1  0.503665  0.502720  0.000379  1
  Er  Er2  1  0.998815  0.467323  0.750000  1
  Er  Er3  1  0.533193  0.001504  0.750000  1
  Er  Er4  1  0.466410  0.998876  0.250000  1
  Tm  Tm5  1  0.002181  0.533300  0.250000  1
  Ta  Ta6  1  0.000343  0.000935  0.499373  1
  Ta  Ta7  1  0.000343  0.000935  0.000627  1
  O  O8  1  0.933901  0.066867  0.750000  1
  O  O9  1  0.066422  0.932002  0.250000  1
  O  O10  1  0.355386  0.643730  0.250000  1
  O  O11  1  0.644194  0.355701  0.750000  1
  O  O12  1  0.362597  0.637188  0.750000  1
  O  O13  1  0.640668  0.362855  0.250000  1
  O  O14  1  0.320805  0.068455  0.966407  1
  O  O15  1  0.677509  0.929736  0.466835  1
  O  O16  1  0.320805  0.068455  0.533593  1
  O  O17  1  0.677509  0.929736  0.033165  1
  O  O18  1  0.066434  0.320539  0.464671  1
  O  O19  1  0.929362  0.677943  0.967173  1
  O  O20  1  0.929362  0.677943  0.532827  1
  O  O21  1  0.066434  0.320539  0.035329  1
