# generated using pymatgen
data_Ta4VB2P
_symmetry_space_group_name_H-M   'P 1'
_cell_length_a   6.07701922
_cell_length_b   6.07701891
_cell_length_c   7.16291401
_cell_angle_alpha   115.10006053
_cell_angle_beta   115.10006160
_cell_angle_gamma   89.99998922
_symmetry_Int_Tables_number   1
_chemical_formula_structural   Ta4VB2P
_chemical_formula_sum   'Ta8 V2 B4 P2'
_cell_volume   211.63992854
_cell_formula_units_Z   2
loop_
 _symmetry_equiv_pos_site_id
 _symmetry_equiv_pos_as_xyz
  1  'x, y, z'
loop_
 _atom_site_type_symbol
 _atom_site_label
 _atom_site_symmetry_multiplicity
 _atom_site_fract_x
 _atom_site_fract_y
 _atom_site_fract_z
 _atom_site_occupancy
  Ta  Ta0  1  0.031241  0.531241  0.723490  1
  Ta  Ta1  1  0.692248  0.192248  0.723490  1
  Ta  Ta2  1  0.192248  0.031241  0.723490  1
  Ta  Ta3  1  0.531241  0.692248  0.723490  1
  Ta  Ta4  1  0.968759  0.468759  0.276510  1
  Ta  Ta5  1  0.307752  0.807752  0.276510  1
  Ta  Ta6  1  0.807752  0.968759  0.276510  1
  Ta  Ta7  1  0.468759  0.307752  0.276510  1
  V  V8  1  0.500000  0.500000  0.000000  1
  V  V9  1  0.000000  0.000000  0.000000  1
  B  B10  1  0.379892  0.879892  0.000000  1
  B  B11  1  0.620108  0.120108  0.000000  1
  B  B12  1  0.120108  0.379892  0.000000  1
  B  B13  1  0.879892  0.620108  0.000000  1
  P  P14  1  0.250000  0.250000  0.500000  1
  P  P15  1  0.750000  0.750000  0.500000  1
