# generated using pymatgen
data_PrY(Ga3Pd)2
_symmetry_space_group_name_H-M   'P 1'
_cell_length_a   6.08973661
_cell_length_b   6.08973620
_cell_length_c   5.85825300
_cell_angle_alpha   90.00000000
_cell_angle_beta   90.00000000
_cell_angle_gamma   116.54199718
_symmetry_Int_Tables_number   1
_chemical_formula_structural   PrY(Ga3Pd)2
_chemical_formula_sum   'Pr1 Y1 Ga6 Pd2'
_cell_volume   194.35576862
_cell_formula_units_Z   1
loop_
 _symmetry_equiv_pos_site_id
 _symmetry_equiv_pos_as_xyz
  1  'x, y, z'
loop_
 _atom_site_type_symbol
 _atom_site_label
 _atom_site_symmetry_multiplicity
 _atom_site_fract_x
 _atom_site_fract_y
 _atom_site_fract_z
 _atom_site_occupancy
  Pr  Pr0  1  0.235204  0.764796  0.750000  1
  Y  Y1  1  0.766879  0.233121  0.250000  1
  Ga  Ga2  1  0.665485  0.334515  0.750000  1
  Ga  Ga3  1  0.334921  0.665079  0.250000  1
  Ga  Ga4  1  0.716786  0.717100  0.000739  1
  Ga  Ga5  1  0.716786  0.717100  0.499261  1
  Ga  Ga6  1  0.282900  0.283214  0.000739  1
  Ga  Ga7  1  0.282900  0.283214  0.499261  1
  Pd  Pd8  1  0.901999  0.098001  0.750000  1
  Pd  Pd9  1  0.096137  0.903863  0.250000  1
