# generated using pymatgen
data_YPaSn5Rh3
_symmetry_space_group_name_H-M   'P 1'
_cell_length_a   13.50123135
_cell_length_b   13.50123221
_cell_length_c   7.27234342
_cell_angle_alpha   90.78324960
_cell_angle_beta   89.21675137
_cell_angle_gamma   161.08206546
_symmetry_Int_Tables_number   1
_chemical_formula_structural   YPaSn5Rh3
_chemical_formula_sum   'Y2 Pa2 Sn10 Rh6'
_cell_volume   429.74477995
_cell_formula_units_Z   2
loop_
 _symmetry_equiv_pos_site_id
 _symmetry_equiv_pos_as_xyz
  1  'x, y, z'
loop_
 _atom_site_type_symbol
 _atom_site_label
 _atom_site_symmetry_multiplicity
 _atom_site_fract_x
 _atom_site_fract_y
 _atom_site_fract_z
 _atom_site_occupancy
  Y  Y0  1  0.524630  0.475370  0.734383  1
  Y  Y1  1  0.828012  0.171988  0.756039  1
  Pa  Pa2  1  0.475723  0.524277  0.233547  1
  Pa  Pa3  1  0.168710  0.831290  0.265344  1
  Sn  Sn4  1  0.705842  0.294158  0.550681  1
  Sn  Sn5  1  0.596781  0.403219  0.103264  1
  Sn  Sn6  1  0.048058  0.951942  0.401404  1
  Sn  Sn7  1  0.952990  0.047010  0.892074  1
  Sn  Sn8  1  0.709316  0.290684  0.980736  1
  Sn  Sn9  1  0.290287  0.709713  0.479144  1
  Sn  Sn10  1  0.295478  0.704522  0.047190  1
  Sn  Sn11  1  0.878711  0.121289  0.232825  1
  Sn  Sn12  1  0.119875  0.880125  0.734949  1
  Sn  Sn13  1  0.402772  0.597228  0.615951  1
  Rh  Rh14  1  0.398282  0.601718  0.997405  1
  Rh  Rh15  1  0.776500  0.223500  0.266765  1
  Rh  Rh16  1  0.222334  0.777666  0.766394  1
  Rh  Rh17  1  0.048723  0.951277  0.022176  1
  Rh  Rh18  1  0.607567  0.392433  0.475140  1
  Rh  Rh19  1  0.949411  0.050589  0.508389  1
