# generated using pymatgen
data_Tb7Ho9In4NiRh3
_symmetry_space_group_name_H-M   'P 1'
_cell_length_a   9.63557512
_cell_length_b   9.63499571
_cell_length_c   9.64215082
_cell_angle_alpha   60.14576660
_cell_angle_beta   60.28597615
_cell_angle_gamma   60.18873926
_symmetry_Int_Tables_number   1
_chemical_formula_structural   Tb7Ho9In4NiRh3
_chemical_formula_sum   'Tb7 Ho9 In4 Ni1 Rh3'
_cell_volume   635.93956660
_cell_formula_units_Z   1
loop_
 _symmetry_equiv_pos_site_id
 _symmetry_equiv_pos_as_xyz
  1  'x, y, z'
loop_
 _atom_site_type_symbol
 _atom_site_label
 _atom_site_symmetry_multiplicity
 _atom_site_fract_x
 _atom_site_fract_y
 _atom_site_fract_z
 _atom_site_occupancy
  Tb  Tb0  1  0.048410  0.647196  0.651229  1
  Tb  Tb1  1  0.439283  0.061257  0.060558  1
  Tb  Tb2  1  0.436917  0.061458  0.437264  1
  Tb  Tb3  1  0.062720  0.437374  0.062674  1
  Tb  Tb4  1  0.651244  0.647531  0.048432  1
  Tb  Tb5  1  0.188896  0.811933  0.188918  1
  Tb  Tb6  1  0.063083  0.436759  0.435235  1
  Ho  Ho7  1  0.809285  0.811865  0.190398  1
  Ho  Ho8  1  0.810835  0.191589  0.810846  1
  Ho  Ho9  1  0.188111  0.190432  0.810707  1
  Ho  Ho10  1  0.648404  0.050182  0.648967  1
  Ho  Ho11  1  0.059022  0.059553  0.440028  1
  Ho  Ho12  1  0.437184  0.438781  0.060765  1
  Ho  Ho13  1  0.653880  0.650486  0.653122  1
  Ho  Ho14  1  0.810189  0.190554  0.188299  1
  Ho  Ho15  1  0.190501  0.811673  0.809012  1
  In  In16  1  0.417246  0.417420  0.416985  1
  In  In17  1  0.419030  0.417900  0.747623  1
  In  In18  1  0.417760  0.746332  0.418740  1
  In  In19  1  0.747085  0.417162  0.419359  1
  Ni  Ni20  1  0.858865  0.423926  0.859839  1
  Rh  Rh21  1  0.857995  0.859754  0.857073  1
  Rh  Rh22  1  0.857214  0.860107  0.426787  1
  Rh  Rh23  1  0.426840  0.858774  0.857140  1
