# generated using pymatgen
data_Li4Pr3DySb4
_symmetry_space_group_name_H-M   'P 1'
_cell_length_a   4.68151700
_cell_length_b   7.53744300
_cell_length_c   8.34837300
_cell_angle_alpha   90.00041808
_cell_angle_beta   90.00000000
_cell_angle_gamma   90.00000000
_symmetry_Int_Tables_number   1
_chemical_formula_structural   Li4Pr3DySb4
_chemical_formula_sum   'Li4 Pr3 Dy1 Sb4'
_cell_volume   294.58626256
_cell_formula_units_Z   1
loop_
 _symmetry_equiv_pos_site_id
 _symmetry_equiv_pos_as_xyz
  1  'x, y, z'
loop_
 _atom_site_type_symbol
 _atom_site_label
 _atom_site_symmetry_multiplicity
 _atom_site_fract_x
 _atom_site_fract_y
 _atom_site_fract_z
 _atom_site_occupancy
  Li  Li0  1  0.250000  0.820610  0.923436  1
  Li  Li1  1  0.750000  0.179056  0.079707  1
  Li  Li2  1  0.750000  0.682623  0.420821  1
  Li  Li3  1  0.250000  0.317080  0.576872  1
  Pr  Pr4  1  0.250000  0.494405  0.213122  1
  Pr  Pr5  1  0.750000  0.506588  0.787624  1
  Pr  Pr6  1  0.750000  0.006208  0.714596  1
  Dy  Dy7  1  0.250000  0.992516  0.287380  1
  Sb  Sb8  1  0.250000  0.731994  0.583446  1
  Sb  Sb9  1  0.750000  0.262464  0.406362  1
  Sb  Sb10  1  0.750000  0.780100  0.095462  1
  Sb  Sb11  1  0.250000  0.226356  0.911176  1
