# generated using pymatgen
data_MgAl5(CuPd2)6
_symmetry_space_group_name_H-M   'P 1'
_cell_length_a   4.12422108
_cell_length_b   6.63190537
_cell_length_c   12.38022801
_cell_angle_alpha   90.00088541
_cell_angle_beta   90.00443492
_cell_angle_gamma   90.03022998
_symmetry_Int_Tables_number   1
_chemical_formula_structural   MgAl5(CuPd2)6
_chemical_formula_sum   'Mg1 Al5 Cu6 Pd12'
_cell_volume   338.61706398
_cell_formula_units_Z   1
loop_
 _symmetry_equiv_pos_site_id
 _symmetry_equiv_pos_as_xyz
  1  'x, y, z'
loop_
 _atom_site_type_symbol
 _atom_site_label
 _atom_site_symmetry_multiplicity
 _atom_site_fract_x
 _atom_site_fract_y
 _atom_site_fract_z
 _atom_site_occupancy
  Mg  Mg0  1  0.500149  0.000001  0.833325  1
  Al  Al1  1  0.999957  0.500002  0.002401  1
  Al  Al2  1  0.499783  0.000004  0.165086  1
  Al  Al3  1  0.999865  0.499994  0.333343  1
  Al  Al4  1  0.500033  0.999991  0.501548  1
  Al  Al5  1  0.000183  0.499998  0.664309  1
  Cu  Cu6  1  0.999995  0.000001  0.996726  1
  Cu  Cu7  1  0.499766  0.500001  0.171552  1
  Cu  Cu8  1  0.999898  0.000006  0.333307  1
  Cu  Cu9  1  0.500022  0.500001  0.495102  1
  Cu  Cu10  1  0.000180  0.999996  0.669959  1
  Cu  Cu11  1  0.500129  0.499996  0.833334  1
  Pd  Pd12  1  0.500012  0.257352  0.003973  1
  Pd  Pd13  1  0.499977  0.742650  0.003975  1
  Pd  Pd14  1  0.999873  0.247643  0.167791  1
  Pd  Pd15  1  0.999773  0.752359  0.167791  1
  Pd  Pd16  1  0.499807  0.246488  0.333338  1
  Pd  Pd17  1  0.499970  0.753515  0.333338  1
  Pd  Pd18  1  0.000109  0.247660  0.498883  1
  Pd  Pd19  1  0.000012  0.752344  0.498880  1
  Pd  Pd20  1  0.500132  0.257328  0.662677  1
  Pd  Pd21  1  0.500095  0.742669  0.662680  1
  Pd  Pd22  1  0.000352  0.264297  0.833341  1
  Pd  Pd23  1  0.999933  0.735703  0.833344  1
