# generated using pymatgen
data_Mn6In5SbRh12
_symmetry_space_group_name_H-M   'P 1'
_cell_length_a   4.47030200
_cell_length_b   6.27764700
_cell_length_c   13.40373300
_cell_angle_alpha   90.00000000
_cell_angle_beta   89.99910257
_cell_angle_gamma   90.00005301
_symmetry_Int_Tables_number   1
_chemical_formula_structural   Mn6In5SbRh12
_chemical_formula_sum   'Mn6 In5 Sb1 Rh12'
_cell_volume   376.14866346
_cell_formula_units_Z   1
loop_
 _symmetry_equiv_pos_site_id
 _symmetry_equiv_pos_as_xyz
  1  'x, y, z'
loop_
 _atom_site_type_symbol
 _atom_site_label
 _atom_site_symmetry_multiplicity
 _atom_site_fract_x
 _atom_site_fract_y
 _atom_site_fract_z
 _atom_site_occupancy
  Mn  Mn0  1  0.000000  0.500001  0.000000  1
  Mn  Mn1  1  0.499807  0.000000  0.170316  1
  Mn  Mn2  1  0.999845  0.500001  0.334054  1
  Mn  Mn3  1  0.500000  0.000000  0.500000  1
  Mn  Mn4  1  0.000155  0.500001  0.665946  1
  Mn  Mn5  1  0.500192  0.000000  0.829685  1
  In  In6  1  0.499758  0.500001  0.167645  1
  In  In7  1  0.999772  0.000000  0.334161  1
  In  In8  1  0.500000  0.500001  0.500000  1
  In  In9  1  0.000230  0.000000  0.665838  1
  In  In10  1  0.500242  0.500001  0.832355  1
  Sb  Sb11  1  0.000000  0.000000  0.000000  1
  Rh  Rh12  1  0.500000  0.243587  0.000000  1
  Rh  Rh13  1  0.500000  0.756412  0.000000  1
  Rh  Rh14  1  0.999783  0.246524  0.163247  1
  Rh  Rh15  1  0.999783  0.753476  0.163247  1
  Rh  Rh16  1  0.499789  0.249224  0.332753  1
  Rh  Rh17  1  0.499788  0.750776  0.332753  1
  Rh  Rh18  1  0.000000  0.250839  0.500000  1
  Rh  Rh19  1  0.000000  0.749161  0.500000  1
  Rh  Rh20  1  0.500214  0.249224  0.667247  1
  Rh  Rh21  1  0.500213  0.750776  0.667247  1
  Rh  Rh22  1  0.000217  0.246524  0.836752  1
  Rh  Rh23  1  0.000217  0.753476  0.836752  1
