# generated using pymatgen
data_Re7Si14Os
_symmetry_space_group_name_H-M   'P 1'
_cell_length_a   3.17769673
_cell_length_b   8.32610591
_cell_length_c   11.70965936
_cell_angle_alpha   92.69475908
_cell_angle_beta   97.79833267
_cell_angle_gamma   89.99999999
_symmetry_Int_Tables_number   1
_chemical_formula_structural   Re7Si14Os
_chemical_formula_sum   'Re7 Si14 Os1'
_cell_volume   306.60128029
_cell_formula_units_Z   1
loop_
 _symmetry_equiv_pos_site_id
 _symmetry_equiv_pos_as_xyz
  1  'x, y, z'
loop_
 _atom_site_type_symbol
 _atom_site_label
 _atom_site_symmetry_multiplicity
 _atom_site_fract_x
 _atom_site_fract_y
 _atom_site_fract_z
 _atom_site_occupancy
  Re  Re0  1  0.102013  0.149917  0.204026  1
  Re  Re1  1  0.724620  0.521941  0.449240  1
  Re  Re2  1  0.231132  0.030610  0.462264  1
  Re  Re3  1  0.347526  0.890463  0.695053  1
  Re  Re4  1  0.850381  0.411426  0.700763  1
  Re  Re5  1  0.976424  0.284586  0.952850  1
  Re  Re6  1  0.477585  0.775210  0.955170  1
  Si  Si7  1  0.004502  0.998758  0.009003  1
  Si  Si8  1  0.019013  0.577299  0.038024  1
  Si  Si9  1  0.558066  0.343629  0.116132  1
  Si  Si10  1  0.585869  0.919148  0.171737  1
  Si  Si11  1  0.144550  0.438337  0.289100  1
  Si  Si12  1  0.173635  0.765356  0.347269  1
  Si  Si13  1  0.683933  0.212979  0.367867  1
  Si  Si14  1  0.764771  0.816464  0.529543  1
  Si  Si15  1  0.269848  0.314869  0.539697  1
  Si  Si16  1  0.309612  0.606154  0.619225  1
  Si  Si17  1  0.817363  0.111184  0.634726  1
  Si  Si18  1  0.895051  0.705970  0.790102  1
  Si  Si19  1  0.422065  0.102483  0.844129  1
  Si  Si20  1  0.432168  0.476568  0.864336  1
  Os  Os21  1  0.602002  0.633254  0.204003  1
