# generated using pymatgen
data_Tb3(In2Ir)2
_symmetry_space_group_name_H-M   'P 1'
_cell_length_a   7.78271800
_cell_length_b   7.78272030
_cell_length_c   3.96452800
_cell_angle_alpha   90.00000000
_cell_angle_beta   90.00000000
_cell_angle_gamma   120.00000722
_symmetry_Int_Tables_number   1
_chemical_formula_structural   Tb3(In2Ir)2
_chemical_formula_sum   'Tb3 In4 Ir2'
_cell_volume   207.96239331
_cell_formula_units_Z   1
loop_
 _symmetry_equiv_pos_site_id
 _symmetry_equiv_pos_as_xyz
  1  'x, y, z'
loop_
 _atom_site_type_symbol
 _atom_site_label
 _atom_site_symmetry_multiplicity
 _atom_site_fract_x
 _atom_site_fract_y
 _atom_site_fract_z
 _atom_site_occupancy
  Tb  Tb0  1  0.414606  0.382245  0.000000  1
  Tb  Tb1  1  0.617755  0.032361  0.000000  1
  Tb  Tb2  1  0.967639  0.585394  0.000000  1
  In  In3  1  0.997078  0.252105  0.500000  1
  In  In4  1  0.747895  0.744973  0.500000  1
  In  In5  1  0.255027  0.002922  0.500000  1
  In  In6  1  0.333333  0.666667  0.500000  1
  Ir  Ir7  1  0.000000  0.000000  0.000000  1
  Ir  Ir8  1  0.666667  0.333333  0.500000  1
