# generated using pymatgen
data_PaCo3Sn
_symmetry_space_group_name_H-M   'P 1'
_cell_length_a   5.29621100
_cell_length_b   7.14732500
_cell_length_c   8.25192000
_cell_angle_alpha   90.00000000
_cell_angle_beta   90.00000000
_cell_angle_gamma   90.00000000
_symmetry_Int_Tables_number   1
_chemical_formula_structural   PaCo3Sn
_chemical_formula_sum   'Pa4 Co12 Sn4'
_cell_volume   312.36604479
_cell_formula_units_Z   4
loop_
 _symmetry_equiv_pos_site_id
 _symmetry_equiv_pos_as_xyz
  1  'x, y, z'
loop_
 _atom_site_type_symbol
 _atom_site_label
 _atom_site_symmetry_multiplicity
 _atom_site_fract_x
 _atom_site_fract_y
 _atom_site_fract_z
 _atom_site_occupancy
  Pa  Pa0  1  0.750000  0.888847  0.845926  1
  Pa  Pa1  1  0.750000  0.388847  0.654074  1
  Pa  Pa2  1  0.250000  0.111153  0.154074  1
  Pa  Pa3  1  0.250000  0.611153  0.345926  1
  Co  Co4  1  0.750000  0.571810  0.390330  1
  Co  Co5  1  0.750000  0.071810  0.109670  1
  Co  Co6  1  0.250000  0.428190  0.609670  1
  Co  Co7  1  0.250000  0.928190  0.890330  1
  Co  Co8  1  0.000994  0.261596  0.378156  1
  Co  Co9  1  0.499006  0.761596  0.121844  1
  Co  Co10  1  0.500994  0.738404  0.621844  1
  Co  Co11  1  0.999006  0.238404  0.878156  1
  Co  Co12  1  0.999006  0.738404  0.621844  1
  Co  Co13  1  0.500994  0.238404  0.878156  1
  Co  Co14  1  0.499006  0.261596  0.378156  1
  Co  Co15  1  0.000994  0.761596  0.121844  1
  Sn  Sn16  1  0.750000  0.933835  0.395026  1
  Sn  Sn17  1  0.750000  0.433835  0.104974  1
  Sn  Sn18  1  0.250000  0.066165  0.604974  1
  Sn  Sn19  1  0.250000  0.566165  0.895026  1
