# generated using pymatgen
data_Cs6DyTe4I
_symmetry_space_group_name_H-M   'P 1'
_cell_length_a   12.42203600
_cell_length_b   12.42203486
_cell_length_c   9.31012400
_cell_angle_alpha   90.00000000
_cell_angle_beta   90.00000000
_cell_angle_gamma   119.99999772
_symmetry_Int_Tables_number   1
_chemical_formula_structural   Cs6DyTe4I
_chemical_formula_sum   'Cs12 Dy2 Te8 I2'
_cell_volume   1244.14682067
_cell_formula_units_Z   2
loop_
 _symmetry_equiv_pos_site_id
 _symmetry_equiv_pos_as_xyz
  1  'x, y, z'
loop_
 _atom_site_type_symbol
 _atom_site_label
 _atom_site_symmetry_multiplicity
 _atom_site_fract_x
 _atom_site_fract_y
 _atom_site_fract_z
 _atom_site_occupancy
  Cs  Cs0  1  0.136675  0.863325  0.513752  1
  Cs  Cs1  1  0.726648  0.863325  0.513752  1
  Cs  Cs2  1  0.945334  0.472667  0.320498  1
  Cs  Cs3  1  0.527333  0.472667  0.320498  1
  Cs  Cs4  1  0.863325  0.726648  0.013752  1
  Cs  Cs5  1  0.273352  0.136675  0.013752  1
  Cs  Cs6  1  0.527333  0.054666  0.320498  1
  Cs  Cs7  1  0.136675  0.273352  0.513752  1
  Cs  Cs8  1  0.863325  0.136675  0.013752  1
  Cs  Cs9  1  0.054666  0.527333  0.820498  1
  Cs  Cs10  1  0.472667  0.945334  0.820498  1
  Cs  Cs11  1  0.472667  0.527333  0.820498  1
  Dy  Dy12  1  0.666667  0.333333  0.713063  1
  Dy  Dy13  1  0.333333  0.666667  0.213063  1
  Te  Te14  1  0.409219  0.204611  0.606765  1
  Te  Te15  1  0.590781  0.795389  0.106765  1
  Te  Te16  1  0.666667  0.333333  0.032997  1
  Te  Te17  1  0.795389  0.590781  0.606765  1
  Te  Te18  1  0.204611  0.409219  0.106765  1
  Te  Te19  1  0.333333  0.666667  0.532997  1
  Te  Te20  1  0.204611  0.795389  0.106765  1
  Te  Te21  1  0.795389  0.204611  0.606765  1
  I  I22  1  0.000000  0.000000  0.271496  1
  I  I23  1  0.000000  0.000000  0.771496  1
