# generated using pymatgen
data_Hf3As6WO24
_symmetry_space_group_name_H-M   'P 1'
_cell_length_a   9.49372527
_cell_length_b   9.49372627
_cell_length_c   9.49372615
_cell_angle_alpha   58.12743719
_cell_angle_beta   58.12743861
_cell_angle_gamma   58.12744656
_symmetry_Int_Tables_number   1
_chemical_formula_structural   Hf3As6WO24
_chemical_formula_sum   'Hf3 As6 W1 O24'
_cell_volume   579.08346610
_cell_formula_units_Z   1
loop_
 _symmetry_equiv_pos_site_id
 _symmetry_equiv_pos_as_xyz
  1  'x, y, z'
loop_
 _atom_site_type_symbol
 _atom_site_label
 _atom_site_symmetry_multiplicity
 _atom_site_fract_x
 _atom_site_fract_y
 _atom_site_fract_z
 _atom_site_occupancy
  Hf  Hf0  1  0.141276  0.141276  0.141276  1
  Hf  Hf1  1  0.359011  0.359011  0.359011  1
  Hf  Hf2  1  0.640384  0.640384  0.640384  1
  As  As3  1  0.033049  0.469162  0.745644  1
  As  As4  1  0.469162  0.745644  0.033049  1
  As  As5  1  0.745644  0.033049  0.469162  1
  As  As6  1  0.243845  0.971859  0.535325  1
  As  As7  1  0.535325  0.243845  0.971859  1
  As  As8  1  0.971859  0.535325  0.243845  1
  W  W9  1  0.856794  0.856794  0.856794  1
  O  O10  1  0.155109  0.515465  0.253833  1
  O  O11  1  0.253833  0.155109  0.515465  1
  O  O12  1  0.067531  0.287449  0.922827  1
  O  O13  1  0.515465  0.253833  0.155109  1
  O  O14  1  0.212121  0.460935  0.559442  1
  O  O15  1  0.994994  0.654068  0.779257  1
  O  O16  1  0.287449  0.922827  0.067531  1
  O  O17  1  0.460935  0.559442  0.212121  1
  O  O18  1  0.559442  0.212121  0.460935  1
  O  O19  1  0.214353  0.997425  0.362037  1
  O  O20  1  0.056005  0.936685  0.722207  1
  O  O21  1  0.362037  0.214353  0.997425  1
  O  O22  1  0.654068  0.779257  0.994994  1
  O  O23  1  0.922827  0.067531  0.287449  1
  O  O24  1  0.779257  0.994994  0.654068  1
  O  O25  1  0.416047  0.784736  0.575019  1
  O  O26  1  0.575019  0.416047  0.784736  1
  O  O27  1  0.722207  0.056005  0.936685  1
  O  O28  1  0.997425  0.362037  0.214353  1
  O  O29  1  0.784736  0.575019  0.416047  1
  O  O30  1  0.498075  0.724874  0.853154  1
  O  O31  1  0.936685  0.722207  0.056005  1
  O  O32  1  0.724874  0.853154  0.498075  1
  O  O33  1  0.853154  0.498075  0.724874  1
