# generated using pymatgen
data_Hf4Nb4Fe7Si14Ni
_symmetry_space_group_name_H-M   'P 1'
_cell_length_a   9.35115585
_cell_length_b   9.36521687
_cell_length_c   9.33672517
_cell_angle_alpha   94.29233576
_cell_angle_beta   94.18355997
_cell_angle_gamma   148.51001724
_symmetry_Int_Tables_number   1
_chemical_formula_structural   Hf4Nb4Fe7Si14Ni
_chemical_formula_sum   'Hf4 Nb4 Fe7 Si14 Ni1'
_cell_volume   410.96578918
_cell_formula_units_Z   1
loop_
 _symmetry_equiv_pos_site_id
 _symmetry_equiv_pos_as_xyz
  1  'x, y, z'
loop_
 _atom_site_type_symbol
 _atom_site_label
 _atom_site_symmetry_multiplicity
 _atom_site_fract_x
 _atom_site_fract_y
 _atom_site_fract_z
 _atom_site_occupancy
  Hf  Hf0  1  0.138062  0.138055  0.276116  1
  Hf  Hf1  1  0.862189  0.862134  0.724210  1
  Hf  Hf2  1  0.861558  0.136920  0.001190  1
  Hf  Hf3  1  0.139658  0.864335  0.001133  1
  Nb  Nb4  1  0.498006  0.689740  0.192403  1
  Nb  Nb5  1  0.499197  0.307333  0.807112  1
  Nb  Nb6  1  0.307896  0.499709  0.807144  1
  Nb  Nb7  1  0.694542  0.502769  0.192456  1
  Fe  Fe8  1  0.102102  0.602061  0.204371  1
  Fe  Fe9  1  0.102619  0.898967  0.502973  1
  Fe  Fe10  1  0.399944  0.603697  0.503024  1
  Fe  Fe11  1  0.597379  0.400111  0.496708  1
  Fe  Fe12  1  0.899770  0.097147  0.496771  1
  Fe  Fe13  1  0.899256  0.399255  0.799053  1
  Fe  Fe14  1  0.599532  0.099492  0.198554  1
  Si  Si15  1  0.291745  0.291682  0.583467  1
  Si  Si16  1  0.708013  0.707873  0.415862  1
  Si  Si17  1  0.713696  0.298579  0.001792  1
  Si  Si18  1  0.288116  0.703206  0.001758  1
  Si  Si19  1  0.999806  0.303642  0.303799  1
  Si  Si20  1  0.989522  0.688510  0.696133  1
  Si  Si21  1  0.706557  0.007639  0.696310  1
  Si  Si22  1  0.304034  0.000314  0.303769  1
  Si  Si23  1  0.501557  0.906269  0.406591  1
  Si  Si24  1  0.512272  0.110088  0.591077  1
  Si  Si25  1  0.078938  0.481154  0.591205  1
  Si  Si26  1  0.905167  0.500545  0.406608  1
  Si  Si27  1  0.741607  0.741542  0.000145  1
  Si  Si28  1  0.258570  0.258667  0.000198  1
  Ni  Ni29  1  0.398690  0.898563  0.798068  1
