# generated using pymatgen
data_Be5Co(SiW2)2
_symmetry_space_group_name_H-M   'P 1'
_cell_length_a   4.54020842
_cell_length_b   4.57301038
_cell_length_c   7.53046000
_cell_angle_alpha   90.00000000
_cell_angle_beta   90.00000000
_cell_angle_gamma   120.23925762
_symmetry_Int_Tables_number   1
_chemical_formula_structural   Be5Co(SiW2)2
_chemical_formula_sum   'Be5 Co1 Si2 W4'
_cell_volume   135.07594343
_cell_formula_units_Z   1
loop_
 _symmetry_equiv_pos_site_id
 _symmetry_equiv_pos_as_xyz
  1  'x, y, z'
loop_
 _atom_site_type_symbol
 _atom_site_label
 _atom_site_symmetry_multiplicity
 _atom_site_fract_x
 _atom_site_fract_y
 _atom_site_fract_z
 _atom_site_occupancy
  Be  Be0  1  0.824156  0.169592  0.250000  1
  Be  Be1  1  0.824156  0.654564  0.250000  1
  Be  Be2  1  0.346292  0.173146  0.250000  1
  Be  Be3  1  0.176322  0.822725  0.750000  1
  Be  Be4  1  0.176322  0.353597  0.750000  1
  Co  Co5  1  0.668735  0.834368  0.750000  1
  Si  Si6  1  0.998378  0.999188  0.503606  1
  Si  Si7  1  0.998378  0.999188  0.996394  1
  W  W8  1  0.323135  0.661569  0.435661  1
  W  W9  1  0.670495  0.335247  0.561514  1
  W  W10  1  0.670495  0.335247  0.938486  1
  W  W11  1  0.323135  0.661569  0.064339  1
