# generated using pymatgen
data_Tb11YIn8(GaO4)12
_symmetry_space_group_name_H-M   'P 1'
_cell_length_a   11.03282238
_cell_length_b   11.03237283
_cell_length_c   11.03236403
_cell_angle_alpha   109.47941080
_cell_angle_beta   109.46631799
_cell_angle_gamma   109.46636989
_symmetry_Int_Tables_number   1
_chemical_formula_structural   Tb11YIn8(GaO4)12
_chemical_formula_sum   'Tb11 Y1 In8 Ga12 O48'
_cell_volume   1033.73833523
_cell_formula_units_Z   1
loop_
 _symmetry_equiv_pos_site_id
 _symmetry_equiv_pos_as_xyz
  1  'x, y, z'
loop_
 _atom_site_type_symbol
 _atom_site_label
 _atom_site_symmetry_multiplicity
 _atom_site_fract_x
 _atom_site_fract_y
 _atom_site_fract_z
 _atom_site_occupancy
  Tb  Tb0  1  0.374987  0.749992  0.124987  1
  Tb  Tb1  1  0.250000  0.375001  0.125000  1
  Tb  Tb2  1  0.874991  0.624975  0.249937  1
  Tb  Tb3  1  0.374987  0.124995  0.250000  1
  Tb  Tb4  1  0.125014  0.250000  0.375006  1
  Tb  Tb5  1  0.750000  0.124999  0.375000  1
  Tb  Tb6  1  0.874990  0.750015  0.625052  1
  Tb  Tb7  1  0.250000  0.875001  0.625000  1
  Tb  Tb8  1  0.125014  0.375014  0.750009  1
  Tb  Tb9  1  0.625010  0.874948  0.749985  1
  Tb  Tb10  1  0.625010  0.250062  0.875025  1
  Y  Y11  1  0.750001  0.625000  0.874999  1
  In  In12  1  0.999988  0.999962  0.999989  1
  In  In13  1  0.499994  0.000000  0.999995  1
  In  In14  1  0.999987  0.500025  0.999997  1
  In  In15  1  0.500012  0.500004  0.999979  1
  In  In16  1  0.000006  0.999996  0.500003  1
  In  In17  1  0.500016  0.500011  0.500039  1
  In  In18  1  0.499996  0.999998  0.500001  1
  In  In19  1  0.000004  0.500009  0.500004  1
  Ga  Ga20  1  0.750000  0.874968  0.124969  1
  Ga  Ga21  1  0.874995  0.250006  0.124997  1
  Ga  Ga22  1  0.625000  0.374999  0.249996  1
  Ga  Ga23  1  0.124943  0.874961  0.249938  1
  Ga  Ga24  1  0.625002  0.750001  0.375007  1
  Ga  Ga25  1  0.250000  0.625004  0.375003  1
  Ga  Ga26  1  0.749999  0.375034  0.625034  1
  Ga  Ga27  1  0.375055  0.250060  0.625035  1
  Ga  Ga28  1  0.375056  0.624995  0.750019  1
  Ga  Ga29  1  0.874999  0.124994  0.749999  1
  Ga  Ga30  1  0.124946  0.749981  0.875008  1
  Ga  Ga31  1  0.250000  0.124994  0.874993  1
  O  O32  1  0.218331  0.129475  0.032946  1
  O  O33  1  0.314598  0.903461  0.032932  1
  O  O34  1  0.718351  0.685256  0.088489  1
  O  O35  1  0.870519  0.403454  0.088856  1
  O  O36  1  0.967021  0.685389  0.096468  1
  O  O37  1  0.629481  0.411145  0.096545  1
  O  O38  1  0.032925  0.218312  0.129464  1
  O  O39  1  0.596548  0.911140  0.129477  1
  O  O40  1  0.218331  0.588857  0.185386  1
  O  O41  1  0.467075  0.596539  0.185389  1
  O  O42  1  0.129496  0.032978  0.218355  1
  O  O43  1  0.588861  0.185390  0.218337  1
  O  O44  1  0.314599  0.911138  0.281667  1
  O  O45  1  0.467076  0.370536  0.281687  1
  O  O46  1  0.911139  0.281662  0.314611  1
  O  O47  1  0.903453  0.032930  0.314592  1
  O  O48  1  0.281669  0.467056  0.370526  1
  O  O49  1  0.588861  0.903472  0.370524  1
  O  O50  1  0.814584  0.532936  0.403504  1
  O  O51  1  0.088856  0.870505  0.403445  1
  O  O52  1  0.096524  0.629471  0.411133  1
  O  O53  1  0.814583  0.781648  0.411080  1
  O  O54  1  0.596547  0.185407  0.467071  1
  O  O55  1  0.370504  0.281644  0.467022  1
  O  O56  1  0.403475  0.814610  0.532947  1
  O  O57  1  0.629482  0.718337  0.532937  1
  O  O58  1  0.185403  0.218334  0.588862  1
  O  O59  1  0.903453  0.370523  0.588860  1
  O  O60  1  0.911140  0.129477  0.596529  1
  O  O61  1  0.185402  0.467068  0.596539  1
  O  O62  1  0.411145  0.096555  0.629496  1
  O  O63  1  0.718351  0.533094  0.629861  1
  O  O64  1  0.096525  0.967053  0.685391  1
  O  O65  1  0.088855  0.718351  0.685409  1
  O  O66  1  0.685416  0.088920  0.718352  1
  O  O67  1  0.532981  0.629448  0.718370  1
  O  O68  1  0.411145  0.814590  0.781648  1
  O  O69  1  0.870518  0.967064  0.781664  1
  O  O70  1  0.532982  0.403533  0.814611  1
  O  O71  1  0.781650  0.411512  0.814745  1
  O  O72  1  0.403475  0.088866  0.870528  1
  O  O73  1  0.967018  0.781630  0.870552  1
  O  O74  1  0.032924  0.314611  0.903460  1
  O  O75  1  0.370505  0.588859  0.903482  1
  O  O76  1  0.281669  0.314615  0.911144  1
  O  O77  1  0.129496  0.596519  0.911140  1
  O  O78  1  0.685418  0.096496  0.967066  1
  O  O79  1  0.781650  0.870135  0.966904  1
