# generated using pymatgen
data_Zr4PaMnBi3
_symmetry_space_group_name_H-M   'P 1'
_cell_length_a   5.96841270
_cell_length_b   9.06598755
_cell_length_c   9.06597726
_cell_angle_alpha   121.86766614
_cell_angle_beta   89.99360078
_cell_angle_gamma   89.99342139
_symmetry_Int_Tables_number   1
_chemical_formula_structural   Zr4PaMnBi3
_chemical_formula_sum   'Zr8 Pa2 Mn2 Bi6'
_cell_volume   416.61436588
_cell_formula_units_Z   2
loop_
 _symmetry_equiv_pos_site_id
 _symmetry_equiv_pos_as_xyz
  1  'x, y, z'
loop_
 _atom_site_type_symbol
 _atom_site_label
 _atom_site_symmetry_multiplicity
 _atom_site_fract_x
 _atom_site_fract_y
 _atom_site_fract_z
 _atom_site_occupancy
  Zr  Zr0  1  0.750019  0.993473  0.248592  1
  Zr  Zr1  1  0.249988  0.006574  0.751427  1
  Zr  Zr2  1  0.750019  0.248582  0.993471  1
  Zr  Zr3  1  0.249992  0.751418  0.006567  1
  Zr  Zr4  1  0.000003  0.662525  0.337508  1
  Zr  Zr5  1  0.000003  0.337509  0.662521  1
  Zr  Zr6  1  0.499999  0.337514  0.662518  1
  Zr  Zr7  1  0.499997  0.662521  0.337513  1
  Pa  Pa8  1  0.749971  0.785022  0.785020  1
  Pa  Pa9  1  0.250028  0.214880  0.214879  1
  Mn  Mn10  1  0.999950  0.999935  0.999939  1
  Mn  Mn11  1  0.500022  0.999968  0.999972  1
  Bi  Bi12  1  0.749996  0.391425  0.391423  1
  Bi  Bi13  1  0.250003  0.608592  0.608589  1
  Bi  Bi14  1  0.749989  0.005317  0.601966  1
  Bi  Bi15  1  0.250015  0.994724  0.398056  1
  Bi  Bi16  1  0.749989  0.601965  0.005316  1
  Bi  Bi17  1  0.250014  0.398057  0.994723  1
