# generated using pymatgen
data_DySi4(PtRh)3
_symmetry_space_group_name_H-M   'P 1'
_cell_length_a   7.10627900
_cell_length_b   7.10627863
_cell_length_c   3.81834900
_cell_angle_alpha   90.00000000
_cell_angle_beta   90.00000000
_cell_angle_gamma   119.99999707
_symmetry_Int_Tables_number   1
_chemical_formula_structural   DySi4(PtRh)3
_chemical_formula_sum   'Dy1 Si4 Pt3 Rh3'
_cell_volume   166.99011016
_cell_formula_units_Z   1
loop_
 _symmetry_equiv_pos_site_id
 _symmetry_equiv_pos_as_xyz
  1  'x, y, z'
loop_
 _atom_site_type_symbol
 _atom_site_label
 _atom_site_symmetry_multiplicity
 _atom_site_fract_x
 _atom_site_fract_y
 _atom_site_fract_z
 _atom_site_occupancy
  Dy  Dy0  1  0.000000  0.000000  0.000000  1
  Si  Si1  1  0.333333  0.666667  0.000000  1
  Si  Si2  1  0.799354  0.200646  0.500000  1
  Si  Si3  1  0.799354  0.598708  0.500000  1
  Si  Si4  1  0.401292  0.200646  0.500000  1
  Pt  Pt5  1  0.193514  0.806486  0.500000  1
  Pt  Pt6  1  0.193514  0.387028  0.500000  1
  Pt  Pt7  1  0.612972  0.806486  0.500000  1
  Rh  Rh8  1  0.533380  0.466620  0.000000  1
  Rh  Rh9  1  0.533380  0.066758  0.000000  1
  Rh  Rh10  1  0.933242  0.466620  0.000000  1
