# generated using pymatgen
data_Sr19CaSi11Ge
_symmetry_space_group_name_H-M   'P 1'
_cell_length_a   7.99090500
_cell_length_b   7.99090500
_cell_length_c   16.16133100
_cell_angle_alpha   90.00000000
_cell_angle_beta   90.00000000
_cell_angle_gamma   90.00000000
_symmetry_Int_Tables_number   1
_chemical_formula_structural   Sr19CaSi11Ge
_chemical_formula_sum   'Sr19 Ca1 Si11 Ge1'
_cell_volume   1031.97472396
_cell_formula_units_Z   1
loop_
 _symmetry_equiv_pos_site_id
 _symmetry_equiv_pos_as_xyz
  1  'x, y, z'
loop_
 _atom_site_type_symbol
 _atom_site_label
 _atom_site_symmetry_multiplicity
 _atom_site_fract_x
 _atom_site_fract_y
 _atom_site_fract_z
 _atom_site_occupancy
  Sr  Sr0  1  0.318193  0.677393  0.107771  1
  Sr  Sr1  1  0.177393  0.181807  0.107771  1
  Sr  Sr2  1  0.322595  0.682558  0.392849  1
  Sr  Sr3  1  0.674500  0.685721  0.888219  1
  Sr  Sr4  1  0.182558  0.177405  0.392849  1
  Sr  Sr5  1  0.677405  0.317442  0.392849  1
  Sr  Sr6  1  0.179810  0.818736  0.610931  1
  Sr  Sr7  1  0.325500  0.314279  0.888219  1
  Sr  Sr8  1  0.185721  0.825500  0.888219  1
  Sr  Sr9  1  0.500000  0.000000  0.244783  1
  Sr  Sr10  1  0.820190  0.181264  0.610931  1
  Sr  Sr11  1  0.318736  0.320190  0.610931  1
  Sr  Sr12  1  0.817442  0.822595  0.392849  1
  Sr  Sr13  1  0.814279  0.174500  0.888219  1
  Sr  Sr14  1  0.822607  0.818193  0.107771  1
  Sr  Sr15  1  0.000000  0.500000  0.255913  1
  Sr  Sr16  1  0.000000  0.500000  0.755109  1
  Sr  Sr17  1  0.681807  0.322607  0.107771  1
  Sr  Sr18  1  0.681264  0.679810  0.610931  1
  Ca  Ca19  1  0.500000  0.000000  0.744149  1
  Si  Si20  1  0.113661  0.106244  0.749436  1
  Si  Si21  1  0.393756  0.613661  0.749436  1
  Si  Si22  1  0.607754  0.607915  0.250326  1
  Si  Si23  1  0.500000  0.000000  0.002338  1
  Si  Si24  1  0.107915  0.892246  0.250326  1
  Si  Si25  1  0.606244  0.386339  0.749436  1
  Si  Si26  1  0.886339  0.893756  0.749436  1
  Si  Si27  1  0.392246  0.392085  0.250326  1
  Si  Si28  1  0.892085  0.107754  0.250326  1
  Si  Si29  1  0.500000  0.000000  0.502530  1
  Si  Si30  1  0.000000  0.500000  0.498546  1
  Ge  Ge31  1  0.000000  0.500000  0.998508  1
