# generated using pymatgen
data_Ho2Co7Cu2NiP6
_symmetry_space_group_name_H-M   'P 1'
_cell_length_a   3.69749400
_cell_length_b   10.25273000
_cell_length_c   11.88419000
_cell_angle_alpha   90.00000000
_cell_angle_beta   90.00000000
_cell_angle_gamma   90.00000000
_symmetry_Int_Tables_number   1
_chemical_formula_structural   Ho2Co7Cu2NiP6
_chemical_formula_sum   'Ho4 Co14 Cu4 Ni2 P12'
_cell_volume   450.52260340
_cell_formula_units_Z   2
loop_
 _symmetry_equiv_pos_site_id
 _symmetry_equiv_pos_as_xyz
  1  'x, y, z'
loop_
 _atom_site_type_symbol
 _atom_site_label
 _atom_site_symmetry_multiplicity
 _atom_site_fract_x
 _atom_site_fract_y
 _atom_site_fract_z
 _atom_site_occupancy
  Ho  Ho0  1  0.250000  0.578037  0.702979  1
  Ho  Ho1  1  0.250000  0.921963  0.202979  1
  Ho  Ho2  1  0.750000  0.421985  0.296502  1
  Ho  Ho3  1  0.750000  0.078015  0.796502  1
  Co  Co4  1  0.750000  0.593322  0.516389  1
  Co  Co5  1  0.750000  0.906678  0.016389  1
  Co  Co6  1  0.250000  0.224170  0.171001  1
  Co  Co7  1  0.250000  0.275830  0.671001  1
  Co  Co8  1  0.750000  0.774241  0.827296  1
  Co  Co9  1  0.750000  0.725759  0.327296  1
  Co  Co10  1  0.250000  0.878292  0.700014  1
  Co  Co11  1  0.250000  0.621708  0.200014  1
  Co  Co12  1  0.750000  0.122574  0.301074  1
  Co  Co13  1  0.750000  0.377426  0.801074  1
  Co  Co14  1  0.250000  0.463995  0.933847  1
  Co  Co15  1  0.250000  0.036005  0.433847  1
  Co  Co16  1  0.750000  0.536492  0.066842  1
  Co  Co17  1  0.750000  0.963508  0.566842  1
  Cu  Cu18  1  0.250000  0.709965  0.992289  1
  Cu  Cu19  1  0.250000  0.790035  0.492289  1
  Cu  Cu20  1  0.750000  0.290302  0.009561  1
  Cu  Cu21  1  0.750000  0.209698  0.509561  1
  Ni  Ni22  1  0.250000  0.406768  0.483463  1
  Ni  Ni23  1  0.250000  0.093232  0.983463  1
  P  P24  1  0.250000  0.426230  0.116147  1
  P  P25  1  0.250000  0.073770  0.616147  1
  P  P26  1  0.750000  0.573551  0.883940  1
  P  P27  1  0.750000  0.926449  0.383940  1
  P  P28  1  0.250000  0.270054  0.856823  1
  P  P29  1  0.250000  0.229946  0.356823  1
  P  P30  1  0.750000  0.732103  0.140698  1
  P  P31  1  0.750000  0.767897  0.640698  1
  P  P32  1  0.250000  0.603769  0.390773  1
  P  P33  1  0.250000  0.896231  0.890773  1
  P  P34  1  0.750000  0.399264  0.610362  1
  P  P35  1  0.750000  0.100736  0.110362  1
