# generated using pymatgen
data_TbHf7Ta9Ti3Si16
_symmetry_space_group_name_H-M   'P 1'
_cell_length_a   6.86401811
_cell_length_b   6.86147430
_cell_length_c   12.66936673
_cell_angle_alpha   89.90479339
_cell_angle_beta   90.01223294
_cell_angle_gamma   89.93796060
_symmetry_Int_Tables_number   1
_chemical_formula_structural   TbHf7Ta9Ti3Si16
_chemical_formula_sum   'Tb1 Hf7 Ta9 Ti3 Si16'
_cell_volume   596.69157363
_cell_formula_units_Z   1
loop_
 _symmetry_equiv_pos_site_id
 _symmetry_equiv_pos_as_xyz
  1  'x, y, z'
loop_
 _atom_site_type_symbol
 _atom_site_label
 _atom_site_symmetry_multiplicity
 _atom_site_fract_x
 _atom_site_fract_y
 _atom_site_fract_z
 _atom_site_occupancy
  Tb  Tb0  1  0.995716  0.661243  0.030632  1
  Hf  Hf1  1  0.341995  0.999814  0.470404  1
  Hf  Hf2  1  0.501397  0.842696  0.717949  1
  Hf  Hf3  1  0.497081  0.158847  0.221422  1
  Hf  Hf4  1  0.843295  0.502620  0.282386  1
  Hf  Hf5  1  0.159396  0.497890  0.779986  1
  Hf  Hf6  1  0.654493  0.002083  0.968670  1
  Hf  Hf7  1  0.999494  0.341992  0.529465  1
  Ta  Ta8  1  0.332647  0.327720  0.999716  1
  Ta  Ta9  1  0.170170  0.831337  0.252293  1
  Ta  Ta10  1  0.830173  0.169784  0.748342  1
  Ta  Ta11  1  0.669947  0.669830  0.499866  1
  Ta  Ta12  1  0.155470  0.003597  0.871027  1
  Ta  Ta13  1  0.497478  0.651349  0.124805  1
  Ta  Ta14  1  0.502800  0.348069  0.622578  1
  Ta  Ta15  1  0.651799  0.493136  0.873955  1
  Ta  Ta16  1  0.348299  0.502664  0.377895  1
  Ti  Ti17  1  0.847372  0.996535  0.374743  1
  Ti  Ti18  1  0.005367  0.152585  0.127688  1
  Ti  Ti19  1  0.995358  0.847760  0.625400  1
  Si  Si20  1  0.205180  0.133420  0.674490  1
  Si  Si21  1  0.367110  0.707018  0.926113  1
  Si  Si22  1  0.639178  0.290095  0.425854  1
  Si  Si23  1  0.706392  0.356704  0.074154  1
  Si  Si24  1  0.289832  0.639264  0.574153  1
  Si  Si25  1  0.791837  0.872192  0.181458  1
  Si  Si26  1  0.132180  0.204771  0.324001  1
  Si  Si27  1  0.862401  0.795632  0.818418  1
  Si  Si28  1  0.297658  0.957999  0.065409  1
  Si  Si29  1  0.545479  0.801334  0.315495  1
  Si  Si30  1  0.455148  0.200879  0.811989  1
  Si  Si31  1  0.801835  0.545775  0.684353  1
  Si  Si32  1  0.201508  0.451521  0.187833  1
  Si  Si33  1  0.705898  0.043507  0.562048  1
  Si  Si34  1  0.955272  0.291902  0.937387  1
  Si  Si35  1  0.043345  0.706442  0.437628  1
