# generated using pymatgen
data_Nd6Ga5GeRh12
_symmetry_space_group_name_H-M   'P 1'
_cell_length_a   5.65553800
_cell_length_b   5.65553750
_cell_length_c   15.78894000
_cell_angle_alpha   90.00000000
_cell_angle_beta   90.00000000
_cell_angle_gamma   120.00000294
_symmetry_Int_Tables_number   1
_chemical_formula_structural   Nd6Ga5GeRh12
_chemical_formula_sum   'Nd6 Ga5 Ge1 Rh12'
_cell_volume   437.35228935
_cell_formula_units_Z   1
loop_
 _symmetry_equiv_pos_site_id
 _symmetry_equiv_pos_as_xyz
  1  'x, y, z'
loop_
 _atom_site_type_symbol
 _atom_site_label
 _atom_site_symmetry_multiplicity
 _atom_site_fract_x
 _atom_site_fract_y
 _atom_site_fract_z
 _atom_site_occupancy
  Nd  Nd0  1  0.666667  0.333333  0.959577  1
  Nd  Nd1  1  0.666667  0.333333  0.540423  1
  Nd  Nd2  1  0.333333  0.666667  0.039790  1
  Nd  Nd3  1  0.666667  0.333333  0.750000  1
  Nd  Nd4  1  0.333333  0.666667  0.460210  1
  Nd  Nd5  1  0.333333  0.666667  0.250000  1
  Ga  Ga6  1  0.666667  0.333333  0.250000  1
  Ga  Ga7  1  0.000000  0.000000  0.500066  1
  Ga  Ga8  1  0.000000  0.000000  0.250000  1
  Ga  Ga9  1  0.000000  0.000000  0.750000  1
  Ga  Ga10  1  0.000000  0.000000  0.999934  1
  Ge  Ge11  1  0.333333  0.666667  0.750000  1
  Rh  Rh12  1  0.167706  0.335412  0.871229  1
  Rh  Rh13  1  0.167706  0.335412  0.628771  1
  Rh  Rh14  1  0.664588  0.832294  0.871229  1
  Rh  Rh15  1  0.336603  0.168301  0.373195  1
  Rh  Rh16  1  0.831699  0.663397  0.373195  1
  Rh  Rh17  1  0.831699  0.168301  0.373195  1
  Rh  Rh18  1  0.831699  0.168301  0.126805  1
  Rh  Rh19  1  0.336603  0.168301  0.126805  1
  Rh  Rh20  1  0.664588  0.832294  0.628771  1
  Rh  Rh21  1  0.167706  0.832294  0.628771  1
  Rh  Rh22  1  0.831699  0.663397  0.126805  1
  Rh  Rh23  1  0.167706  0.832294  0.871229  1
