# generated using pymatgen
data_Zr3Sc5Ta10VSi16W
_symmetry_space_group_name_H-M   'P 1'
_cell_length_a   6.87429138
_cell_length_b   6.87894922
_cell_length_c   12.67980500
_cell_angle_alpha   90.14874207
_cell_angle_beta   89.88282110
_cell_angle_gamma   89.99443216
_symmetry_Int_Tables_number   1
_chemical_formula_structural   Zr3Sc5Ta10VSi16W
_chemical_formula_sum   'Zr3 Sc5 Ta10 V1 Si16 W1'
_cell_volume   599.59808944
_cell_formula_units_Z   1
loop_
 _symmetry_equiv_pos_site_id
 _symmetry_equiv_pos_as_xyz
  1  'x, y, z'
loop_
 _atom_site_type_symbol
 _atom_site_label
 _atom_site_symmetry_multiplicity
 _atom_site_fract_x
 _atom_site_fract_y
 _atom_site_fract_z
 _atom_site_occupancy
  Zr  Zr0  1  0.000635  0.658859  0.031536  1
  Zr  Zr1  1  0.841071  0.502857  0.280900  1
  Zr  Zr2  1  0.158460  0.497451  0.781516  1
  Sc  Sc3  1  0.500447  0.840661  0.718231  1
  Sc  Sc4  1  0.497595  0.159910  0.220114  1
  Sc  Sc5  1  0.000190  0.341489  0.529131  1
  Sc  Sc6  1  0.660128  0.000148  0.969740  1
  Sc  Sc7  1  0.340083  0.000555  0.469222  1
  Ta  Ta8  1  0.168636  0.831066  0.249983  1
  Ta  Ta9  1  0.831693  0.171032  0.749735  1
  Ta  Ta10  1  0.671294  0.668683  0.499324  1
  Ta  Ta11  1  0.004034  0.152308  0.125829  1
  Ta  Ta12  1  0.348463  0.504040  0.375278  1
  Ta  Ta13  1  0.651861  0.494552  0.876505  1
  Ta  Ta14  1  0.507047  0.347889  0.623831  1
  Ta  Ta15  1  0.494480  0.653533  0.124273  1
  Ta  Ta16  1  0.995771  0.847756  0.627052  1
  Ta  Ta17  1  0.151297  0.005294  0.874550  1
  V  V18  1  0.847207  0.990804  0.373200  1
  Si  Si19  1  0.302301  0.960697  0.063891  1
  Si  Si20  1  0.545351  0.805723  0.316020  1
  Si  Si21  1  0.457001  0.197576  0.814335  1
  Si  Si22  1  0.801064  0.543596  0.684917  1
  Si  Si23  1  0.202976  0.452147  0.186434  1
  Si  Si24  1  0.702317  0.041313  0.559602  1
  Si  Si25  1  0.955625  0.298323  0.937074  1
  Si  Si26  1  0.042066  0.706187  0.436109  1
  Si  Si27  1  0.703263  0.361388  0.073015  1
  Si  Si28  1  0.128818  0.201898  0.323897  1
  Si  Si29  1  0.860459  0.794284  0.821812  1
  Si  Si30  1  0.207003  0.137657  0.676851  1
  Si  Si31  1  0.792471  0.866865  0.181650  1
  Si  Si32  1  0.294684  0.637628  0.570988  1
  Si  Si33  1  0.364352  0.706951  0.927902  1
  Si  Si34  1  0.639790  0.286766  0.425697  1
  W  W35  1  0.330066  0.332114  0.999861  1
