# generated using pymatgen
data_Gd4Hf3CoF28
_symmetry_space_group_name_H-M   'P 1'
_cell_length_a   5.64869301
_cell_length_b   9.06236160
_cell_length_c   12.14179300
_cell_angle_alpha   61.98444663
_cell_angle_beta   90.00278938
_cell_angle_gamma   89.99161798
_symmetry_Int_Tables_number   1
_chemical_formula_structural   Gd4Hf3CoF28
_chemical_formula_sum   'Gd4 Hf3 Co1 F28'
_cell_volume   548.71192360
_cell_formula_units_Z   1
loop_
 _symmetry_equiv_pos_site_id
 _symmetry_equiv_pos_as_xyz
  1  'x, y, z'
loop_
 _atom_site_type_symbol
 _atom_site_label
 _atom_site_symmetry_multiplicity
 _atom_site_fract_x
 _atom_site_fract_y
 _atom_site_fract_z
 _atom_site_occupancy
  Gd  Gd0  1  0.758437  0.818715  0.762197  1
  Gd  Gd1  1  0.260724  0.187499  0.727629  1
  Gd  Gd2  1  0.240742  0.187435  0.243255  1
  Gd  Gd3  1  0.741938  0.810372  0.267125  1
  Hf  Hf4  1  0.755425  0.274556  0.956501  1
  Hf  Hf5  1  0.254407  0.725063  0.542945  1
  Hf  Hf6  1  0.245344  0.725973  0.043172  1
  Co  Co7  1  0.740965  0.274244  0.455987  1
  F  F8  1  0.456531  0.709123  0.917723  1
  F  F9  1  0.928204  0.289209  0.571663  1
  F  F10  1  0.540334  0.289047  0.082333  1
  F  F11  1  0.047129  0.708547  0.416529  1
  F  F12  1  0.474764  0.284422  0.538586  1
  F  F13  1  0.950655  0.719059  0.952231  1
  F  F14  1  0.551831  0.713505  0.456326  1
  F  F15  1  0.045472  0.280739  0.050896  1
  F  F16  1  0.771775  0.523527  0.858331  1
  F  F17  1  0.262778  0.475945  0.637871  1
  F  F18  1  0.227240  0.477303  0.144645  1
  F  F19  1  0.733436  0.499388  0.365986  1
  F  F20  1  0.759922  0.025059  0.056839  1
  F  F21  1  0.264338  0.974160  0.448035  1
  F  F22  1  0.237693  0.974465  0.940624  1
  F  F23  1  0.740365  0.048495  0.543833  1
  F  F24  1  0.970029  0.733684  0.637859  1
  F  F25  1  0.479082  0.269785  0.854602  1
  F  F26  1  0.000620  0.268118  0.369652  1
  F  F27  1  0.525607  0.728656  0.142969  1
  F  F28  1  0.044242  0.745291  0.172151  1
  F  F29  1  0.554714  0.261183  0.337619  1
  F  F30  1  0.962733  0.255539  0.827915  1
  F  F31  1  0.457269  0.743584  0.672071  1
  F  F32  1  0.413916  0.969452  0.235995  1
  F  F33  1  0.915489  0.028720  0.271181  1
  F  F34  1  0.590868  0.033544  0.770078  1
  F  F35  1  0.094980  0.966594  0.726649  1
