# generated using pymatgen
data_Ca2Tb(B3Rh4)2
_symmetry_space_group_name_H-M   'P 1'
_cell_length_a   9.91655438
_cell_length_b   9.06716909
_cell_length_c   5.59853450
_cell_angle_alpha   81.37863289
_cell_angle_beta   64.69097597
_cell_angle_gamma   33.93038770
_symmetry_Int_Tables_number   1
_chemical_formula_structural   Ca2Tb(B3Rh4)2
_chemical_formula_sum   'Ca2 Tb1 B6 Rh8'
_cell_volume   232.15418959
_cell_formula_units_Z   1
loop_
 _symmetry_equiv_pos_site_id
 _symmetry_equiv_pos_as_xyz
  1  'x, y, z'
loop_
 _atom_site_type_symbol
 _atom_site_label
 _atom_site_symmetry_multiplicity
 _atom_site_fract_x
 _atom_site_fract_y
 _atom_site_fract_z
 _atom_site_occupancy
  Ca  Ca0  1  0.315974  0.315974  0.684026  1
  Ca  Ca1  1  0.684026  0.684026  0.315974  1
  Tb  Tb2  1  0.500000  0.500000  0.500000  1
  B  B3  1  0.669986  0.985837  0.014163  1
  B  B4  1  0.985837  0.669986  0.330014  1
  B  B5  1  0.330014  0.014163  0.985837  1
  B  B6  1  0.014163  0.330014  0.669986  1
  B  B7  1  0.167290  0.832710  0.167290  1
  B  B8  1  0.832710  0.167290  0.832710  1
  Rh  Rh9  1  0.585196  0.585196  0.914804  1
  Rh  Rh10  1  0.913896  0.913896  0.086104  1
  Rh  Rh11  1  0.414804  0.414804  0.085196  1
  Rh  Rh12  1  0.085196  0.085196  0.414804  1
  Rh  Rh13  1  0.914804  0.914804  0.585196  1
  Rh  Rh14  1  0.250000  0.250000  0.250000  1
  Rh  Rh15  1  0.086104  0.086104  0.913896  1
  Rh  Rh16  1  0.750000  0.750000  0.750000  1
