# generated using pymatgen
data_Yb6Cu16O
_symmetry_space_group_name_H-M   'P 1'
_cell_length_a   7.65862194
_cell_length_b   7.65862225
_cell_length_c   7.65862300
_cell_angle_alpha   109.47121998
_cell_angle_beta   109.47122080
_cell_angle_gamma   109.47121964
_symmetry_Int_Tables_number   1
_chemical_formula_structural   Yb6Cu16O
_chemical_formula_sum   'Yb6 Cu16 O1'
_cell_volume   345.80406098
_cell_formula_units_Z   1
loop_
 _symmetry_equiv_pos_site_id
 _symmetry_equiv_pos_as_xyz
  1  'x, y, z'
loop_
 _atom_site_type_symbol
 _atom_site_label
 _atom_site_symmetry_multiplicity
 _atom_site_fract_x
 _atom_site_fract_y
 _atom_site_fract_z
 _atom_site_occupancy
  Yb  Yb0  1  0.000000  0.271077  0.271077  1
  Yb  Yb1  1  0.271077  0.000000  0.271077  1
  Yb  Yb2  1  0.728923  0.000000  0.728923  1
  Yb  Yb3  1  0.728923  0.728923  0.000000  1
  Yb  Yb4  1  0.271077  0.271077  0.000000  1
  Yb  Yb5  1  0.000000  0.728923  0.728923  1
  Cu  Cu6  1  0.500000  0.500000  0.500000  1
  Cu  Cu7  1  0.500000  0.000000  0.000000  1
  Cu  Cu8  1  0.000000  0.500000  0.000000  1
  Cu  Cu9  1  0.000000  0.000000  0.500000  1
  Cu  Cu10  1  0.677963  0.338982  0.338982  1
  Cu  Cu11  1  0.338982  0.000000  0.661018  1
  Cu  Cu12  1  0.338982  0.677963  0.338982  1
  Cu  Cu13  1  0.338982  0.338982  0.677963  1
  Cu  Cu14  1  0.338982  0.661018  0.000000  1
  Cu  Cu15  1  0.000000  0.338982  0.661018  1
  Cu  Cu16  1  0.000000  0.661018  0.338982  1
  Cu  Cu17  1  0.661018  0.661018  0.322037  1
  Cu  Cu18  1  0.661018  0.000000  0.338982  1
  Cu  Cu19  1  0.661018  0.338982  0.000000  1
  Cu  Cu20  1  0.661018  0.322037  0.661018  1
  Cu  Cu21  1  0.322037  0.661018  0.661018  1
  O  O22  1  0.000000  0.000000  0.000000  1
