# generated using pymatgen
data_NaZr6BCl14
_symmetry_space_group_name_H-M   'P 1'
_cell_length_a   13.08566700
_cell_length_b   13.06752305
_cell_length_c   13.09479988
_cell_angle_alpha   90.04317463
_cell_angle_beta   90.00000000
_cell_angle_gamma   90.00000000
_symmetry_Int_Tables_number   1
_chemical_formula_structural   NaZr6BCl14
_chemical_formula_sum   'Na4 Zr24 B4 Cl56'
_cell_volume   2239.17420172
_cell_formula_units_Z   4
loop_
 _symmetry_equiv_pos_site_id
 _symmetry_equiv_pos_as_xyz
  1  'x, y, z'
loop_
 _atom_site_type_symbol
 _atom_site_label
 _atom_site_symmetry_multiplicity
 _atom_site_fract_x
 _atom_site_fract_y
 _atom_site_fract_z
 _atom_site_occupancy
  Na  Na0  1  0.469583  0.719690  0.278874  1
  Na  Na1  1  0.530417  0.719690  0.778874  1
  Na  Na2  1  0.970257  0.780034  0.278641  1
  Na  Na3  1  0.029743  0.780034  0.778641  1
  Zr  Zr4  1  0.906385  0.056810  0.430914  1
  Zr  Zr5  1  0.093615  0.056810  0.930914  1
  Zr  Zr6  1  0.201145  0.076417  0.154435  1
  Zr  Zr7  1  0.798855  0.076417  0.654435  1
  Zr  Zr8  1  0.680310  0.161969  0.448856  1
  Zr  Zr9  1  0.319690  0.161969  0.948856  1
  Zr  Zr10  1  0.181110  0.337912  0.448804  1
  Zr  Zr11  1  0.818890  0.337912  0.948804  1
  Zr  Zr12  1  0.701064  0.423853  0.154729  1
  Zr  Zr13  1  0.298936  0.423853  0.654729  1
  Zr  Zr14  1  0.407144  0.443407  0.431653  1
  Zr  Zr15  1  0.592856  0.443407  0.931653  1
  Zr  Zr16  1  0.903683  0.541834  0.069297  1
  Zr  Zr17  1  0.096317  0.541834  0.569297  1
  Zr  Zr18  1  0.200997  0.562274  0.344673  1
  Zr  Zr19  1  0.799003  0.562274  0.844673  1
  Zr  Zr20  1  0.680951  0.648895  0.047549  1
  Zr  Zr21  1  0.319049  0.648895  0.547549  1
  Zr  Zr22  1  0.818999  0.851332  0.546836  1
  Zr  Zr23  1  0.181001  0.851332  0.046836  1
  Zr  Zr24  1  0.299506  0.937732  0.844110  1
  Zr  Zr25  1  0.700494  0.937732  0.344110  1
  Zr  Zr26  1  0.403975  0.957867  0.069083  1
  Zr  Zr27  1  0.596025  0.957867  0.569083  1
  B  B28  1  0.249424  0.007603  0.999023  1
  B  B29  1  0.750576  0.007603  0.499023  1
  B  B30  1  0.251097  0.492416  0.499315  1
  B  B31  1  0.748903  0.492416  0.999315  1
  Cl  Cl32  1  0.106693  0.143650  0.359007  1
  Cl  Cl33  1  0.893307  0.143650  0.859007  1
  Cl  Cl34  1  0.606248  0.357034  0.360284  1
  Cl  Cl35  1  0.393752  0.357034  0.860284  1
  Cl  Cl36  1  0.898833  0.649329  0.651315  1
  Cl  Cl37  1  0.101167  0.649329  0.151315  1
  Cl  Cl38  1  0.398554  0.850484  0.650897  1
  Cl  Cl39  1  0.601446  0.850484  0.150897  1
  Cl  Cl40  1  0.868155  0.978776  0.251880  1
  Cl  Cl41  1  0.131845  0.978776  0.751880  1
  Cl  Cl42  1  0.364562  0.024140  0.246932  1
  Cl  Cl43  1  0.635438  0.024140  0.746932  1
  Cl  Cl44  1  0.622345  0.099064  0.274157  1
  Cl  Cl45  1  0.377655  0.099064  0.774157  1
  Cl  Cl46  1  0.497043  0.119751  0.021873  1
  Cl  Cl47  1  0.502957  0.119751  0.521873  1
  Cl  Cl48  1  0.024512  0.128911  0.096762  1
  Cl  Cl49  1  0.975488  0.128911  0.596762  1
  Cl  Cl50  1  0.845487  0.228977  0.370454  1
  Cl  Cl51  1  0.154513  0.228977  0.870454  1
  Cl  Cl52  1  0.272907  0.252536  0.114470  1
  Cl  Cl53  1  0.727093  0.252536  0.614470  1
  Cl  Cl54  1  0.772105  0.247427  0.114394  1
  Cl  Cl55  1  0.227895  0.247427  0.614394  1
  Cl  Cl56  1  0.346487  0.271309  0.370562  1
  Cl  Cl57  1  0.653513  0.271309  0.870562  1
  Cl  Cl58  1  0.524450  0.370971  0.097438  1
  Cl  Cl59  1  0.475550  0.370971  0.597438  1
  Cl  Cl60  1  0.996231  0.379601  0.021882  1
  Cl  Cl61  1  0.003769  0.379601  0.521882  1
  Cl  Cl62  1  0.123233  0.401025  0.274183  1
  Cl  Cl63  1  0.876767  0.401025  0.774183  1
  Cl  Cl64  1  0.864833  0.475266  0.247075  1
  Cl  Cl65  1  0.135167  0.475266  0.747075  1
  Cl  Cl66  1  0.368676  0.521364  0.252771  1
  Cl  Cl67  1  0.631324  0.521364  0.752771  1
  Cl  Cl68  1  0.627869  0.592512  0.225866  1
  Cl  Cl69  1  0.372131  0.592512  0.725866  1
  Cl  Cl70  1  0.501552  0.613464  0.975960  1
  Cl  Cl71  1  0.498448  0.613464  0.475960  1
  Cl  Cl72  1  0.024174  0.620519  0.405589  1
  Cl  Cl73  1  0.975826  0.620519  0.905589  1
  Cl  Cl74  1  0.845490  0.723584  0.119381  1
  Cl  Cl75  1  0.154510  0.723584  0.619381  1
  Cl  Cl76  1  0.273939  0.743459  0.381881  1
  Cl  Cl77  1  0.726061  0.743459  0.881881  1
  Cl  Cl78  1  0.773944  0.756720  0.381263  1
  Cl  Cl79  1  0.226056  0.756720  0.881263  1
  Cl  Cl80  1  0.345184  0.776292  0.119229  1
  Cl  Cl81  1  0.654816  0.776292  0.619229  1
  Cl  Cl82  1  0.476196  0.878999  0.905379  1
  Cl  Cl83  1  0.523804  0.878999  0.405379  1
  Cl  Cl84  1  0.001744  0.886802  0.974846  1
  Cl  Cl85  1  0.998256  0.886802  0.474846  1
  Cl  Cl86  1  0.127398  0.907892  0.224976  1
  Cl  Cl87  1  0.872602  0.907892  0.724976  1
