# generated using pymatgen
data_La8Tm3Sc(CuSe5)4
_symmetry_space_group_name_H-M   'P 1'
_cell_length_a   12.15739289
_cell_length_b   4.11936000
_cell_length_c   17.79151971
_cell_angle_alpha   90.00000000
_cell_angle_beta   89.90825469
_cell_angle_gamma   90.00000000
_symmetry_Int_Tables_number   1
_chemical_formula_structural   La8Tm3Sc(CuSe5)4
_chemical_formula_sum   'La8 Tm3 Sc1 Cu4 Se20'
_cell_volume   891.01022709
_cell_formula_units_Z   1
loop_
 _symmetry_equiv_pos_site_id
 _symmetry_equiv_pos_as_xyz
  1  'x, y, z'
loop_
 _atom_site_type_symbol
 _atom_site_label
 _atom_site_symmetry_multiplicity
 _atom_site_fract_x
 _atom_site_fract_y
 _atom_site_fract_z
 _atom_site_occupancy
  La  La0  1  0.362966  0.250000  0.103191  1
  La  La1  1  0.010607  0.250000  0.174392  1
  La  La2  1  0.512451  0.250000  0.323990  1
  La  La3  1  0.860768  0.250000  0.396876  1
  La  La4  1  0.139020  0.749999  0.602855  1
  La  La5  1  0.488265  0.749999  0.675124  1
  La  La6  1  0.988108  0.749999  0.825171  1
  La  La7  1  0.638764  0.749999  0.899020  1
  Tm  Tm8  1  0.198524  0.749999  0.364531  1
  Tm  Tm9  1  0.801588  0.250000  0.635390  1
  Tm  Tm10  1  0.301803  0.250000  0.864630  1
  Sc  Sc11  1  0.699688  0.749999  0.135738  1
  Cu  Cu12  1  0.821487  0.250000  0.020937  1
  Cu  Cu13  1  0.322507  0.250000  0.479291  1
  Cu  Cu14  1  0.677406  0.749999  0.520420  1
  Cu  Cu15  1  0.177242  0.749999  0.979528  1
  Se  Se16  1  0.616911  0.250000  0.036630  1
  Se  Se17  1  0.898771  0.749999  0.073132  1
  Se  Se18  1  0.181003  0.749999  0.115135  1
  Se  Se19  1  0.492180  0.749999  0.196141  1
  Se  Se20  1  0.755526  0.250000  0.226316  1
  Se  Se21  1  0.259897  0.250000  0.268945  1
  Se  Se22  1  0.985283  0.749999  0.301830  1
  Se  Se23  1  0.681979  0.749999  0.384092  1
  Se  Se24  1  0.404914  0.749999  0.429286  1
  Se  Se25  1  0.115308  0.250000  0.466529  1
  Se  Se26  1  0.884551  0.749999  0.533073  1
  Se  Se27  1  0.595231  0.250000  0.570264  1
  Se  Se28  1  0.318481  0.250000  0.615081  1
  Se  Se29  1  0.013969  0.250000  0.697905  1
  Se  Se30  1  0.741127  0.749999  0.730954  1
  Se  Se31  1  0.241175  0.749999  0.769274  1
  Se  Se32  1  0.514396  0.250000  0.802366  1
  Se  Se33  1  0.818392  0.250000  0.885272  1
  Se  Se34  1  0.094907  0.250000  0.929879  1
  Se  Se35  1  0.384809  0.749999  0.966815  1
