# generated using pymatgen
data_AcYb(Al5Os)4
_symmetry_space_group_name_H-M   'P 1'
_cell_length_a   6.92906759
_cell_length_b   6.92906684
_cell_length_c   9.24369800
_cell_angle_alpha   90.00000000
_cell_angle_beta   90.00000000
_cell_angle_gamma   96.46145189
_symmetry_Int_Tables_number   1
_chemical_formula_structural   AcYb(Al5Os)4
_chemical_formula_sum   'Ac1 Yb1 Al20 Os4'
_cell_volume   440.98901228
_cell_formula_units_Z   1
loop_
 _symmetry_equiv_pos_site_id
 _symmetry_equiv_pos_as_xyz
  1  'x, y, z'
loop_
 _atom_site_type_symbol
 _atom_site_label
 _atom_site_symmetry_multiplicity
 _atom_site_fract_x
 _atom_site_fract_y
 _atom_site_fract_z
 _atom_site_occupancy
  Ac  Ac0  1  0.623228  0.376772  0.750000  1
  Yb  Yb1  1  0.374350  0.625650  0.250000  1
  Al  Al2  1  0.279190  0.014886  0.750000  1
  Al  Al3  1  0.020988  0.284463  0.250000  1
  Al  Al4  1  0.715537  0.979012  0.250000  1
  Al  Al5  1  0.985114  0.720810  0.750000  1
  Al  Al6  1  0.878623  0.121377  0.955361  1
  Al  Al7  1  0.123326  0.876674  0.047489  1
  Al  Al8  1  0.878623  0.121377  0.544639  1
  Al  Al9  1  0.123326  0.876674  0.452511  1
  Al  Al10  1  0.643546  0.906712  0.750000  1
  Al  Al11  1  0.918447  0.644422  0.250000  1
  Al  Al12  1  0.355578  0.081553  0.250000  1
  Al  Al13  1  0.093288  0.356454  0.750000  1
  Al  Al14  1  0.337682  0.662318  0.900686  1
  Al  Al15  1  0.660268  0.339732  0.105051  1
  Al  Al16  1  0.337682  0.662318  0.599314  1
  Al  Al17  1  0.660268  0.339732  0.394949  1
  Al  Al18  1  0.723987  0.727195  0.006259  1
  Al  Al19  1  0.723987  0.727195  0.493741  1
  Al  Al20  1  0.272805  0.276013  0.006259  1
  Al  Al21  1  0.272805  0.276013  0.493741  1
  Os  Os22  1  0.499264  0.000587  0.001227  1
  Os  Os23  1  0.999413  0.500736  0.001227  1
  Os  Os24  1  0.499264  0.000587  0.498773  1
  Os  Os25  1  0.999413  0.500736  0.498773  1
