# generated using pymatgen
data_Dy3Ho3Tm10(CdPt)4
_symmetry_space_group_name_H-M   'P 1'
_cell_length_a   9.59584306
_cell_length_b   9.59478392
_cell_length_c   9.59459603
_cell_angle_alpha   60.00794834
_cell_angle_beta   60.00067651
_cell_angle_gamma   59.99505495
_symmetry_Int_Tables_number   1
_chemical_formula_structural   Dy3Ho3Tm10(CdPt)4
_chemical_formula_sum   'Dy3 Ho3 Tm10 Cd4 Pt4'
_cell_volume   624.65770008
_cell_formula_units_Z   1
loop_
 _symmetry_equiv_pos_site_id
 _symmetry_equiv_pos_as_xyz
  1  'x, y, z'
loop_
 _atom_site_type_symbol
 _atom_site_label
 _atom_site_symmetry_multiplicity
 _atom_site_fract_x
 _atom_site_fract_y
 _atom_site_fract_z
 _atom_site_occupancy
  Dy  Dy0  1  0.935743  0.564256  0.935743  1
  Dy  Dy1  1  0.564270  0.564377  0.935626  1
  Dy  Dy2  1  0.935626  0.935728  0.564269  1
  Ho  Ho3  1  0.935778  0.564222  0.564107  1
  Ho  Ho4  1  0.564107  0.935893  0.935778  1
  Ho  Ho5  1  0.564237  0.935763  0.564237  1
  Tm  Tm6  1  0.351995  0.351975  0.352106  1
  Tm  Tm7  1  0.352083  0.351960  0.943889  1
  Tm  Tm8  1  0.352106  0.943927  0.351995  1
  Tm  Tm9  1  0.943889  0.352070  0.352083  1
  Tm  Tm10  1  0.810782  0.189092  0.189276  1
  Tm  Tm11  1  0.189276  0.810850  0.810782  1
  Tm  Tm12  1  0.189198  0.810802  0.189198  1
  Tm  Tm13  1  0.810839  0.189161  0.810839  1
  Tm  Tm14  1  0.189270  0.189097  0.810781  1
  Tm  Tm15  1  0.810781  0.810853  0.189270  1
  Cd  Cd16  1  0.581643  0.581643  0.581528  1
  Cd  Cd17  1  0.581539  0.581648  0.255279  1
  Cd  Cd18  1  0.581528  0.255186  0.581643  1
  Cd  Cd19  1  0.255279  0.581534  0.581539  1
  Pt  Pt20  1  0.143184  0.143077  0.143064  1
  Pt  Pt21  1  0.143145  0.143166  0.570644  1
  Pt  Pt22  1  0.143064  0.570677  0.143184  1
  Pt  Pt23  1  0.570644  0.143046  0.143145  1
