# generated using pymatgen
data_PaAgSnSe4
_symmetry_space_group_name_H-M   'P 1'
_cell_length_a   8.45289050
_cell_length_b   8.45289113
_cell_length_c   8.45289088
_cell_angle_alpha   119.48051301
_cell_angle_beta   121.01204222
_cell_angle_gamma   89.57912149
_symmetry_Int_Tables_number   1
_chemical_formula_structural   PaAgSnSe4
_chemical_formula_sum   'Pa2 Ag2 Sn2 Se8'
_cell_volume   425.37359186
_cell_formula_units_Z   2
loop_
 _symmetry_equiv_pos_site_id
 _symmetry_equiv_pos_as_xyz
  1  'x, y, z'
loop_
 _atom_site_type_symbol
 _atom_site_label
 _atom_site_symmetry_multiplicity
 _atom_site_fract_x
 _atom_site_fract_y
 _atom_site_fract_z
 _atom_site_occupancy
  Pa  Pa0  1  0.500000  0.000000  0.000000  1
  Pa  Pa1  1  0.500000  0.500000  0.500000  1
  Ag  Ag2  1  0.867162  0.617162  0.250000  1
  Ag  Ag3  1  0.132838  0.382838  0.750000  1
  Sn  Sn4  1  0.500000  0.000000  0.500000  1
  Sn  Sn5  1  0.000000  0.000000  0.000000  1
  Se  Se6  1  0.727612  0.727896  0.500285  1
  Se  Se7  1  0.727612  0.227327  0.999715  1
  Se  Se8  1  0.726437  0.749350  0.977087  1
  Se  Se9  1  0.272263  0.749350  0.522913  1
  Se  Se10  1  0.272388  0.272104  0.499715  1
  Se  Se11  1  0.272388  0.772673  0.000285  1
  Se  Se12  1  0.273563  0.250650  0.022913  1
  Se  Se13  1  0.727737  0.250650  0.477087  1
