# generated using pymatgen
data_LiPr2CuAs4
_symmetry_space_group_name_H-M   'P 1'
_cell_length_a   3.99441800
_cell_length_b   3.99441800
_cell_length_c   10.35103300
_cell_angle_alpha   90.00000000
_cell_angle_beta   90.00000000
_cell_angle_gamma   90.00000000
_symmetry_Int_Tables_number   1
_chemical_formula_structural   LiPr2CuAs4
_chemical_formula_sum   'Li1 Pr2 Cu1 As4'
_cell_volume   165.15461480
_cell_formula_units_Z   1
loop_
 _symmetry_equiv_pos_site_id
 _symmetry_equiv_pos_as_xyz
  1  'x, y, z'
loop_
 _atom_site_type_symbol
 _atom_site_label
 _atom_site_symmetry_multiplicity
 _atom_site_fract_x
 _atom_site_fract_y
 _atom_site_fract_z
 _atom_site_occupancy
  Li  Li0  1  0.500000  0.500000  0.500000  1
  Pr  Pr1  1  0.000000  0.500000  0.761054  1
  Pr  Pr2  1  0.500000  0.000000  0.238946  1
  Cu  Cu3  1  0.000000  0.000000  0.500000  1
  As  As4  1  0.000000  0.000000  0.000000  1
  As  As5  1  0.500000  0.500000  0.000000  1
  As  As6  1  0.000000  0.500000  0.350126  1
  As  As7  1  0.500000  0.000000  0.649874  1
