# generated using pymatgen
data_Ho5Er11In3HgRh4
_symmetry_space_group_name_H-M   'P 1'
_cell_length_a   9.56896185
_cell_length_b   9.56277958
_cell_length_c   9.57691604
_cell_angle_alpha   59.95906833
_cell_angle_beta   59.96823713
_cell_angle_gamma   59.99378431
_symmetry_Int_Tables_number   1
_chemical_formula_structural   Ho5Er11In3HgRh4
_chemical_formula_sum   'Ho5 Er11 In3 Hg1 Rh4'
_cell_volume   619.29909804
_cell_formula_units_Z   1
loop_
 _symmetry_equiv_pos_site_id
 _symmetry_equiv_pos_as_xyz
  1  'x, y, z'
loop_
 _atom_site_type_symbol
 _atom_site_label
 _atom_site_symmetry_multiplicity
 _atom_site_fract_x
 _atom_site_fract_y
 _atom_site_fract_z
 _atom_site_occupancy
  Ho  Ho0  1  0.188961  0.189191  0.810747  1
  Ho  Ho1  1  0.437655  0.059083  0.065532  1
  Ho  Ho2  1  0.437405  0.059375  0.437654  1
  Ho  Ho3  1  0.063012  0.435736  0.063695  1
  Ho  Ho4  1  0.648667  0.052000  0.649628  1
  Er  Er5  1  0.188871  0.811179  0.811792  1
  Er  Er6  1  0.063897  0.058634  0.438875  1
  Er  Er7  1  0.811446  0.189526  0.188555  1
  Er  Er8  1  0.812646  0.810335  0.188590  1
  Er  Er9  1  0.649700  0.648959  0.050031  1
  Er  Er10  1  0.649745  0.649024  0.651205  1
  Er  Er11  1  0.062751  0.435884  0.438245  1
  Er  Er12  1  0.052024  0.648285  0.649762  1
  Er  Er13  1  0.811578  0.189586  0.810266  1
  Er  Er14  1  0.438006  0.435335  0.063450  1
  Er  Er15  1  0.188734  0.811039  0.188213  1
  In  In16  1  0.416749  0.419449  0.747754  1
  In  In17  1  0.747912  0.419573  0.416341  1
  In  In18  1  0.416464  0.419522  0.415929  1
  Hg  Hg19  1  0.413719  0.758893  0.413679  1
  Rh  Rh20  1  0.856366  0.429957  0.856700  1
  Rh  Rh21  1  0.857369  0.856557  0.428977  1
  Rh  Rh22  1  0.428987  0.856165  0.857395  1
  Rh  Rh23  1  0.857338  0.856715  0.856987  1
