# generated using pymatgen
data_Er4TcOs5Ru2
_symmetry_space_group_name_H-M   'P 1'
_cell_length_a   5.21370495
_cell_length_b   5.33302081
_cell_length_c   9.00178900
_cell_angle_alpha   90.00000000
_cell_angle_beta   90.00000000
_cell_angle_gamma   120.75996455
_symmetry_Int_Tables_number   1
_chemical_formula_structural   Er4TcOs5Ru2
_chemical_formula_sum   'Er4 Tc1 Os5 Ru2'
_cell_volume   215.08107727
_cell_formula_units_Z   1
loop_
 _symmetry_equiv_pos_site_id
 _symmetry_equiv_pos_as_xyz
  1  'x, y, z'
loop_
 _atom_site_type_symbol
 _atom_site_label
 _atom_site_symmetry_multiplicity
 _atom_site_fract_x
 _atom_site_fract_y
 _atom_site_fract_z
 _atom_site_occupancy
  Er  Er0  1  0.331612  0.665806  0.433805  1
  Er  Er1  1  0.660374  0.330186  0.565401  1
  Er  Er2  1  0.660374  0.330186  0.934599  1
  Er  Er3  1  0.331612  0.665806  0.066195  1
  Tc  Tc4  1  0.672913  0.836456  0.750000  1
  Os  Os5  1  0.832297  0.170004  0.250000  1
  Os  Os6  1  0.832297  0.662295  0.250000  1
  Os  Os7  1  0.346410  0.173205  0.250000  1
  Os  Os8  1  0.174818  0.827944  0.750000  1
  Os  Os9  1  0.174818  0.346873  0.750000  1
  Ru  Ru10  1  0.991238  0.995619  0.499434  1
  Ru  Ru11  1  0.991238  0.995619  0.000566  1
