# generated using pymatgen
data_Dy2Y2Al4Pt3Rh
_symmetry_space_group_name_H-M   'P 1'
_cell_length_a   4.42520700
_cell_length_b   6.85332224
_cell_length_c   7.79008951
_cell_angle_alpha   90.09229521
_cell_angle_beta   90.00000000
_cell_angle_gamma   90.00000000
_symmetry_Int_Tables_number   1
_chemical_formula_structural   Dy2Y2Al4Pt3Rh
_chemical_formula_sum   'Dy2 Y2 Al4 Pt3 Rh1'
_cell_volume   236.25261680
_cell_formula_units_Z   1
loop_
 _symmetry_equiv_pos_site_id
 _symmetry_equiv_pos_as_xyz
  1  'x, y, z'
loop_
 _atom_site_type_symbol
 _atom_site_label
 _atom_site_symmetry_multiplicity
 _atom_site_fract_x
 _atom_site_fract_y
 _atom_site_fract_z
 _atom_site_occupancy
  Dy  Dy0  1  0.750000  0.027954  0.680523  1
  Dy  Dy1  1  0.250000  0.966673  0.322025  1
  Y  Y2  1  0.250000  0.469297  0.180784  1
  Y  Y3  1  0.750000  0.530684  0.817244  1
  Al  Al4  1  0.250000  0.853906  0.936837  1
  Al  Al5  1  0.750000  0.145188  0.062663  1
  Al  Al6  1  0.750000  0.644169  0.438065  1
  Al  Al7  1  0.250000  0.360294  0.563385  1
  Pt  Pt8  1  0.750000  0.270987  0.382352  1
  Pt  Pt9  1  0.750000  0.773115  0.119150  1
  Pt  Pt10  1  0.250000  0.224890  0.881313  1
  Rh  Rh11  1  0.250000  0.732840  0.615657  1
