# generated using pymatgen
data_Er6Tm4Si5As
_symmetry_space_group_name_H-M   'P 1'
_cell_length_a   8.35234467
_cell_length_b   8.35234378
_cell_length_c   6.21701600
_cell_angle_alpha   90.00000000
_cell_angle_beta   90.00000000
_cell_angle_gamma   120.10746240
_symmetry_Int_Tables_number   1
_chemical_formula_structural   Er6Tm4Si5As
_chemical_formula_sum   'Er6 Tm4 Si5 As1'
_cell_volume   375.19590149
_cell_formula_units_Z   1
loop_
 _symmetry_equiv_pos_site_id
 _symmetry_equiv_pos_as_xyz
  1  'x, y, z'
loop_
 _atom_site_type_symbol
 _atom_site_label
 _atom_site_symmetry_multiplicity
 _atom_site_fract_x
 _atom_site_fract_y
 _atom_site_fract_z
 _atom_site_occupancy
  Er  Er0  1  0.758634  0.758634  0.250000  1
  Er  Er1  1  0.242599  0.996450  0.250000  1
  Er  Er2  1  0.996450  0.242599  0.250000  1
  Er  Er3  1  0.242773  0.242773  0.750000  1
  Er  Er4  1  0.756554  0.000374  0.750000  1
  Er  Er5  1  0.000374  0.756554  0.750000  1
  Tm  Tm6  1  0.668824  0.333005  0.501232  1
  Tm  Tm7  1  0.333005  0.668824  0.501232  1
  Tm  Tm8  1  0.333005  0.668824  0.998768  1
  Tm  Tm9  1  0.668824  0.333005  0.998768  1
  Si  Si10  1  0.605483  0.999822  0.250000  1
  Si  Si11  1  0.999822  0.605483  0.250000  1
  Si  Si12  1  0.606595  0.606595  0.750000  1
  Si  Si13  1  0.394449  0.001000  0.750000  1
  Si  Si14  1  0.001000  0.394449  0.750000  1
  As  As15  1  0.391608  0.391608  0.250000  1
