# generated using pymatgen
data_La2Y3HoRh18
_symmetry_space_group_name_H-M   'P 1'
_cell_length_a   5.31600404
_cell_length_b   5.31658948
_cell_length_c   17.55777802
_cell_angle_alpha   90.00529719
_cell_angle_beta   89.99779142
_cell_angle_gamma   119.98265877
_symmetry_Int_Tables_number   1
_chemical_formula_structural   La2Y3HoRh18
_chemical_formula_sum   'La2 Y3 Ho1 Rh18'
_cell_volume   429.82777593
_cell_formula_units_Z   1
loop_
 _symmetry_equiv_pos_site_id
 _symmetry_equiv_pos_as_xyz
  1  'x, y, z'
loop_
 _atom_site_type_symbol
 _atom_site_label
 _atom_site_symmetry_multiplicity
 _atom_site_fract_x
 _atom_site_fract_y
 _atom_site_fract_z
 _atom_site_occupancy
  La  La0  1  0.333334  0.666658  0.750143  1
  La  La1  1  0.666661  0.333330  0.249970  1
  Y  Y2  1  0.333311  0.666710  0.541405  1
  Y  Y3  1  0.666672  0.333326  0.041094  1
  Y  Y4  1  0.666704  0.333342  0.458709  1
  Ho  Ho5  1  0.333306  0.666685  0.958482  1
  Rh  Rh6  1  0.167360  0.334712  0.124625  1
  Rh  Rh7  1  0.832713  0.665467  0.624676  1
  Rh  Rh8  1  0.665280  0.832627  0.124626  1
  Rh  Rh9  1  0.167379  0.832607  0.124615  1
  Rh  Rh10  1  0.832705  0.167247  0.624666  1
  Rh  Rh11  1  0.334469  0.167236  0.624694  1
  Rh  Rh12  1  0.832723  0.665416  0.875559  1
  Rh  Rh13  1  0.832708  0.167310  0.875571  1
  Rh  Rh14  1  0.334587  0.167294  0.875566  1
  Rh  Rh15  1  0.665543  0.832739  0.375242  1
  Rh  Rh16  1  0.167271  0.832730  0.375268  1
  Rh  Rh17  1  0.167251  0.334436  0.375240  1
  Rh  Rh18  1  0.999956  0.000071  0.249872  1
  Rh  Rh19  1  0.000045  0.000036  0.750049  1
  Rh  Rh20  1  0.333380  0.666603  0.249941  1
  Rh  Rh21  1  0.666631  0.333318  0.750058  1
  Rh  Rh22  1  0.999973  0.000012  0.999930  1
  Rh  Rh23  1  0.000039  0.000087  0.499998  1
