# generated using pymatgen
data_Y2HoSn3PdRh2
_symmetry_space_group_name_H-M   'P 1'
_cell_length_a   7.61324225
_cell_length_b   7.60603790
_cell_length_c   3.85695400
_cell_angle_alpha   90.00000000
_cell_angle_beta   90.00000000
_cell_angle_gamma   120.00166789
_symmetry_Int_Tables_number   1
_chemical_formula_structural   Y2HoSn3PdRh2
_chemical_formula_sum   'Y2 Ho1 Sn3 Pd1 Rh2'
_cell_volume   193.41757162
_cell_formula_units_Z   1
loop_
 _symmetry_equiv_pos_site_id
 _symmetry_equiv_pos_as_xyz
  1  'x, y, z'
loop_
 _atom_site_type_symbol
 _atom_site_label
 _atom_site_symmetry_multiplicity
 _atom_site_fract_x
 _atom_site_fract_y
 _atom_site_fract_z
 _atom_site_occupancy
  Y  Y0  1  0.008915  0.408055  0.000000  1
  Y  Y1  1  0.591897  0.600872  0.000000  1
  Ho  Ho2  1  0.399032  0.990644  0.000000  1
  Sn  Sn3  1  0.260359  0.260838  0.500000  1
  Sn  Sn4  1  0.001172  0.739988  0.500000  1
  Sn  Sn5  1  0.738687  0.999241  0.500000  1
  Pd  Pd6  1  0.665771  0.332274  0.500000  1
  Rh  Rh7  1  0.333527  0.668125  0.500000  1
  Rh  Rh8  1  0.000639  0.999963  0.000000  1
