# generated using pymatgen
data_Dy3In3NiIrRh
_symmetry_space_group_name_H-M   'P 1'
_cell_length_a   7.58617600
_cell_length_b   7.58617675
_cell_length_c   3.79644800
_cell_angle_alpha   90.00000000
_cell_angle_beta   90.00000000
_cell_angle_gamma   119.99999673
_symmetry_Int_Tables_number   1
_chemical_formula_structural   Dy3In3NiIrRh
_chemical_formula_sum   'Dy3 In3 Ni1 Ir1 Rh1'
_cell_volume   189.21430766
_cell_formula_units_Z   1
loop_
 _symmetry_equiv_pos_site_id
 _symmetry_equiv_pos_as_xyz
  1  'x, y, z'
loop_
 _atom_site_type_symbol
 _atom_site_label
 _atom_site_symmetry_multiplicity
 _atom_site_fract_x
 _atom_site_fract_y
 _atom_site_fract_z
 _atom_site_occupancy
  Dy  Dy0  1  0.997710  0.587450  0.500000  1
  Dy  Dy1  1  0.589740  0.002290  0.500000  1
  Dy  Dy2  1  0.412550  0.410260  0.500000  1
  In  In3  1  0.000366  0.251279  0.000000  1
  In  In4  1  0.250913  0.999634  0.000000  1
  In  In5  1  0.748721  0.749087  0.000000  1
  Ni  Ni6  1  0.000000  0.000000  0.500000  1
  Ir  Ir7  1  0.666667  0.333333  0.000000  1
  Rh  Rh8  1  0.333333  0.666667  0.000000  1
