# generated using pymatgen
data_Rb3Sn2Pb2Au
_symmetry_space_group_name_H-M   'P 1'
_cell_length_a   6.91961400
_cell_length_b   7.07300700
_cell_length_c   13.74865100
_cell_angle_alpha   90.00000000
_cell_angle_beta   90.00000000
_cell_angle_gamma   90.00000000
_symmetry_Int_Tables_number   1
_chemical_formula_structural   Rb3Sn2Pb2Au
_chemical_formula_sum   'Rb6 Sn4 Pb4 Au2'
_cell_volume   672.89305266
_cell_formula_units_Z   2
loop_
 _symmetry_equiv_pos_site_id
 _symmetry_equiv_pos_as_xyz
  1  'x, y, z'
loop_
 _atom_site_type_symbol
 _atom_site_label
 _atom_site_symmetry_multiplicity
 _atom_site_fract_x
 _atom_site_fract_y
 _atom_site_fract_z
 _atom_site_occupancy
  Rb  Rb0  1  0.543276  0.000000  0.000000  1
  Rb  Rb1  1  0.456724  0.500000  0.500000  1
  Rb  Rb2  1  0.812179  0.500000  0.753120  1
  Rb  Rb3  1  0.812179  0.500000  0.246880  1
  Rb  Rb4  1  0.187821  0.000000  0.746880  1
  Rb  Rb5  1  0.187821  0.000000  0.253120  1
  Sn  Sn6  1  0.319261  0.500000  0.885404  1
  Sn  Sn7  1  0.319261  0.500000  0.114596  1
  Sn  Sn8  1  0.680739  0.000000  0.385404  1
  Sn  Sn9  1  0.680739  0.000000  0.614596  1
  Pb  Pb10  1  0.028454  0.263672  0.000000  1
  Pb  Pb11  1  0.028454  0.736328  0.000000  1
  Pb  Pb12  1  0.971546  0.763672  0.500000  1
  Pb  Pb13  1  0.971546  0.236328  0.500000  1
  Au  Au14  1  0.664528  0.500000  0.000000  1
  Au  Au15  1  0.335472  0.000000  0.500000  1
