# generated using pymatgen
data_PmSiNi4
_symmetry_space_group_name_H-M   'P 1'
_cell_length_a   4.88185170
_cell_length_b   5.15657990
_cell_length_c   3.94899400
_cell_angle_alpha   90.00000000
_cell_angle_beta   90.00000000
_cell_angle_gamma   58.12126632
_symmetry_Int_Tables_number   1
_chemical_formula_structural   PmSiNi4
_chemical_formula_sum   'Pm1 Si1 Ni4'
_cell_volume   84.41629919
_cell_formula_units_Z   1
loop_
 _symmetry_equiv_pos_site_id
 _symmetry_equiv_pos_as_xyz
  1  'x, y, z'
loop_
 _atom_site_type_symbol
 _atom_site_label
 _atom_site_symmetry_multiplicity
 _atom_site_fract_x
 _atom_site_fract_y
 _atom_site_fract_z
 _atom_site_occupancy
  Pm  Pm0  1  0.000038  0.999955  0.000000  1
  Si  Si1  1  0.999965  0.500005  0.499999  1
  Ni  Ni2  1  0.312826  0.343499  0.000000  1
  Ni  Ni3  1  0.687179  0.656425  0.000000  1
  Ni  Ni4  1  0.500116  0.000007  0.499999  1
  Ni  Ni5  1  0.499869  0.500112  0.499999  1
