# generated using pymatgen
data_Hf8Co12Si15P
_symmetry_space_group_name_H-M   'P 1'
_cell_length_a   5.19002465
_cell_length_b   6.73710849
_cell_length_c   13.65957713
_cell_angle_alpha   90.19429627
_cell_angle_beta   89.81160303
_cell_angle_gamma   89.94397620
_symmetry_Int_Tables_number   1
_chemical_formula_structural   Hf8Co12Si15P
_chemical_formula_sum   'Hf8 Co12 Si15 P1'
_cell_volume   477.61192135
_cell_formula_units_Z   1
loop_
 _symmetry_equiv_pos_site_id
 _symmetry_equiv_pos_as_xyz
  1  'x, y, z'
loop_
 _atom_site_type_symbol
 _atom_site_label
 _atom_site_symmetry_multiplicity
 _atom_site_fract_x
 _atom_site_fract_y
 _atom_site_fract_z
 _atom_site_occupancy
  Hf  Hf0  1  0.232732  0.396196  0.146839  1
  Hf  Hf1  1  0.735575  0.096440  0.145002  1
  Hf  Hf2  1  0.269398  0.100387  0.646122  1
  Hf  Hf3  1  0.769315  0.398330  0.646286  1
  Hf  Hf4  1  0.231405  0.599487  0.354462  1
  Hf  Hf5  1  0.731654  0.898250  0.353571  1
  Hf  Hf6  1  0.267013  0.899125  0.852952  1
  Hf  Hf7  1  0.768250  0.601465  0.854532  1
  Co  Co8  1  0.994480  0.268436  0.981358  1
  Co  Co9  1  0.505893  0.223291  0.481019  1
  Co  Co10  1  0.776282  0.001377  0.748797  1
  Co  Co11  1  0.490478  0.224242  0.982040  1
  Co  Co12  1  0.723505  0.495942  0.249712  1
  Co  Co13  1  0.493279  0.775615  0.518715  1
  Co  Co14  1  0.006883  0.275460  0.481096  1
  Co  Co15  1  0.005570  0.739677  0.020973  1
  Co  Co16  1  0.225410  0.001591  0.245562  1
  Co  Co17  1  0.276795  0.500373  0.751168  1
  Co  Co18  1  0.502527  0.782738  0.020640  1
  Co  Co19  1  0.993660  0.723627  0.518872  1
  Si  Si20  1  0.716863  0.518343  0.432145  1
  Si  Si21  1  0.783300  0.019240  0.567469  1
  Si  Si22  1  0.482232  0.749482  0.188897  1
  Si  Si23  1  0.019661  0.254662  0.812455  1
  Si  Si24  1  0.518849  0.246153  0.812674  1
  Si  Si25  1  0.216833  0.980128  0.431635  1
  Si  Si26  1  0.277956  0.522656  0.933476  1
  Si  Si27  1  0.980314  0.740890  0.189767  1
  Si  Si28  1  0.721169  0.482782  0.067522  1
  Si  Si29  1  0.283122  0.480380  0.568335  1
  Si  Si30  1  0.480890  0.243690  0.312269  1
  Si  Si31  1  0.019945  0.745065  0.687643  1
  Si  Si32  1  0.776170  0.980962  0.927524  1
  Si  Si33  1  0.520684  0.753598  0.687532  1
  Si  Si34  1  0.980283  0.252127  0.312391  1
  P  P35  1  0.221625  0.027794  0.068547  1
