# generated using pymatgen
data_DyPa(GeRu)2
_symmetry_space_group_name_H-M   'P 1'
_cell_length_a   4.53840900
_cell_length_b   6.93103449
_cell_length_c   7.27616000
_cell_angle_alpha   85.44705869
_cell_angle_beta   90.00000000
_cell_angle_gamma   90.00000000
_symmetry_Int_Tables_number   1
_chemical_formula_structural   DyPa(GeRu)2
_chemical_formula_sum   'Dy2 Pa2 Ge4 Ru4'
_cell_volume   228.15569353
_cell_formula_units_Z   2
loop_
 _symmetry_equiv_pos_site_id
 _symmetry_equiv_pos_as_xyz
  1  'x, y, z'
loop_
 _atom_site_type_symbol
 _atom_site_label
 _atom_site_symmetry_multiplicity
 _atom_site_fract_x
 _atom_site_fract_y
 _atom_site_fract_z
 _atom_site_occupancy
  Dy  Dy0  1  0.250000  0.481229  0.710245  1
  Dy  Dy1  1  0.750000  0.518771  0.289755  1
  Pa  Pa2  1  0.250000  0.985383  0.802583  1
  Pa  Pa3  1  0.750000  0.014617  0.197417  1
  Ge  Ge4  1  0.250000  0.323397  0.105948  1
  Ge  Ge5  1  0.750000  0.676603  0.894052  1
  Ge  Ge6  1  0.250000  0.786894  0.405300  1
  Ge  Ge7  1  0.750000  0.213106  0.594700  1
  Ru  Ru8  1  0.750000  0.847735  0.547601  1
  Ru  Ru9  1  0.250000  0.152265  0.452399  1
  Ru  Ru10  1  0.750000  0.261967  0.945095  1
  Ru  Ru11  1  0.250000  0.738033  0.054905  1
