# generated using pymatgen
data_Rb3Ba3InAs4
_symmetry_space_group_name_H-M   'P 1'
_cell_length_a   10.92437200
_cell_length_b   10.92437315
_cell_length_c   8.04623100
_cell_angle_alpha   90.00000000
_cell_angle_beta   90.00000000
_cell_angle_gamma   119.99999652
_symmetry_Int_Tables_number   1
_chemical_formula_structural   Rb3Ba3InAs4
_chemical_formula_sum   'Rb6 Ba6 In2 As8'
_cell_volume   831.60319679
_cell_formula_units_Z   2
loop_
 _symmetry_equiv_pos_site_id
 _symmetry_equiv_pos_as_xyz
  1  'x, y, z'
loop_
 _atom_site_type_symbol
 _atom_site_label
 _atom_site_symmetry_multiplicity
 _atom_site_fract_x
 _atom_site_fract_y
 _atom_site_fract_z
 _atom_site_occupancy
  Rb  Rb0  1  0.136715  0.863285  0.175549  1
  Rb  Rb1  1  0.273432  0.136715  0.675549  1
  Rb  Rb2  1  0.863285  0.726568  0.675549  1
  Rb  Rb3  1  0.136715  0.273432  0.175549  1
  Rb  Rb4  1  0.726568  0.863285  0.175549  1
  Rb  Rb5  1  0.863285  0.136715  0.675549  1
  Ba  Ba6  1  0.472562  0.945123  0.502308  1
  Ba  Ba7  1  0.527438  0.054877  0.002308  1
  Ba  Ba8  1  0.945123  0.472562  0.002308  1
  Ba  Ba9  1  0.472562  0.527438  0.502308  1
  Ba  Ba10  1  0.527438  0.472562  0.002308  1
  Ba  Ba11  1  0.054877  0.527438  0.502308  1
  In  In12  1  0.333333  0.666667  0.880253  1
  In  In13  1  0.666667  0.333333  0.380253  1
  As  As14  1  0.197824  0.802176  0.766631  1
  As  As15  1  0.395648  0.197824  0.266631  1
  As  As16  1  0.802176  0.604352  0.266631  1
  As  As17  1  0.197824  0.395648  0.766631  1
  As  As18  1  0.604352  0.802176  0.766631  1
  As  As19  1  0.802176  0.197824  0.266631  1
  As  As20  1  0.333333  0.666667  0.226967  1
  As  As21  1  0.666667  0.333333  0.726967  1
