# generated using pymatgen
data_AcZn12Ru
_symmetry_space_group_name_H-M   'P 1'
_cell_length_a   8.72828657
_cell_length_b   8.85318010
_cell_length_c   8.64688572
_cell_angle_alpha   59.82179108
_cell_angle_beta   59.68332198
_cell_angle_gamma   58.91518989
_symmetry_Int_Tables_number   1
_chemical_formula_structural   AcZn12Ru
_chemical_formula_sum   'Ac2 Zn24 Ru2'
_cell_volume   466.74113269
_cell_formula_units_Z   2
loop_
 _symmetry_equiv_pos_site_id
 _symmetry_equiv_pos_as_xyz
  1  'x, y, z'
loop_
 _atom_site_type_symbol
 _atom_site_label
 _atom_site_symmetry_multiplicity
 _atom_site_fract_x
 _atom_site_fract_y
 _atom_site_fract_z
 _atom_site_occupancy
  Ac  Ac0  1  0.240033  0.259967  0.240033  1
  Ac  Ac1  1  0.759967  0.740033  0.759967  1
  Zn  Zn2  1  0.500000  0.500000  0.500000  1
  Zn  Zn3  1  0.000000  0.000000  0.000000  1
  Zn  Zn4  1  0.566786  0.790909  0.433214  1
  Zn  Zn5  1  0.433214  0.209091  0.566786  1
  Zn  Zn6  1  0.310249  0.939156  0.689751  1
  Zn  Zn7  1  0.689751  0.060844  0.310249  1
  Zn  Zn8  1  0.942749  0.305855  0.057251  1
  Zn  Zn9  1  0.057251  0.694145  0.942749  1
  Zn  Zn10  1  0.196336  0.797255  0.565304  1
  Zn  Zn11  1  0.803664  0.202745  0.434696  1
  Zn  Zn12  1  0.434696  0.558895  0.803664  1
  Zn  Zn13  1  0.565304  0.441105  0.196336  1
  Zn  Zn14  1  0.700080  0.292402  0.939936  1
  Zn  Zn15  1  0.299920  0.707598  0.060064  1
  Zn  Zn16  1  0.060064  0.932419  0.299920  1
  Zn  Zn17  1  0.939936  0.067581  0.700080  1
  Zn  Zn18  1  0.550983  0.202076  0.807748  1
  Zn  Zn19  1  0.449017  0.797924  0.192252  1
  Zn  Zn20  1  0.807748  0.439193  0.550983  1
  Zn  Zn21  1  0.192252  0.560807  0.449017  1
  Zn  Zn22  1  0.940555  0.698562  0.293921  1
  Zn  Zn23  1  0.059445  0.301438  0.706079  1
  Zn  Zn24  1  0.293921  0.066963  0.940555  1
  Zn  Zn25  1  0.706079  0.933037  0.059445  1
  Ru  Ru26  1  0.793467  0.558990  0.206533  1
  Ru  Ru27  1  0.206533  0.441010  0.793467  1
