# generated using pymatgen
data_ThGa2NiRh
_symmetry_space_group_name_H-M   'P 1'
_cell_length_a   4.27251400
_cell_length_b   4.27251400
_cell_length_c   9.77098300
_cell_angle_alpha   90.00000000
_cell_angle_beta   90.00000000
_cell_angle_gamma   90.00000000
_symmetry_Int_Tables_number   1
_chemical_formula_structural   ThGa2NiRh
_chemical_formula_sum   'Th2 Ga4 Ni2 Rh2'
_cell_volume   178.36319640
_cell_formula_units_Z   2
loop_
 _symmetry_equiv_pos_site_id
 _symmetry_equiv_pos_as_xyz
  1  'x, y, z'
loop_
 _atom_site_type_symbol
 _atom_site_label
 _atom_site_symmetry_multiplicity
 _atom_site_fract_x
 _atom_site_fract_y
 _atom_site_fract_z
 _atom_site_occupancy
  Th  Th0  1  0.000000  0.500000  0.248403  1
  Th  Th1  1  0.500000  0.000000  0.751597  1
  Ga  Ga2  1  0.500000  0.000000  0.135941  1
  Ga  Ga3  1  0.000000  0.000000  0.500000  1
  Ga  Ga4  1  0.500000  0.500000  0.500000  1
  Ga  Ga5  1  0.000000  0.500000  0.864059  1
  Ni  Ni6  1  0.500000  0.000000  0.376215  1
  Ni  Ni7  1  0.000000  0.500000  0.623785  1
  Rh  Rh8  1  0.000000  0.000000  0.000000  1
  Rh  Rh9  1  0.500000  0.500000  0.000000  1
