# generated using pymatgen
data_Nd2TeP
_symmetry_space_group_name_H-M   'P 1'
_cell_length_a   7.69602961
_cell_length_b   7.69602900
_cell_length_c   7.69602842
_cell_angle_alpha   32.23567472
_cell_angle_beta   32.23568024
_cell_angle_gamma   32.23567953
_symmetry_Int_Tables_number   1
_chemical_formula_structural   Nd2TeP
_chemical_formula_sum   'Nd2 Te1 P1'
_cell_volume   115.27290838
_cell_formula_units_Z   1
loop_
 _symmetry_equiv_pos_site_id
 _symmetry_equiv_pos_as_xyz
  1  'x, y, z'
loop_
 _atom_site_type_symbol
 _atom_site_label
 _atom_site_symmetry_multiplicity
 _atom_site_fract_x
 _atom_site_fract_y
 _atom_site_fract_z
 _atom_site_occupancy
  Nd  Nd0  1  0.261904  0.261904  0.261904  1
  Nd  Nd1  1  0.738096  0.738096  0.738096  1
  Te  Te2  1  0.500000  0.500000  0.500000  1
  P  P3  1  0.000000  0.000000  0.000000  1
