# generated using pymatgen
data_KRb(AlGe)2
_symmetry_space_group_name_H-M   'P 1'
_cell_length_a   4.36955200
_cell_length_b   4.36955200
_cell_length_c   8.48122200
_cell_angle_alpha   90.00000000
_cell_angle_beta   90.00000000
_cell_angle_gamma   90.00000000
_symmetry_Int_Tables_number   1
_chemical_formula_structural   KRb(AlGe)2
_chemical_formula_sum   'K1 Rb1 Al2 Ge2'
_cell_volume   161.93184172
_cell_formula_units_Z   1
loop_
 _symmetry_equiv_pos_site_id
 _symmetry_equiv_pos_as_xyz
  1  'x, y, z'
loop_
 _atom_site_type_symbol
 _atom_site_label
 _atom_site_symmetry_multiplicity
 _atom_site_fract_x
 _atom_site_fract_y
 _atom_site_fract_z
 _atom_site_occupancy
  K  K0  1  0.000000  0.499999  0.661483  1
  Rb  Rb1  1  0.499999  0.000000  0.350969  1
  Al  Al2  1  0.000000  0.000000  0.997137  1
  Al  Al3  1  0.499999  0.499999  0.997137  1
  Ge  Ge4  1  0.000000  0.499999  0.175157  1
  Ge  Ge5  1  0.499999  0.000000  0.818116  1
