# generated using pymatgen
data_Ba4ZnIrO8
_symmetry_space_group_name_H-M   'P 1'
_cell_length_a   7.21778125
_cell_length_b   7.21778132
_cell_length_c   5.93745400
_cell_angle_alpha   90.00000000
_cell_angle_beta   90.00000000
_cell_angle_gamma   131.53001575
_symmetry_Int_Tables_number   1
_chemical_formula_structural   Ba4ZnIrO8
_chemical_formula_sum   'Ba4 Zn1 Ir1 O8'
_cell_volume   231.55941361
_cell_formula_units_Z   1
loop_
 _symmetry_equiv_pos_site_id
 _symmetry_equiv_pos_as_xyz
  1  'x, y, z'
loop_
 _atom_site_type_symbol
 _atom_site_label
 _atom_site_symmetry_multiplicity
 _atom_site_fract_x
 _atom_site_fract_y
 _atom_site_fract_z
 _atom_site_occupancy
  Ba  Ba0  1  0.644653  0.355347  0.000000  1
  Ba  Ba1  1  0.141791  0.858209  0.500000  1
  Ba  Ba2  1  0.858209  0.141791  0.500000  1
  Ba  Ba3  1  0.355347  0.644653  0.000000  1
  Zn  Zn4  1  0.000000  0.000000  0.000000  1
  Ir  Ir5  1  0.500000  0.500000  0.500000  1
  O  O6  1  0.733438  0.733438  0.268756  1
  O  O7  1  0.266562  0.266562  0.731244  1
  O  O8  1  0.266562  0.266562  0.268756  1
  O  O9  1  0.733438  0.733438  0.731244  1
  O  O10  1  0.846198  0.153802  0.000000  1
  O  O11  1  0.347020  0.652980  0.500000  1
  O  O12  1  0.652980  0.347020  0.500000  1
  O  O13  1  0.153802  0.846198  0.000000  1
