# generated using pymatgen
data_Y4In2Cu3Ir
_symmetry_space_group_name_H-M   'P 1'
_cell_length_a   7.61579469
_cell_length_b   7.61579469
_cell_length_c   3.72759300
_cell_angle_alpha   90.00000000
_cell_angle_beta   90.00000000
_cell_angle_gamma   90.19200932
_symmetry_Int_Tables_number   1
_chemical_formula_structural   Y4In2Cu3Ir
_chemical_formula_sum   'Y4 In2 Cu3 Ir1'
_cell_volume   216.20040552
_cell_formula_units_Z   1
loop_
 _symmetry_equiv_pos_site_id
 _symmetry_equiv_pos_as_xyz
  1  'x, y, z'
loop_
 _atom_site_type_symbol
 _atom_site_label
 _atom_site_symmetry_multiplicity
 _atom_site_fract_x
 _atom_site_fract_y
 _atom_site_fract_z
 _atom_site_occupancy
  Y  Y0  1  0.672371  0.172371  0.500000  1
  Y  Y1  1  0.317431  0.817431  0.500000  1
  Y  Y2  1  0.179949  0.337125  0.500000  1
  Y  Y3  1  0.837125  0.679949  0.500000  1
  In  In4  1  0.505502  0.499759  0.000000  1
  In  In5  1  0.999759  0.005502  0.000000  1
  Cu  Cu6  1  0.873046  0.373046  0.000000  1
  Cu  Cu7  1  0.617581  0.879824  0.000000  1
  Cu  Cu8  1  0.379824  0.117581  0.000000  1
  Ir  Ir9  1  0.117412  0.617412  0.000000  1
