# generated using pymatgen
data_Rb4BaPaSe6
_symmetry_space_group_name_H-M   'P 1'
_cell_length_a   8.09144741
_cell_length_b   8.09144794
_cell_length_c   8.31104200
_cell_angle_alpha   80.42209442
_cell_angle_beta   80.42210097
_cell_angle_gamma   119.66742174
_symmetry_Int_Tables_number   1
_chemical_formula_structural   Rb4BaPaSe6
_chemical_formula_sum   'Rb4 Ba1 Pa1 Se6'
_cell_volume   446.13673361
_cell_formula_units_Z   1
loop_
 _symmetry_equiv_pos_site_id
 _symmetry_equiv_pos_as_xyz
  1  'x, y, z'
loop_
 _atom_site_type_symbol
 _atom_site_label
 _atom_site_symmetry_multiplicity
 _atom_site_fract_x
 _atom_site_fract_y
 _atom_site_fract_z
 _atom_site_occupancy
  Rb  Rb0  1  0.500298  0.499702  0.000000  1
  Rb  Rb1  1  0.658213  0.341787  0.500000  1
  Rb  Rb2  1  0.344204  0.655796  0.500000  1
  Rb  Rb3  1  0.998338  0.001662  0.500000  1
  Ba  Ba4  1  0.832143  0.167857  0.000000  1
  Pa  Pa5  1  0.166992  0.833008  0.000000  1
  Se  Se6  1  0.821599  0.779449  0.205720  1
  Se  Se7  1  0.220551  0.178401  0.794280  1
  Se  Se8  1  0.384060  0.034070  0.207436  1
  Se  Se9  1  0.526756  0.919082  0.790558  1
  Se  Se10  1  0.965930  0.615940  0.792564  1
  Se  Se11  1  0.080918  0.473244  0.209442  1
