# generated using pymatgen
data_Sm8Dy8Sc4Si15Pt
_symmetry_space_group_name_H-M   'P 1'
_cell_length_a   7.30573831
_cell_length_b   7.77365822
_cell_length_c   14.54071400
_cell_angle_alpha   90.00000000
_cell_angle_beta   90.00000000
_cell_angle_gamma   90.01538697
_symmetry_Int_Tables_number   1
_chemical_formula_structural   Sm8Dy8Sc4Si15Pt
_chemical_formula_sum   'Sm8 Dy8 Sc4 Si15 Pt1'
_cell_volume   825.80074600
_cell_formula_units_Z   1
loop_
 _symmetry_equiv_pos_site_id
 _symmetry_equiv_pos_as_xyz
  1  'x, y, z'
loop_
 _atom_site_type_symbol
 _atom_site_label
 _atom_site_symmetry_multiplicity
 _atom_site_fract_x
 _atom_site_fract_y
 _atom_site_fract_z
 _atom_site_occupancy
  Sm  Sm0  1  0.018472  0.183073  0.096673  1
  Sm  Sm1  1  0.983873  0.819323  0.903661  1
  Sm  Sm2  1  0.483096  0.680904  0.904874  1
  Sm  Sm3  1  0.983873  0.819323  0.596339  1
  Sm  Sm4  1  0.518809  0.318590  0.096938  1
  Sm  Sm5  1  0.018472  0.183073  0.403327  1
  Sm  Sm6  1  0.518809  0.318590  0.403062  1
  Sm  Sm7  1  0.483096  0.680904  0.595126  1
  Dy  Dy8  1  0.314560  0.173999  0.627281  1
  Dy  Dy9  1  0.678855  0.824382  0.373730  1
  Dy  Dy10  1  0.177694  0.679427  0.374201  1
  Dy  Dy11  1  0.678855  0.824382  0.126270  1
  Dy  Dy12  1  0.825133  0.320246  0.627336  1
  Dy  Dy13  1  0.314560  0.173999  0.872719  1
  Dy  Dy14  1  0.825133  0.320246  0.872664  1
  Dy  Dy15  1  0.177694  0.679427  0.125799  1
  Sc  Sc16  1  0.155586  0.520908  0.750000  1
  Sc  Sc17  1  0.843231  0.484582  0.250000  1
  Sc  Sc18  1  0.344184  0.016739  0.250000  1
  Sc  Sc19  1  0.659849  0.983711  0.750000  1
  Si  Si20  1  0.981114  0.904361  0.250000  1
  Si  Si21  1  0.480070  0.598128  0.250000  1
  Si  Si22  1  0.518159  0.403603  0.750000  1
  Si  Si23  1  0.284691  0.863600  0.750000  1
  Si  Si24  1  0.720454  0.132365  0.250000  1
  Si  Si25  1  0.220837  0.368749  0.250000  1
  Si  Si26  1  0.773574  0.627791  0.750000  1
  Si  Si27  1  0.151914  0.471436  0.539303  1
  Si  Si28  1  0.849055  0.530965  0.460601  1
  Si  Si29  1  0.350710  0.970243  0.460215  1
  Si  Si30  1  0.849055  0.530965  0.039399  1
  Si  Si31  1  0.650545  0.030412  0.540020  1
  Si  Si32  1  0.151914  0.471436  0.960697  1
  Si  Si33  1  0.650545  0.030412  0.959980  1
  Si  Si34  1  0.350710  0.970243  0.039785  1
  Pt  Pt35  1  0.012821  0.089465  0.750000  1
