# generated using pymatgen
data_Sm5TmCoP12Rh17
_symmetry_space_group_name_H-M   'P 1'
_cell_length_a   3.92115600
_cell_length_b   11.21455745
_cell_length_c   12.87008460
_cell_angle_alpha   89.96612867
_cell_angle_beta   90.00000000
_cell_angle_gamma   90.00000000
_symmetry_Int_Tables_number   1
_chemical_formula_structural   Sm5TmCoP12Rh17
_chemical_formula_sum   'Sm5 Tm1 Co1 P12 Rh17'
_cell_volume   565.94937795
_cell_formula_units_Z   1
loop_
 _symmetry_equiv_pos_site_id
 _symmetry_equiv_pos_as_xyz
  1  'x, y, z'
loop_
 _atom_site_type_symbol
 _atom_site_label
 _atom_site_symmetry_multiplicity
 _atom_site_fract_x
 _atom_site_fract_y
 _atom_site_fract_z
 _atom_site_occupancy
  Sm  Sm0  1  0.000000  0.499174  0.519982  1
  Sm  Sm1  1  0.500000  0.999637  0.478194  1
  Sm  Sm2  1  0.500000  0.182860  0.203743  1
  Sm  Sm3  1  0.000000  0.689398  0.796973  1
  Sm  Sm4  1  0.000000  0.312051  0.797908  1
  Tm  Tm5  1  0.500000  0.818113  0.203041  1
  Co  Co6  1  0.500000  0.999166  0.023403  1
  P  P7  1  0.500000  0.500930  0.881269  1
  P  P8  1  0.000000  0.999081  0.119916  1
  P  P9  1  0.500000  0.499342  0.347813  1
  P  P10  1  0.000000  0.000033  0.649283  1
  P  P11  1  0.500000  0.314191  0.618853  1
  P  P12  1  0.500000  0.685597  0.616808  1
  P  P13  1  0.000000  0.184638  0.382315  1
  P  P14  1  0.000000  0.813366  0.378896  1
  P  P15  1  0.500000  0.858385  0.896398  1
  P  P16  1  0.500000  0.143058  0.897420  1
  P  P17  1  0.000000  0.658666  0.106392  1
  P  P18  1  0.000000  0.345725  0.106469  1
  Rh  Rh19  1  0.500000  0.498154  0.167476  1
  Rh  Rh20  1  0.000000  0.997140  0.830001  1
  Rh  Rh21  1  0.500000  0.500689  0.702913  1
  Rh  Rh22  1  0.000000  0.997689  0.296954  1
  Rh  Rh23  1  0.000000  0.501358  0.982592  1
  Rh  Rh24  1  0.500000  0.331524  0.994956  1
  Rh  Rh25  1  0.500000  0.670145  0.996411  1
  Rh  Rh26  1  0.000000  0.159162  0.004945  1
  Rh  Rh27  1  0.000000  0.840339  0.007111  1
  Rh  Rh28  1  0.500000  0.292451  0.430379  1
  Rh  Rh29  1  0.500000  0.706432  0.427563  1
  Rh  Rh30  1  0.000000  0.205710  0.570023  1
  Rh  Rh31  1  0.000000  0.792239  0.568089  1
  Rh  Rh32  1  0.500000  0.875252  0.709446  1
  Rh  Rh33  1  0.500000  0.124825  0.712063  1
  Rh  Rh34  1  0.000000  0.628881  0.284818  1
  Rh  Rh35  1  0.000000  0.374600  0.289183  1
