# generated using pymatgen
data_Yb3CeSb3
_symmetry_space_group_name_H-M   'P 1'
_cell_length_a   8.22442118
_cell_length_b   8.25593108
_cell_length_c   8.25096844
_cell_angle_alpha   109.54644725
_cell_angle_beta   109.49275379
_cell_angle_gamma   109.51722036
_symmetry_Int_Tables_number   1
_chemical_formula_structural   Yb3CeSb3
_chemical_formula_sum   'Yb6 Ce2 Sb6'
_cell_volume   430.51356483
_cell_formula_units_Z   2
loop_
 _symmetry_equiv_pos_site_id
 _symmetry_equiv_pos_as_xyz
  1  'x, y, z'
loop_
 _atom_site_type_symbol
 _atom_site_label
 _atom_site_symmetry_multiplicity
 _atom_site_fract_x
 _atom_site_fract_y
 _atom_site_fract_z
 _atom_site_occupancy
  Yb  Yb0  1  0.499256  0.001139  0.855451  1
  Yb  Yb1  1  0.856448  0.499228  0.001559  1
  Yb  Yb2  1  0.143552  0.142780  0.145112  1
  Yb  Yb3  1  0.001502  0.855510  0.499821  1
  Yb  Yb4  1  0.500744  0.001884  0.356195  1
  Yb  Yb5  1  0.998498  0.354008  0.498318  1
  Ce  Ce6  1  0.354748  0.500531  0.999532  1
  Ce  Ce7  1  0.645252  0.645783  0.644784  1
  Sb  Sb8  1  0.748647  0.874286  0.123417  1
  Sb  Sb9  1  0.374839  0.250410  0.625468  1
  Sb  Sb10  1  0.251353  0.625639  0.374770  1
  Sb  Sb11  1  0.875903  0.124567  0.750423  1
  Sb  Sb12  1  0.625161  0.375571  0.250629  1
  Sb  Sb13  1  0.124097  0.748664  0.874521  1
