# generated using pymatgen
data_Li5MoO5
_symmetry_space_group_name_H-M   'P 1'
_cell_length_a   5.29678275
_cell_length_b   5.29678247
_cell_length_c   5.84333438
_cell_angle_alpha   70.71246614
_cell_angle_beta   70.71246488
_cell_angle_gamma   45.31688116
_symmetry_Int_Tables_number   1
_chemical_formula_structural   Li5MoO5
_chemical_formula_sum   'Li5 Mo1 O5'
_cell_volume   108.83978076
_cell_formula_units_Z   1
loop_
 _symmetry_equiv_pos_site_id
 _symmetry_equiv_pos_as_xyz
  1  'x, y, z'
loop_
 _atom_site_type_symbol
 _atom_site_label
 _atom_site_symmetry_multiplicity
 _atom_site_fract_x
 _atom_site_fract_y
 _atom_site_fract_z
 _atom_site_occupancy
  Li  Li0  1  0.315002  0.315002  0.366452  1
  Li  Li1  1  0.288618  0.288618  0.834171  1
  Li  Li2  1  0.711382  0.711382  0.165829  1
  Li  Li3  1  0.684998  0.684998  0.633548  1
  Li  Li4  1  0.000000  0.000000  0.000000  1
  Mo  Mo5  1  0.000000  0.000000  0.500000  1
  O  O6  1  0.855447  0.855447  0.320170  1
  O  O7  1  0.144553  0.144553  0.679830  1
  O  O8  1  0.500000  0.500000  0.500000  1
  O  O9  1  0.839914  0.839914  0.813691  1
  O  O10  1  0.160086  0.160086  0.186309  1
