# generated using pymatgen
data_CaSm6FeI12
_symmetry_space_group_name_H-M   'P 1'
_cell_length_a   9.89565512
_cell_length_b   9.89565420
_cell_length_c   9.89565484
_cell_angle_alpha   106.94788003
_cell_angle_beta   106.94788305
_cell_angle_gamma   106.94787788
_symmetry_Int_Tables_number   1
_chemical_formula_structural   CaSm6FeI12
_chemical_formula_sum   'Ca1 Sm6 Fe1 I12'
_cell_volume   808.15536336
_cell_formula_units_Z   1
loop_
 _symmetry_equiv_pos_site_id
 _symmetry_equiv_pos_as_xyz
  1  'x, y, z'
loop_
 _atom_site_type_symbol
 _atom_site_label
 _atom_site_symmetry_multiplicity
 _atom_site_fract_x
 _atom_site_fract_y
 _atom_site_fract_z
 _atom_site_occupancy
  Ca  Ca0  1  0.500000  0.500000  0.500000  1
  Sm  Sm1  1  0.095051  0.294339  0.024376  1
  Sm  Sm2  1  0.024376  0.095051  0.294339  1
  Sm  Sm3  1  0.294339  0.024376  0.095051  1
  Sm  Sm4  1  0.904949  0.705661  0.975624  1
  Sm  Sm5  1  0.975624  0.904949  0.705661  1
  Sm  Sm6  1  0.705661  0.975624  0.904949  1
  Fe  Fe7  1  0.000000  0.000000  0.000000  1
  I  I8  1  0.457188  0.379144  0.151256  1
  I  I9  1  0.151256  0.457188  0.379144  1
  I  I10  1  0.379144  0.151256  0.457188  1
  I  I11  1  0.542812  0.620856  0.848744  1
  I  I12  1  0.848744  0.542812  0.620856  1
  I  I13  1  0.620856  0.848744  0.542812  1
  I  I14  1  0.774942  0.317682  0.927119  1
  I  I15  1  0.927119  0.774942  0.317682  1
  I  I16  1  0.317682  0.927119  0.774942  1
  I  I17  1  0.225058  0.682318  0.072881  1
  I  I18  1  0.072881  0.225058  0.682318  1
  I  I19  1  0.682318  0.072881  0.225058  1
