# generated using pymatgen
data_Ti12Mn5AlOs6
_symmetry_space_group_name_H-M   'P 1'
_cell_length_a   4.31887600
_cell_length_b   6.14099700
_cell_length_c   12.93083800
_cell_angle_alpha   90.00000000
_cell_angle_beta   90.00206719
_cell_angle_gamma   90.00000000
_symmetry_Int_Tables_number   1
_chemical_formula_structural   Ti12Mn5AlOs6
_chemical_formula_sum   'Ti12 Mn5 Al1 Os6'
_cell_volume   342.95433045
_cell_formula_units_Z   1
loop_
 _symmetry_equiv_pos_site_id
 _symmetry_equiv_pos_as_xyz
  1  'x, y, z'
loop_
 _atom_site_type_symbol
 _atom_site_label
 _atom_site_symmetry_multiplicity
 _atom_site_fract_x
 _atom_site_fract_y
 _atom_site_fract_z
 _atom_site_occupancy
  Ti  Ti0  1  0.500000  0.263524  0.000000  1
  Ti  Ti1  1  0.500000  0.736476  0.000000  1
  Ti  Ti2  1  0.999888  0.254950  0.172511  1
  Ti  Ti3  1  0.999888  0.745050  0.172511  1
  Ti  Ti4  1  0.499910  0.249681  0.334619  1
  Ti  Ti5  1  0.499910  0.750319  0.334619  1
  Ti  Ti6  1  0.000000  0.249408  0.500000  1
  Ti  Ti7  1  0.000000  0.750592  0.500000  1
  Ti  Ti8  1  0.500090  0.249681  0.665380  1
  Ti  Ti9  1  0.500090  0.750319  0.665380  1
  Ti  Ti10  1  0.000112  0.254950  0.827488  1
  Ti  Ti11  1  0.000112  0.745050  0.827488  1
  Mn  Mn12  1  0.499898  0.499999  0.167202  1
  Mn  Mn13  1  0.999912  0.000000  0.332382  1
  Mn  Mn14  1  0.500000  0.499999  0.500000  1
  Mn  Mn15  1  0.000088  0.000000  0.667618  1
  Mn  Mn16  1  0.500104  0.499999  0.832799  1
  Al  Al17  1  0.000000  0.000000  0.000000  1
  Os  Os18  1  0.000000  0.499999  0.000000  1
  Os  Os19  1  0.499882  0.000000  0.163436  1
  Os  Os20  1  0.999903  0.499999  0.335062  1
  Os  Os21  1  0.500000  0.000000  0.500000  1
  Os  Os22  1  0.000097  0.499999  0.664938  1
  Os  Os23  1  0.500118  0.000000  0.836564  1
