# generated using pymatgen
data_Pr8Cd2TcAu
_symmetry_space_group_name_H-M   'P 1'
_cell_length_a   10.09749347
_cell_length_b   10.09749404
_cell_length_c   10.23040700
_cell_angle_alpha   59.56359907
_cell_angle_beta   59.56359714
_cell_angle_gamma   59.67925079
_symmetry_Int_Tables_number   1
_chemical_formula_structural   Pr8Cd2TcAu
_chemical_formula_sum   'Pr16 Cd4 Tc2 Au2'
_cell_volume   730.90158371
_cell_formula_units_Z   2
loop_
 _symmetry_equiv_pos_site_id
 _symmetry_equiv_pos_as_xyz
  1  'x, y, z'
loop_
 _atom_site_type_symbol
 _atom_site_label
 _atom_site_symmetry_multiplicity
 _atom_site_fract_x
 _atom_site_fract_y
 _atom_site_fract_z
 _atom_site_occupancy
  Pr  Pr0  1  0.348009  0.348009  0.363926  1
  Pr  Pr1  1  0.348009  0.348009  0.940057  1
  Pr  Pr2  1  0.340957  0.957110  0.350967  1
  Pr  Pr3  1  0.957110  0.340957  0.350967  1
  Pr  Pr4  1  0.819955  0.189371  0.192592  1
  Pr  Pr5  1  0.189371  0.819955  0.798082  1
  Pr  Pr6  1  0.189371  0.819955  0.192592  1
  Pr  Pr7  1  0.819955  0.189371  0.798082  1
  Pr  Pr8  1  0.189679  0.189679  0.810321  1
  Pr  Pr9  1  0.802452  0.802452  0.197548  1
  Pr  Pr10  1  0.936169  0.555154  0.567778  1
  Pr  Pr11  1  0.555154  0.936169  0.940897  1
  Pr  Pr12  1  0.555154  0.936169  0.567778  1
  Pr  Pr13  1  0.936169  0.555154  0.940897  1
  Pr  Pr14  1  0.562254  0.562254  0.937746  1
  Pr  Pr15  1  0.937353  0.937353  0.562647  1
  Cd  Cd16  1  0.580089  0.580089  0.578848  1
  Cd  Cd17  1  0.580089  0.580089  0.260974  1
  Cd  Cd18  1  0.581445  0.258414  0.580070  1
  Cd  Cd19  1  0.258414  0.581445  0.580070  1
  Tc  Tc20  1  0.144360  0.144360  0.133298  1
  Tc  Tc21  1  0.144360  0.144360  0.577982  1
  Au  Au22  1  0.152276  0.571842  0.137941  1
  Au  Au23  1  0.571842  0.152276  0.137941  1
