# generated using pymatgen
data_Tm8Si12Ni3Pt
_symmetry_space_group_name_H-M   'P 1'
_cell_length_a   7.95638400
_cell_length_b   7.95638429
_cell_length_c   7.93226500
_cell_angle_alpha   90.00000000
_cell_angle_beta   90.00000000
_cell_angle_gamma   119.99999880
_symmetry_Int_Tables_number   1
_chemical_formula_structural   Tm8Si12Ni3Pt
_chemical_formula_sum   'Tm8 Si12 Ni3 Pt1'
_cell_volume   434.86988955
_cell_formula_units_Z   1
loop_
 _symmetry_equiv_pos_site_id
 _symmetry_equiv_pos_as_xyz
  1  'x, y, z'
loop_
 _atom_site_type_symbol
 _atom_site_label
 _atom_site_symmetry_multiplicity
 _atom_site_fract_x
 _atom_site_fract_y
 _atom_site_fract_z
 _atom_site_occupancy
  Tm  Tm0  1  0.501434  0.002868  0.251456  1
  Tm  Tm1  1  0.501041  0.002082  0.748566  1
  Tm  Tm2  1  0.997132  0.498566  0.251456  1
  Tm  Tm3  1  0.997918  0.498959  0.748566  1
  Tm  Tm4  1  0.501434  0.498566  0.251456  1
  Tm  Tm5  1  0.501041  0.498959  0.748566  1
  Tm  Tm6  1  0.000000  0.000000  0.252380  1
  Tm  Tm7  1  0.000000  0.000000  0.747772  1
  Si  Si8  1  0.163664  0.327328  0.000255  1
  Si  Si9  1  0.827843  0.655686  0.999791  1
  Si  Si10  1  0.672672  0.836336  0.000255  1
  Si  Si11  1  0.829486  0.658971  0.500109  1
  Si  Si12  1  0.344314  0.172157  0.999791  1
  Si  Si13  1  0.171023  0.342045  0.499942  1
  Si  Si14  1  0.163664  0.836336  0.000255  1
  Si  Si15  1  0.341029  0.170514  0.500109  1
  Si  Si16  1  0.827843  0.172157  0.999791  1
  Si  Si17  1  0.657955  0.828977  0.499942  1
  Si  Si18  1  0.829486  0.170514  0.500109  1
  Si  Si19  1  0.171023  0.828977  0.499942  1
  Ni  Ni20  1  0.666667  0.333333  0.999905  1
  Ni  Ni21  1  0.666667  0.333333  0.499490  1
  Ni  Ni22  1  0.333333  0.666667  0.499385  1
  Pt  Pt23  1  0.333333  0.666667  0.000708  1
