# generated using pymatgen
data_Yb2Pr(HgPd)3
_symmetry_space_group_name_H-M   'P 1'
_cell_length_a   7.73069227
_cell_length_b   7.67820238
_cell_length_c   3.99005400
_cell_angle_alpha   90.00000000
_cell_angle_beta   90.00000000
_cell_angle_gamma   119.77563663
_symmetry_Int_Tables_number   1
_chemical_formula_structural   Yb2Pr(HgPd)3
_chemical_formula_sum   'Yb2 Pr1 Hg3 Pd3'
_cell_volume   205.57238775
_cell_formula_units_Z   1
loop_
 _symmetry_equiv_pos_site_id
 _symmetry_equiv_pos_as_xyz
  1  'x, y, z'
loop_
 _atom_site_type_symbol
 _atom_site_label
 _atom_site_symmetry_multiplicity
 _atom_site_fract_x
 _atom_site_fract_y
 _atom_site_fract_z
 _atom_site_occupancy
  Yb  Yb0  1  0.395009  0.394305  0.500000  1
  Yb  Yb1  1  0.604991  0.999295  0.500000  1
  Pr  Pr2  1  0.000000  0.603389  0.500000  1
  Hg  Hg3  1  0.727331  0.735869  0.000000  1
  Hg  Hg4  1  0.272669  0.008538  0.000000  1
  Hg  Hg5  1  0.000000  0.259327  0.000000  1
  Pd  Pd6  1  0.667105  0.333512  0.000000  1
  Pd  Pd7  1  0.332895  0.666408  0.000000  1
  Pd  Pd8  1  0.000000  0.999356  0.500000  1
