# generated using pymatgen
data_Ti3Si12Mo17
_symmetry_space_group_name_H-M   'P 1'
_cell_length_a   4.90757854
_cell_length_b   7.29956859
_cell_length_c   13.73204800
_cell_angle_alpha   90.00000000
_cell_angle_beta   90.00000000
_cell_angle_gamma   109.58933299
_symmetry_Int_Tables_number   1
_chemical_formula_structural   Ti3Si12Mo17
_chemical_formula_sum   'Ti3 Si12 Mo17'
_cell_volume   463.45325559
_cell_formula_units_Z   1
loop_
 _symmetry_equiv_pos_site_id
 _symmetry_equiv_pos_as_xyz
  1  'x, y, z'
loop_
 _atom_site_type_symbol
 _atom_site_label
 _atom_site_symmetry_multiplicity
 _atom_site_fract_x
 _atom_site_fract_y
 _atom_site_fract_z
 _atom_site_occupancy
  Ti  Ti0  1  0.999272  0.500415  0.750000  1
  Ti  Ti1  1  0.000113  0.499961  0.250000  1
  Ti  Ti2  1  0.499262  0.499495  0.750000  1
  Si  Si3  1  0.250721  0.001196  0.000108  1
  Si  Si4  1  0.749236  0.998812  0.499996  1
  Si  Si5  1  0.749236  0.998812  0.000004  1
  Si  Si6  1  0.250721  0.001196  0.499892  1
  Si  Si7  1  0.749581  0.499967  0.081555  1
  Si  Si8  1  0.247582  0.500057  0.581879  1
  Si  Si9  1  0.749581  0.499967  0.418445  1
  Si  Si10  1  0.247582  0.500057  0.918121  1
  Si  Si11  1  0.421328  0.835218  0.250000  1
  Si  Si12  1  0.917484  0.834669  0.750000  1
  Si  Si13  1  0.086023  0.164954  0.250000  1
  Si  Si14  1  0.582699  0.165235  0.750000  1
  Mo  Mo15  1  0.928398  0.849987  0.349648  1
  Mo  Mo16  1  0.423168  0.848847  0.850363  1
  Mo  Mo17  1  0.579292  0.150031  0.150204  1
  Mo  Mo18  1  0.074459  0.151112  0.649705  1
  Mo  Mo19  1  0.146017  0.297335  0.075183  1
  Mo  Mo20  1  0.647388  0.296186  0.575025  1
  Mo  Mo21  1  0.349433  0.702637  0.424864  1
  Mo  Mo22  1  0.851566  0.703825  0.925000  1
  Mo  Mo23  1  0.349433  0.702637  0.075136  1
  Mo  Mo24  1  0.851566  0.703825  0.575000  1
  Mo  Mo25  1  0.146017  0.297335  0.424817  1
  Mo  Mo26  1  0.647388  0.296186  0.924975  1
  Mo  Mo27  1  0.579292  0.150031  0.349796  1
  Mo  Mo28  1  0.074459  0.151112  0.850295  1
  Mo  Mo29  1  0.928398  0.849987  0.150352  1
  Mo  Mo30  1  0.423168  0.848847  0.649637  1
  Mo  Mo31  1  0.500130  0.500071  0.250000  1
