# generated using pymatgen
data_CaYb2Y5In4
_symmetry_space_group_name_H-M   'P 1'
_cell_length_a   5.35588900
_cell_length_b   6.93549954
_cell_length_c   9.51340068
_cell_angle_alpha   89.50945492
_cell_angle_beta   90.00000000
_cell_angle_gamma   90.00000000
_symmetry_Int_Tables_number   1
_chemical_formula_structural   CaYb2Y5In4
_chemical_formula_sum   'Ca1 Yb2 Y5 In4'
_cell_volume   353.36960132
_cell_formula_units_Z   1
loop_
 _symmetry_equiv_pos_site_id
 _symmetry_equiv_pos_as_xyz
  1  'x, y, z'
loop_
 _atom_site_type_symbol
 _atom_site_label
 _atom_site_symmetry_multiplicity
 _atom_site_fract_x
 _atom_site_fract_y
 _atom_site_fract_z
 _atom_site_occupancy
  Ca  Ca0  1  0.250000  0.201979  0.920318  1
  Yb  Yb1  1  0.750000  0.485574  0.781854  1
  Yb  Yb2  1  0.750000  0.984524  0.716898  1
  Y  Y3  1  0.250000  0.514110  0.220985  1
  Y  Y4  1  0.250000  0.012473  0.280679  1
  Y  Y5  1  0.750000  0.298146  0.424150  1
  Y  Y6  1  0.250000  0.700321  0.578692  1
  Y  Y7  1  0.750000  0.801589  0.074906  1
  In  In8  1  0.750000  0.268483  0.101248  1
  In  In9  1  0.250000  0.729452  0.911780  1
  In  In10  1  0.750000  0.766772  0.404950  1
  In  In11  1  0.250000  0.236576  0.583541  1
