# generated using pymatgen
data_Er2Tm2Si4TcRh3
_symmetry_space_group_name_H-M   'P 1'
_cell_length_a   4.26236900
_cell_length_b   6.89177901
_cell_length_c   7.28532652
_cell_angle_alpha   90.01820700
_cell_angle_beta   90.00000000
_cell_angle_gamma   90.00000000
_symmetry_Int_Tables_number   1
_chemical_formula_structural   Er2Tm2Si4TcRh3
_chemical_formula_sum   'Er2 Tm2 Si4 Tc1 Rh3'
_cell_volume   214.00867940
_cell_formula_units_Z   1
loop_
 _symmetry_equiv_pos_site_id
 _symmetry_equiv_pos_as_xyz
  1  'x, y, z'
loop_
 _atom_site_type_symbol
 _atom_site_label
 _atom_site_symmetry_multiplicity
 _atom_site_fract_x
 _atom_site_fract_y
 _atom_site_fract_z
 _atom_site_occupancy
  Er  Er0  1  0.750000  0.507925  0.310955  1
  Er  Er1  1  0.750000  0.001679  0.186217  1
  Tm  Tm2  1  0.250000  0.495571  0.691215  1
  Tm  Tm3  1  0.250000  0.999889  0.811969  1
  Si  Si4  1  0.250000  0.297381  0.108630  1
  Si  Si5  1  0.750000  0.703395  0.886923  1
  Si  Si6  1  0.250000  0.796442  0.400197  1
  Si  Si7  1  0.750000  0.201915  0.604673  1
  Tc  Tc8  1  0.750000  0.843989  0.568175  1
  Rh  Rh9  1  0.250000  0.156122  0.431223  1
  Rh  Rh10  1  0.750000  0.342499  0.933545  1
  Rh  Rh11  1  0.250000  0.653191  0.066278  1
