# generated using pymatgen
data_Ce6CuSb8Ir3Pt2
_symmetry_space_group_name_H-M   'P 1'
_cell_length_a   8.49946490
_cell_length_b   8.49603480
_cell_length_c   8.49887912
_cell_angle_alpha   109.34187232
_cell_angle_beta   109.28084732
_cell_angle_gamma   109.77309681
_symmetry_Int_Tables_number   1
_chemical_formula_structural   Ce6CuSb8Ir3Pt2
_chemical_formula_sum   'Ce6 Cu1 Sb8 Ir3 Pt2'
_cell_volume   472.53729042
_cell_formula_units_Z   1
loop_
 _symmetry_equiv_pos_site_id
 _symmetry_equiv_pos_as_xyz
  1  'x, y, z'
loop_
 _atom_site_type_symbol
 _atom_site_label
 _atom_site_symmetry_multiplicity
 _atom_site_fract_x
 _atom_site_fract_y
 _atom_site_fract_z
 _atom_site_occupancy
  Ce  Ce0  1  0.879514  0.256141  0.130911  1
  Ce  Ce1  1  0.620266  0.747727  0.373114  1
  Ce  Ce2  1  0.251883  0.122163  0.873500  1
  Ce  Ce3  1  0.748696  0.378687  0.626623  1
  Ce  Ce4  1  0.128351  0.874477  0.250515  1
  Ce  Ce5  1  0.371222  0.621673  0.746094  1
  Cu  Cu6  1  0.874957  0.125461  0.750574  1
  Sb  Sb7  1  0.667517  0.496367  0.996034  1
  Sb  Sb8  1  0.506314  0.005239  0.669540  1
  Sb  Sb9  1  0.002364  0.672505  0.502889  1
  Sb  Sb10  1  0.837643  0.837872  0.829902  1
  Sb  Sb11  1  0.498041  0.998170  0.168194  1
  Sb  Sb12  1  0.163597  0.494117  0.999152  1
  Sb  Sb13  1  0.997038  0.164965  0.503734  1
  Sb  Sb14  1  0.327476  0.330053  0.329786  1
  Ir  Ir15  1  0.373026  0.250341  0.624279  1
  Ir  Ir16  1  0.125157  0.746759  0.874104  1
  Ir  Ir17  1  0.252067  0.626768  0.377517  1
  Pt  Pt18  1  0.749320  0.874344  0.122545  1
  Pt  Pt19  1  0.625551  0.376172  0.250991  1
