# generated using pymatgen
data_Ti8Mn4Ir3Os
_symmetry_space_group_name_H-M   'P 1'
_cell_length_a   6.09289500
_cell_length_b   4.30652500
_cell_length_c   8.61491700
_cell_angle_alpha   90.00000000
_cell_angle_beta   90.00001605
_cell_angle_gamma   90.00000000
_symmetry_Int_Tables_number   1
_chemical_formula_structural   Ti8Mn4Ir3Os
_chemical_formula_sum   'Ti8 Mn4 Ir3 Os1'
_cell_volume   226.04857012
_cell_formula_units_Z   1
loop_
 _symmetry_equiv_pos_site_id
 _symmetry_equiv_pos_as_xyz
  1  'x, y, z'
loop_
 _atom_site_type_symbol
 _atom_site_label
 _atom_site_symmetry_multiplicity
 _atom_site_fract_x
 _atom_site_fract_y
 _atom_site_fract_z
 _atom_site_occupancy
  Ti  Ti0  1  0.998640  0.749999  0.123430  1
  Ti  Ti1  1  0.501371  0.749999  0.123436  1
  Ti  Ti2  1  0.999788  0.250000  0.374998  1
  Ti  Ti3  1  0.500238  0.250000  0.375007  1
  Ti  Ti4  1  0.501347  0.749999  0.626563  1
  Ti  Ti5  1  0.998614  0.749999  0.626570  1
  Ti  Ti6  1  0.502707  0.250000  0.874993  1
  Ti  Ti7  1  0.997274  0.250000  0.875000  1
  Mn  Mn8  1  0.750010  0.250000  0.126347  1
  Mn  Mn9  1  0.250084  0.749999  0.374951  1
  Mn  Mn10  1  0.749975  0.250000  0.623657  1
  Mn  Mn11  1  0.249965  0.749999  0.875048  1
  Ir  Ir12  1  0.250012  0.250000  0.125513  1
  Ir  Ir13  1  0.750009  0.749999  0.375002  1
  Ir  Ir14  1  0.249985  0.250000  0.624486  1
  Os  Os15  1  0.749983  0.749999  0.874998  1
