# generated using pymatgen
data_PrEu3CdRu
_symmetry_space_group_name_H-M   'P 1'
_cell_length_a   10.13361436
_cell_length_b   10.13361424
_cell_length_c   10.13361400
_cell_angle_alpha   59.99999425
_cell_angle_beta   59.99999466
_cell_angle_gamma   59.99999792
_symmetry_Int_Tables_number   1
_chemical_formula_structural   PrEu3CdRu
_chemical_formula_sum   'Pr4 Eu12 Cd4 Ru4'
_cell_volume   735.83096111
_cell_formula_units_Z   4
loop_
 _symmetry_equiv_pos_site_id
 _symmetry_equiv_pos_as_xyz
  1  'x, y, z'
loop_
 _atom_site_type_symbol
 _atom_site_label
 _atom_site_symmetry_multiplicity
 _atom_site_fract_x
 _atom_site_fract_y
 _atom_site_fract_z
 _atom_site_occupancy
  Pr  Pr0  1  0.341944  0.341944  0.341944  1
  Pr  Pr1  1  0.341944  0.341944  0.974167  1
  Pr  Pr2  1  0.341944  0.974167  0.341944  1
  Pr  Pr3  1  0.974167  0.341944  0.341944  1
  Eu  Eu4  1  0.946183  0.553817  0.553817  1
  Eu  Eu5  1  0.553817  0.946183  0.946183  1
  Eu  Eu6  1  0.553817  0.946183  0.553817  1
  Eu  Eu7  1  0.946183  0.553817  0.946183  1
  Eu  Eu8  1  0.553817  0.553817  0.946183  1
  Eu  Eu9  1  0.946183  0.946183  0.553817  1
  Eu  Eu10  1  0.807942  0.192058  0.192058  1
  Eu  Eu11  1  0.192058  0.807942  0.807942  1
  Eu  Eu12  1  0.192058  0.807942  0.192058  1
  Eu  Eu13  1  0.807942  0.192058  0.807942  1
  Eu  Eu14  1  0.192058  0.192058  0.807942  1
  Eu  Eu15  1  0.807942  0.807942  0.192058  1
  Cd  Cd16  1  0.578100  0.578100  0.578100  1
  Cd  Cd17  1  0.578100  0.578100  0.265702  1
  Cd  Cd18  1  0.578100  0.265702  0.578100  1
  Cd  Cd19  1  0.265702  0.578100  0.578100  1
  Ru  Ru20  1  0.138084  0.138084  0.138084  1
  Ru  Ru21  1  0.138084  0.138084  0.585748  1
  Ru  Ru22  1  0.138084  0.585748  0.138084  1
  Ru  Ru23  1  0.585748  0.138084  0.138084  1
