# generated using pymatgen
data_PrNp5(Ni3Sb4)2
_symmetry_space_group_name_H-M   'P 1'
_cell_length_a   8.15995753
_cell_length_b   8.15995739
_cell_length_c   8.15995700
_cell_angle_alpha   109.66779959
_cell_angle_beta   109.66780669
_cell_angle_gamma   109.07876750
_symmetry_Int_Tables_number   1
_chemical_formula_structural   PrNp5(Ni3Sb4)2
_chemical_formula_sum   'Pr1 Np5 Ni6 Sb8'
_cell_volume   418.24089592
_cell_formula_units_Z   1
loop_
 _symmetry_equiv_pos_site_id
 _symmetry_equiv_pos_as_xyz
  1  'x, y, z'
loop_
 _atom_site_type_symbol
 _atom_site_label
 _atom_site_symmetry_multiplicity
 _atom_site_fract_x
 _atom_site_fract_y
 _atom_site_fract_z
 _atom_site_occupancy
  Pr  Pr0  1  0.375000  0.625000  0.750000  1
  Np  Np1  1  0.875256  0.248318  0.127475  1
  Np  Np2  1  0.620843  0.747781  0.372525  1
  Np  Np3  1  0.252219  0.124744  0.873062  1
  Np  Np4  1  0.751682  0.379157  0.626938  1
  Np  Np5  1  0.125000  0.875000  0.250000  1
  Ni  Ni6  1  0.371629  0.238775  0.617720  1
  Ni  Ni7  1  0.121055  0.753909  0.882280  1
  Ni  Ni8  1  0.246091  0.628371  0.367145  1
  Ni  Ni9  1  0.761225  0.878945  0.132855  1
  Ni  Ni10  1  0.625000  0.375000  0.250000  1
  Ni  Ni11  1  0.875000  0.125000  0.750000  1
  Sb  Sb12  1  0.664196  0.497765  0.000666  1
  Sb  Sb13  1  0.504061  0.003796  0.664222  1
  Sb  Sb14  1  0.997099  0.663529  0.499334  1
  Sb  Sb15  1  0.839575  0.839839  0.835778  1
  Sb  Sb16  1  0.502235  0.002901  0.166432  1
  Sb  Sb17  1  0.160161  0.495939  0.999735  1
  Sb  Sb18  1  0.996204  0.160425  0.500265  1
  Sb  Sb19  1  0.336471  0.335804  0.333568  1
