# generated using pymatgen
data_SmHo5Nb2(Co4P3)4
_symmetry_space_group_name_H-M   'P 1'
_cell_length_a   3.71257400
_cell_length_b   10.64326000
_cell_length_c   12.34222600
_cell_angle_alpha   90.00000000
_cell_angle_beta   90.00000000
_cell_angle_gamma   90.00000000
_symmetry_Int_Tables_number   1
_chemical_formula_structural   SmHo5Nb2(Co4P3)4
_chemical_formula_sum   'Sm1 Ho5 Nb2 Co16 P12'
_cell_volume   487.68936485
_cell_formula_units_Z   1
loop_
 _symmetry_equiv_pos_site_id
 _symmetry_equiv_pos_as_xyz
  1  'x, y, z'
loop_
 _atom_site_type_symbol
 _atom_site_label
 _atom_site_symmetry_multiplicity
 _atom_site_fract_x
 _atom_site_fract_y
 _atom_site_fract_z
 _atom_site_occupancy
  Sm  Sm0  1  0.000000  0.500000  0.527177  1
  Ho  Ho1  1  0.500000  0.000000  0.473410  1
  Ho  Ho2  1  0.500000  0.820312  0.205179  1
  Ho  Ho3  1  0.500000  0.179688  0.205179  1
  Ho  Ho4  1  0.000000  0.679947  0.795218  1
  Ho  Ho5  1  0.000000  0.320053  0.795218  1
  Nb  Nb6  1  0.500000  0.500000  0.156099  1
  Nb  Nb7  1  0.000000  0.000000  0.843005  1
  Co  Co8  1  0.000000  0.500000  0.985843  1
  Co  Co9  1  0.500000  0.000000  0.014210  1
  Co  Co10  1  0.500000  0.293728  0.431811  1
  Co  Co11  1  0.500000  0.706272  0.431811  1
  Co  Co12  1  0.000000  0.203810  0.567827  1
  Co  Co13  1  0.000000  0.796190  0.567827  1
  Co  Co14  1  0.500000  0.877604  0.704797  1
  Co  Co15  1  0.500000  0.122396  0.704797  1
  Co  Co16  1  0.000000  0.623093  0.294668  1
  Co  Co17  1  0.000000  0.376907  0.294668  1
  Co  Co18  1  0.500000  0.332466  0.991372  1
  Co  Co19  1  0.500000  0.667534  0.991372  1
  Co  Co20  1  0.000000  0.167446  0.008604  1
  Co  Co21  1  0.000000  0.832554  0.008604  1
  Co  Co22  1  0.500000  0.500000  0.703806  1
  Co  Co23  1  0.000000  0.000000  0.298049  1
  P  P24  1  0.500000  0.309151  0.616362  1
  P  P25  1  0.500000  0.690849  0.616362  1
  P  P26  1  0.000000  0.188673  0.384325  1
  P  P27  1  0.000000  0.811327  0.384325  1
  P  P28  1  0.500000  0.500000  0.882090  1
  P  P29  1  0.000000  0.000000  0.118367  1
  P  P30  1  0.500000  0.841118  0.893342  1
  P  P31  1  0.500000  0.158882  0.893342  1
  P  P32  1  0.000000  0.658941  0.106669  1
  P  P33  1  0.000000  0.341059  0.106669  1
  P  P34  1  0.500000  0.500000  0.353847  1
  P  P35  1  0.000000  0.000000  0.643747  1
