# generated using pymatgen
data_Tb4Pr3Ho(CdPt)2
_symmetry_space_group_name_H-M   'P 1'
_cell_length_a   9.84047141
_cell_length_b   9.84047185
_cell_length_c   9.83805800
_cell_angle_alpha   60.00810736
_cell_angle_beta   60.00810587
_cell_angle_gamma   59.98377318
_symmetry_Int_Tables_number   1
_chemical_formula_structural   Tb4Pr3Ho(CdPt)2
_chemical_formula_sum   'Tb8 Pr6 Ho2 Cd4 Pt4'
_cell_volume   673.63727649
_cell_formula_units_Z   2
loop_
 _symmetry_equiv_pos_site_id
 _symmetry_equiv_pos_as_xyz
  1  'x, y, z'
loop_
 _atom_site_type_symbol
 _atom_site_label
 _atom_site_symmetry_multiplicity
 _atom_site_fract_x
 _atom_site_fract_y
 _atom_site_fract_z
 _atom_site_occupancy
  Tb  Tb0  1  0.350143  0.350143  0.350621  1
  Tb  Tb1  1  0.350143  0.350143  0.949094  1
  Tb  Tb2  1  0.350621  0.949094  0.350143  1
  Tb  Tb3  1  0.949094  0.350621  0.350143  1
  Tb  Tb4  1  0.812261  0.187739  0.187739  1
  Tb  Tb5  1  0.187739  0.812261  0.812261  1
  Tb  Tb6  1  0.187739  0.812261  0.187739  1
  Tb  Tb7  1  0.812261  0.187739  0.812261  1
  Pr  Pr8  1  0.938346  0.561654  0.561654  1
  Pr  Pr9  1  0.561654  0.938346  0.938346  1
  Pr  Pr10  1  0.561654  0.938346  0.561654  1
  Pr  Pr11  1  0.938346  0.561654  0.938346  1
  Pr  Pr12  1  0.561706  0.561706  0.938294  1
  Pr  Pr13  1  0.938294  0.938294  0.561706  1
  Ho  Ho14  1  0.187879  0.187879  0.812121  1
  Ho  Ho15  1  0.812121  0.812121  0.187879  1
  Cd  Cd16  1  0.579482  0.579482  0.579328  1
  Cd  Cd17  1  0.579482  0.579482  0.261707  1
  Cd  Cd18  1  0.579328  0.261707  0.579482  1
  Cd  Cd19  1  0.261707  0.579328  0.579482  1
  Pt  Pt20  1  0.142888  0.142888  0.141992  1
  Pt  Pt21  1  0.142888  0.142888  0.572233  1
  Pt  Pt22  1  0.141992  0.572233  0.142888  1
  Pt  Pt23  1  0.572233  0.141992  0.142888  1
