# generated using pymatgen
data_Nd11(Cu2Sn3)2
_symmetry_space_group_name_H-M   'P 1'
_cell_length_a   4.49926505
_cell_length_b   9.72328660
_cell_length_c   14.53168724
_cell_angle_alpha   105.85810200
_cell_angle_beta   90.05192115
_cell_angle_gamma   103.36262021
_symmetry_Int_Tables_number   1
_chemical_formula_structural   Nd11(Cu2Sn3)2
_chemical_formula_sum   'Nd11 Cu4 Sn6'
_cell_volume   593.58073313
_cell_formula_units_Z   1
loop_
 _symmetry_equiv_pos_site_id
 _symmetry_equiv_pos_as_xyz
  1  'x, y, z'
loop_
 _atom_site_type_symbol
 _atom_site_label
 _atom_site_symmetry_multiplicity
 _atom_site_fract_x
 _atom_site_fract_y
 _atom_site_fract_z
 _atom_site_occupancy
  Nd  Nd0  1  0.903876  0.805466  0.220905  1
  Nd  Nd1  1  0.859389  0.719122  0.650782  1
  Nd  Nd2  1  0.215181  0.429836  0.101350  1
  Nd  Nd3  1  0.552779  0.101706  0.128191  1
  Nd  Nd4  1  0.341673  0.681998  0.407173  1
  Nd  Nd5  1  0.447241  0.897660  0.872674  1
  Nd  Nd6  1  0.000170  0.999856  0.500542  1
  Nd  Nd7  1  0.141041  0.280831  0.350406  1
  Nd  Nd8  1  0.784681  0.569452  0.899857  1
  Nd  Nd9  1  0.658697  0.317865  0.593634  1
  Nd  Nd10  1  0.096209  0.194199  0.780293  1
  Cu  Cu11  1  0.753779  0.506140  0.458692  1
  Cu  Cu12  1  0.944196  0.889106  0.028323  1
  Cu  Cu13  1  0.056031  0.110320  0.972912  1
  Cu  Cu14  1  0.246532  0.494182  0.542419  1
  Sn  Sn15  1  0.631792  0.261743  0.947789  1
  Sn  Sn16  1  0.263757  0.526529  0.737503  1
  Sn  Sn17  1  0.736608  0.473481  0.263494  1
  Sn  Sn18  1  0.368287  0.737539  0.053342  1
  Sn  Sn19  1  0.515572  0.030823  0.349894  1
  Sn  Sn20  1  0.485102  0.969192  0.651349  1
