# generated using pymatgen
data_Dy2Si14Ir5Os
_symmetry_space_group_name_H-M   'P 1'
_cell_length_a   8.02574846
_cell_length_b   8.02574922
_cell_length_c   8.04691329
_cell_angle_alpha   56.72992376
_cell_angle_beta   56.72992081
_cell_angle_gamma   56.78352543
_symmetry_Int_Tables_number   1
_chemical_formula_structural   Dy2Si14Ir5Os
_chemical_formula_sum   'Dy2 Si14 Ir5 Os1'
_cell_volume   338.99151343
_cell_formula_units_Z   1
loop_
 _symmetry_equiv_pos_site_id
 _symmetry_equiv_pos_as_xyz
  1  'x, y, z'
loop_
 _atom_site_type_symbol
 _atom_site_label
 _atom_site_symmetry_multiplicity
 _atom_site_fract_x
 _atom_site_fract_y
 _atom_site_fract_z
 _atom_site_occupancy
  Dy  Dy0  1  0.000889  0.002811  0.997340  1
  Dy  Dy1  1  0.497189  0.499111  0.502660  1
  Si  Si2  1  0.752638  0.747362  0.750000  1
  Si  Si3  1  0.249337  0.250663  0.250000  1
  Si  Si4  1  0.850548  0.064666  0.672270  1
  Si  Si5  1  0.672093  0.851639  0.064169  1
  Si  Si6  1  0.065019  0.669888  0.850902  1
  Si  Si7  1  0.648361  0.827907  0.435831  1
  Si  Si8  1  0.435334  0.649452  0.827730  1
  Si  Si9  1  0.830112  0.434981  0.649098  1
  Si  Si10  1  0.170709  0.564501  0.354431  1
  Si  Si11  1  0.564691  0.351390  0.171855  1
  Si  Si12  1  0.350277  0.173208  0.564606  1
  Si  Si13  1  0.935499  0.329291  0.145569  1
  Si  Si14  1  0.326792  0.149723  0.935394  1
  Si  Si15  1  0.148610  0.935309  0.328145  1
  Ir  Ir16  1  0.250396  0.928365  0.570812  1
  Ir  Ir17  1  0.571635  0.249604  0.929188  1
  Ir  Ir18  1  0.927617  0.572383  0.250000  1
  Ir  Ir19  1  0.428587  0.750370  0.071236  1
  Ir  Ir20  1  0.749630  0.071413  0.428764  1
  Os  Os21  1  0.074037  0.425963  0.750000  1
