# generated using pymatgen
data_Er8SiGeI12
_symmetry_space_group_name_H-M   'P 1'
_cell_length_a   4.18550200
_cell_length_b   13.87391316
_cell_length_c   14.66399217
_cell_angle_alpha   89.98243689
_cell_angle_beta   90.00000000
_cell_angle_gamma   90.00000000
_symmetry_Int_Tables_number   1
_chemical_formula_structural   Er8SiGeI12
_chemical_formula_sum   'Er8 Si1 Ge1 I12'
_cell_volume   851.52759294
_cell_formula_units_Z   1
loop_
 _symmetry_equiv_pos_site_id
 _symmetry_equiv_pos_as_xyz
  1  'x, y, z'
loop_
 _atom_site_type_symbol
 _atom_site_label
 _atom_site_symmetry_multiplicity
 _atom_site_fract_x
 _atom_site_fract_y
 _atom_site_fract_z
 _atom_site_occupancy
  Er  Er0  1  0.500000  0.114506  0.346934  1
  Er  Er1  1  0.500000  0.885494  0.653066  1
  Er  Er2  1  0.500000  0.613554  0.151776  1
  Er  Er3  1  0.500000  0.386446  0.848224  1
  Er  Er4  1  0.000000  0.111454  0.574590  1
  Er  Er5  1  0.000000  0.888546  0.425410  1
  Er  Er6  1  0.000000  0.610285  0.926195  1
  Er  Er7  1  0.000000  0.389715  0.073805  1
  Si  Si8  1  0.500000  0.500000  0.000000  1
  Ge  Ge9  1  0.500000  0.000000  0.500000  1
  I  I10  1  0.500000  0.245679  0.161610  1
  I  I11  1  0.500000  0.754321  0.838390  1
  I  I12  1  0.500000  0.745779  0.338495  1
  I  I13  1  0.500000  0.254221  0.661505  1
  I  I14  1  0.000000  0.258576  0.414106  1
  I  I15  1  0.000000  0.741424  0.585894  1
  I  I16  1  0.000000  0.758619  0.086005  1
  I  I17  1  0.000000  0.241381  0.913995  1
  I  I18  1  0.000000  0.999479  0.240441  1
  I  I19  1  0.000000  0.000521  0.759559  1
  I  I20  1  0.000000  0.499578  0.259615  1
  I  I21  1  0.000000  0.500422  0.740385  1
