# generated using pymatgen
data_Ac3(MoN3)2
_symmetry_space_group_name_H-M   'P 1'
_cell_length_a   4.03364952
_cell_length_b   4.03369042
_cell_length_c   10.66723300
_cell_angle_alpha   100.89847425
_cell_angle_beta   100.89836913
_cell_angle_gamma   89.99999790
_symmetry_Int_Tables_number   1
_chemical_formula_structural   Ac3(MoN3)2
_chemical_formula_sum   'Ac3 Mo2 N6'
_cell_volume   167.24183727
_cell_formula_units_Z   1
loop_
 _symmetry_equiv_pos_site_id
 _symmetry_equiv_pos_as_xyz
  1  'x, y, z'
loop_
 _atom_site_type_symbol
 _atom_site_label
 _atom_site_symmetry_multiplicity
 _atom_site_fract_x
 _atom_site_fract_y
 _atom_site_fract_z
 _atom_site_occupancy
  Ac  Ac0  1  0.000000  0.000000  0.000000  1
  Ac  Ac1  1  0.181703  0.181635  0.363407  1
  Ac  Ac2  1  0.818297  0.818365  0.636593  1
  Mo  Mo3  1  0.597316  0.596615  0.194632  1
  Mo  Mo4  1  0.402684  0.403385  0.805368  1
  N  N5  1  0.587726  0.088017  0.175453  1
  N  N6  1  0.087727  0.587625  0.175453  1
  N  N7  1  0.694266  0.695063  0.388531  1
  N  N8  1  0.305734  0.304937  0.611469  1
  N  N9  1  0.912274  0.412376  0.824548  1
  N  N10  1  0.412275  0.911984  0.824548  1
