# generated using pymatgen
data_ErTm9(InSb)4
_symmetry_space_group_name_H-M   'P 1'
_cell_length_a   8.70458507
_cell_length_b   8.70552605
_cell_length_c   8.01332200
_cell_angle_alpha   90.00247789
_cell_angle_beta   89.99928690
_cell_angle_gamma   125.16289241
_symmetry_Int_Tables_number   1
_chemical_formula_structural   ErTm9(InSb)4
_chemical_formula_sum   'Er1 Tm9 In4 Sb4'
_cell_volume   496.42430837
_cell_formula_units_Z   1
loop_
 _symmetry_equiv_pos_site_id
 _symmetry_equiv_pos_as_xyz
  1  'x, y, z'
loop_
 _atom_site_type_symbol
 _atom_site_label
 _atom_site_symmetry_multiplicity
 _atom_site_fract_x
 _atom_site_fract_y
 _atom_site_fract_z
 _atom_site_occupancy
  Er  Er0  1  0.305441  0.030828  0.334882  1
  Tm  Tm1  1  0.030918  0.305325  0.334908  1
  Tm  Tm2  1  0.969059  0.694648  0.665131  1
  Tm  Tm3  1  0.469092  0.194699  0.834888  1
  Tm  Tm4  1  0.805318  0.530920  0.165102  1
  Tm  Tm5  1  0.530916  0.805301  0.165095  1
  Tm  Tm6  1  0.194683  0.469103  0.834882  1
  Tm  Tm7  1  0.694658  0.969091  0.665085  1
  Tm  Tm8  1  0.999960  0.999997  0.999958  1
  Tm  Tm9  1  0.500022  0.500068  0.500021  1
  In  In10  1  0.369259  0.369335  0.130081  1
  In  In11  1  0.630751  0.630757  0.869860  1
  In  In12  1  0.130689  0.130748  0.630183  1
  In  In13  1  0.869176  0.869241  0.369882  1
  Sb  Sb14  1  0.796846  0.203151  0.000009  1
  Sb  Sb15  1  0.203106  0.796800  0.999904  1
  Sb  Sb16  1  0.703261  0.296967  0.500063  1
  Sb  Sb17  1  0.296845  0.703023  0.500064  1
