# generated using pymatgen
data_Yb(P3Pt2)2
_symmetry_space_group_name_H-M   'P 1'
_cell_length_a   5.74535821
_cell_length_b   5.74535858
_cell_length_c   11.50145424
_cell_angle_alpha   89.46402376
_cell_angle_beta   89.46402098
_cell_angle_gamma   88.59135788
_symmetry_Int_Tables_number   1
_chemical_formula_structural   Yb(P3Pt2)2
_chemical_formula_sum   'Yb2 P12 Pt8'
_cell_volume   379.50599854
_cell_formula_units_Z   2
loop_
 _symmetry_equiv_pos_site_id
 _symmetry_equiv_pos_as_xyz
  1  'x, y, z'
loop_
 _atom_site_type_symbol
 _atom_site_label
 _atom_site_symmetry_multiplicity
 _atom_site_fract_x
 _atom_site_fract_y
 _atom_site_fract_z
 _atom_site_occupancy
  Yb  Yb0  1  0.590392  0.409608  0.750000  1
  Yb  Yb1  1  0.409608  0.590392  0.250000  1
  P  P2  1  0.090123  0.130408  0.305097  1
  P  P3  1  0.869592  0.909877  0.194903  1
  P  P4  1  0.909877  0.869592  0.694903  1
  P  P5  1  0.130408  0.090123  0.805097  1
  P  P6  1  0.615859  0.887478  0.946514  1
  P  P7  1  0.112522  0.384141  0.553486  1
  P  P8  1  0.384141  0.112522  0.053486  1
  P  P9  1  0.887478  0.615859  0.446514  1
  P  P10  1  0.883956  0.391263  0.051757  1
  P  P11  1  0.608737  0.116044  0.448243  1
  P  P12  1  0.391263  0.883956  0.551757  1
  P  P13  1  0.116044  0.608737  0.948243  1
  Pt  Pt14  1  0.508225  0.927952  0.749789  1
  Pt  Pt15  1  0.072048  0.491775  0.750211  1
  Pt  Pt16  1  0.500000  0.500000  0.500000  1
  Pt  Pt17  1  0.500000  0.500000  0.000000  1
  Pt  Pt18  1  0.000000  0.000000  0.500000  1
  Pt  Pt19  1  0.000000  0.000000  0.000000  1
  Pt  Pt20  1  0.927952  0.508225  0.249789  1
  Pt  Pt21  1  0.491775  0.072048  0.250211  1
