# generated using pymatgen
data_Zr9UN9
_symmetry_space_group_name_H-M   'P 1'
_cell_length_a   5.67653857
_cell_length_b   6.54867628
_cell_length_c   7.36342143
_cell_angle_alpha   77.16184611
_cell_angle_beta   75.00677773
_cell_angle_gamma   73.24639377
_symmetry_Int_Tables_number   1
_chemical_formula_structural   Zr9UN9
_chemical_formula_sum   'Zr9 U1 N9'
_cell_volume   249.93911565
_cell_formula_units_Z   1
loop_
 _symmetry_equiv_pos_site_id
 _symmetry_equiv_pos_as_xyz
  1  'x, y, z'
loop_
 _atom_site_type_symbol
 _atom_site_label
 _atom_site_symmetry_multiplicity
 _atom_site_fract_x
 _atom_site_fract_y
 _atom_site_fract_z
 _atom_site_occupancy
  Zr  Zr0  1  0.904342  0.598607  0.194224  1
  Zr  Zr1  1  0.102335  0.898000  0.794053  1
  Zr  Zr2  1  0.897665  0.102000  0.205947  1
  Zr  Zr3  1  0.095658  0.401393  0.805776  1
  Zr  Zr4  1  0.307761  0.700419  0.400681  1
  Zr  Zr5  1  0.306250  0.193961  0.402374  1
  Zr  Zr6  1  0.692239  0.299581  0.599319  1
  Zr  Zr7  1  0.500000  0.500000  0.000000  1
  Zr  Zr8  1  0.693750  0.806039  0.597626  1
  U  U9  1  0.500000  0.000000  0.000000  1
  N  N10  1  0.799086  0.702472  0.900049  1
  N  N11  1  0.798428  0.198422  0.900467  1
  N  N12  1  0.201572  0.801578  0.099533  1
  N  N13  1  0.000000  0.000000  0.500000  1
  N  N14  1  0.401856  0.099119  0.700783  1
  N  N15  1  0.200914  0.297528  0.099951  1
  N  N16  1  0.599069  0.400534  0.299686  1
  N  N17  1  0.400931  0.599466  0.700314  1
  N  N18  1  0.598144  0.900881  0.299217  1
