# generated using pymatgen
data_YbYB4(IrRu)2
_symmetry_space_group_name_H-M   'P 1'
_cell_length_a   6.81022266
_cell_length_b   5.99522023
_cell_length_c   5.54270609
_cell_angle_alpha   72.22827166
_cell_angle_beta   56.96288793
_cell_angle_gamma   50.73768259
_symmetry_Int_Tables_number   1
_chemical_formula_structural   YbYB4(IrRu)2
_chemical_formula_sum   'Yb1 Y1 B4 Ir2 Ru2'
_cell_volume   146.61000706
_cell_formula_units_Z   1
loop_
 _symmetry_equiv_pos_site_id
 _symmetry_equiv_pos_as_xyz
  1  'x, y, z'
loop_
 _atom_site_type_symbol
 _atom_site_label
 _atom_site_symmetry_multiplicity
 _atom_site_fract_x
 _atom_site_fract_y
 _atom_site_fract_z
 _atom_site_occupancy
  Yb  Yb0  1  0.745929  0.745929  0.754071  1
  Y  Y1  1  0.496153  0.496153  0.503847  1
  B  B2  1  0.066659  0.435876  0.062869  1
  B  B3  1  0.818613  0.183416  0.816501  1
  B  B4  1  0.435876  0.066659  0.434596  1
  B  B5  1  0.183416  0.818613  0.181469  1
  Ir  Ir6  1  0.865588  0.865588  0.134412  1
  Ir  Ir7  1  0.116255  0.116255  0.383745  1
  Ru  Ru8  1  0.385085  0.385085  0.114915  1
  Ru  Ru9  1  0.136427  0.136427  0.863573  1
