# generated using pymatgen
data_Ac9Pr4Nd7Pb16
_symmetry_space_group_name_H-M   'P 1'
_cell_length_a   8.61652338
_cell_length_b   16.61927305
_cell_length_c   8.68101800
_cell_angle_alpha   90.04393214
_cell_angle_beta   90.35498711
_cell_angle_gamma   90.19463170
_symmetry_Int_Tables_number   1
_chemical_formula_structural   Ac9Pr4Nd7Pb16
_chemical_formula_sum   'Ac9 Pr4 Nd7 Pb16'
_cell_volume   1243.09343942
_cell_formula_units_Z   1
loop_
 _symmetry_equiv_pos_site_id
 _symmetry_equiv_pos_as_xyz
  1  'x, y, z'
loop_
 _atom_site_type_symbol
 _atom_site_label
 _atom_site_symmetry_multiplicity
 _atom_site_fract_x
 _atom_site_fract_y
 _atom_site_fract_z
 _atom_site_occupancy
  Ac  Ac0  1  0.128485  0.617355  0.342664  1
  Ac  Ac1  1  0.473547  0.597838  0.680411  1
  Ac  Ac2  1  0.976116  0.904627  0.821690  1
  Ac  Ac3  1  0.524142  0.097578  0.321648  1
  Ac  Ac4  1  0.027067  0.399498  0.177062  1
  Ac  Ac5  1  0.525138  0.400480  0.321112  1
  Ac  Ac6  1  0.023960  0.098093  0.178104  1
  Ac  Ac7  1  0.476246  0.903919  0.679176  1
  Ac  Ac8  1  0.973917  0.597997  0.821884  1
  Pr  Pr9  1  0.794126  0.750668  0.497747  1
  Pr  Pr10  1  0.295377  0.750607  0.003435  1
  Pr  Pr11  1  0.205742  0.248162  0.501994  1
  Pr  Pr12  1  0.706320  0.250039  0.997339  1
  Nd  Nd13  1  0.631546  0.620425  0.155872  1
  Nd  Nd14  1  0.131449  0.880104  0.343431  1
  Nd  Nd15  1  0.367872  0.120275  0.844471  1
  Nd  Nd16  1  0.869383  0.378926  0.655317  1
  Nd  Nd17  1  0.372782  0.376971  0.845458  1
  Nd  Nd18  1  0.868098  0.120916  0.656734  1
  Nd  Nd19  1  0.631449  0.882038  0.155225  1
  Pb  Pb20  1  0.709026  0.455181  0.958832  1
  Pb  Pb21  1  0.204362  0.044842  0.541748  1
  Pb  Pb22  1  0.293697  0.956058  0.042580  1
  Pb  Pb23  1  0.782317  0.543837  0.463301  1
  Pb  Pb24  1  0.299147  0.543048  0.032684  1
  Pb  Pb25  1  0.795772  0.955642  0.458180  1
  Pb  Pb26  1  0.705166  0.045797  0.957216  1
  Pb  Pb27  1  0.207844  0.449699  0.546284  1
  Pb  Pb28  1  0.437021  0.754234  0.367550  1
  Pb  Pb29  1  0.927587  0.753088  0.124919  1
  Pb  Pb30  1  0.567325  0.249539  0.631866  1
  Pb  Pb31  1  0.067681  0.249615  0.868184  1
  Pb  Pb32  1  0.666290  0.751262  0.858323  1
  Pb  Pb33  1  0.165749  0.753307  0.647669  1
  Pb  Pb34  1  0.334097  0.248931  0.142507  1
  Pb  Pb35  1  0.834162  0.249405  0.357379  1
