# generated using pymatgen
data_V2CoF12
_symmetry_space_group_name_H-M   'P 1'
_cell_length_a   5.39555093
_cell_length_b   10.86235315
_cell_length_c   5.40295877
_cell_angle_alpha   57.82960318
_cell_angle_beta   57.57337965
_cell_angle_gamma   57.63234747
_symmetry_Int_Tables_number   1
_chemical_formula_structural   V2CoF12
_chemical_formula_sum   'V2 Co1 F12'
_cell_volume   211.96442859
_cell_formula_units_Z   1
loop_
 _symmetry_equiv_pos_site_id
 _symmetry_equiv_pos_as_xyz
  1  'x, y, z'
loop_
 _atom_site_type_symbol
 _atom_site_label
 _atom_site_symmetry_multiplicity
 _atom_site_fract_x
 _atom_site_fract_y
 _atom_site_fract_z
 _atom_site_occupancy
  V  V0  1  0.497624  0.241655  0.514126  1
  V  V1  1  0.502376  0.758345  0.485874  1
  Co  Co2  1  0.000000  0.500000  0.000000  1
  F  F3  1  0.155585  0.195623  0.721399  1
  F  F4  1  0.171796  0.679186  0.733798  1
  F  F5  1  0.362964  0.369219  0.166085  1
  F  F6  1  0.383564  0.859864  0.161915  1
  F  F7  1  0.726838  0.085580  0.376328  1
  F  F8  1  0.730581  0.579906  0.366007  1
  F  F9  1  0.269419  0.420094  0.633993  1
  F  F10  1  0.273162  0.914420  0.623672  1
  F  F11  1  0.616436  0.140136  0.838085  1
  F  F12  1  0.637036  0.630781  0.833915  1
  F  F13  1  0.828204  0.320814  0.266202  1
  F  F14  1  0.844415  0.804377  0.278601  1
