# generated using pymatgen
data_Pr4Er(SnBi)2
_symmetry_space_group_name_H-M   'P 1'
_cell_length_a   8.36814200
_cell_length_b   8.44908700
_cell_length_c   16.15319800
_cell_angle_alpha   90.00000000
_cell_angle_beta   90.00000000
_cell_angle_gamma   90.00000000
_symmetry_Int_Tables_number   1
_chemical_formula_structural   Pr4Er(SnBi)2
_chemical_formula_sum   'Pr16 Er4 Sn8 Bi8'
_cell_volume   1142.08213925
_cell_formula_units_Z   4
loop_
 _symmetry_equiv_pos_site_id
 _symmetry_equiv_pos_as_xyz
  1  'x, y, z'
loop_
 _atom_site_type_symbol
 _atom_site_label
 _atom_site_symmetry_multiplicity
 _atom_site_fract_x
 _atom_site_fract_y
 _atom_site_fract_z
 _atom_site_occupancy
  Pr  Pr0  1  0.390879  0.836331  0.879074  1
  Pr  Pr1  1  0.890879  0.663669  0.620926  1
  Pr  Pr2  1  0.609121  0.163669  0.379074  1
  Pr  Pr3  1  0.109121  0.336331  0.120926  1
  Pr  Pr4  1  0.609121  0.163669  0.120926  1
  Pr  Pr5  1  0.109121  0.336331  0.379074  1
  Pr  Pr6  1  0.390879  0.836331  0.620926  1
  Pr  Pr7  1  0.890879  0.663669  0.879074  1
  Pr  Pr8  1  0.549398  0.325475  0.890465  1
  Pr  Pr9  1  0.049398  0.174525  0.609535  1
  Pr  Pr10  1  0.450602  0.674525  0.390465  1
  Pr  Pr11  1  0.950602  0.825475  0.109535  1
  Pr  Pr12  1  0.450602  0.674525  0.109535  1
  Pr  Pr13  1  0.950602  0.825475  0.390465  1
  Pr  Pr14  1  0.549398  0.325475  0.609535  1
  Pr  Pr15  1  0.049398  0.174525  0.890465  1
  Er  Er16  1  0.218309  0.494982  0.750000  1
  Er  Er17  1  0.718309  0.005018  0.750000  1
  Er  Er18  1  0.781691  0.505018  0.250000  1
  Er  Er19  1  0.281691  0.994982  0.250000  1
  Sn  Sn20  1  0.587278  0.624427  0.750000  1
  Sn  Sn21  1  0.087278  0.875573  0.750000  1
  Sn  Sn22  1  0.412722  0.375573  0.250000  1
  Sn  Sn23  1  0.912722  0.124427  0.250000  1
  Sn  Sn24  1  0.352971  0.140675  0.750000  1
  Sn  Sn25  1  0.852971  0.359325  0.750000  1
  Sn  Sn26  1  0.647029  0.859325  0.250000  1
  Sn  Sn27  1  0.147029  0.640675  0.250000  1
  Bi  Bi28  1  0.269521  0.018969  0.047184  1
  Bi  Bi29  1  0.769521  0.481031  0.452816  1
  Bi  Bi30  1  0.730479  0.981031  0.547184  1
  Bi  Bi31  1  0.230479  0.518969  0.952816  1
  Bi  Bi32  1  0.730479  0.981031  0.952816  1
  Bi  Bi33  1  0.230479  0.518969  0.547184  1
  Bi  Bi34  1  0.269521  0.018969  0.452816  1
  Bi  Bi35  1  0.769521  0.481031  0.047184  1
