# generated using pymatgen
data_Dy8Ta12Si15P
_symmetry_space_group_name_H-M   'P 1'
_cell_length_a   7.02894110
_cell_length_b   7.02964139
_cell_length_c   13.00155307
_cell_angle_alpha   90.01057609
_cell_angle_beta   89.91384270
_cell_angle_gamma   90.00761748
_symmetry_Int_Tables_number   1
_chemical_formula_structural   Dy8Ta12Si15P
_chemical_formula_sum   'Dy8 Ta12 Si15 P1'
_cell_volume   642.41815482
_cell_formula_units_Z   1
loop_
 _symmetry_equiv_pos_site_id
 _symmetry_equiv_pos_as_xyz
  1  'x, y, z'
loop_
 _atom_site_type_symbol
 _atom_site_label
 _atom_site_symmetry_multiplicity
 _atom_site_fract_x
 _atom_site_fract_y
 _atom_site_fract_z
 _atom_site_occupancy
  Dy  Dy0  1  0.997675  0.658654  0.032044  1
  Dy  Dy1  1  0.002705  0.345030  0.530654  1
  Dy  Dy2  1  0.658647  0.996867  0.968107  1
  Dy  Dy3  1  0.159031  0.502961  0.781235  1
  Dy  Dy4  1  0.842441  0.499124  0.282894  1
  Dy  Dy5  1  0.502805  0.159397  0.218788  1
  Dy  Dy6  1  0.498224  0.841785  0.718124  1
  Dy  Dy7  1  0.339408  0.999820  0.468650  1
  Ta  Ta8  1  0.343277  0.509509  0.376721  1
  Ta  Ta9  1  0.848628  0.991228  0.375127  1
  Ta  Ta10  1  0.007078  0.153791  0.125792  1
  Ta  Ta11  1  0.995720  0.845448  0.622694  1
  Ta  Ta12  1  0.508107  0.345446  0.624154  1
  Ta  Ta13  1  0.153262  0.007033  0.874287  1
  Ta  Ta14  1  0.671006  0.670855  0.499263  1
  Ta  Ta15  1  0.828970  0.171450  0.749745  1
  Ta  Ta16  1  0.169811  0.827844  0.251344  1
  Ta  Ta17  1  0.328318  0.328510  0.000189  1
  Ta  Ta18  1  0.493354  0.653048  0.124363  1
  Ta  Ta19  1  0.653690  0.493045  0.875234  1
  Si  Si20  1  0.954716  0.294541  0.936049  1
  Si  Si21  1  0.705847  0.044810  0.563731  1
  Si  Si22  1  0.205574  0.454865  0.186152  1
  Si  Si23  1  0.794254  0.545346  0.685950  1
  Si  Si24  1  0.454583  0.205881  0.814076  1
  Si  Si25  1  0.545374  0.794200  0.313610  1
  Si  Si26  1  0.293942  0.954384  0.064537  1
  Si  Si27  1  0.796447  0.866180  0.182483  1
  Si  Si28  1  0.300910  0.632286  0.570147  1
  Si  Si29  1  0.703174  0.365759  0.067815  1
  Si  Si30  1  0.632459  0.296079  0.431802  1
  Si  Si31  1  0.365741  0.702655  0.932476  1
  Si  Si32  1  0.134016  0.203083  0.317537  1
  Si  Si33  1  0.201941  0.134146  0.681940  1
  Si  Si34  1  0.866561  0.797588  0.816671  1
  P  P35  1  0.042303  0.707354  0.435614  1
