# generated using pymatgen
data_NaTh2(B3Ir4)2
_symmetry_space_group_name_H-M   'P 1'
_cell_length_a   9.85213255
_cell_length_b   8.96941855
_cell_length_c   5.67278200
_cell_angle_alpha   81.20108593
_cell_angle_beta   64.11726730
_cell_angle_gamma   34.68164408
_symmetry_Int_Tables_number   1
_chemical_formula_structural   NaTh2(B3Ir4)2
_chemical_formula_sum   'Na1 Th2 B6 Ir8'
_cell_volume   234.93574340
_cell_formula_units_Z   1
loop_
 _symmetry_equiv_pos_site_id
 _symmetry_equiv_pos_as_xyz
  1  'x, y, z'
loop_
 _atom_site_type_symbol
 _atom_site_label
 _atom_site_symmetry_multiplicity
 _atom_site_fract_x
 _atom_site_fract_y
 _atom_site_fract_z
 _atom_site_occupancy
  Na  Na0  1  0.500000  0.500000  0.500000  1
  Th  Th1  1  0.327363  0.327363  0.672637  1
  Th  Th2  1  0.672637  0.672637  0.327363  1
  B  B3  1  0.674537  0.977457  0.022543  1
  B  B4  1  0.977457  0.674537  0.325463  1
  B  B5  1  0.325463  0.022543  0.977457  1
  B  B6  1  0.022543  0.325463  0.674537  1
  B  B7  1  0.170423  0.829577  0.170423  1
  B  B8  1  0.829577  0.170423  0.829577  1
  Ir  Ir9  1  0.584317  0.584317  0.915683  1
  Ir  Ir10  1  0.915192  0.915192  0.084808  1
  Ir  Ir11  1  0.415683  0.415683  0.084317  1
  Ir  Ir12  1  0.084317  0.084317  0.415683  1
  Ir  Ir13  1  0.915683  0.915683  0.584317  1
  Ir  Ir14  1  0.250000  0.250000  0.250000  1
  Ir  Ir15  1  0.084808  0.084808  0.915192  1
  Ir  Ir16  1  0.750000  0.750000  0.750000  1
