# generated using pymatgen
data_TbY5Lu4(Si3H)2
_symmetry_space_group_name_H-M   'P 1'
_cell_length_a   8.41245785
_cell_length_b   8.41245800
_cell_length_c   6.15459100
_cell_angle_alpha   90.00000000
_cell_angle_beta   90.00000000
_cell_angle_gamma   120.05142313
_symmetry_Int_Tables_number   1
_chemical_formula_structural   TbY5Lu4(Si3H)2
_chemical_formula_sum   'Tb1 Y5 Lu4 Si6 H2'
_cell_volume   377.00782643
_cell_formula_units_Z   1
loop_
 _symmetry_equiv_pos_site_id
 _symmetry_equiv_pos_as_xyz
  1  'x, y, z'
loop_
 _atom_site_type_symbol
 _atom_site_label
 _atom_site_symmetry_multiplicity
 _atom_site_fract_x
 _atom_site_fract_y
 _atom_site_fract_z
 _atom_site_occupancy
  Tb  Tb0  1  0.749013  0.749013  0.750000  1
  Y  Y1  1  0.251151  0.999956  0.750000  1
  Y  Y2  1  0.999956  0.251151  0.750000  1
  Y  Y3  1  0.251126  0.251126  0.250000  1
  Y  Y4  1  0.748810  0.000009  0.250000  1
  Y  Y5  1  0.000009  0.748810  0.250000  1
  Lu  Lu6  1  0.666644  0.333293  0.999999  1
  Lu  Lu7  1  0.333293  0.666644  0.999999  1
  Lu  Lu8  1  0.333293  0.666644  0.500001  1
  Lu  Lu9  1  0.666644  0.333293  0.500001  1
  Si  Si10  1  0.390812  0.390812  0.750000  1
  Si  Si11  1  0.608978  0.000224  0.750000  1
  Si  Si12  1  0.000224  0.608978  0.750000  1
  Si  Si13  1  0.609054  0.609054  0.250000  1
  Si  Si14  1  0.390955  0.000037  0.250000  1
  Si  Si15  1  0.000037  0.390955  0.250000  1
  H  H16  1  0.000001  0.000001  0.499921  1
  H  H17  1  0.000001  0.000001  0.000079  1
