# generated using pymatgen
data_Dy4SiNiPt11
_symmetry_space_group_name_H-M   'P 1'
_cell_length_a   7.25983847
_cell_length_b   7.25983871
_cell_length_c   7.25983830
_cell_angle_alpha   108.71015820
_cell_angle_beta   109.85308064
_cell_angle_gamma   109.85309598
_symmetry_Int_Tables_number   1
_chemical_formula_structural   Dy4SiNiPt11
_chemical_formula_sum   'Dy4 Si1 Ni1 Pt11'
_cell_volume   294.51104747
_cell_formula_units_Z   1
loop_
 _symmetry_equiv_pos_site_id
 _symmetry_equiv_pos_as_xyz
  1  'x, y, z'
loop_
 _atom_site_type_symbol
 _atom_site_label
 _atom_site_symmetry_multiplicity
 _atom_site_fract_x
 _atom_site_fract_y
 _atom_site_fract_z
 _atom_site_occupancy
  Dy  Dy0  1  0.000000  0.012311  0.525752  1
  Dy  Dy1  1  0.000000  0.525752  0.012311  1
  Dy  Dy2  1  0.486560  0.012311  0.012311  1
  Dy  Dy3  1  0.513440  0.525752  0.525752  1
  Si  Si4  1  0.000000  0.615695  0.615695  1
  Ni  Ni5  1  0.000000  0.873030  0.873030  1
  Pt  Pt6  1  0.737482  0.246468  0.508985  1
  Pt  Pt7  1  0.737482  0.508985  0.246468  1
  Pt  Pt8  1  0.500000  0.267673  0.767673  1
  Pt  Pt9  1  0.262518  0.508985  0.771503  1
  Pt  Pt10  1  0.262518  0.771503  0.508985  1
  Pt  Pt11  1  0.500000  0.767673  0.267673  1
  Pt  Pt12  1  0.741078  0.767420  0.026342  1
  Pt  Pt13  1  0.258922  0.026342  0.285265  1
  Pt  Pt14  1  0.000000  0.258494  0.258494  1
  Pt  Pt15  1  0.258922  0.285265  0.026342  1
  Pt  Pt16  1  0.741078  0.026342  0.767420  1
