# generated using pymatgen
data_Hf10ZnSn2GeSb4
_symmetry_space_group_name_H-M   'P 1'
_cell_length_a   8.60761609
_cell_length_b   8.61859931
_cell_length_c   5.80966601
_cell_angle_alpha   89.99374952
_cell_angle_beta   90.00312286
_cell_angle_gamma   120.04221298
_symmetry_Int_Tables_number   1
_chemical_formula_structural   Hf10ZnSn2GeSb4
_chemical_formula_sum   'Hf10 Zn1 Sn2 Ge1 Sb4'
_cell_volume   373.09246883
_cell_formula_units_Z   1
loop_
 _symmetry_equiv_pos_site_id
 _symmetry_equiv_pos_as_xyz
  1  'x, y, z'
loop_
 _atom_site_type_symbol
 _atom_site_label
 _atom_site_symmetry_multiplicity
 _atom_site_fract_x
 _atom_site_fract_y
 _atom_site_fract_z
 _atom_site_occupancy
  Hf  Hf0  1  0.733225  0.733497  0.249455  1
  Hf  Hf1  1  0.733225  0.999729  0.750545  1
  Hf  Hf2  1  0.999581  0.267771  0.249704  1
  Hf  Hf3  1  0.999581  0.731810  0.750296  1
  Hf  Hf4  1  0.267152  0.267521  0.750143  1
  Hf  Hf5  1  0.267152  0.999631  0.249857  1
  Hf  Hf6  1  0.333444  0.666722  0.500000  1
  Hf  Hf7  1  0.667092  0.333546  0.000000  1
  Hf  Hf8  1  0.667642  0.333821  0.500000  1
  Hf  Hf9  1  0.333508  0.666754  0.000000  1
  Zn  Zn10  1  0.001320  0.000660  0.500000  1
  Sn  Sn11  1  0.388220  0.000384  0.748406  1
  Sn  Sn12  1  0.388220  0.387836  0.251594  1
  Ge  Ge13  1  0.000841  0.000421  0.000000  1
  Sb  Sb14  1  0.000541  0.610946  0.251910  1
  Sb  Sb15  1  0.000541  0.389594  0.748090  1
  Sb  Sb16  1  0.609358  0.609117  0.748151  1
  Sb  Sb17  1  0.609358  0.000241  0.251849  1
