# generated using pymatgen
data_Nd5TmAl24Os7Pt
_symmetry_space_group_name_H-M   'P 1'
_cell_length_a   8.90597734
_cell_length_b   8.90597595
_cell_length_c   9.63196312
_cell_angle_alpha   89.69831286
_cell_angle_beta   90.30169102
_cell_angle_gamma   120.02922731
_symmetry_Int_Tables_number   1
_chemical_formula_structural   Nd5TmAl24Os7Pt
_chemical_formula_sum   'Nd5 Tm1 Al24 Os7 Pt1'
_cell_volume   661.41271666
_cell_formula_units_Z   1
loop_
 _symmetry_equiv_pos_site_id
 _symmetry_equiv_pos_as_xyz
  1  'x, y, z'
loop_
 _atom_site_type_symbol
 _atom_site_label
 _atom_site_symmetry_multiplicity
 _atom_site_fract_x
 _atom_site_fract_y
 _atom_site_fract_z
 _atom_site_occupancy
  Nd  Nd0  1  0.189785  0.383367  0.250801  1
  Nd  Nd1  1  0.810395  0.616683  0.749006  1
  Nd  Nd2  1  0.616633  0.810215  0.250801  1
  Nd  Nd3  1  0.383317  0.189605  0.749006  1
  Nd  Nd4  1  0.193781  0.806219  0.251576  1
  Tm  Tm5  1  0.803331  0.196669  0.747991  1
  Al  Al6  1  0.331741  0.668259  0.014138  1
  Al  Al7  1  0.669324  0.330676  0.982147  1
  Al  Al8  1  0.666996  0.333004  0.514136  1
  Al  Al9  1  0.333915  0.666085  0.489032  1
  Al  Al10  1  0.161514  0.324957  0.577301  1
  Al  Al11  1  0.836286  0.673286  0.424543  1
  Al  Al12  1  0.675043  0.838486  0.577301  1
  Al  Al13  1  0.841278  0.674552  0.075652  1
  Al  Al14  1  0.326714  0.163714  0.424543  1
  Al  Al15  1  0.155874  0.323589  0.922349  1
  Al  Al16  1  0.163780  0.836220  0.575626  1
  Al  Al17  1  0.325448  0.158722  0.075652  1
  Al  Al18  1  0.836592  0.163408  0.428579  1
  Al  Al19  1  0.676411  0.844126  0.922349  1
  Al  Al20  1  0.836595  0.163405  0.070636  1
  Al  Al21  1  0.163493  0.836507  0.924987  1
  Al  Al22  1  0.562570  0.124847  0.248930  1
  Al  Al23  1  0.441455  0.878142  0.751030  1
  Al  Al24  1  0.875153  0.437430  0.248930  1
  Al  Al25  1  0.121858  0.558545  0.751030  1
  Al  Al26  1  0.562903  0.437097  0.252344  1
  Al  Al27  1  0.437101  0.562899  0.748317  1
  Al  Al28  1  0.000234  0.999766  0.250180  1
  Al  Al29  1  0.996591  0.003409  0.749940  1
  Os  Os30  1  0.501419  0.000536  0.998891  1
  Os  Os31  1  0.999464  0.498581  0.998891  1
  Os  Os32  1  0.501984  0.000807  0.501409  1
  Os  Os33  1  0.999193  0.498016  0.501409  1
  Os  Os34  1  0.500489  0.499511  0.500823  1
  Os  Os35  1  0.000340  0.999660  0.999656  1
  Os  Os36  1  0.000462  0.999538  0.500415  1
  Pt  Pt37  1  0.500539  0.499461  0.999651  1
