# generated using pymatgen
data_Tb3Dy(TcB6)2
_symmetry_space_group_name_H-M   'P 1'
_cell_length_a   3.70526700
_cell_length_b   9.18447404
_cell_length_c   11.57387705
_cell_angle_alpha   90.01057094
_cell_angle_beta   90.00000000
_cell_angle_gamma   90.00000000
_symmetry_Int_Tables_number   1
_chemical_formula_structural   Tb3Dy(TcB6)2
_chemical_formula_sum   'Tb6 Dy2 Tc4 B24'
_cell_volume   393.86977643
_cell_formula_units_Z   2
loop_
 _symmetry_equiv_pos_site_id
 _symmetry_equiv_pos_as_xyz
  1  'x, y, z'
loop_
 _atom_site_type_symbol
 _atom_site_label
 _atom_site_symmetry_multiplicity
 _atom_site_fract_x
 _atom_site_fract_y
 _atom_site_fract_z
 _atom_site_occupancy
  Tb  Tb0  1  0.000000  0.324214  0.414099  1
  Tb  Tb1  1  0.000000  0.675786  0.585901  1
  Tb  Tb2  1  0.000000  0.823946  0.085773  1
  Tb  Tb3  1  0.000000  0.176054  0.914227  1
  Tb  Tb4  1  0.000000  0.942524  0.369067  1
  Tb  Tb5  1  0.000000  0.057476  0.630933  1
  Dy  Dy6  1  0.000000  0.442532  0.130853  1
  Dy  Dy7  1  0.000000  0.557468  0.869147  1
  Tc  Tc8  1  0.000000  0.638334  0.320295  1
  Tc  Tc9  1  0.000000  0.361666  0.679705  1
  Tc  Tc10  1  0.000000  0.139036  0.179344  1
  Tc  Tc11  1  0.000000  0.860964  0.820656  1
  B  B12  1  0.500000  0.553394  0.432591  1
  B  B13  1  0.500000  0.446606  0.567409  1
  B  B14  1  0.500000  0.053539  0.067323  1
  B  B15  1  0.500000  0.946461  0.932677  1
  B  B16  1  0.500000  0.748112  0.418174  1
  B  B17  1  0.500000  0.251888  0.581826  1
  B  B18  1  0.500000  0.248700  0.081775  1
  B  B19  1  0.500000  0.751300  0.918225  1
  B  B20  1  0.500000  0.791156  0.265310  1
  B  B21  1  0.500000  0.208844  0.734690  1
  B  B22  1  0.500000  0.291735  0.234505  1
  B  B23  1  0.500000  0.708265  0.765495  1
  B  B24  1  0.500000  0.630639  0.185705  1
  B  B25  1  0.500000  0.369361  0.814295  1
  B  B26  1  0.500000  0.131172  0.313973  1
  B  B27  1  0.500000  0.868828  0.686027  1
  B  B28  1  0.500000  0.982919  0.211473  1
  B  B29  1  0.500000  0.017081  0.788527  1
  B  B30  1  0.500000  0.482608  0.288182  1
  B  B31  1  0.500000  0.517392  0.711818  1
  B  B32  1  0.500000  0.600094  0.028008  1
  B  B33  1  0.500000  0.399906  0.971992  1
  B  B34  1  0.500000  0.101012  0.471769  1
  B  B35  1  0.500000  0.898988  0.528231  1
