# generated using pymatgen
data_Sm8Ge(Pd2Pt)8
_symmetry_space_group_name_H-M   'P 1'
_cell_length_a   8.43898504
_cell_length_b   8.44264400
_cell_length_c   8.44061604
_cell_angle_alpha   90.00000000
_cell_angle_beta   89.98908367
_cell_angle_gamma   90.00000000
_symmetry_Int_Tables_number   1
_chemical_formula_structural   Sm8Ge(Pd2Pt)8
_chemical_formula_sum   'Sm8 Ge1 Pd16 Pt8'
_cell_volume   601.37148379
_cell_formula_units_Z   1
loop_
 _symmetry_equiv_pos_site_id
 _symmetry_equiv_pos_as_xyz
  1  'x, y, z'
loop_
 _atom_site_type_symbol
 _atom_site_label
 _atom_site_symmetry_multiplicity
 _atom_site_fract_x
 _atom_site_fract_y
 _atom_site_fract_z
 _atom_site_occupancy
  Sm  Sm0  1  0.253303  0.252991  0.253216  1
  Sm  Sm1  1  0.746807  0.746576  0.746896  1
  Sm  Sm2  1  0.746698  0.746830  0.253128  1
  Sm  Sm3  1  0.746807  0.253424  0.746896  1
  Sm  Sm4  1  0.253213  0.253170  0.746786  1
  Sm  Sm5  1  0.253303  0.747009  0.253216  1
  Sm  Sm6  1  0.253213  0.746830  0.746786  1
  Sm  Sm7  1  0.746698  0.253170  0.253128  1
  Ge  Ge8  1  0.000071  0.000000  0.000059  1
  Pd  Pd9  1  0.499958  0.000000  0.740187  1
  Pd  Pd10  1  0.740183  0.000000  0.499959  1
  Pd  Pd11  1  0.999938  0.500000  0.259881  1
  Pd  Pd12  1  0.999931  0.500000  0.740148  1
  Pd  Pd13  1  0.253181  0.500000  0.500072  1
  Pd  Pd14  1  0.746885  0.500000  0.500072  1
  Pd  Pd15  1  0.499947  0.253173  0.499942  1
  Pd  Pd16  1  0.499947  0.746827  0.499942  1
  Pd  Pd17  1  0.500070  0.500000  0.253284  1
  Pd  Pd18  1  0.500070  0.500000  0.746768  1
  Pd  Pd19  1  0.290244  0.000000  0.999954  1
  Pd  Pd20  1  0.709724  0.000000  0.999987  1
  Pd  Pd21  1  0.999984  0.290362  0.999980  1
  Pd  Pd22  1  0.999984  0.709638  0.999980  1
  Pd  Pd23  1  0.999953  0.000000  0.290234  1
  Pd  Pd24  1  0.999986  0.000000  0.709735  1
  Pt  Pt25  1  0.259698  0.500000  0.999924  1
  Pt  Pt26  1  0.740327  0.500000  0.999915  1
  Pt  Pt27  1  0.000012  0.259760  0.500070  1
  Pt  Pt28  1  0.500059  0.259736  0.000026  1
  Pt  Pt29  1  0.000012  0.740240  0.500070  1
  Pt  Pt30  1  0.500059  0.740264  0.000026  1
  Pt  Pt31  1  0.499869  0.000000  0.259870  1
  Pt  Pt32  1  0.259863  0.000000  0.499866  1
