# generated using pymatgen
data_Ca2Pr3Si12Rh19
_symmetry_space_group_name_H-M   'P 1'
_cell_length_a   12.88786901
_cell_length_b   12.86146935
_cell_length_c   4.02589300
_cell_angle_alpha   90.00000000
_cell_angle_beta   90.00000000
_cell_angle_gamma   119.93226676
_symmetry_Int_Tables_number   1
_chemical_formula_structural   Ca2Pr3Si12Rh19
_chemical_formula_sum   'Ca2 Pr3 Si12 Rh19'
_cell_volume   578.30982745
_cell_formula_units_Z   1
loop_
 _symmetry_equiv_pos_site_id
 _symmetry_equiv_pos_as_xyz
  1  'x, y, z'
loop_
 _atom_site_type_symbol
 _atom_site_label
 _atom_site_symmetry_multiplicity
 _atom_site_fract_x
 _atom_site_fract_y
 _atom_site_fract_z
 _atom_site_occupancy
  Ca  Ca0  1  0.814125  0.813360  0.500000  1
  Ca  Ca1  1  0.185875  0.999236  0.500000  1
  Pr  Pr2  1  0.000000  0.184478  0.500000  1
  Pr  Pr3  1  0.667748  0.334577  0.000000  1
  Pr  Pr4  1  0.332252  0.666831  0.000000  1
  Si  Si5  1  0.475194  0.312266  0.500000  1
  Si  Si6  1  0.814664  0.996935  0.000000  1
  Si  Si7  1  0.185336  0.182271  0.000000  1
  Si  Si8  1  0.000000  0.816769  0.000000  1
  Si  Si9  1  0.372675  0.999933  0.000000  1
  Si  Si10  1  0.686035  0.161026  0.500000  1
  Si  Si11  1  0.839013  0.527063  0.500000  1
  Si  Si12  1  0.524806  0.837073  0.500000  1
  Si  Si13  1  0.160987  0.688050  0.500000  1
  Si  Si14  1  0.313965  0.474991  0.500000  1
  Si  Si15  1  0.000000  0.373687  0.000000  1
  Si  Si16  1  0.627325  0.627258  0.000000  1
  Rh  Rh17  1  0.805711  0.181456  0.000000  1
  Rh  Rh18  1  0.376927  0.192842  0.000000  1
  Rh  Rh19  1  0.639301  0.513888  0.500000  1
  Rh  Rh20  1  0.873840  0.360519  0.500000  1
  Rh  Rh21  1  0.360699  0.874586  0.500000  1
  Rh  Rh22  1  0.514200  0.639673  0.500000  1
  Rh  Rh23  1  0.126160  0.486679  0.500000  1
  Rh  Rh24  1  0.816437  0.624522  0.000000  1
  Rh  Rh25  1  0.623073  0.815915  0.000000  1
  Rh  Rh26  1  0.183563  0.808085  0.000000  1
  Rh  Rh27  1  0.194289  0.375746  0.000000  1
  Rh  Rh28  1  0.000000  0.722976  0.500000  1
  Rh  Rh29  1  0.279804  0.278684  0.500000  1
  Rh  Rh30  1  0.720196  0.998880  0.500000  1
  Rh  Rh31  1  0.000000  0.555210  0.000000  1
  Rh  Rh32  1  0.444548  0.446783  0.000000  1
  Rh  Rh33  1  0.555452  0.002235  0.000000  1
  Rh  Rh34  1  0.000000  0.000047  0.000000  1
  Rh  Rh35  1  0.485800  0.125472  0.500000  1
