# generated using pymatgen
data_HfBr35
_symmetry_space_group_name_H-M   'P 1'
_cell_length_a   15.98197694
_cell_length_b   11.40028128
_cell_length_c   10.79188300
_cell_angle_alpha   88.81408278
_cell_angle_beta   66.02770512
_cell_angle_gamma   92.31545406
_symmetry_Int_Tables_number   1
_chemical_formula_structural   HfBr35
_chemical_formula_sum   'Hf1 Br35'
_cell_volume   1793.71352310
_cell_formula_units_Z   1
loop_
 _symmetry_equiv_pos_site_id
 _symmetry_equiv_pos_as_xyz
  1  'x, y, z'
loop_
 _atom_site_type_symbol
 _atom_site_label
 _atom_site_symmetry_multiplicity
 _atom_site_fract_x
 _atom_site_fract_y
 _atom_site_fract_z
 _atom_site_occupancy
  Hf  Hf0  1  0.234578  0.423211  0.445477  1
  Br  Br1  1  0.511534  0.277047  0.537320  1
  Br  Br2  1  0.744608  0.583585  0.580701  1
  Br  Br3  1  0.473756  0.694670  0.756204  1
  Br  Br4  1  0.055048  0.885565  0.838753  1
  Br  Br5  1  0.889210  0.158540  0.025349  1
  Br  Br6  1  0.637197  0.326296  0.296588  1
  Br  Br7  1  0.618067  0.333640  0.841091  1
  Br  Br8  1  0.341698  0.783103  0.715648  1
  Br  Br9  1  0.346838  0.577044  0.218077  1
  Br  Br10  1  0.654977  0.132501  0.817454  1
  Br  Br11  1  0.890280  0.553757  0.379591  1
  Br  Br12  1  0.058996  0.934334  0.607370  1
  Br  Br13  1  0.901472  0.123367  0.256723  1
  Br  Br14  1  0.878011  0.200597  0.805404  1
  Br  Br15  1  0.644968  0.051166  0.225331  1
  Br  Br16  1  0.030080  0.830171  0.086600  1
  Br  Br17  1  0.365383  0.998755  0.744755  1
  Br  Br18  1  0.891553  0.335114  0.324986  1
  Br  Br19  1  0.876556  0.915344  0.695463  1
  Br  Br20  1  0.906211  0.644972  0.780816  1
  Br  Br21  1  0.314238  0.019356  0.273582  1
  Br  Br22  1  0.344059  0.308882  0.243088  1
  Br  Br23  1  0.601205  0.608502  0.806853  1
  Br  Br24  1  0.104697  0.445080  0.377534  1
  Br  Br25  1  0.707886  0.898905  0.795818  1
  Br  Br26  1  0.874719  0.437286  0.800762  1
  Br  Br27  1  0.486292  0.033301  0.248024  1
  Br  Br28  1  0.171929  0.252586  0.607692  1
  Br  Br29  1  0.680595  0.775835  0.266785  1
  Br  Br30  1  0.855650  0.804626  0.177970  1
  Br  Br31  1  0.389668  0.220066  0.771325  1
  Br  Br32  1  0.362241  0.485333  0.540434  1
  Br  Br33  1  0.655312  0.550133  0.275289  1
  Br  Br34  1  0.186512  0.604402  0.599332  1
  Br  Br35  1  0.313974  0.792929  0.235814  1
