# generated using pymatgen
data_Ho2Lu2ReRu7
_symmetry_space_group_name_H-M   'P 1'
_cell_length_a   5.17098763
_cell_length_b   5.40759122
_cell_length_c   8.92061704
_cell_angle_alpha   89.99701251
_cell_angle_beta   90.00995470
_cell_angle_gamma   121.32800633
_symmetry_Int_Tables_number   1
_chemical_formula_structural   Ho2Lu2ReRu7
_chemical_formula_sum   'Ho2 Lu2 Re1 Ru7'
_cell_volume   213.07585569
_cell_formula_units_Z   1
loop_
 _symmetry_equiv_pos_site_id
 _symmetry_equiv_pos_as_xyz
  1  'x, y, z'
loop_
 _atom_site_type_symbol
 _atom_site_label
 _atom_site_symmetry_multiplicity
 _atom_site_fract_x
 _atom_site_fract_y
 _atom_site_fract_z
 _atom_site_occupancy
  Ho  Ho0  1  0.670279  0.334366  0.566971  1
  Ho  Ho1  1  0.342469  0.671383  0.434646  1
  Lu  Lu2  1  0.343654  0.671954  0.065165  1
  Lu  Lu3  1  0.669055  0.333776  0.933678  1
  Re  Re4  1  0.318621  0.159093  0.247845  1
  Ru  Ru5  1  0.022611  0.011443  0.500432  1
  Ru  Ru6  1  0.022908  0.011660  0.999570  1
  Ru  Ru7  1  0.166329  0.335532  0.752038  1
  Ru  Ru8  1  0.162372  0.831880  0.752007  1
  Ru  Ru9  1  0.647367  0.823679  0.752162  1
  Ru  Ru10  1  0.816928  0.646327  0.247742  1
  Ru  Ru11  1  0.817408  0.168910  0.247745  1
