# generated using pymatgen
data_La6Nd3Y(Pb3Cl)2
_symmetry_space_group_name_H-M   'P 1'
_cell_length_a   9.56877600
_cell_length_b   9.56877541
_cell_length_c   6.83637600
_cell_angle_alpha   90.00000000
_cell_angle_beta   90.00000000
_cell_angle_gamma   119.99999511
_symmetry_Int_Tables_number   1
_chemical_formula_structural   La6Nd3Y(Pb3Cl)2
_chemical_formula_sum   'La6 Nd3 Y1 Pb6 Cl2'
_cell_volume   542.08743828
_cell_formula_units_Z   1
loop_
 _symmetry_equiv_pos_site_id
 _symmetry_equiv_pos_as_xyz
  1  'x, y, z'
loop_
 _atom_site_type_symbol
 _atom_site_label
 _atom_site_symmetry_multiplicity
 _atom_site_fract_x
 _atom_site_fract_y
 _atom_site_fract_z
 _atom_site_occupancy
  La  La0  1  0.738789  0.000007  0.750392  1
  La  La1  1  0.738789  0.738782  0.249608  1
  La  La2  1  0.999993  0.261211  0.249608  1
  La  La3  1  0.999993  0.738782  0.750392  1
  La  La4  1  0.261218  0.261211  0.750392  1
  La  La5  1  0.261218  0.000007  0.249608  1
  Nd  Nd6  1  0.666667  0.333333  0.000000  1
  Nd  Nd7  1  0.333333  0.666667  0.500000  1
  Nd  Nd8  1  0.666667  0.333333  0.500000  1
  Y  Y9  1  0.333333  0.666667  0.000000  1
  Pb  Pb10  1  0.608258  0.611202  0.752574  1
  Pb  Pb11  1  0.002944  0.611202  0.247426  1
  Pb  Pb12  1  0.608258  0.997056  0.247426  1
  Pb  Pb13  1  0.388798  0.997056  0.752574  1
  Pb  Pb14  1  0.002944  0.391742  0.752574  1
  Pb  Pb15  1  0.388798  0.391742  0.247426  1
  Cl  Cl16  1  0.000000  0.000000  0.500000  1
  Cl  Cl17  1  0.000000  0.000000  0.000000  1
