# generated using pymatgen
data_YNi3P2
_symmetry_space_group_name_H-M   'P 1'
_cell_length_a   3.77970000
_cell_length_b   10.48459800
_cell_length_c   12.30522200
_cell_angle_alpha   90.00000000
_cell_angle_beta   90.00000000
_cell_angle_gamma   90.00000000
_symmetry_Int_Tables_number   1
_chemical_formula_structural   YNi3P2
_chemical_formula_sum   'Y6 Ni18 P12'
_cell_volume   487.63915198
_cell_formula_units_Z   6
loop_
 _symmetry_equiv_pos_site_id
 _symmetry_equiv_pos_as_xyz
  1  'x, y, z'
loop_
 _atom_site_type_symbol
 _atom_site_label
 _atom_site_symmetry_multiplicity
 _atom_site_fract_x
 _atom_site_fract_y
 _atom_site_fract_z
 _atom_site_occupancy
  Y  Y0  1  0.751942  0.000000  0.479104  1
  Y  Y1  1  0.251942  0.500000  0.520896  1
  Y  Y2  1  0.251812  0.683682  0.794328  1
  Y  Y3  1  0.251812  0.316318  0.794328  1
  Y  Y4  1  0.751812  0.816318  0.205672  1
  Y  Y5  1  0.751812  0.183682  0.205672  1
  Ni  Ni6  1  0.751960  0.000000  0.016234  1
  Ni  Ni7  1  0.251960  0.500000  0.983766  1
  Ni  Ni8  1  0.251991  0.199223  0.570965  1
  Ni  Ni9  1  0.251991  0.800777  0.570965  1
  Ni  Ni10  1  0.751991  0.300777  0.429035  1
  Ni  Ni11  1  0.751991  0.699223  0.429035  1
  Ni  Ni12  1  0.251817  0.620237  0.288743  1
  Ni  Ni13  1  0.251817  0.379763  0.288743  1
  Ni  Ni14  1  0.751817  0.879763  0.711257  1
  Ni  Ni15  1  0.751817  0.120237  0.711257  1
  Ni  Ni16  1  0.251818  0.167172  0.004233  1
  Ni  Ni17  1  0.251818  0.832828  0.004233  1
  Ni  Ni18  1  0.751818  0.332828  0.995767  1
  Ni  Ni19  1  0.751818  0.667172  0.995767  1
  Ni  Ni20  1  0.251146  0.000000  0.841998  1
  Ni  Ni21  1  0.751146  0.500000  0.158002  1
  Ni  Ni22  1  0.251959  0.000000  0.300105  1
  Ni  Ni23  1  0.751959  0.500000  0.699895  1
  P  P24  1  0.251933  0.186998  0.385670  1
  P  P25  1  0.251933  0.813002  0.385670  1
  P  P26  1  0.751933  0.313002  0.614330  1
  P  P27  1  0.751933  0.686998  0.614330  1
  P  P28  1  0.251877  0.000000  0.123530  1
  P  P29  1  0.751877  0.500000  0.876470  1
  P  P30  1  0.251674  0.651524  0.107271  1
  P  P31  1  0.251674  0.348476  0.107271  1
  P  P32  1  0.751674  0.848476  0.892729  1
  P  P33  1  0.751674  0.151524  0.892729  1
  P  P34  1  0.251828  0.000000  0.656668  1
  P  P35  1  0.751828  0.500000  0.343332  1
