# generated using pymatgen
data_Te12OsRh2
_symmetry_space_group_name_H-M   'P 1'
_cell_length_a   7.98948195
_cell_length_b   7.62770432
_cell_length_c   8.26577957
_cell_angle_alpha   104.88332241
_cell_angle_beta   94.23036629
_cell_angle_gamma   90.55710868
_symmetry_Int_Tables_number   1
_chemical_formula_structural   Te12OsRh2
_chemical_formula_sum   'Te12 Os1 Rh2'
_cell_volume   485.28738936
_cell_formula_units_Z   1
loop_
 _symmetry_equiv_pos_site_id
 _symmetry_equiv_pos_as_xyz
  1  'x, y, z'
loop_
 _atom_site_type_symbol
 _atom_site_label
 _atom_site_symmetry_multiplicity
 _atom_site_fract_x
 _atom_site_fract_y
 _atom_site_fract_z
 _atom_site_occupancy
  Te  Te0  1  0.275900  0.538163  0.110083  1
  Te  Te1  1  0.842961  0.297276  0.150463  1
  Te  Te2  1  0.831416  0.803252  0.167752  1
  Te  Te3  1  0.253124  0.071412  0.233767  1
  Te  Te4  1  0.212412  0.405585  0.484137  1
  Te  Te5  1  0.233754  0.871854  0.484443  1
  Te  Te6  1  0.766246  0.128136  0.515559  1
  Te  Te7  1  0.787603  0.594408  0.515858  1
  Te  Te8  1  0.746876  0.928581  0.766232  1
  Te  Te9  1  0.168582  0.196749  0.832251  1
  Te  Te10  1  0.157037  0.702732  0.849536  1
  Te  Te11  1  0.724094  0.461849  0.889917  1
  Os  Os12  1  0.999997  0.000002  0.000003  1
  Rh  Rh13  1  0.033390  0.596088  0.311321  1
  Rh  Rh14  1  0.966610  0.403911  0.688681  1
