# generated using pymatgen
data_Hf9BeRe4
_symmetry_space_group_name_H-M   'P 1'
_cell_length_a   8.49588100
_cell_length_b   8.49588095
_cell_length_c   8.63744600
_cell_angle_alpha   90.00000000
_cell_angle_beta   90.00000000
_cell_angle_gamma   119.99999632
_symmetry_Int_Tables_number   1
_chemical_formula_structural   Hf9BeRe4
_chemical_formula_sum   'Hf18 Be2 Re8'
_cell_volume   539.92424757
_cell_formula_units_Z   2
loop_
 _symmetry_equiv_pos_site_id
 _symmetry_equiv_pos_as_xyz
  1  'x, y, z'
loop_
 _atom_site_type_symbol
 _atom_site_label
 _atom_site_symmetry_multiplicity
 _atom_site_fract_x
 _atom_site_fract_y
 _atom_site_fract_z
 _atom_site_occupancy
  Hf  Hf0  1  0.198731  0.801269  0.447375  1
  Hf  Hf1  1  0.198731  0.397462  0.447375  1
  Hf  Hf2  1  0.602538  0.801269  0.447375  1
  Hf  Hf3  1  0.801269  0.198731  0.552625  1
  Hf  Hf4  1  0.801269  0.602538  0.552625  1
  Hf  Hf5  1  0.397462  0.198731  0.552625  1
  Hf  Hf6  1  0.801269  0.198731  0.947375  1
  Hf  Hf7  1  0.801269  0.602538  0.947375  1
  Hf  Hf8  1  0.397462  0.198731  0.947375  1
  Hf  Hf9  1  0.198731  0.801269  0.052625  1
  Hf  Hf10  1  0.198731  0.397462  0.052625  1
  Hf  Hf11  1  0.602538  0.801269  0.052625  1
  Hf  Hf12  1  0.540024  0.459976  0.250000  1
  Hf  Hf13  1  0.540024  0.080048  0.250000  1
  Hf  Hf14  1  0.919952  0.459976  0.250000  1
  Hf  Hf15  1  0.459976  0.540024  0.750000  1
  Hf  Hf16  1  0.459976  0.919952  0.750000  1
  Hf  Hf17  1  0.080048  0.540024  0.750000  1
  Be  Be18  1  0.333333  0.666667  0.250000  1
  Be  Be19  1  0.666667  0.333333  0.750000  1
  Re  Re20  1  0.889592  0.110408  0.250000  1
  Re  Re21  1  0.889592  0.779185  0.250000  1
  Re  Re22  1  0.220815  0.110408  0.250000  1
  Re  Re23  1  0.110408  0.889592  0.750000  1
  Re  Re24  1  0.110408  0.220815  0.750000  1
  Re  Re25  1  0.779185  0.889592  0.750000  1
  Re  Re26  1  0.000000  0.000000  0.500000  1
  Re  Re27  1  0.000000  0.000000  0.000000  1
