# generated using pymatgen
data_Y2Al4Si2Ni
_symmetry_space_group_name_H-M   'P 1'
_cell_length_a   4.11481834
_cell_length_b   4.11481721
_cell_length_c   10.05039901
_cell_angle_alpha   101.83219766
_cell_angle_beta   101.83217057
_cell_angle_gamma   90.03238962
_symmetry_Int_Tables_number   1
_chemical_formula_structural   Y2Al4Si2Ni
_chemical_formula_sum   'Y2 Al4 Si2 Ni1'
_cell_volume   162.85464052
_cell_formula_units_Z   1
loop_
 _symmetry_equiv_pos_site_id
 _symmetry_equiv_pos_as_xyz
  1  'x, y, z'
loop_
 _atom_site_type_symbol
 _atom_site_label
 _atom_site_symmetry_multiplicity
 _atom_site_fract_x
 _atom_site_fract_y
 _atom_site_fract_z
 _atom_site_occupancy
  Y  Y0  1  0.187325  0.187325  0.374098  1
  Y  Y1  1  0.812677  0.812677  0.625903  1
  Al  Al2  1  0.568222  0.068325  0.136636  1
  Al  Al3  1  0.068325  0.568223  0.136636  1
  Al  Al4  1  0.931676  0.431779  0.863364  1
  Al  Al5  1  0.431778  0.931676  0.863364  1
  Si  Si6  1  0.660795  0.660795  0.321880  1
  Si  Si7  1  0.339206  0.339206  0.678120  1
  Ni  Ni8  1  0.000000  0.000000  0.000000  1
