# generated using pymatgen
data_Cr2Ir5Os
_symmetry_space_group_name_H-M   'P 1'
_cell_length_a   5.42884000
_cell_length_b   5.45168839
_cell_length_c   4.30713500
_cell_angle_alpha   90.00000000
_cell_angle_beta   90.00000000
_cell_angle_gamma   119.86145719
_symmetry_Int_Tables_number   1
_chemical_formula_structural   Cr2Ir5Os
_chemical_formula_sum   'Cr2 Ir5 Os1'
_cell_volume   110.55077405
_cell_formula_units_Z   1
loop_
 _symmetry_equiv_pos_site_id
 _symmetry_equiv_pos_as_xyz
  1  'x, y, z'
loop_
 _atom_site_type_symbol
 _atom_site_label
 _atom_site_symmetry_multiplicity
 _atom_site_fract_x
 _atom_site_fract_y
 _atom_site_fract_z
 _atom_site_occupancy
  Cr  Cr0  1  0.332561  0.665121  0.749998  1
  Cr  Cr1  1  0.667912  0.335825  0.249999  1
  Ir  Ir2  1  0.661226  0.829232  0.250000  1
  Ir  Ir3  1  0.168006  0.829232  0.250000  1
  Ir  Ir4  1  0.830546  0.661089  0.749999  1
  Ir  Ir5  1  0.338471  0.169875  0.749999  1
  Ir  Ir6  1  0.831404  0.169875  0.749999  1
  Os  Os7  1  0.169876  0.339750  0.250001  1
