# generated using pymatgen
data_Ho3Th(InPd2)2
_symmetry_space_group_name_H-M   'P 1'
_cell_length_a   7.76724655
_cell_length_b   7.76724655
_cell_length_c   3.75462500
_cell_angle_alpha   90.00000000
_cell_angle_beta   90.00000000
_cell_angle_gamma   90.91303949
_symmetry_Int_Tables_number   1
_chemical_formula_structural   Ho3Th(InPd2)2
_chemical_formula_sum   'Ho3 Th1 In2 Pd4'
_cell_volume   226.48821262
_cell_formula_units_Z   1
loop_
 _symmetry_equiv_pos_site_id
 _symmetry_equiv_pos_as_xyz
  1  'x, y, z'
loop_
 _atom_site_type_symbol
 _atom_site_label
 _atom_site_symmetry_multiplicity
 _atom_site_fract_x
 _atom_site_fract_y
 _atom_site_fract_z
 _atom_site_occupancy
  Ho  Ho0  1  0.825860  0.670531  0.500000  1
  Ho  Ho1  1  0.170531  0.325860  0.500000  1
  Ho  Ho2  1  0.674850  0.174850  0.500000  1
  Th  Th3  1  0.328465  0.828465  0.500000  1
  In  In4  1  0.995910  0.002372  0.000000  1
  In  In5  1  0.502372  0.495910  0.000000  1
  Pd  Pd6  1  0.372311  0.128330  0.000000  1
  Pd  Pd7  1  0.872906  0.372906  0.000000  1
  Pd  Pd8  1  0.128466  0.628466  0.000000  1
  Pd  Pd9  1  0.628330  0.872311  0.000000  1
