# generated using pymatgen
data_TiBeNb4Sn3
_symmetry_space_group_name_H-M   'P 1'
_cell_length_a   8.23628700
_cell_length_b   8.23628608
_cell_length_c   5.50548100
_cell_angle_alpha   90.00000000
_cell_angle_beta   90.00000000
_cell_angle_gamma   119.99999968
_symmetry_Int_Tables_number   1
_chemical_formula_structural   TiBeNb4Sn3
_chemical_formula_sum   'Ti2 Be2 Nb8 Sn6'
_cell_volume   323.43632653
_cell_formula_units_Z   2
loop_
 _symmetry_equiv_pos_site_id
 _symmetry_equiv_pos_as_xyz
  1  'x, y, z'
loop_
 _atom_site_type_symbol
 _atom_site_label
 _atom_site_symmetry_multiplicity
 _atom_site_fract_x
 _atom_site_fract_y
 _atom_site_fract_z
 _atom_site_occupancy
  Ti  Ti0  1  0.666667  0.333333  0.000000  1
  Ti  Ti1  1  0.333333  0.666667  0.000000  1
  Be  Be2  1  0.000000  0.000000  0.500000  1
  Be  Be3  1  0.000000  0.000000  0.000000  1
  Nb  Nb4  1  0.249084  0.000000  0.749545  1
  Nb  Nb5  1  0.750916  0.000000  0.250455  1
  Nb  Nb6  1  0.000000  0.249084  0.749545  1
  Nb  Nb7  1  0.000000  0.750916  0.250455  1
  Nb  Nb8  1  0.750916  0.750916  0.749545  1
  Nb  Nb9  1  0.249084  0.249084  0.250455  1
  Nb  Nb10  1  0.333333  0.666667  0.500000  1
  Nb  Nb11  1  0.666667  0.333333  0.500000  1
  Sn  Sn12  1  0.605630  0.000000  0.753133  1
  Sn  Sn13  1  0.394370  0.000000  0.246867  1
  Sn  Sn14  1  0.000000  0.605630  0.753133  1
  Sn  Sn15  1  0.000000  0.394370  0.246867  1
  Sn  Sn16  1  0.394370  0.394370  0.753133  1
  Sn  Sn17  1  0.605630  0.605630  0.246867  1
