# generated using pymatgen
data_Lu3Pa(Al3Ir)6
_symmetry_space_group_name_H-M   'P 1'
_cell_length_a   7.55434203
_cell_length_b   7.55230094
_cell_length_c   9.37332000
_cell_angle_alpha   90.00000000
_cell_angle_beta   90.00000000
_cell_angle_gamma   119.60793591
_symmetry_Int_Tables_number   1
_chemical_formula_structural   Lu3Pa(Al3Ir)6
_chemical_formula_sum   'Lu3 Pa1 Al18 Ir6'
_cell_volume   464.94571686
_cell_formula_units_Z   1
loop_
 _symmetry_equiv_pos_site_id
 _symmetry_equiv_pos_as_xyz
  1  'x, y, z'
loop_
 _atom_site_type_symbol
 _atom_site_label
 _atom_site_symmetry_multiplicity
 _atom_site_fract_x
 _atom_site_fract_y
 _atom_site_fract_z
 _atom_site_occupancy
  Lu  Lu0  1  0.004714  0.328754  0.750000  1
  Lu  Lu1  1  0.672159  0.995072  0.250000  1
  Lu  Lu2  1  0.329348  0.004462  0.750000  1
  Pa  Pa3  1  0.996083  0.671138  0.250000  1
  Al  Al4  1  0.131362  0.130733  0.250000  1
  Al  Al5  1  0.873277  0.875248  0.750000  1
  Al  Al6  1  0.000289  0.331239  0.074483  1
  Al  Al7  1  0.999854  0.664648  0.918538  1
  Al  Al8  1  0.999854  0.664648  0.581462  1
  Al  Al9  1  0.339431  0.004172  0.425326  1
  Al  Al10  1  0.000289  0.331239  0.425517  1
  Al  Al11  1  0.665050  0.000721  0.577056  1
  Al  Al12  1  0.665050  0.000721  0.922944  1
  Al  Al13  1  0.339431  0.004172  0.074674  1
  Al  Al14  1  0.331945  0.332121  0.558120  1
  Al  Al15  1  0.662952  0.666405  0.447564  1
  Al  Al16  1  0.662952  0.666405  0.052436  1
  Al  Al17  1  0.331945  0.332121  0.941880  1
  Al  Al18  1  0.339936  0.547339  0.250000  1
  Al  Al19  1  0.659034  0.448562  0.750000  1
  Al  Al20  1  0.546466  0.340841  0.250000  1
  Al  Al21  1  0.449746  0.660918  0.750000  1
  Ir  Ir22  1  0.674115  0.329451  0.001699  1
  Ir  Ir23  1  0.325828  0.672359  0.001788  1
  Ir  Ir24  1  0.325828  0.672359  0.498212  1
  Ir  Ir25  1  0.674115  0.329451  0.498301  1
  Ir  Ir26  1  0.999473  0.997351  0.002426  1
  Ir  Ir27  1  0.999473  0.997351  0.497574  1
