# generated using pymatgen
data_Lu2ThNi2Rh7
_symmetry_space_group_name_H-M   'P 1'
_cell_length_a   5.25071530
_cell_length_b   5.25071471
_cell_length_c   8.90889100
_cell_angle_alpha   72.86107483
_cell_angle_beta   72.86107681
_cell_angle_gamma   60.00001402
_symmetry_Int_Tables_number   1
_chemical_formula_structural   Lu2ThNi2Rh7
_chemical_formula_sum   'Lu2 Th1 Ni2 Rh7'
_cell_volume   200.01801770
_cell_formula_units_Z   1
loop_
 _symmetry_equiv_pos_site_id
 _symmetry_equiv_pos_as_xyz
  1  'x, y, z'
loop_
 _atom_site_type_symbol
 _atom_site_label
 _atom_site_symmetry_multiplicity
 _atom_site_fract_x
 _atom_site_fract_y
 _atom_site_fract_z
 _atom_site_occupancy
  Lu  Lu0  1  0.141125  0.141125  0.576623  1
  Lu  Lu1  1  0.858875  0.858875  0.423377  1
  Th  Th2  1  0.000000  0.000000  0.000000  1
  Ni  Ni3  1  0.333798  0.333798  0.998607  1
  Ni  Ni4  1  0.666202  0.666202  0.001393  1
  Rh  Rh5  1  0.078494  0.582651  0.756205  1
  Rh  Rh6  1  0.582651  0.582651  0.756205  1
  Rh  Rh7  1  0.582651  0.078494  0.756205  1
  Rh  Rh8  1  0.921506  0.417349  0.243795  1
  Rh  Rh9  1  0.417349  0.417349  0.243795  1
  Rh  Rh10  1  0.417349  0.921506  0.243795  1
  Rh  Rh11  1  0.500000  0.500000  0.500000  1
