# generated using pymatgen
data_Rb4Hf6BeI18
_symmetry_space_group_name_H-M   'P 1'
_cell_length_a   11.32359477
_cell_length_b   11.52609962
_cell_length_c   11.65640900
_cell_angle_alpha   118.34775165
_cell_angle_beta   100.30898022
_cell_angle_gamma   103.92938781
_symmetry_Int_Tables_number   1
_chemical_formula_structural   Rb4Hf6BeI18
_chemical_formula_sum   'Rb4 Hf6 Be1 I18'
_cell_volume   1220.56139947
_cell_formula_units_Z   1
loop_
 _symmetry_equiv_pos_site_id
 _symmetry_equiv_pos_as_xyz
  1  'x, y, z'
loop_
 _atom_site_type_symbol
 _atom_site_label
 _atom_site_symmetry_multiplicity
 _atom_site_fract_x
 _atom_site_fract_y
 _atom_site_fract_z
 _atom_site_occupancy
  Rb  Rb0  1  0.185317  0.725043  0.563501  1
  Rb  Rb1  1  0.847523  0.963038  0.773018  1
  Rb  Rb2  1  0.152477  0.036962  0.226982  1
  Rb  Rb3  1  0.814683  0.274957  0.436499  1
  Hf  Hf4  1  0.357582  0.446654  0.781628  1
  Hf  Hf5  1  0.369280  0.619628  0.126488  1
  Hf  Hf6  1  0.638686  0.726064  0.042561  1
  Hf  Hf7  1  0.642418  0.553346  0.218372  1
  Hf  Hf8  1  0.361314  0.273936  0.957439  1
  Hf  Hf9  1  0.630720  0.380372  0.873512  1
  Be  Be10  1  0.500000  0.500000  0.000000  1
  I  I11  1  0.817985  0.425007  0.109220  1
  I  I12  1  0.515618  0.701314  0.402060  1
  I  I13  1  0.184951  0.988633  0.902337  1
  I  I14  1  0.182015  0.574993  0.890780  1
  I  I15  1  0.827202  0.827673  0.305999  1
  I  I16  1  0.504415  0.298229  0.205742  1
  I  I17  1  0.791836  0.233494  0.720992  1
  I  I18  1  0.172798  0.172327  0.694001  1
  I  I19  1  0.508303  0.903045  0.193028  1
  I  I20  1  0.814095  0.626193  0.905028  1
  I  I21  1  0.208164  0.766506  0.279008  1
  I  I22  1  0.173108  0.380607  0.508110  1
  I  I23  1  0.495585  0.701771  0.794258  1
  I  I24  1  0.815049  0.011367  0.097663  1
  I  I25  1  0.484382  0.298686  0.597940  1
  I  I26  1  0.185905  0.373807  0.094972  1
  I  I27  1  0.826892  0.619393  0.491890  1
  I  I28  1  0.491697  0.096955  0.806972  1
