# generated using pymatgen
data_Ba2ZnGaI
_symmetry_space_group_name_H-M   'P 1'
_cell_length_a   4.57038900
_cell_length_b   4.57038927
_cell_length_c   19.51493400
_cell_angle_alpha   90.00000000
_cell_angle_beta   90.00000000
_cell_angle_gamma   120.00000530
_symmetry_Int_Tables_number   1
_chemical_formula_structural   Ba2ZnGaI
_chemical_formula_sum   'Ba4 Zn2 Ga2 I2'
_cell_volume   353.02385442
_cell_formula_units_Z   2
loop_
 _symmetry_equiv_pos_site_id
 _symmetry_equiv_pos_as_xyz
  1  'x, y, z'
loop_
 _atom_site_type_symbol
 _atom_site_label
 _atom_site_symmetry_multiplicity
 _atom_site_fract_x
 _atom_site_fract_y
 _atom_site_fract_z
 _atom_site_occupancy
  Ba  Ba0  1  0.000000  0.000000  0.113916  1
  Ba  Ba1  1  0.000000  0.000000  0.386084  1
  Ba  Ba2  1  0.000000  0.000000  0.613518  1
  Ba  Ba3  1  0.000000  0.000000  0.886482  1
  Zn  Zn4  1  0.333333  0.666665  0.000390  1
  Zn  Zn5  1  0.333333  0.666665  0.499610  1
  Ga  Ga6  1  0.666667  0.333334  0.500167  1
  Ga  Ga7  1  0.666667  0.333334  0.999833  1
  I  I8  1  0.666667  0.333334  0.250000  1
  I  I9  1  0.333333  0.666665  0.750000  1
