# generated using pymatgen
data_Fe6W6N
_symmetry_space_group_name_H-M   'P 1'
_cell_length_a   7.70883400
_cell_length_b   7.70883244
_cell_length_c   7.70883400
_cell_angle_alpha   119.99999813
_cell_angle_beta   90.00000000
_cell_angle_gamma   119.99999813
_symmetry_Int_Tables_number   1
_chemical_formula_structural   Fe6W6N
_chemical_formula_sum   'Fe12 W12 N2'
_cell_volume   323.92988742
_cell_formula_units_Z   2
loop_
 _symmetry_equiv_pos_site_id
 _symmetry_equiv_pos_as_xyz
  1  'x, y, z'
loop_
 _atom_site_type_symbol
 _atom_site_label
 _atom_site_symmetry_multiplicity
 _atom_site_fract_x
 _atom_site_fract_y
 _atom_site_fract_z
 _atom_site_occupancy
  Fe  Fe0  1  0.375000  0.749999  0.124999  1
  Fe  Fe1  1  0.578718  0.157436  0.421280  1
  Fe  Fe2  1  0.263844  0.842562  0.421280  1
  Fe  Fe3  1  0.578718  0.842562  0.421280  1
  Fe  Fe4  1  0.171281  0.342564  0.513845  1
  Fe  Fe5  1  0.375000  0.250001  0.625000  1
  Fe  Fe6  1  0.875001  0.250001  0.625000  1
  Fe  Fe7  1  0.375000  0.749999  0.625000  1
  Fe  Fe8  1  0.578719  0.157436  0.736155  1
  Fe  Fe9  1  0.171281  0.342564  0.828719  1
  Fe  Fe10  1  0.171281  0.657436  0.828719  1
  Fe  Fe11  1  0.486155  0.657436  0.828719  1
  W  W12  1  0.550744  0.500000  0.050744  1
  W  W13  1  0.949256  0.500000  0.050744  1
  W  W14  1  0.550744  0.101488  0.050744  1
  W  W15  1  0.199256  0.000000  0.199256  1
  W  W16  1  0.800744  0.000000  0.199256  1
  W  W17  1  0.199256  0.398512  0.199256  1
  W  W18  1  0.550744  0.500000  0.449256  1
  W  W19  1  0.949256  0.500000  0.449256  1
  W  W20  1  0.949256  0.898512  0.449256  1
  W  W21  1  0.199256  0.000000  0.800744  1
  W  W22  1  0.800744  0.601488  0.800744  1
  W  W23  1  0.800744  0.000000  0.800744  1
  N  N24  1  0.000000  0.000000  0.000000  1
  N  N25  1  0.750000  0.500000  0.250000  1
