# generated using pymatgen
data_LaYb(Al5Os)4
_symmetry_space_group_name_H-M   'P 1'
_cell_length_a   6.91289544
_cell_length_b   6.91289579
_cell_length_c   9.20180000
_cell_angle_alpha   90.00000000
_cell_angle_beta   90.00000000
_cell_angle_gamma   96.48859712
_symmetry_Int_Tables_number   1
_chemical_formula_structural   LaYb(Al5Os)4
_chemical_formula_sum   'La1 Yb1 Al20 Os4'
_cell_volume   436.91998301
_cell_formula_units_Z   1
loop_
 _symmetry_equiv_pos_site_id
 _symmetry_equiv_pos_as_xyz
  1  'x, y, z'
loop_
 _atom_site_type_symbol
 _atom_site_label
 _atom_site_symmetry_multiplicity
 _atom_site_fract_x
 _atom_site_fract_y
 _atom_site_fract_z
 _atom_site_occupancy
  La  La0  1  0.625087  0.374913  0.750000  1
  Yb  Yb1  1  0.373639  0.626361  0.250000  1
  Al  Al2  1  0.280315  0.016582  0.750000  1
  Al  Al3  1  0.021548  0.284153  0.250000  1
  Al  Al4  1  0.715847  0.978452  0.250000  1
  Al  Al5  1  0.983418  0.719685  0.750000  1
  Al  Al6  1  0.877439  0.122561  0.952763  1
  Al  Al7  1  0.123539  0.876461  0.043759  1
  Al  Al8  1  0.877439  0.122561  0.547237  1
  Al  Al9  1  0.123539  0.876461  0.456241  1
  Al  Al10  1  0.643756  0.911745  0.750000  1
  Al  Al11  1  0.915594  0.643468  0.250000  1
  Al  Al12  1  0.356532  0.084406  0.250000  1
  Al  Al13  1  0.088255  0.356244  0.750000  1
  Al  Al14  1  0.341084  0.658916  0.899722  1
  Al  Al15  1  0.659366  0.340634  0.103147  1
  Al  Al16  1  0.341084  0.658916  0.600278  1
  Al  Al17  1  0.659366  0.340634  0.396853  1
  Al  Al18  1  0.723673  0.725890  0.002695  1
  Al  Al19  1  0.723673  0.725890  0.497305  1
  Al  Al20  1  0.274110  0.276327  0.002695  1
  Al  Al21  1  0.274110  0.276327  0.497305  1
  Os  Os22  1  0.499593  0.000799  0.001053  1
  Os  Os23  1  0.999201  0.500407  0.001053  1
  Os  Os24  1  0.499593  0.000799  0.498947  1
  Os  Os25  1  0.999201  0.500407  0.498947  1
