# generated using pymatgen
data_CaPrIr4
_symmetry_space_group_name_H-M   'P 1'
_cell_length_a   5.42102220
_cell_length_b   5.42102227
_cell_length_c   5.42102300
_cell_angle_alpha   60.00000167
_cell_angle_beta   60.00000123
_cell_angle_gamma   59.99999421
_symmetry_Int_Tables_number   1
_chemical_formula_structural   CaPrIr4
_chemical_formula_sum   'Ca1 Pr1 Ir4'
_cell_volume   112.64933187
_cell_formula_units_Z   1
loop_
 _symmetry_equiv_pos_site_id
 _symmetry_equiv_pos_as_xyz
  1  'x, y, z'
loop_
 _atom_site_type_symbol
 _atom_site_label
 _atom_site_symmetry_multiplicity
 _atom_site_fract_x
 _atom_site_fract_y
 _atom_site_fract_z
 _atom_site_occupancy
  Ca  Ca0  1  0.000000  0.000000  0.000000  1
  Pr  Pr1  1  0.250000  0.250000  0.250000  1
  Ir  Ir2  1  0.625122  0.625122  0.625122  1
  Ir  Ir3  1  0.124634  0.625122  0.625122  1
  Ir  Ir4  1  0.625122  0.124634  0.625122  1
  Ir  Ir5  1  0.625122  0.625122  0.124634  1
