# generated using pymatgen
data_Dy3Ho8Tm9Sn16
_symmetry_space_group_name_H-M   'P 1'
_cell_length_a   7.98418913
_cell_length_b   8.11449761
_cell_length_c   15.34460831
_cell_angle_alpha   90.02137614
_cell_angle_beta   90.00558342
_cell_angle_gamma   90.01908437
_symmetry_Int_Tables_number   1
_chemical_formula_structural   Dy3Ho8Tm9Sn16
_chemical_formula_sum   'Dy3 Ho8 Tm9 Sn16'
_cell_volume   994.14149948
_cell_formula_units_Z   1
loop_
 _symmetry_equiv_pos_site_id
 _symmetry_equiv_pos_as_xyz
  1  'x, y, z'
loop_
 _atom_site_type_symbol
 _atom_site_label
 _atom_site_symmetry_multiplicity
 _atom_site_fract_x
 _atom_site_fract_y
 _atom_site_fract_z
 _atom_site_occupancy
  Dy  Dy0  1  0.979112  0.821208  0.402863  1
  Dy  Dy1  1  0.520583  0.320965  0.596857  1
  Dy  Dy2  1  0.021041  0.179120  0.903090  1
  Ho  Ho3  1  0.132235  0.336757  0.377219  1
  Ho  Ho4  1  0.368090  0.836874  0.622404  1
  Ho  Ho5  1  0.867577  0.663355  0.878235  1
  Ho  Ho6  1  0.521271  0.320346  0.903505  1
  Ho  Ho7  1  0.021449  0.179228  0.597227  1
  Ho  Ho8  1  0.478657  0.679256  0.402578  1
  Ho  Ho9  1  0.978624  0.821006  0.097254  1
  Ho  Ho10  1  0.479438  0.679216  0.096815  1
  Tm  Tm11  1  0.366575  0.837237  0.877161  1
  Tm  Tm12  1  0.866563  0.662727  0.622799  1
  Tm  Tm13  1  0.633337  0.162626  0.377057  1
  Tm  Tm14  1  0.133206  0.337618  0.122535  1
  Tm  Tm15  1  0.632442  0.162582  0.123040  1
  Tm  Tm16  1  0.198137  0.503564  0.750449  1
  Tm  Tm17  1  0.698381  0.996478  0.749866  1
  Tm  Tm18  1  0.801431  0.496251  0.250107  1
  Tm  Tm19  1  0.301740  0.003822  0.249298  1
  Sn  Sn20  1  0.294191  0.037689  0.041445  1
  Sn  Sn21  1  0.791985  0.462904  0.458515  1
  Sn  Sn22  1  0.708093  0.962985  0.541423  1
  Sn  Sn23  1  0.208154  0.537197  0.958594  1
  Sn  Sn24  1  0.704151  0.963880  0.958602  1
  Sn  Sn25  1  0.204505  0.536848  0.542329  1
  Sn  Sn26  1  0.295250  0.036955  0.457468  1
  Sn  Sn27  1  0.794039  0.461347  0.042633  1
  Sn  Sn28  1  0.564241  0.619097  0.750273  1
  Sn  Sn29  1  0.064335  0.880574  0.749993  1
  Sn  Sn30  1  0.436310  0.380048  0.249532  1
  Sn  Sn31  1  0.935275  0.119510  0.249289  1
  Sn  Sn32  1  0.330626  0.148658  0.750384  1
  Sn  Sn33  1  0.830585  0.351734  0.749791  1
  Sn  Sn34  1  0.669035  0.851671  0.249820  1
  Sn  Sn35  1  0.169337  0.648668  0.249549  1
