# generated using pymatgen
data_La3Pr13(HgPd)4
_symmetry_space_group_name_H-M   'P 1'
_cell_length_a   10.11417995
_cell_length_b   10.10325042
_cell_length_c   10.10324900
_cell_angle_alpha   59.99999482
_cell_angle_beta   60.03573486
_cell_angle_gamma   60.03573799
_symmetry_Int_Tables_number   1
_chemical_formula_structural   La3Pr13(HgPd)4
_chemical_formula_sum   'La3 Pr13 Hg4 Pd4'
_cell_volume   730.41925145
_cell_formula_units_Z   1
loop_
 _symmetry_equiv_pos_site_id
 _symmetry_equiv_pos_as_xyz
  1  'x, y, z'
loop_
 _atom_site_type_symbol
 _atom_site_label
 _atom_site_symmetry_multiplicity
 _atom_site_fract_x
 _atom_site_fract_y
 _atom_site_fract_z
 _atom_site_occupancy
  La  La0  1  0.352332  0.353786  0.353786  1
  La  La1  1  0.352332  0.353786  0.940094  1
  La  La2  1  0.352332  0.940094  0.353786  1
  Pr  Pr3  1  0.937027  0.354324  0.354324  1
  Pr  Pr4  1  0.808154  0.192240  0.192240  1
  Pr  Pr5  1  0.192771  0.807934  0.807934  1
  Pr  Pr6  1  0.192771  0.807934  0.191361  1
  Pr  Pr7  1  0.808154  0.192240  0.807366  1
  Pr  Pr8  1  0.192771  0.191361  0.807934  1
  Pr  Pr9  1  0.808154  0.807366  0.192240  1
  Pr  Pr10  1  0.935488  0.564626  0.564626  1
  Pr  Pr11  1  0.564493  0.935498  0.935498  1
  Pr  Pr12  1  0.564493  0.935498  0.564511  1
  Pr  Pr13  1  0.935488  0.564626  0.935260  1
  Pr  Pr14  1  0.564493  0.564511  0.935498  1
  Pr  Pr15  1  0.935488  0.935260  0.564626  1
  Hg  Hg16  1  0.585067  0.584301  0.584301  1
  Hg  Hg17  1  0.585067  0.584301  0.246333  1
  Hg  Hg18  1  0.585067  0.246333  0.584301  1
  Hg  Hg19  1  0.246348  0.584551  0.584551  1
  Pd  Pd20  1  0.144621  0.143997  0.143997  1
  Pd  Pd21  1  0.144621  0.143997  0.567384  1
  Pd  Pd22  1  0.144621  0.567384  0.143997  1
  Pd  Pd23  1  0.567846  0.144051  0.144051  1
