# generated using pymatgen
data_Y13Th7Sn16
_symmetry_space_group_name_H-M   'P 1'
_cell_length_a   8.13684957
_cell_length_b   8.23168061
_cell_length_c   15.58579724
_cell_angle_alpha   90.07561378
_cell_angle_beta   90.28791903
_cell_angle_gamma   89.88990275
_symmetry_Int_Tables_number   1
_chemical_formula_structural   Y13Th7Sn16
_chemical_formula_sum   'Y13 Th7 Sn16'
_cell_volume   1043.91986607
_cell_formula_units_Z   1
loop_
 _symmetry_equiv_pos_site_id
 _symmetry_equiv_pos_as_xyz
  1  'x, y, z'
loop_
 _atom_site_type_symbol
 _atom_site_label
 _atom_site_symmetry_multiplicity
 _atom_site_fract_x
 _atom_site_fract_y
 _atom_site_fract_z
 _atom_site_occupancy
  Y  Y0  1  0.364692  0.835450  0.876562  1
  Y  Y1  1  0.863328  0.662916  0.623546  1
  Y  Y2  1  0.635862  0.163996  0.376888  1
  Y  Y3  1  0.133525  0.336166  0.122651  1
  Y  Y4  1  0.634529  0.164179  0.122644  1
  Y  Y5  1  0.136404  0.336410  0.376846  1
  Y  Y6  1  0.363783  0.837323  0.624106  1
  Y  Y7  1  0.865819  0.663224  0.876818  1
  Y  Y8  1  0.524819  0.323160  0.900397  1
  Y  Y9  1  0.193779  0.498383  0.750437  1
  Y  Y10  1  0.694585  0.001592  0.750213  1
  Y  Y11  1  0.806150  0.502045  0.250018  1
  Y  Y12  1  0.305922  0.997799  0.250168  1
  Th  Th13  1  0.020693  0.179885  0.597804  1
  Th  Th14  1  0.480086  0.679816  0.403001  1
  Th  Th15  1  0.978194  0.820607  0.096936  1
  Th  Th16  1  0.479569  0.679732  0.097551  1
  Th  Th17  1  0.980429  0.820376  0.403532  1
  Th  Th18  1  0.518761  0.319781  0.596107  1
  Th  Th19  1  0.019512  0.178426  0.903071  1
  Sn  Sn20  1  0.294552  0.035518  0.042668  1
  Sn  Sn21  1  0.796215  0.461750  0.458223  1
  Sn  Sn22  1  0.703964  0.961940  0.542028  1
  Sn  Sn23  1  0.208829  0.534384  0.957452  1
  Sn  Sn24  1  0.702842  0.962558  0.957614  1
  Sn  Sn25  1  0.203111  0.539656  0.541614  1
  Sn  Sn26  1  0.296102  0.038294  0.458593  1
  Sn  Sn27  1  0.793139  0.460992  0.040919  1
  Sn  Sn28  1  0.560983  0.620883  0.749315  1
  Sn  Sn29  1  0.060776  0.879485  0.750246  1
  Sn  Sn30  1  0.438751  0.378459  0.249645  1
  Sn  Sn31  1  0.938789  0.121314  0.249818  1
  Sn  Sn32  1  0.329347  0.145221  0.752095  1
  Sn  Sn33  1  0.825412  0.357780  0.750225  1
  Sn  Sn34  1  0.673966  0.858173  0.250210  1
  Sn  Sn35  1  0.172781  0.642328  0.250037  1
