# generated using pymatgen
data_Ti2Co4Si3GeRh2
_symmetry_space_group_name_H-M   'P 1'
_cell_length_a   3.72591800
_cell_length_b   5.99039609
_cell_length_c   6.85944011
_cell_angle_alpha   90.01972070
_cell_angle_beta   90.00000000
_cell_angle_gamma   90.00000000
_symmetry_Int_Tables_number   1
_chemical_formula_structural   Ti2Co4Si3GeRh2
_chemical_formula_sum   'Ti2 Co4 Si3 Ge1 Rh2'
_cell_volume   153.10080501
_cell_formula_units_Z   1
loop_
 _symmetry_equiv_pos_site_id
 _symmetry_equiv_pos_as_xyz
  1  'x, y, z'
loop_
 _atom_site_type_symbol
 _atom_site_label
 _atom_site_symmetry_multiplicity
 _atom_site_fract_x
 _atom_site_fract_y
 _atom_site_fract_z
 _atom_site_occupancy
  Ti  Ti0  1  0.250000  0.508436  0.688109  1
  Ti  Ti1  1  0.750000  0.987754  0.191647  1
  Co  Co2  1  0.250000  0.649753  0.061092  1
  Co  Co3  1  0.750000  0.357194  0.934392  1
  Co  Co4  1  0.250000  0.137516  0.431988  1
  Co  Co5  1  0.750000  0.850985  0.545919  1
  Si  Si6  1  0.250000  0.753918  0.376851  1
  Si  Si7  1  0.750000  0.214022  0.619617  1
  Si  Si8  1  0.250000  0.285224  0.121297  1
  Ge  Ge9  1  0.750000  0.746789  0.873842  1
  Rh  Rh10  1  0.250000  0.044198  0.826527  1
  Rh  Rh11  1  0.750000  0.464211  0.328720  1
