# generated using pymatgen
data_KPrAgB2Pt6Au
_symmetry_space_group_name_H-M   'P 1'
_cell_length_a   5.62484900
_cell_length_b   5.62485001
_cell_length_c   7.70420400
_cell_angle_alpha   90.00000000
_cell_angle_beta   90.00000000
_cell_angle_gamma   119.99999996
_symmetry_Int_Tables_number   1
_chemical_formula_structural   KPrAgB2Pt6Au
_chemical_formula_sum   'K1 Pr1 Ag1 B2 Pt6 Au1'
_cell_volume   211.09610497
_cell_formula_units_Z   1
loop_
 _symmetry_equiv_pos_site_id
 _symmetry_equiv_pos_as_xyz
  1  'x, y, z'
loop_
 _atom_site_type_symbol
 _atom_site_label
 _atom_site_symmetry_multiplicity
 _atom_site_fract_x
 _atom_site_fract_y
 _atom_site_fract_z
 _atom_site_occupancy
  K  K0  1  0.000000  0.000000  0.000000  1
  Pr  Pr1  1  0.000000  0.000000  0.500000  1
  Ag  Ag2  1  0.666667  0.333333  0.000000  1
  B  B3  1  0.666667  0.333333  0.500000  1
  B  B4  1  0.333333  0.666667  0.500000  1
  Pt  Pt5  1  0.499777  0.500223  0.306883  1
  Pt  Pt6  1  0.499777  0.999554  0.306883  1
  Pt  Pt7  1  0.499777  0.999554  0.693117  1
  Pt  Pt8  1  0.499777  0.500223  0.693117  1
  Pt  Pt9  1  0.000446  0.500223  0.693117  1
  Pt  Pt10  1  0.000446  0.500223  0.306883  1
  Au  Au11  1  0.333333  0.666667  0.000000  1
