# generated using pymatgen
data_Pr4Y2Al24CuOs7
_symmetry_space_group_name_H-M   'P 1'
_cell_length_a   8.92938831
_cell_length_b   8.92938868
_cell_length_c   9.62669525
_cell_angle_alpha   89.85389225
_cell_angle_beta   90.14610897
_cell_angle_gamma   120.21833252
_symmetry_Int_Tables_number   1
_chemical_formula_structural   Pr4Y2Al24CuOs7
_chemical_formula_sum   'Pr4 Y2 Al24 Cu1 Os7'
_cell_volume   663.26904281
_cell_formula_units_Z   1
loop_
 _symmetry_equiv_pos_site_id
 _symmetry_equiv_pos_as_xyz
  1  'x, y, z'
loop_
 _atom_site_type_symbol
 _atom_site_label
 _atom_site_symmetry_multiplicity
 _atom_site_fract_x
 _atom_site_fract_y
 _atom_site_fract_z
 _atom_site_occupancy
  Pr  Pr0  1  0.190094  0.382083  0.248696  1
  Pr  Pr1  1  0.809906  0.617917  0.751304  1
  Pr  Pr2  1  0.617917  0.809906  0.248696  1
  Pr  Pr3  1  0.382083  0.190094  0.751304  1
  Y  Y4  1  0.194628  0.805372  0.251423  1
  Y  Y5  1  0.805372  0.194628  0.748577  1
  Al  Al6  1  0.331443  0.668557  0.013364  1
  Al  Al7  1  0.668557  0.331443  0.986636  1
  Al  Al8  1  0.666475  0.333525  0.511842  1
  Al  Al9  1  0.333525  0.666475  0.488158  1
  Al  Al10  1  0.161458  0.326311  0.575124  1
  Al  Al11  1  0.838542  0.673689  0.424876  1
  Al  Al12  1  0.673689  0.838542  0.575124  1
  Al  Al13  1  0.845795  0.675790  0.078976  1
  Al  Al14  1  0.326311  0.161458  0.424876  1
  Al  Al15  1  0.154205  0.324210  0.921024  1
  Al  Al16  1  0.163212  0.836788  0.572188  1
  Al  Al17  1  0.324210  0.154205  0.078976  1
  Al  Al18  1  0.836788  0.163212  0.427812  1
  Al  Al19  1  0.675790  0.845795  0.921024  1
  Al  Al20  1  0.836130  0.163870  0.071859  1
  Al  Al21  1  0.163870  0.836130  0.928141  1
  Al  Al22  1  0.560260  0.122025  0.249022  1
  Al  Al23  1  0.439740  0.877975  0.750978  1
  Al  Al24  1  0.877975  0.439740  0.249022  1
  Al  Al25  1  0.122025  0.560260  0.750978  1
  Al  Al26  1  0.563371  0.436629  0.250887  1
  Al  Al27  1  0.436629  0.563371  0.749113  1
  Al  Al28  1  0.002083  0.997917  0.250360  1
  Al  Al29  1  0.997917  0.002083  0.749640  1
  Cu  Cu30  1  0.500000  0.500000  0.000000  1
  Os  Os31  1  0.500000  0.000000  0.000000  1
  Os  Os32  1  0.000000  0.500000  0.000000  1
  Os  Os33  1  0.500000  0.000000  0.500000  1
  Os  Os34  1  0.000000  0.500000  0.500000  1
  Os  Os35  1  0.500000  0.500000  0.500000  1
  Os  Os36  1  0.000000  0.000000  0.000000  1
  Os  Os37  1  0.000000  0.000000  0.500000  1
