# generated using pymatgen
data_HoLu4Ti2Co16TcP12
_symmetry_space_group_name_H-M   'P 1'
_cell_length_a   11.97932600
_cell_length_b   11.97932682
_cell_length_c   3.68592700
_cell_angle_alpha   90.00000000
_cell_angle_beta   90.00000000
_cell_angle_gamma   120.00000327
_symmetry_Int_Tables_number   1
_chemical_formula_structural   HoLu4Ti2Co16TcP12
_chemical_formula_sum   'Ho1 Lu4 Ti2 Co16 Tc1 P12'
_cell_volume   458.08085808
_cell_formula_units_Z   1
loop_
 _symmetry_equiv_pos_site_id
 _symmetry_equiv_pos_as_xyz
  1  'x, y, z'
loop_
 _atom_site_type_symbol
 _atom_site_label
 _atom_site_symmetry_multiplicity
 _atom_site_fract_x
 _atom_site_fract_y
 _atom_site_fract_z
 _atom_site_occupancy
  Ho  Ho0  1  0.332812  0.665992  0.000000  1
  Lu  Lu1  1  0.666979  0.333029  0.000000  1
  Lu  Lu2  1  0.815344  0.816488  0.500000  1
  Lu  Lu3  1  0.184526  0.000963  0.500000  1
  Lu  Lu4  1  0.000114  0.185529  0.500000  1
  Ti  Ti5  1  0.440355  0.439634  0.000000  1
  Ti  Ti6  1  0.560162  0.000260  0.000000  1
  Co  Co7  1  0.873839  0.356595  0.500000  1
  Co  Co8  1  0.646413  0.518598  0.500000  1
  Co  Co9  1  0.481247  0.126512  0.500000  1
  Co  Co10  1  0.353490  0.873703  0.500000  1
  Co  Co11  1  0.520263  0.645343  0.500000  1
  Co  Co12  1  0.124751  0.481254  0.500000  1
  Co  Co13  1  0.803365  0.179586  0.000000  1
  Co  Co14  1  0.823614  0.625555  0.000000  1
  Co  Co15  1  0.374871  0.196627  0.000000  1
  Co  Co16  1  0.175539  0.802046  0.000000  1
  Co  Co17  1  0.626097  0.822530  0.000000  1
  Co  Co18  1  0.196488  0.375222  0.000000  1
  Co  Co19  1  0.280055  0.279954  0.500000  1
  Co  Co20  1  0.720502  0.001031  0.500000  1
  Co  Co21  1  0.999414  0.718822  0.500000  1
  Co  Co22  1  0.000009  0.999668  0.000000  1
  Tc  Tc23  1  0.999702  0.552684  0.000000  1
  P  P24  1  0.686386  0.168708  0.500000  1
  P  P25  1  0.834178  0.519222  0.500000  1
  P  P26  1  0.481582  0.313130  0.500000  1
  P  P27  1  0.164357  0.684986  0.500000  1
  P  P28  1  0.519959  0.833011  0.500000  1
  P  P29  1  0.313539  0.480772  0.500000  1
  P  P30  1  0.177233  0.177719  0.000000  1
  P  P31  1  0.823199  0.001306  0.000000  1
  P  P32  1  0.999651  0.822521  0.000000  1
  P  P33  1  0.643540  0.642397  0.000000  1
  P  P34  1  0.356358  0.998698  0.000000  1
  P  P35  1  0.000068  0.359904  0.000000  1
