# generated using pymatgen
data_Li3Sm3Si2Bi
_symmetry_space_group_name_H-M   'P 1'
_cell_length_a   7.28484700
_cell_length_b   7.28484799
_cell_length_c   4.39757000
_cell_angle_alpha   90.00000000
_cell_angle_beta   90.00000000
_cell_angle_gamma   119.99999095
_symmetry_Int_Tables_number   1
_chemical_formula_structural   Li3Sm3Si2Bi
_chemical_formula_sum   'Li3 Sm3 Si2 Bi1'
_cell_volume   202.10839889
_cell_formula_units_Z   1
loop_
 _symmetry_equiv_pos_site_id
 _symmetry_equiv_pos_as_xyz
  1  'x, y, z'
loop_
 _atom_site_type_symbol
 _atom_site_label
 _atom_site_symmetry_multiplicity
 _atom_site_fract_x
 _atom_site_fract_y
 _atom_site_fract_z
 _atom_site_occupancy
  Li  Li0  1  0.245234  0.000000  0.500000  1
  Li  Li1  1  0.754766  0.754766  0.500000  1
  Li  Li2  1  0.000000  0.245234  0.500000  1
  Sm  Sm3  1  0.000000  0.549514  0.000000  1
  Sm  Sm4  1  0.549514  0.000000  0.000000  1
  Sm  Sm5  1  0.450486  0.450486  0.000000  1
  Si  Si6  1  0.333333  0.666667  0.500000  1
  Si  Si7  1  0.666667  0.333333  0.500000  1
  Bi  Bi8  1  0.000000  0.000000  0.000000  1
