# generated using pymatgen
data_Ce3SmHf4F28
_symmetry_space_group_name_H-M   'P 1'
_cell_length_a   5.83128128
_cell_length_b   9.30579747
_cell_length_c   12.42010400
_cell_angle_alpha   61.89909385
_cell_angle_beta   89.96205357
_cell_angle_gamma   90.01406875
_symmetry_Int_Tables_number   1
_chemical_formula_structural   Ce3SmHf4F28
_chemical_formula_sum   'Ce3 Sm1 Hf4 F28'
_cell_volume   594.52485993
_cell_formula_units_Z   1
loop_
 _symmetry_equiv_pos_site_id
 _symmetry_equiv_pos_as_xyz
  1  'x, y, z'
loop_
 _atom_site_type_symbol
 _atom_site_label
 _atom_site_symmetry_multiplicity
 _atom_site_fract_x
 _atom_site_fract_y
 _atom_site_fract_z
 _atom_site_occupancy
  Ce  Ce0  1  0.744067  0.811424  0.265797  1
  Ce  Ce1  1  0.243778  0.186050  0.234436  1
  Ce  Ce2  1  0.256672  0.184888  0.734248  1
  Sm  Sm3  1  0.757577  0.811495  0.766139  1
  Hf  Hf4  1  0.745181  0.271928  0.456515  1
  Hf  Hf5  1  0.245431  0.725147  0.041898  1
  Hf  Hf6  1  0.256450  0.725340  0.548020  1
  Hf  Hf7  1  0.755626  0.278026  0.953642  1
  F  F8  1  0.460149  0.712178  0.920743  1
  F  F9  1  0.953241  0.290342  0.577065  1
  F  F10  1  0.547084  0.292157  0.076096  1
  F  F11  1  0.045746  0.710814  0.426285  1
  F  F12  1  0.459165  0.283365  0.543016  1
  F  F13  1  0.962181  0.717135  0.950949  1
  F  F14  1  0.538422  0.717001  0.457266  1
  F  F15  1  0.040482  0.286310  0.041818  1
  F  F16  1  0.764775  0.522003  0.858302  1
  F  F17  1  0.267569  0.482722  0.642067  1
  F  F18  1  0.230111  0.482708  0.138748  1
  F  F19  1  0.731982  0.515360  0.360829  1
  F  F20  1  0.760550  0.034542  0.052777  1
  F  F21  1  0.260435  0.968624  0.448195  1
  F  F22  1  0.238377  0.968547  0.946988  1
  F  F23  1  0.739477  0.028419  0.557236  1
  F  F24  1  0.988230  0.732502  0.646904  1
  F  F25  1  0.486485  0.269764  0.856673  1
  F  F26  1  0.015990  0.268573  0.358631  1
  F  F27  1  0.513266  0.730205  0.140987  1
  F  F28  1  0.043199  0.742388  0.167325  1
  F  F29  1  0.546792  0.255129  0.329841  1
  F  F30  1  0.955331  0.258731  0.828701  1
  F  F31  1  0.461867  0.745167  0.671368  1
  F  F32  1  0.410518  0.965928  0.231441  1
  F  F33  1  0.909483  0.032015  0.268536  1
  F  F34  1  0.585739  0.026382  0.767915  1
  F  F35  1  0.078571  0.966693  0.732605  1
