# generated using pymatgen
data_Nd3Sc3Al6PdAu5
_symmetry_space_group_name_H-M   'P 1'
_cell_length_a   7.31096200
_cell_length_b   7.31096166
_cell_length_c   7.98672800
_cell_angle_alpha   90.00000000
_cell_angle_beta   90.00000000
_cell_angle_gamma   119.99999250
_symmetry_Int_Tables_number   1
_chemical_formula_structural   Nd3Sc3Al6PdAu5
_chemical_formula_sum   'Nd3 Sc3 Al6 Pd1 Au5'
_cell_volume   369.69926869
_cell_formula_units_Z   1
loop_
 _symmetry_equiv_pos_site_id
 _symmetry_equiv_pos_as_xyz
  1  'x, y, z'
loop_
 _atom_site_type_symbol
 _atom_site_label
 _atom_site_symmetry_multiplicity
 _atom_site_fract_x
 _atom_site_fract_y
 _atom_site_fract_z
 _atom_site_occupancy
  Nd  Nd0  1  0.580915  0.999141  0.750000  1
  Nd  Nd1  1  0.000859  0.581776  0.750000  1
  Nd  Nd2  1  0.418224  0.419085  0.750000  1
  Sc  Sc3  1  0.998267  0.599558  0.250000  1
  Sc  Sc4  1  0.601290  0.001733  0.250000  1
  Sc  Sc5  1  0.400442  0.398710  0.250000  1
  Al  Al6  1  0.753549  0.754137  0.020520  1
  Al  Al7  1  0.245863  0.999412  0.020520  1
  Al  Al8  1  0.000588  0.246451  0.020520  1
  Al  Al9  1  0.753549  0.754137  0.479480  1
  Al  Al10  1  0.245863  0.999412  0.479480  1
  Al  Al11  1  0.000588  0.246451  0.479480  1
  Pd  Pd12  1  0.000000  0.000000  0.250000  1
  Au  Au13  1  0.000000  0.000000  0.750000  1
  Au  Au14  1  0.666667  0.333333  0.031567  1
  Au  Au15  1  0.666667  0.333333  0.468433  1
  Au  Au16  1  0.333333  0.666667  0.465323  1
  Au  Au17  1  0.333333  0.666667  0.034677  1
