# generated using pymatgen
data_RbLiP2Se5
_symmetry_space_group_name_H-M   'P 1'
_cell_length_a   8.20233400
_cell_length_b   10.79589634
_cell_length_c   13.64987200
_cell_angle_alpha   59.19972006
_cell_angle_beta   90.00000000
_cell_angle_gamma   90.00000000
_symmetry_Int_Tables_number   1
_chemical_formula_structural   RbLiP2Se5
_chemical_formula_sum   'Rb4 Li4 P8 Se20'
_cell_volume   1038.23665530
_cell_formula_units_Z   4
loop_
 _symmetry_equiv_pos_site_id
 _symmetry_equiv_pos_as_xyz
  1  'x, y, z'
loop_
 _atom_site_type_symbol
 _atom_site_label
 _atom_site_symmetry_multiplicity
 _atom_site_fract_x
 _atom_site_fract_y
 _atom_site_fract_z
 _atom_site_occupancy
  Rb  Rb0  1  0.628778  0.621850  0.779058  1
  Rb  Rb1  1  0.371222  0.378150  0.220942  1
  Rb  Rb2  1  0.871222  0.621850  0.279058  1
  Rb  Rb3  1  0.128778  0.378150  0.720942  1
  Li  Li4  1  0.336979  0.857162  0.323210  1
  Li  Li5  1  0.836979  0.142838  0.176790  1
  Li  Li6  1  0.163021  0.857162  0.823210  1
  Li  Li7  1  0.663021  0.142838  0.676790  1
  P  P8  1  0.649222  0.197866  0.919317  1
  P  P9  1  0.939937  0.825523  0.460839  1
  P  P10  1  0.060063  0.174477  0.539161  1
  P  P11  1  0.850778  0.197866  0.419317  1
  P  P12  1  0.350778  0.802134  0.080683  1
  P  P13  1  0.149222  0.802134  0.580683  1
  P  P14  1  0.560063  0.825523  0.960839  1
  P  P15  1  0.439937  0.174477  0.039161  1
  Se  Se16  1  0.690866  0.624416  0.035169  1
  Se  Se17  1  0.561605  0.311874  0.745682  1
  Se  Se18  1  0.139740  0.711837  0.042285  1
  Se  Se19  1  0.466162  0.922009  0.786646  1
  Se  Se20  1  0.190866  0.375584  0.464831  1
  Se  Se21  1  0.360260  0.711837  0.542285  1
  Se  Se22  1  0.309134  0.375584  0.964831  1
  Se  Se23  1  0.966162  0.077991  0.713354  1
  Se  Se24  1  0.744987  0.967302  0.985832  1
  Se  Se25  1  0.244987  0.032698  0.514168  1
  Se  Se26  1  0.860260  0.288163  0.957715  1
  Se  Se27  1  0.755013  0.967302  0.485832  1
  Se  Se28  1  0.061605  0.688126  0.754318  1
  Se  Se29  1  0.033838  0.922009  0.286646  1
  Se  Se30  1  0.639740  0.288163  0.457715  1
  Se  Se31  1  0.438395  0.688126  0.254318  1
  Se  Se32  1  0.938395  0.311874  0.245682  1
  Se  Se33  1  0.533838  0.077991  0.213354  1
  Se  Se34  1  0.255013  0.032698  0.014168  1
  Se  Se35  1  0.809134  0.624416  0.535169  1
