# generated using pymatgen
data_Th2Al16NiPt8
_symmetry_space_group_name_H-M   'P 1'
_cell_length_a   11.08965495
_cell_length_b   11.09061465
_cell_length_c   11.09061415
_cell_angle_alpha   158.40688118
_cell_angle_beta   114.42659850
_cell_angle_gamma   69.91939493
_symmetry_Int_Tables_number   1
_chemical_formula_structural   Th2Al16NiPt8
_chemical_formula_sum   'Th2 Al16 Ni1 Pt8'
_cell_volume   453.59264595
_cell_formula_units_Z   1
loop_
 _symmetry_equiv_pos_site_id
 _symmetry_equiv_pos_as_xyz
  1  'x, y, z'
loop_
 _atom_site_type_symbol
 _atom_site_label
 _atom_site_symmetry_multiplicity
 _atom_site_fract_x
 _atom_site_fract_y
 _atom_site_fract_z
 _atom_site_occupancy
  Th  Th0  1  0.227477  0.227705  0.999772  1
  Th  Th1  1  0.772077  0.772307  0.999771  1
  Al  Al2  1  0.273110  0.391530  0.881581  1
  Al  Al3  1  0.092168  0.920934  0.171235  1
  Al  Al4  1  0.509988  0.203418  0.306571  1
  Al  Al5  1  0.250325  0.079084  0.171241  1
  Al  Al6  1  0.914109  0.415009  0.499100  1
  Al  Al7  1  0.724678  0.603441  0.121237  1
  Al  Al8  1  0.895011  0.201648  0.693363  1
  Al  Al9  1  0.491730  0.798362  0.693366  1
  Al  Al10  1  0.388070  0.000008  0.388063  1
  Al  Al11  1  0.616594  0.999995  0.616599  1
  Al  Al12  1  0.490069  0.608482  0.881588  1
  Al  Al13  1  0.103155  0.796589  0.306566  1
  Al  Al14  1  0.901714  0.076966  0.824747  1
  Al  Al15  1  0.747796  0.923032  0.824764  1
  Al  Al16  1  0.517737  0.396538  0.121199  1
  Al  Al17  1  0.084113  0.585007  0.499106  1
  Ni  Ni18  1  0.749904  0.499999  0.249905  1
  Pt  Pt19  1  0.022602  0.338965  0.683638  1
  Pt  Pt20  1  0.627054  0.126434  0.500619  1
  Pt  Pt21  1  0.251730  0.499997  0.751733  1
  Pt  Pt22  1  0.374176  0.873557  0.500619  1
  Pt  Pt23  1  0.998845  0.999990  0.998855  1
  Pt  Pt24  1  0.656936  0.341368  0.315567  1
  Pt  Pt25  1  0.344660  0.661023  0.683638  1
  Pt  Pt26  1  0.974171  0.658612  0.315559  1
