# generated using pymatgen
data_Sc12InFeNi4
_symmetry_space_group_name_H-M   'P 1'
_cell_length_a   7.74909612
_cell_length_b   7.74909674
_cell_length_c   7.74909692
_cell_angle_alpha   110.98863261
_cell_angle_beta   111.15524139
_cell_angle_gamma   106.31519223
_symmetry_Int_Tables_number   1
_chemical_formula_structural   Sc12InFeNi4
_chemical_formula_sum   'Sc12 In1 Fe1 Ni4'
_cell_volume   357.39451823
_cell_formula_units_Z   1
loop_
 _symmetry_equiv_pos_site_id
 _symmetry_equiv_pos_as_xyz
  1  'x, y, z'
loop_
 _atom_site_type_symbol
 _atom_site_label
 _atom_site_symmetry_multiplicity
 _atom_site_fract_x
 _atom_site_fract_y
 _atom_site_fract_z
 _atom_site_occupancy
  Sc  Sc0  1  0.415058  0.223109  0.191950  1
  Sc  Sc1  1  0.584942  0.776891  0.808050  1
  Sc  Sc2  1  0.031159  0.223109  0.808050  1
  Sc  Sc3  1  0.968841  0.776891  0.191950  1
  Sc  Sc4  1  0.320859  0.620539  0.299681  1
  Sc  Sc5  1  0.679141  0.379461  0.700319  1
  Sc  Sc6  1  0.320859  0.021178  0.700319  1
  Sc  Sc7  1  0.679141  0.978822  0.299681  1
  Sc  Sc8  1  0.181369  0.275557  0.456927  1
  Sc  Sc9  1  0.818631  0.724442  0.543073  1
  Sc  Sc10  1  0.181369  0.724442  0.905812  1
  Sc  Sc11  1  0.818631  0.275557  0.094188  1
  In  In12  1  0.500000  0.500000  0.000000  1
  Fe  Fe13  1  0.000000  0.000000  0.000000  1
  Ni  Ni14  1  0.354917  0.000000  0.354917  1
  Ni  Ni15  1  0.645083  0.000000  0.645083  1
  Ni  Ni16  1  0.124332  0.624332  0.500000  1
  Ni  Ni17  1  0.875668  0.375668  0.500000  1
