# generated using pymatgen
data_BaAsOsF12
_symmetry_space_group_name_H-M   'P 1'
_cell_length_a   5.62906200
_cell_length_b   5.78368500
_cell_length_c   8.35486300
_cell_angle_alpha   90.00000000
_cell_angle_beta   90.00000000
_cell_angle_gamma   90.00000000
_symmetry_Int_Tables_number   1
_chemical_formula_structural   BaAsOsF12
_chemical_formula_sum   'Ba1 As1 Os1 F12'
_cell_volume   272.00694747
_cell_formula_units_Z   1
loop_
 _symmetry_equiv_pos_site_id
 _symmetry_equiv_pos_as_xyz
  1  'x, y, z'
loop_
 _atom_site_type_symbol
 _atom_site_label
 _atom_site_symmetry_multiplicity
 _atom_site_fract_x
 _atom_site_fract_y
 _atom_site_fract_z
 _atom_site_occupancy
  Ba  Ba0  1  0.000000  0.000000  0.007351  1
  As  As1  1  0.000000  0.500000  0.264738  1
  Os  Os2  1  0.500000  0.000000  0.733109  1
  F  F3  1  0.254089  0.227742  0.749479  1
  F  F4  1  0.745911  0.772258  0.749479  1
  F  F5  1  0.219536  0.720169  0.250389  1
  F  F6  1  0.780464  0.279831  0.250389  1
  F  F7  1  0.000000  0.500000  0.471056  1
  F  F8  1  0.500000  0.000000  0.509405  1
  F  F9  1  0.000000  0.500000  0.044019  1
  F  F10  1  0.500000  0.000000  0.970849  1
  F  F11  1  0.219536  0.279831  0.250389  1
  F  F12  1  0.780464  0.720169  0.250389  1
  F  F13  1  0.254089  0.772258  0.749479  1
  F  F14  1  0.745911  0.227742  0.749479  1
