# generated using pymatgen
data_Tb7Yb12DyGe16
_symmetry_space_group_name_H-M   'P 1'
_cell_length_a   7.46444500
_cell_length_b   7.89707200
_cell_length_c   15.23495100
_cell_angle_alpha   90.00026221
_cell_angle_beta   89.99802073
_cell_angle_gamma   89.99795612
_symmetry_Int_Tables_number   1
_chemical_formula_structural   Tb7Yb12DyGe16
_chemical_formula_sum   'Tb7 Yb12 Dy1 Ge16'
_cell_volume   898.05861111
_cell_formula_units_Z   1
loop_
 _symmetry_equiv_pos_site_id
 _symmetry_equiv_pos_as_xyz
  1  'x, y, z'
loop_
 _atom_site_type_symbol
 _atom_site_label
 _atom_site_symmetry_multiplicity
 _atom_site_fract_x
 _atom_site_fract_y
 _atom_site_fract_z
 _atom_site_occupancy
  Tb  Tb0  1  0.817307  0.327599  0.378692  1
  Tb  Tb1  1  0.182689  0.672397  0.878695  1
  Tb  Tb2  1  0.682690  0.827602  0.621305  1
  Tb  Tb3  1  0.317314  0.172403  0.378686  1
  Tb  Tb4  1  0.817311  0.327588  0.121310  1
  Tb  Tb5  1  0.182690  0.672398  0.621306  1
  Tb  Tb6  1  0.682686  0.827603  0.878698  1
  Yb  Yb7  1  0.977677  0.812749  0.404547  1
  Yb  Yb8  1  0.477667  0.687257  0.095451  1
  Yb  Yb9  1  0.522326  0.312747  0.595451  1
  Yb  Yb10  1  0.022331  0.187249  0.904552  1
  Yb  Yb11  1  0.022324  0.187252  0.595451  1
  Yb  Yb12  1  0.522319  0.312745  0.904553  1
  Yb  Yb13  1  0.477675  0.687253  0.404548  1
  Yb  Yb14  1  0.977684  0.812753  0.095453  1
  Yb  Yb15  1  0.346484  0.020049  0.750000  1
  Yb  Yb16  1  0.846485  0.479953  0.749999  1
  Yb  Yb17  1  0.153519  0.520037  0.249995  1
  Yb  Yb18  1  0.653504  0.979958  0.249996  1
  Dy  Dy19  1  0.317311  0.172381  0.121308  1
  Ge  Ge20  1  0.846947  0.533198  0.540252  1
  Ge  Ge21  1  0.346936  0.966832  0.959772  1
  Ge  Ge22  1  0.653056  0.033199  0.459749  1
  Ge  Ge23  1  0.153096  0.466772  0.040267  1
  Ge  Ge24  1  0.153052  0.466804  0.459748  1
  Ge  Ge25  1  0.653011  0.033215  0.040263  1
  Ge  Ge26  1  0.346947  0.966802  0.540252  1
  Ge  Ge27  1  0.846948  0.533192  0.959748  1
  Ge  Ge28  1  0.978927  0.882458  0.750000  1
  Ge  Ge29  1  0.478927  0.617543  0.750000  1
  Ge  Ge30  1  0.521042  0.382426  0.249990  1
  Ge  Ge31  1  0.021102  0.117555  0.249981  1
  Ge  Ge32  1  0.237279  0.384618  0.750000  1
  Ge  Ge33  1  0.737279  0.115384  0.750000  1
  Ge  Ge34  1  0.262736  0.884644  0.249984  1
  Ge  Ge35  1  0.762721  0.615385  0.249997  1
