# generated using pymatgen
data_Sr3NdSc2(RhO6)2
_symmetry_space_group_name_H-M   'P 1'
_cell_length_a   5.69746297
_cell_length_b   5.67740710
_cell_length_c   9.83686015
_cell_angle_alpha   54.50605446
_cell_angle_beta   89.95638835
_cell_angle_gamma   90.08014767
_symmetry_Int_Tables_number   1
_chemical_formula_structural   Sr3NdSc2(RhO6)2
_chemical_formula_sum   'Sr3 Nd1 Sc2 Rh2 O12'
_cell_volume   259.06310886
_cell_formula_units_Z   1
loop_
 _symmetry_equiv_pos_site_id
 _symmetry_equiv_pos_as_xyz
  1  'x, y, z'
loop_
 _atom_site_type_symbol
 _atom_site_label
 _atom_site_symmetry_multiplicity
 _atom_site_fract_x
 _atom_site_fract_y
 _atom_site_fract_z
 _atom_site_occupancy
  Sr  Sr0  1  0.523078  0.245522  0.749025  1
  Sr  Sr1  1  0.973066  0.245749  0.249875  1
  Sr  Sr2  1  0.027030  0.759341  0.750493  1
  Nd  Nd3  1  0.456733  0.757626  0.250154  1
  Sc  Sc4  1  0.995933  0.002306  0.997549  1
  Sc  Sc5  1  0.501668  0.998624  0.501826  1
  Rh  Rh6  1  0.999382  0.499730  0.498017  1
  Rh  Rh7  1  0.500820  0.499376  0.002505  1
  O  O8  1  0.707775  0.173075  0.046343  1
  O  O9  1  0.286028  0.803870  0.972499  1
  O  O10  1  0.225948  0.807564  0.456838  1
  O  O11  1  0.785671  0.193224  0.531237  1
  O  O12  1  0.024428  0.682069  0.253752  1
  O  O13  1  0.988642  0.322565  0.742934  1
  O  O14  1  0.508784  0.340310  0.245825  1
  O  O15  1  0.491633  0.680620  0.757349  1
  O  O16  1  0.234489  0.233623  0.043084  1
  O  O17  1  0.774333  0.745971  0.967967  1
  O  O18  1  0.717023  0.750510  0.454269  1
  O  O19  1  0.277537  0.258324  0.528461  1
