# generated using pymatgen
data_Tb2Al8ReSiPd2
_symmetry_space_group_name_H-M   'P 1'
_cell_length_a   7.60912337
_cell_length_b   7.60912363
_cell_length_c   9.41977200
_cell_angle_alpha   90.00000000
_cell_angle_beta   90.00000000
_cell_angle_gamma   119.33391267
_symmetry_Int_Tables_number   1
_chemical_formula_structural   Tb2Al8ReSiPd2
_chemical_formula_sum   'Tb4 Al16 Re2 Si2 Pd4'
_cell_volume   475.46252159
_cell_formula_units_Z   2
loop_
 _symmetry_equiv_pos_site_id
 _symmetry_equiv_pos_as_xyz
  1  'x, y, z'
loop_
 _atom_site_type_symbol
 _atom_site_label
 _atom_site_symmetry_multiplicity
 _atom_site_fract_x
 _atom_site_fract_y
 _atom_site_fract_z
 _atom_site_occupancy
  Tb  Tb0  1  0.994717  0.679260  0.250000  1
  Tb  Tb1  1  0.005283  0.320740  0.750000  1
  Tb  Tb2  1  0.679260  0.994717  0.250000  1
  Tb  Tb3  1  0.320740  0.005283  0.750000  1
  Al  Al4  1  0.002204  0.334596  0.078455  1
  Al  Al5  1  0.997796  0.665404  0.921545  1
  Al  Al6  1  0.997796  0.665404  0.578455  1
  Al  Al7  1  0.334596  0.002204  0.421545  1
  Al  Al8  1  0.002204  0.334596  0.421545  1
  Al  Al9  1  0.665404  0.997796  0.578455  1
  Al  Al10  1  0.665404  0.997796  0.921545  1
  Al  Al11  1  0.334596  0.002204  0.078455  1
  Al  Al12  1  0.332110  0.332110  0.555382  1
  Al  Al13  1  0.667890  0.667891  0.444618  1
  Al  Al14  1  0.667890  0.667891  0.055382  1
  Al  Al15  1  0.332110  0.332110  0.944618  1
  Al  Al16  1  0.339399  0.548800  0.250000  1
  Al  Al17  1  0.660601  0.451200  0.750000  1
  Al  Al18  1  0.548800  0.339399  0.250000  1
  Al  Al19  1  0.451200  0.660601  0.750000  1
  Re  Re20  1  0.000000  0.000000  0.000000  1
  Re  Re21  1  0.000000  0.000000  0.500000  1
  Si  Si22  1  0.127262  0.127262  0.250000  1
  Si  Si23  1  0.872738  0.872738  0.750000  1
  Pd  Pd24  1  0.671769  0.328231  0.000000  1
  Pd  Pd25  1  0.328231  0.671769  0.000000  1
  Pd  Pd26  1  0.328231  0.671769  0.500000  1
  Pd  Pd27  1  0.671769  0.328231  0.500000  1
