# generated using pymatgen
data_CeNd15Cd3AgIr4
_symmetry_space_group_name_H-M   'P 1'
_cell_length_a   9.94158776
_cell_length_b   9.94158877
_cell_length_c   9.94158840
_cell_angle_alpha   59.63724548
_cell_angle_beta   59.63724141
_cell_angle_gamma   59.63724503
_symmetry_Int_Tables_number   1
_chemical_formula_structural   CeNd15Cd3AgIr4
_chemical_formula_sum   'Ce1 Nd15 Cd3 Ag1 Ir4'
_cell_volume   689.06079060
_cell_formula_units_Z   1
loop_
 _symmetry_equiv_pos_site_id
 _symmetry_equiv_pos_as_xyz
  1  'x, y, z'
loop_
 _atom_site_type_symbol
 _atom_site_label
 _atom_site_symmetry_multiplicity
 _atom_site_fract_x
 _atom_site_fract_y
 _atom_site_fract_z
 _atom_site_occupancy
  Ce  Ce0  1  0.343647  0.343647  0.343647  1
  Nd  Nd1  1  0.349333  0.349333  0.951734  1
  Nd  Nd2  1  0.349333  0.951734  0.349333  1
  Nd  Nd3  1  0.951734  0.349333  0.349333  1
  Nd  Nd4  1  0.810156  0.190815  0.190815  1
  Nd  Nd5  1  0.189560  0.808903  0.808903  1
  Nd  Nd6  1  0.190815  0.810156  0.190815  1
  Nd  Nd7  1  0.808903  0.189560  0.808903  1
  Nd  Nd8  1  0.190815  0.190815  0.810156  1
  Nd  Nd9  1  0.808903  0.808903  0.189560  1
  Nd  Nd10  1  0.938841  0.560659  0.560659  1
  Nd  Nd11  1  0.559211  0.937700  0.937700  1
  Nd  Nd12  1  0.560659  0.938841  0.560659  1
  Nd  Nd13  1  0.937700  0.559211  0.937700  1
  Nd  Nd14  1  0.560659  0.560659  0.938841  1
  Nd  Nd15  1  0.937700  0.937700  0.559211  1
  Cd  Cd16  1  0.579202  0.579202  0.261591  1
  Cd  Cd17  1  0.579202  0.261591  0.579202  1
  Cd  Cd18  1  0.261591  0.579202  0.579202  1
  Ag  Ag19  1  0.582669  0.582669  0.582669  1
  Ir  Ir20  1  0.142081  0.142081  0.142081  1
  Ir  Ir21  1  0.147563  0.147563  0.572158  1
  Ir  Ir22  1  0.147563  0.572158  0.147563  1
  Ir  Ir23  1  0.572158  0.147563  0.147563  1
