# generated using pymatgen
data_YZn(Pd2Au)2
_symmetry_space_group_name_H-M   'P 1'
_cell_length_a   5.86297300
_cell_length_b   5.87337946
_cell_length_c   7.70290100
_cell_angle_alpha   89.99846844
_cell_angle_beta   90.00060589
_cell_angle_gamma   89.97749485
_symmetry_Int_Tables_number   1
_chemical_formula_structural   YZn(Pd2Au)2
_chemical_formula_sum   'Y2 Zn2 Pd8 Au4'
_cell_volume   265.25295849
_cell_formula_units_Z   2
loop_
 _symmetry_equiv_pos_site_id
 _symmetry_equiv_pos_as_xyz
  1  'x, y, z'
loop_
 _atom_site_type_symbol
 _atom_site_label
 _atom_site_symmetry_multiplicity
 _atom_site_fract_x
 _atom_site_fract_y
 _atom_site_fract_z
 _atom_site_occupancy
  Y  Y0  1  0.249868  0.250041  0.000012  1
  Y  Y1  1  0.750132  0.749959  0.999988  1
  Zn  Zn2  1  0.749874  0.750057  0.500004  1
  Zn  Zn3  1  0.250127  0.249943  0.499996  1
  Pd  Pd4  1  0.500012  0.000015  0.264080  1
  Pd  Pd5  1  0.500030  0.500061  0.264027  1
  Pd  Pd6  1  0.000043  0.000028  0.264106  1
  Pd  Pd7  1  0.000033  0.500024  0.264167  1
  Pd  Pd8  1  0.999957  0.999972  0.735894  1
  Pd  Pd9  1  0.999967  0.499976  0.735833  1
  Pd  Pd10  1  0.499988  0.999985  0.735920  1
  Pd  Pd11  1  0.499970  0.499939  0.735973  1
  Au  Au12  1  0.749975  0.249987  0.999997  1
  Au  Au13  1  0.250023  0.750013  0.000003  1
  Au  Au14  1  0.749909  0.249970  0.500006  1
  Au  Au15  1  0.250091  0.750030  0.499995  1
