# generated using pymatgen
data_AcLa5Nd6(Si7Br3)2
_symmetry_space_group_name_H-M   'P 1'
_cell_length_a   4.13445700
_cell_length_b   11.92288400
_cell_length_c   16.67937900
_cell_angle_alpha   90.00000000
_cell_angle_beta   90.00000000
_cell_angle_gamma   90.00000000
_symmetry_Int_Tables_number   1
_chemical_formula_structural   AcLa5Nd6(Si7Br3)2
_chemical_formula_sum   'Ac1 La5 Nd6 Si14 Br6'
_cell_volume   822.20417027
_cell_formula_units_Z   1
loop_
 _symmetry_equiv_pos_site_id
 _symmetry_equiv_pos_as_xyz
  1  'x, y, z'
loop_
 _atom_site_type_symbol
 _atom_site_label
 _atom_site_symmetry_multiplicity
 _atom_site_fract_x
 _atom_site_fract_y
 _atom_site_fract_z
 _atom_site_occupancy
  Ac  Ac0  1  0.500000  0.335822  0.500000  1
  La  La1  1  0.000000  0.658869  0.000000  1
  La  La2  1  0.500000  0.067420  0.879700  1
  La  La3  1  0.000000  0.931529  0.621579  1
  La  La4  1  0.500000  0.067420  0.120300  1
  La  La5  1  0.000000  0.931529  0.378421  1
  Nd  Nd6  1  0.500000  0.362150  0.758259  1
  Nd  Nd7  1  0.000000  0.639672  0.743887  1
  Nd  Nd8  1  0.500000  0.362150  0.241741  1
  Nd  Nd9  1  0.000000  0.639672  0.256113  1
  Nd  Nd10  1  0.500000  0.358518  0.000000  1
  Nd  Nd11  1  0.000000  0.641479  0.500000  1
  Si  Si12  1  0.000000  0.157162  0.000000  1
  Si  Si13  1  0.500000  0.842640  0.500000  1
  Si  Si14  1  0.500000  0.565270  0.876630  1
  Si  Si15  1  0.000000  0.437161  0.626567  1
  Si  Si16  1  0.500000  0.565270  0.123370  1
  Si  Si17  1  0.000000  0.437161  0.373433  1
  Si  Si18  1  0.000000  0.256390  0.873651  1
  Si  Si19  1  0.500000  0.743960  0.626715  1
  Si  Si20  1  0.000000  0.256390  0.126349  1
  Si  Si21  1  0.500000  0.743960  0.373285  1
  Si  Si22  1  0.000000  0.458704  0.876923  1
  Si  Si23  1  0.500000  0.543342  0.624948  1
  Si  Si24  1  0.500000  0.543342  0.375052  1
  Si  Si25  1  0.000000  0.458704  0.123077  1
  Br  Br26  1  0.500000  0.112833  0.691837  1
  Br  Br27  1  0.000000  0.888463  0.808306  1
  Br  Br28  1  0.000000  0.129657  0.500000  1
  Br  Br29  1  0.500000  0.862062  0.000000  1
  Br  Br30  1  0.500000  0.112833  0.308163  1
  Br  Br31  1  0.000000  0.888463  0.191694  1
