# generated using pymatgen
data_Hf8Ta11TiGe16
_symmetry_space_group_name_H-M   'P 1'
_cell_length_a   6.81710253
_cell_length_b   6.93490191
_cell_length_c   13.25273580
_cell_angle_alpha   90.02325077
_cell_angle_beta   89.94507668
_cell_angle_gamma   89.94618524
_symmetry_Int_Tables_number   1
_chemical_formula_structural   Hf8Ta11TiGe16
_chemical_formula_sum   'Hf8 Ta11 Ti1 Ge16'
_cell_volume   626.53489150
_cell_formula_units_Z   1
loop_
 _symmetry_equiv_pos_site_id
 _symmetry_equiv_pos_as_xyz
  1  'x, y, z'
loop_
 _atom_site_type_symbol
 _atom_site_label
 _atom_site_symmetry_multiplicity
 _atom_site_fract_x
 _atom_site_fract_y
 _atom_site_fract_z
 _atom_site_occupancy
  Hf  Hf0  1  0.486837  0.674604  0.590288  1
  Hf  Hf1  1  0.987237  0.824850  0.908856  1
  Hf  Hf2  1  0.513692  0.324221  0.090052  1
  Hf  Hf3  1  0.013042  0.175631  0.410157  1
  Hf  Hf4  1  0.512774  0.326073  0.410032  1
  Hf  Hf5  1  0.012608  0.175104  0.089769  1
  Hf  Hf6  1  0.487413  0.674552  0.909239  1
  Hf  Hf7  1  0.989482  0.822124  0.589728  1
  Ta  Ta8  1  0.159243  0.335901  0.875233  1
  Ta  Ta9  1  0.340515  0.835573  0.124299  1
  Ta  Ta10  1  0.839137  0.664050  0.376220  1
  Ta  Ta11  1  0.341185  0.836391  0.375650  1
  Ta  Ta12  1  0.841107  0.663422  0.124799  1
  Ta  Ta13  1  0.657878  0.165620  0.875169  1
  Ta  Ta14  1  0.159305  0.336758  0.624464  1
  Ta  Ta15  1  0.836455  0.492412  0.750959  1
  Ta  Ta16  1  0.335352  0.008819  0.750201  1
  Ta  Ta17  1  0.163414  0.509069  0.250383  1
  Ta  Ta18  1  0.663701  0.990733  0.250068  1
  Ti  Ti19  1  0.659851  0.164304  0.624844  1
  Ge  Ge20  1  0.684901  0.963829  0.462257  1
  Ge  Ge21  1  0.184572  0.539014  0.040251  1
  Ge  Ge22  1  0.315333  0.038830  0.959572  1
  Ge  Ge23  1  0.812599  0.456211  0.541378  1
  Ge  Ge24  1  0.318609  0.039536  0.541159  1
  Ge  Ge25  1  0.816642  0.461214  0.959654  1
  Ge  Ge26  1  0.684296  0.960897  0.039837  1
  Ge  Ge27  1  0.183121  0.539508  0.459684  1
  Ge  Ge28  1  0.463829  0.387019  0.747786  1
  Ge  Ge29  1  0.959533  0.111195  0.748317  1
  Ge  Ge30  1  0.537695  0.610182  0.250196  1
  Ge  Ge31  1  0.037628  0.890097  0.250300  1
  Ge  Ge32  1  0.692021  0.849122  0.748233  1
  Ge  Ge33  1  0.193414  0.652933  0.750115  1
  Ge  Ge34  1  0.307946  0.154027  0.250410  1
  Ge  Ge35  1  0.807631  0.346173  0.250442  1
