# generated using pymatgen
data_Ho12Th4MgZn3Ir4
_symmetry_space_group_name_H-M   'P 1'
_cell_length_a   9.64005156
_cell_length_b   9.64189765
_cell_length_c   9.64189700
_cell_angle_alpha   60.00000564
_cell_angle_beta   59.99367063
_cell_angle_gamma   59.99367419
_symmetry_Int_Tables_number   1
_chemical_formula_structural   Ho12Th4MgZn3Ir4
_chemical_formula_sum   'Ho12 Th4 Mg1 Zn3 Ir4'
_cell_volume   633.64766511
_cell_formula_units_Z   1
loop_
 _symmetry_equiv_pos_site_id
 _symmetry_equiv_pos_as_xyz
  1  'x, y, z'
loop_
 _atom_site_type_symbol
 _atom_site_label
 _atom_site_symmetry_multiplicity
 _atom_site_fract_x
 _atom_site_fract_y
 _atom_site_fract_z
 _atom_site_occupancy
  Ho  Ho0  1  0.809717  0.190195  0.190195  1
  Ho  Ho1  1  0.187284  0.812182  0.812182  1
  Ho  Ho2  1  0.187284  0.812182  0.188352  1
  Ho  Ho3  1  0.809717  0.190195  0.809893  1
  Ho  Ho4  1  0.187284  0.188352  0.812182  1
  Ho  Ho5  1  0.809717  0.809893  0.190195  1
  Ho  Ho6  1  0.927765  0.567243  0.567243  1
  Ho  Ho7  1  0.564032  0.934828  0.934828  1
  Ho  Ho8  1  0.564032  0.934828  0.566312  1
  Ho  Ho9  1  0.927765  0.567243  0.937749  1
  Ho  Ho10  1  0.564032  0.566312  0.934828  1
  Ho  Ho11  1  0.927765  0.937749  0.567243  1
  Th  Th12  1  0.352798  0.350731  0.350731  1
  Th  Th13  1  0.352798  0.350731  0.945738  1
  Th  Th14  1  0.352798  0.945738  0.350731  1
  Th  Th15  1  0.942945  0.352351  0.352351  1
  Mg  Mg16  1  0.271426  0.576191  0.576191  1
  Zn  Zn17  1  0.585842  0.583278  0.583278  1
  Zn  Zn18  1  0.585842  0.583278  0.247601  1
  Zn  Zn19  1  0.585842  0.247601  0.583278  1
  Ir  Ir20  1  0.143677  0.142527  0.142527  1
  Ir  Ir21  1  0.143677  0.142527  0.571271  1
  Ir  Ir22  1  0.143677  0.571271  0.142527  1
  Ir  Ir23  1  0.572285  0.142573  0.142573  1
