# generated using pymatgen
data_Dy2ThNi2
_symmetry_space_group_name_H-M   'P 1'
_cell_length_a   6.94093235
_cell_length_b   6.94093299
_cell_length_c   9.66745412
_cell_angle_alpha   74.11904488
_cell_angle_beta   74.11904344
_cell_angle_gamma   30.72321804
_symmetry_Int_Tables_number   1
_chemical_formula_structural   Dy2ThNi2
_chemical_formula_sum   'Dy4 Th2 Ni4'
_cell_volume   228.16293287
_cell_formula_units_Z   2
loop_
 _symmetry_equiv_pos_site_id
 _symmetry_equiv_pos_as_xyz
  1  'x, y, z'
loop_
 _atom_site_type_symbol
 _atom_site_label
 _atom_site_symmetry_multiplicity
 _atom_site_fract_x
 _atom_site_fract_y
 _atom_site_fract_z
 _atom_site_occupancy
  Dy  Dy0  1  0.401988  0.401988  0.669147  1
  Dy  Dy1  1  0.598012  0.598012  0.330853  1
  Dy  Dy2  1  0.130734  0.130734  0.005503  1
  Dy  Dy3  1  0.869266  0.869266  0.994497  1
  Th  Th4  1  0.850516  0.850516  0.368802  1
  Th  Th5  1  0.149484  0.149484  0.631198  1
  Ni  Ni6  1  0.744362  0.744362  0.772999  1
  Ni  Ni7  1  0.255638  0.255638  0.227001  1
  Ni  Ni8  1  0.534798  0.534798  0.854796  1
  Ni  Ni9  1  0.465202  0.465202  0.145204  1
