# generated using pymatgen
data_Er5GeRhO12
_symmetry_space_group_name_H-M   'P 1'
_cell_length_a   6.76633552
_cell_length_b   6.76633593
_cell_length_c   7.18568366
_cell_angle_alpha   74.45459311
_cell_angle_beta   74.45459441
_cell_angle_gamma   51.13803693
_symmetry_Int_Tables_number   1
_chemical_formula_structural   Er5GeRhO12
_chemical_formula_sum   'Er5 Ge1 Rh1 O12'
_cell_volume   244.60017343
_cell_formula_units_Z   1
loop_
 _symmetry_equiv_pos_site_id
 _symmetry_equiv_pos_as_xyz
  1  'x, y, z'
loop_
 _atom_site_type_symbol
 _atom_site_label
 _atom_site_symmetry_multiplicity
 _atom_site_fract_x
 _atom_site_fract_y
 _atom_site_fract_z
 _atom_site_occupancy
  Er  Er0  1  0.306935  0.297160  0.360204  1
  Er  Er1  1  0.702840  0.693065  0.639796  1
  Er  Er2  1  0.305720  0.310348  0.830022  1
  Er  Er3  1  0.689652  0.694280  0.169978  1
  Er  Er4  1  0.000133  0.999867  0.500000  1
  Ge  Ge5  1  0.753830  0.246170  0.000000  1
  Rh  Rh6  1  0.243738  0.756262  0.000000  1
  O  O7  1  0.900525  0.424411  0.917877  1
  O  O8  1  0.427727  0.902913  0.916271  1
  O  O9  1  0.097087  0.572273  0.083729  1
  O  O10  1  0.575589  0.099475  0.082123  1
  O  O11  1  0.098040  0.598806  0.573033  1
  O  O12  1  0.596995  0.096200  0.575047  1
  O  O13  1  0.903800  0.403005  0.424953  1
  O  O14  1  0.401194  0.901960  0.426967  1
  O  O15  1  0.990644  0.009501  0.818049  1
  O  O16  1  0.990499  0.009356  0.181951  1
  O  O17  1  0.507644  0.492592  0.814587  1
  O  O18  1  0.507408  0.492356  0.185413  1
