# generated using pymatgen
data_AgTeRhO6
_symmetry_space_group_name_H-M   'P 1'
_cell_length_a   5.14986009
_cell_length_b   5.15062771
_cell_length_c   4.81807904
_cell_angle_alpha   89.99013596
_cell_angle_beta   90.01803446
_cell_angle_gamma   119.99465879
_symmetry_Int_Tables_number   1
_chemical_formula_structural   AgTeRhO6
_chemical_formula_sum   'Ag1 Te1 Rh1 O6'
_cell_volume   110.68365530
_cell_formula_units_Z   1
loop_
 _symmetry_equiv_pos_site_id
 _symmetry_equiv_pos_as_xyz
  1  'x, y, z'
loop_
 _atom_site_type_symbol
 _atom_site_label
 _atom_site_symmetry_multiplicity
 _atom_site_fract_x
 _atom_site_fract_y
 _atom_site_fract_z
 _atom_site_occupancy
  Ag  Ag0  1  0.999976  0.999956  0.000001  1
  Te  Te1  1  0.666701  0.333352  0.499995  1
  Rh  Rh2  1  0.333337  0.666634  0.500014  1
  O  O3  1  0.630894  0.002336  0.268646  1
  O  O4  1  0.371313  0.369135  0.268622  1
  O  O5  1  0.997582  0.628556  0.268575  1
  O  O6  1  0.371434  0.002330  0.731360  1
  O  O7  1  0.997800  0.369132  0.731373  1
  O  O8  1  0.630964  0.628566  0.731412  1
