# generated using pymatgen
data_Ce12Mn3Al4Si2Ru3
_symmetry_space_group_name_H-M   'P 1'
_cell_length_a   7.69232600
_cell_length_b   7.69232623
_cell_length_c   9.71520300
_cell_angle_alpha   90.00000000
_cell_angle_beta   90.00000000
_cell_angle_gamma   119.99999900
_symmetry_Int_Tables_number   1
_chemical_formula_structural   Ce12Mn3Al4Si2Ru3
_chemical_formula_sum   'Ce12 Mn3 Al4 Si2 Ru3'
_cell_volume   497.84928938
_cell_formula_units_Z   1
loop_
 _symmetry_equiv_pos_site_id
 _symmetry_equiv_pos_as_xyz
  1  'x, y, z'
loop_
 _atom_site_type_symbol
 _atom_site_label
 _atom_site_symmetry_multiplicity
 _atom_site_fract_x
 _atom_site_fract_y
 _atom_site_fract_z
 _atom_site_occupancy
  Ce  Ce0  1  0.000000  0.563998  0.490454  1
  Ce  Ce1  1  0.563998  0.000000  0.490454  1
  Ce  Ce2  1  0.436002  0.436002  0.490454  1
  Ce  Ce3  1  0.000000  0.417746  0.009227  1
  Ce  Ce4  1  0.417746  0.000000  0.009227  1
  Ce  Ce5  1  0.582254  0.582254  0.009227  1
  Ce  Ce6  1  0.000000  0.742970  0.182873  1
  Ce  Ce7  1  0.742970  0.000000  0.182873  1
  Ce  Ce8  1  0.257030  0.257030  0.182873  1
  Ce  Ce9  1  0.000000  0.259273  0.674315  1
  Ce  Ce10  1  0.259273  0.000000  0.674315  1
  Ce  Ce11  1  0.740727  0.740727  0.674315  1
  Mn  Mn12  1  0.000000  0.359057  0.337713  1
  Mn  Mn13  1  0.359057  0.000000  0.337713  1
  Mn  Mn14  1  0.640943  0.640943  0.337713  1
  Al  Al15  1  0.333333  0.666667  0.768705  1
  Al  Al16  1  0.666667  0.333333  0.768705  1
  Al  Al17  1  0.000000  0.000000  0.423941  1
  Al  Al18  1  0.000000  0.000000  0.925171  1
  Si  Si19  1  0.666667  0.333333  0.266129  1
  Si  Si20  1  0.333333  0.666667  0.266129  1
  Ru  Ru21  1  0.000000  0.659255  0.842239  1
  Ru  Ru22  1  0.659255  0.000000  0.842239  1
  Ru  Ru23  1  0.340745  0.340745  0.842239  1
