# generated using pymatgen
data_Os4PtRhW2
_symmetry_space_group_name_H-M   'P 1'
_cell_length_a   5.57672500
_cell_length_b   5.54153222
_cell_length_c   4.43592500
_cell_angle_alpha   90.00000000
_cell_angle_beta   90.00000000
_cell_angle_gamma   120.21030979
_symmetry_Int_Tables_number   1
_chemical_formula_structural   Os4PtRhW2
_chemical_formula_sum   'Os4 Pt1 Rh1 W2'
_cell_volume   118.46761508
_cell_formula_units_Z   1
loop_
 _symmetry_equiv_pos_site_id
 _symmetry_equiv_pos_as_xyz
  1  'x, y, z'
loop_
 _atom_site_type_symbol
 _atom_site_label
 _atom_site_symmetry_multiplicity
 _atom_site_fract_x
 _atom_site_fract_y
 _atom_site_fract_z
 _atom_site_occupancy
  Os  Os0  1  0.171607  0.841007  0.750000  1
  Os  Os1  1  0.669398  0.841007  0.750000  1
  Os  Os2  1  0.331431  0.162280  0.250000  1
  Os  Os3  1  0.830851  0.162280  0.250000  1
  Pt  Pt4  1  0.833419  0.666838  0.250000  1
  Rh  Rh5  1  0.166368  0.332738  0.750000  1
  W  W6  1  0.336160  0.672322  0.250000  1
  W  W7  1  0.660764  0.321527  0.750000  1
