# generated using pymatgen
data_Th3P2Se
_symmetry_space_group_name_H-M   'P 1'
_cell_length_a   7.21851771
_cell_length_b   7.21851743
_cell_length_c   7.21851782
_cell_angle_alpha   146.48627239
_cell_angle_beta   132.04743214
_cell_angle_gamma   59.76823071
_symmetry_Int_Tables_number   1
_chemical_formula_structural   Th3P2Se
_chemical_formula_sum   'Th3 P2 Se1'
_cell_volume   152.83089112
_cell_formula_units_Z   1
loop_
 _symmetry_equiv_pos_site_id
 _symmetry_equiv_pos_as_xyz
  1  'x, y, z'
loop_
 _atom_site_type_symbol
 _atom_site_label
 _atom_site_symmetry_multiplicity
 _atom_site_fract_x
 _atom_site_fract_y
 _atom_site_fract_z
 _atom_site_occupancy
  Th  Th0  1  0.500000  0.000000  0.500000  1
  Th  Th1  1  0.176014  0.676014  0.500000  1
  Th  Th2  1  0.823986  0.323986  0.500000  1
  P  P3  1  0.663441  0.663441  0.000000  1
  P  P4  1  0.336559  0.336559  0.000000  1
  Se  Se5  1  0.000000  0.000000  0.000000  1
