# generated using pymatgen
data_Rb(Ti3Se4)4
_symmetry_space_group_name_H-M   'P 1'
_cell_length_a   7.15192448
_cell_length_b   10.03455971
_cell_length_c   10.61257310
_cell_angle_alpha   118.10608833
_cell_angle_beta   109.65721340
_cell_angle_gamma   90.03091681
_symmetry_Int_Tables_number   1
_chemical_formula_structural   Rb(Ti3Se4)4
_chemical_formula_sum   'Rb1 Ti12 Se16'
_cell_volume   620.96067369
_cell_formula_units_Z   1
loop_
 _symmetry_equiv_pos_site_id
 _symmetry_equiv_pos_as_xyz
  1  'x, y, z'
loop_
 _atom_site_type_symbol
 _atom_site_label
 _atom_site_symmetry_multiplicity
 _atom_site_fract_x
 _atom_site_fract_y
 _atom_site_fract_z
 _atom_site_occupancy
  Rb  Rb0  1  0.000000  0.000000  0.000000  1
  Ti  Ti1  1  0.557860  0.359750  0.867982  1
  Ti  Ti2  1  0.060240  0.359412  0.868170  1
  Ti  Ti3  1  0.371781  0.131653  0.491617  1
  Ti  Ti4  1  0.867999  0.132786  0.490279  1
  Ti  Ti5  1  0.444463  0.509802  0.642380  1
  Ti  Ti6  1  0.946211  0.508402  0.639989  1
  Ti  Ti7  1  0.939760  0.640588  0.131830  1
  Ti  Ti8  1  0.442140  0.640250  0.132018  1
  Ti  Ti9  1  0.132001  0.867214  0.509721  1
  Ti  Ti10  1  0.628219  0.868347  0.508383  1
  Ti  Ti11  1  0.053789  0.491598  0.360011  1
  Ti  Ti12  1  0.555537  0.490198  0.357620  1
  Se  Se13  1  0.973407  0.050819  0.694777  1
  Se  Se14  1  0.474038  0.050504  0.697929  1
  Se  Se15  1  0.801305  0.302304  0.352101  1
  Se  Se16  1  0.304201  0.305279  0.356005  1
  Se  Se17  1  0.101319  0.644664  0.949287  1
  Se  Se18  1  0.599989  0.647469  0.949935  1
  Se  Se19  1  0.525962  0.949496  0.302071  1
  Se  Se20  1  0.026593  0.949181  0.305223  1
  Se  Se21  1  0.695799  0.694721  0.643995  1
  Se  Se22  1  0.198695  0.697696  0.647899  1
  Se  Se23  1  0.400011  0.352531  0.050065  1
  Se  Se24  1  0.898681  0.355336  0.050713  1
  Se  Se25  1  0.792108  0.667319  0.333856  1
  Se  Se26  1  0.291470  0.665904  0.332630  1
  Se  Se27  1  0.708530  0.334096  0.667370  1
  Se  Se28  1  0.207892  0.332681  0.666144  1
