# generated using pymatgen
data_Tb4HoCoRu
_symmetry_space_group_name_H-M   'P 1'
_cell_length_a   6.31601597
_cell_length_b   7.11450298
_cell_length_c   8.53381756
_cell_angle_alpha   96.43124673
_cell_angle_beta   111.71919708
_cell_angle_gamma   90.00000454
_symmetry_Int_Tables_number   1
_chemical_formula_structural   Tb4HoCoRu
_chemical_formula_sum   'Tb8 Ho2 Co2 Ru2'
_cell_volume   353.64783601
_cell_formula_units_Z   2
loop_
 _symmetry_equiv_pos_site_id
 _symmetry_equiv_pos_as_xyz
  1  'x, y, z'
loop_
 _atom_site_type_symbol
 _atom_site_label
 _atom_site_symmetry_multiplicity
 _atom_site_fract_x
 _atom_site_fract_y
 _atom_site_fract_z
 _atom_site_occupancy
  Tb  Tb0  1  0.976675  0.911631  0.189037  1
  Tb  Tb1  1  0.787637  0.588369  0.810963  1
  Tb  Tb2  1  0.013943  0.082635  0.814734  1
  Tb  Tb3  1  0.199210  0.417365  0.185266  1
  Tb  Tb4  1  0.647587  0.811444  0.432320  1
  Tb  Tb5  1  0.215268  0.688556  0.567680  1
  Tb  Tb6  1  0.358454  0.181762  0.566072  1
  Tb  Tb7  1  0.792382  0.318238  0.433928  1
  Ho  Ho8  1  0.427933  0.750000  0.000000  1
  Ho  Ho9  1  0.577435  0.250000  0.000000  1
  Co  Co10  1  0.824600  0.576246  0.221824  1
  Co  Co11  1  0.602776  0.923754  0.778176  1
  Ru  Ru12  1  0.177773  0.427924  0.779444  1
  Ru  Ru13  1  0.398328  0.072076  0.220556  1
