# generated using pymatgen
data_Ce6NbP12Rh17
_symmetry_space_group_name_H-M   'P 1'
_cell_length_a   3.93254700
_cell_length_b   11.18874900
_cell_length_c   12.78431500
_cell_angle_alpha   90.00000000
_cell_angle_beta   90.00000000
_cell_angle_gamma   90.00000000
_symmetry_Int_Tables_number   1
_chemical_formula_structural   Ce6NbP12Rh17
_chemical_formula_sum   'Ce6 Nb1 P12 Rh17'
_cell_volume   562.51345640
_cell_formula_units_Z   1
loop_
 _symmetry_equiv_pos_site_id
 _symmetry_equiv_pos_as_xyz
  1  'x, y, z'
loop_
 _atom_site_type_symbol
 _atom_site_label
 _atom_site_symmetry_multiplicity
 _atom_site_fract_x
 _atom_site_fract_y
 _atom_site_fract_z
 _atom_site_occupancy
  Ce  Ce0  1  0.000000  0.500000  0.523495  1
  Ce  Ce1  1  0.500000  0.000000  0.477478  1
  Ce  Ce2  1  0.500000  0.818637  0.207536  1
  Ce  Ce3  1  0.500000  0.181363  0.207536  1
  Ce  Ce4  1  0.000000  0.681844  0.795708  1
  Ce  Ce5  1  0.000000  0.318156  0.795708  1
  Nb  Nb6  1  0.500000  0.500000  0.158659  1
  P  P7  1  0.500000  0.312568  0.616750  1
  P  P8  1  0.500000  0.687432  0.616750  1
  P  P9  1  0.000000  0.187384  0.384584  1
  P  P10  1  0.000000  0.812616  0.384584  1
  P  P11  1  0.500000  0.500000  0.878575  1
  P  P12  1  0.000000  0.000000  0.119117  1
  P  P13  1  0.500000  0.848848  0.889987  1
  P  P14  1  0.500000  0.151152  0.889987  1
  P  P15  1  0.000000  0.655848  0.108211  1
  P  P16  1  0.000000  0.344152  0.108211  1
  P  P17  1  0.500000  0.500000  0.350268  1
  P  P18  1  0.000000  0.000000  0.651790  1
  Rh  Rh19  1  0.000000  0.500000  0.986009  1
  Rh  Rh20  1  0.500000  0.000000  0.017218  1
  Rh  Rh21  1  0.500000  0.295867  0.432822  1
  Rh  Rh22  1  0.500000  0.704133  0.432822  1
  Rh  Rh23  1  0.000000  0.201340  0.569449  1
  Rh  Rh24  1  0.000000  0.798660  0.569449  1
  Rh  Rh25  1  0.500000  0.873667  0.709423  1
  Rh  Rh26  1  0.500000  0.126333  0.709423  1
  Rh  Rh27  1  0.000000  0.625446  0.290509  1
  Rh  Rh28  1  0.000000  0.374554  0.290509  1
  Rh  Rh29  1  0.500000  0.332113  0.989262  1
  Rh  Rh30  1  0.500000  0.667887  0.989262  1
  Rh  Rh31  1  0.000000  0.166869  0.007882  1
  Rh  Rh32  1  0.000000  0.833131  0.007882  1
  Rh  Rh33  1  0.000000  0.000000  0.834936  1
  Rh  Rh34  1  0.500000  0.500000  0.698745  1
  Rh  Rh35  1  0.000000  0.000000  0.299466  1
