# generated using pymatgen
data_La4InRu3F28
_symmetry_space_group_name_H-M   'P 1'
_cell_length_a   5.83802399
_cell_length_b   9.38868606
_cell_length_c   12.52287380
_cell_angle_alpha   62.76827879
_cell_angle_beta   89.87000339
_cell_angle_gamma   90.16745342
_symmetry_Int_Tables_number   1
_chemical_formula_structural   La4InRu3F28
_chemical_formula_sum   'La4 In1 Ru3 F28'
_cell_volume   610.31035007
_cell_formula_units_Z   1
loop_
 _symmetry_equiv_pos_site_id
 _symmetry_equiv_pos_as_xyz
  1  'x, y, z'
loop_
 _atom_site_type_symbol
 _atom_site_label
 _atom_site_symmetry_multiplicity
 _atom_site_fract_x
 _atom_site_fract_y
 _atom_site_fract_z
 _atom_site_occupancy
  La  La0  1  0.756384  0.806252  0.273695  1
  La  La1  1  0.257765  0.179282  0.240604  1
  La  La2  1  0.240028  0.198005  0.729919  1
  La  La3  1  0.741967  0.809597  0.765715  1
  In  In4  1  0.246275  0.726172  0.543884  1
  Ru  Ru5  1  0.743473  0.270604  0.959569  1
  Ru  Ru6  1  0.755407  0.275736  0.452939  1
  Ru  Ru7  1  0.253733  0.723114  0.046096  1
  F  F8  1  0.953396  0.711760  0.451624  1
  F  F9  1  0.469362  0.283683  0.044731  1
  F  F10  1  0.030966  0.283659  0.537722  1
  F  F11  1  0.524327  0.711448  0.958359  1
  F  F12  1  0.053000  0.705412  0.929328  1
  F  F13  1  0.563798  0.294252  0.572473  1
  F  F14  1  0.940758  0.289277  0.077598  1
  F  F15  1  0.455550  0.710629  0.413294  1
  F  F16  1  0.740390  0.498212  0.869349  1
  F  F17  1  0.233653  0.474743  0.644232  1
  F  F18  1  0.259109  0.495023  0.137334  1
  F  F19  1  0.765798  0.502643  0.359801  1
  F  F20  1  0.738468  0.043537  0.046686  1
  F  F21  1  0.234225  0.977990  0.438903  1
  F  F22  1  0.255353  0.949998  0.957092  1
  F  F23  1  0.752737  0.049500  0.540975  1
  F  F24  1  0.042441  0.752812  0.672624  1
  F  F25  1  0.548256  0.251644  0.839400  1
  F  F26  1  0.944684  0.261787  0.329527  1
  F  F27  1  0.454491  0.741795  0.163416  1
  F  F28  1  0.014075  0.260160  0.871845  1
  F  F29  1  0.528576  0.735097  0.644090  1
  F  F30  1  0.986026  0.730349  0.136222  1
  F  F31  1  0.484387  0.274245  0.363562  1
  F  F32  1  0.083646  0.972456  0.224254  1
  F  F33  1  0.592776  0.035914  0.264522  1
  F  F34  1  0.924307  0.031696  0.764786  1
  F  F35  1  0.430413  0.981520  0.733830  1
