# generated using pymatgen
data_Er3Zn(Ga4Pd)2
_symmetry_space_group_name_H-M   'P 1'
_cell_length_a   8.10453451
_cell_length_b   8.12225363
_cell_length_c   8.12225400
_cell_angle_alpha   149.25488002
_cell_angle_beta   109.04570466
_cell_angle_gamma   79.31175199
_symmetry_Int_Tables_number   1
_chemical_formula_structural   Er3Zn(Ga4Pd)2
_chemical_formula_sum   'Er3 Zn1 Ga8 Pd2'
_cell_volume   253.32733720
_cell_formula_units_Z   1
loop_
 _symmetry_equiv_pos_site_id
 _symmetry_equiv_pos_as_xyz
  1  'x, y, z'
loop_
 _atom_site_type_symbol
 _atom_site_label
 _atom_site_symmetry_multiplicity
 _atom_site_fract_x
 _atom_site_fract_y
 _atom_site_fract_z
 _atom_site_occupancy
  Er  Er0  1  0.498762  0.499569  0.999192  1
  Er  Er1  1  0.205022  0.203040  0.001982  1
  Er  Er2  1  0.795714  0.798261  0.997453  1
  Zn  Zn3  1  0.640179  0.360552  0.279627  1
  Ga  Ga4  1  0.353142  0.637912  0.715230  1
  Ga  Ga5  1  0.077783  0.359427  0.718355  1
  Ga  Ga6  1  0.922632  0.639179  0.283455  1
  Ga  Ga7  1  0.522697  0.158186  0.364509  1
  Ga  Ga8  1  0.485096  0.847312  0.637785  1
  Ga  Ga9  1  0.787571  0.154690  0.632880  1
  Ga  Ga10  1  0.213914  0.845032  0.368883  1
  Ga  Ga11  1  0.991802  0.495030  0.496773  1
  Pd  Pd12  1  0.180348  0.999042  0.181306  1
  Pd  Pd13  1  0.825337  0.002766  0.822570  1
