# generated using pymatgen
data_Li3GaSiPt3
_symmetry_space_group_name_H-M   'P 1'
_cell_length_a   6.80845183
_cell_length_b   6.80845090
_cell_length_c   6.80845069
_cell_angle_alpha   61.35802378
_cell_angle_beta   61.35802901
_cell_angle_gamma   61.35803225
_symmetry_Int_Tables_number   1
_chemical_formula_structural   Li3GaSiPt3
_chemical_formula_sum   'Li6 Ga2 Si2 Pt6'
_cell_volume   229.97681920
_cell_formula_units_Z   2
loop_
 _symmetry_equiv_pos_site_id
 _symmetry_equiv_pos_as_xyz
  1  'x, y, z'
loop_
 _atom_site_type_symbol
 _atom_site_label
 _atom_site_symmetry_multiplicity
 _atom_site_fract_x
 _atom_site_fract_y
 _atom_site_fract_z
 _atom_site_occupancy
  Li  Li0  1  0.561324  0.837051  0.344534  1
  Li  Li1  1  0.344534  0.561324  0.837051  1
  Li  Li2  1  0.837051  0.344534  0.561324  1
  Li  Li3  1  0.655466  0.162949  0.438676  1
  Li  Li4  1  0.162949  0.438676  0.655466  1
  Li  Li5  1  0.438676  0.655466  0.162949  1
  Ga  Ga6  1  0.282030  0.282030  0.282030  1
  Ga  Ga7  1  0.717970  0.717970  0.717970  1
  Si  Si8  1  0.903361  0.903361  0.903361  1
  Si  Si9  1  0.096639  0.096639  0.096639  1
  Pt  Pt10  1  0.898165  0.500000  0.101835  1
  Pt  Pt11  1  0.101835  0.898165  0.500000  1
  Pt  Pt12  1  0.500000  0.101835  0.898165  1
  Pt  Pt13  1  0.273961  0.000000  0.726039  1
  Pt  Pt14  1  0.726039  0.273961  0.000000  1
  Pt  Pt15  1  0.000000  0.726039  0.273961  1
