# generated using pymatgen
data_LiPr16Ag3Ir4
_symmetry_space_group_name_H-M   'P 1'
_cell_length_a   9.98568664
_cell_length_b   9.98267777
_cell_length_c   9.98267700
_cell_angle_alpha   59.99999262
_cell_angle_beta   60.00995963
_cell_angle_gamma   60.00995985
_symmetry_Int_Tables_number   1
_chemical_formula_structural   LiPr16Ag3Ir4
_chemical_formula_sum   'Li1 Pr16 Ag3 Ir4'
_cell_volume   703.75638200
_cell_formula_units_Z   1
loop_
 _symmetry_equiv_pos_site_id
 _symmetry_equiv_pos_as_xyz
  1  'x, y, z'
loop_
 _atom_site_type_symbol
 _atom_site_label
 _atom_site_symmetry_multiplicity
 _atom_site_fract_x
 _atom_site_fract_y
 _atom_site_fract_z
 _atom_site_occupancy
  Li  Li0  1  0.304375  0.565208  0.565208  1
  Pr  Pr1  1  0.349591  0.349536  0.349536  1
  Pr  Pr2  1  0.349591  0.349536  0.951336  1
  Pr  Pr3  1  0.349591  0.951336  0.349536  1
  Pr  Pr4  1  0.942080  0.352641  0.352641  1
  Pr  Pr5  1  0.807342  0.190591  0.190591  1
  Pr  Pr6  1  0.184492  0.813535  0.813535  1
  Pr  Pr7  1  0.184492  0.813535  0.188438  1
  Pr  Pr8  1  0.807342  0.190591  0.811475  1
  Pr  Pr9  1  0.184492  0.188438  0.813535  1
  Pr  Pr10  1  0.807342  0.811475  0.190591  1
  Pr  Pr11  1  0.935630  0.562187  0.562187  1
  Pr  Pr12  1  0.560080  0.937952  0.937952  1
  Pr  Pr13  1  0.560080  0.937952  0.564016  1
  Pr  Pr14  1  0.935630  0.562187  0.939997  1
  Pr  Pr15  1  0.560080  0.564016  0.937952  1
  Pr  Pr16  1  0.935630  0.939997  0.562187  1
  Ag  Ag17  1  0.583908  0.583413  0.583413  1
  Ag  Ag18  1  0.583908  0.583413  0.249267  1
  Ag  Ag19  1  0.583908  0.249267  0.583413  1
  Ir  Ir20  1  0.140221  0.142987  0.142987  1
  Ir  Ir21  1  0.140221  0.142987  0.573803  1
  Ir  Ir22  1  0.140221  0.573803  0.142987  1
  Ir  Ir23  1  0.569747  0.143417  0.143417  1
