# generated using pymatgen
data_Tb2Si3Tc14C3
_symmetry_space_group_name_H-M   'P 1'
_cell_length_a   6.90050241
_cell_length_b   6.90050211
_cell_length_c   6.90050253
_cell_angle_alpha   82.19968649
_cell_angle_beta   82.19968249
_cell_angle_gamma   82.19967747
_symmetry_Int_Tables_number   1
_chemical_formula_structural   Tb2Si3Tc14C3
_chemical_formula_sum   'Tb2 Si3 Tc14 C3'
_cell_volume   320.21697523
_cell_formula_units_Z   1
loop_
 _symmetry_equiv_pos_site_id
 _symmetry_equiv_pos_as_xyz
  1  'x, y, z'
loop_
 _atom_site_type_symbol
 _atom_site_label
 _atom_site_symmetry_multiplicity
 _atom_site_fract_x
 _atom_site_fract_y
 _atom_site_fract_z
 _atom_site_occupancy
  Tb  Tb0  1  0.651825  0.651825  0.651825  1
  Tb  Tb1  1  0.348175  0.348175  0.348175  1
  Si  Si2  1  0.000000  0.000000  0.500000  1
  Si  Si3  1  0.500000  0.000000  0.000000  1
  Si  Si4  1  0.000000  0.500000  0.000000  1
  Tc  Tc5  1  0.722774  0.277226  0.000000  1
  Tc  Tc6  1  0.000000  0.722774  0.277226  1
  Tc  Tc7  1  0.277226  0.000000  0.722774  1
  Tc  Tc8  1  0.000000  0.277226  0.722774  1
  Tc  Tc9  1  0.722774  0.000000  0.277226  1
  Tc  Tc10  1  0.277226  0.722774  0.000000  1
  Tc  Tc11  1  0.346637  0.346637  0.859812  1
  Tc  Tc12  1  0.859812  0.346637  0.346637  1
  Tc  Tc13  1  0.346637  0.859812  0.346637  1
  Tc  Tc14  1  0.653363  0.653363  0.140188  1
  Tc  Tc15  1  0.140188  0.653363  0.653363  1
  Tc  Tc16  1  0.653363  0.140188  0.653363  1
  Tc  Tc17  1  0.900834  0.900834  0.900834  1
  Tc  Tc18  1  0.099166  0.099166  0.099166  1
  C  C19  1  0.500000  0.500000  0.000000  1
  C  C20  1  0.000000  0.500000  0.500000  1
  C  C21  1  0.500000  0.000000  0.500000  1
