# generated using pymatgen
data_Lu5Al2PdC4
_symmetry_space_group_name_H-M   'P 1'
_cell_length_a   10.55458300
_cell_length_b   10.55458300
_cell_length_c   3.45260500
_cell_angle_alpha   90.00000000
_cell_angle_beta   90.00000000
_cell_angle_gamma   90.00000000
_symmetry_Int_Tables_number   1
_chemical_formula_structural   Lu5Al2PdC4
_chemical_formula_sum   'Lu10 Al4 Pd2 C8'
_cell_volume   384.61751192
_cell_formula_units_Z   2
loop_
 _symmetry_equiv_pos_site_id
 _symmetry_equiv_pos_as_xyz
  1  'x, y, z'
loop_
 _atom_site_type_symbol
 _atom_site_label
 _atom_site_symmetry_multiplicity
 _atom_site_fract_x
 _atom_site_fract_y
 _atom_site_fract_z
 _atom_site_occupancy
  Lu  Lu0  1  0.549812  0.727182  0.500000  1
  Lu  Lu1  1  0.450188  0.272818  0.500000  1
  Lu  Lu2  1  0.049812  0.772818  0.500000  1
  Lu  Lu3  1  0.950188  0.227182  0.500000  1
  Lu  Lu4  1  0.272818  0.549812  0.500000  1
  Lu  Lu5  1  0.727182  0.450188  0.500000  1
  Lu  Lu6  1  0.227182  0.049812  0.500000  1
  Lu  Lu7  1  0.772818  0.950188  0.500000  1
  Lu  Lu8  1  0.500000  0.000000  0.000000  1
  Lu  Lu9  1  0.000000  0.500000  0.000000  1
  Al  Al10  1  0.702758  0.202758  0.000000  1
  Al  Al11  1  0.297242  0.797242  0.000000  1
  Al  Al12  1  0.202758  0.297242  0.000000  1
  Al  Al13  1  0.797242  0.702758  0.000000  1
  Pd  Pd14  1  0.500000  0.500000  0.000000  1
  Pd  Pd15  1  0.000000  0.000000  0.000000  1
  C  C16  1  0.628918  0.128918  0.500000  1
  C  C17  1  0.371082  0.871082  0.500000  1
  C  C18  1  0.128918  0.371082  0.500000  1
  C  C19  1  0.871082  0.628918  0.500000  1
  C  C20  1  0.161562  0.661562  0.000000  1
  C  C21  1  0.838438  0.338438  0.000000  1
  C  C22  1  0.661562  0.838438  0.000000  1
  C  C23  1  0.338438  0.161562  0.000000  1
