# generated using pymatgen
data_U5O13
_symmetry_space_group_name_H-M   'P 1'
_cell_length_a   4.16445900
_cell_length_b   6.81475900
_cell_length_c   19.83038700
_cell_angle_alpha   90.00000000
_cell_angle_beta   90.00000000
_cell_angle_gamma   90.00000000
_symmetry_Int_Tables_number   1
_chemical_formula_structural   U5O13
_chemical_formula_sum   'U10 O26'
_cell_volume   562.78210863
_cell_formula_units_Z   2
loop_
 _symmetry_equiv_pos_site_id
 _symmetry_equiv_pos_as_xyz
  1  'x, y, z'
loop_
 _atom_site_type_symbol
 _atom_site_label
 _atom_site_symmetry_multiplicity
 _atom_site_fract_x
 _atom_site_fract_y
 _atom_site_fract_z
 _atom_site_occupancy
  U  U0  1  0.000000  0.245084  0.647298  1
  U  U1  1  0.000000  0.245084  0.852702  1
  U  U2  1  0.000000  0.221773  0.250000  1
  U  U3  1  0.000000  0.270916  0.054295  1
  U  U4  1  0.000000  0.270916  0.445705  1
  U  U5  1  0.000000  0.729084  0.554295  1
  U  U6  1  0.000000  0.729084  0.945705  1
  U  U7  1  0.000000  0.778227  0.750000  1
  U  U8  1  0.000000  0.754916  0.352702  1
  U  U9  1  0.000000  0.754916  0.147298  1
  O  O10  1  0.000000  0.075714  0.143091  1
  O  O11  1  0.000000  0.075714  0.356909  1
  O  O12  1  0.000000  0.148633  0.750000  1
  O  O13  1  0.500000  0.240212  0.645676  1
  O  O14  1  0.500000  0.240212  0.854324  1
  O  O15  1  0.500000  0.217965  0.250000  1
  O  O16  1  0.500000  0.277121  0.056178  1
  O  O17  1  0.500000  0.277121  0.443822  1
  O  O18  1  0.000000  0.385358  0.549922  1
  O  O19  1  0.000000  0.385358  0.950078  1
  O  O20  1  0.000000  0.450521  0.172892  1
  O  O21  1  0.000000  0.450521  0.327108  1
  O  O22  1  0.000000  0.549479  0.672892  1
  O  O23  1  0.000000  0.549479  0.827108  1
  O  O24  1  0.000000  0.614642  0.049922  1
  O  O25  1  0.000000  0.614642  0.450078  1
  O  O26  1  0.500000  0.722879  0.556178  1
  O  O27  1  0.500000  0.722879  0.943822  1
  O  O28  1  0.500000  0.782035  0.750000  1
  O  O29  1  0.500000  0.759788  0.354324  1
  O  O30  1  0.500000  0.759788  0.145676  1
  O  O31  1  0.000000  0.851367  0.250000  1
  O  O32  1  0.000000  0.924286  0.643091  1
  O  O33  1  0.000000  0.924286  0.856909  1
  O  O34  1  0.000000  0.000000  0.000000  1
  O  O35  1  0.000000  0.000000  0.500000  1
