# generated using pymatgen
data_Mn3Ga3Ni10
_symmetry_space_group_name_H-M   'P 1'
_cell_length_a   3.70920200
_cell_length_b   5.04827728
_cell_length_c   10.09943068
_cell_angle_alpha   95.01333730
_cell_angle_beta   90.00000000
_cell_angle_gamma   90.00000000
_symmetry_Int_Tables_number   1
_chemical_formula_structural   Mn3Ga3Ni10
_chemical_formula_sum   'Mn3 Ga3 Ni10'
_cell_volume   188.38917668
_cell_formula_units_Z   1
loop_
 _symmetry_equiv_pos_site_id
 _symmetry_equiv_pos_as_xyz
  1  'x, y, z'
loop_
 _atom_site_type_symbol
 _atom_site_label
 _atom_site_symmetry_multiplicity
 _atom_site_fract_x
 _atom_site_fract_y
 _atom_site_fract_z
 _atom_site_occupancy
  Mn  Mn0  1  0.500000  0.275886  0.364661  1
  Mn  Mn1  1  0.500000  0.261563  0.867418  1
  Mn  Mn2  1  0.500000  0.733453  0.134089  1
  Ga  Ga3  1  0.500000  0.721992  0.637536  1
  Ga  Ga4  1  0.000000  0.997788  0.998845  1
  Ga  Ga5  1  0.000000  0.015510  0.494516  1
  Ni  Ni6  1  0.500000  0.769033  0.382801  1
  Ni  Ni7  1  0.500000  0.757113  0.881532  1
  Ni  Ni8  1  0.500000  0.239409  0.118971  1
  Ni  Ni9  1  0.500000  0.231119  0.618240  1
  Ni  Ni10  1  0.000000  0.002197  0.248517  1
  Ni  Ni11  1  0.000000  0.993006  0.746142  1
  Ni  Ni12  1  0.000000  0.499067  0.000738  1
  Ni  Ni13  1  0.000000  0.511257  0.502195  1
  Ni  Ni14  1  0.000000  0.502975  0.250908  1
  Ni  Ni15  1  0.000000  0.488629  0.752889  1
