# generated using pymatgen
data_Yb2VBiO6
_symmetry_space_group_name_H-M   'P 1'
_cell_length_a   7.40520603
_cell_length_b   7.40520586
_cell_length_c   5.56556700
_cell_angle_alpha   90.00000000
_cell_angle_beta   90.00000000
_cell_angle_gamma   106.48267357
_symmetry_Int_Tables_number   1
_chemical_formula_structural   Yb2VBiO6
_chemical_formula_sum   'Yb4 V2 Bi2 O12'
_cell_volume   292.65742211
_cell_formula_units_Z   2
loop_
 _symmetry_equiv_pos_site_id
 _symmetry_equiv_pos_as_xyz
  1  'x, y, z'
loop_
 _atom_site_type_symbol
 _atom_site_label
 _atom_site_symmetry_multiplicity
 _atom_site_fract_x
 _atom_site_fract_y
 _atom_site_fract_z
 _atom_site_occupancy
  Yb  Yb0  1  0.300902  0.089905  0.757982  1
  Yb  Yb1  1  0.699098  0.910095  0.257982  1
  Yb  Yb2  1  0.089905  0.300902  0.257982  1
  Yb  Yb3  1  0.910095  0.699098  0.757982  1
  V  V4  1  0.184112  0.815888  0.304717  1
  V  V5  1  0.815888  0.184112  0.804717  1
  Bi  Bi6  1  0.408361  0.591639  0.742139  1
  Bi  Bi7  1  0.591639  0.408361  0.242139  1
  O  O8  1  0.651978  0.661269  0.002471  1
  O  O9  1  0.184583  0.815417  0.990438  1
  O  O10  1  0.407504  0.909869  0.427758  1
  O  O11  1  0.592496  0.090131  0.927758  1
  O  O12  1  0.661269  0.651978  0.502471  1
  O  O13  1  0.050773  0.949227  0.438283  1
  O  O14  1  0.338731  0.348022  0.002471  1
  O  O15  1  0.348022  0.338731  0.502471  1
  O  O16  1  0.949227  0.050773  0.938283  1
  O  O17  1  0.815417  0.184583  0.490438  1
  O  O18  1  0.909869  0.407504  0.927758  1
  O  O19  1  0.090131  0.592496  0.427758  1
