# generated using pymatgen
data_SmHo2Hf(Co4P3)2
_symmetry_space_group_name_H-M   'P 1'
_cell_length_a   3.72595100
_cell_length_b   10.69379600
_cell_length_c   12.40403700
_cell_angle_alpha   90.00000000
_cell_angle_beta   90.00000000
_cell_angle_gamma   90.00000000
_symmetry_Int_Tables_number   1
_chemical_formula_structural   SmHo2Hf(Co4P3)2
_chemical_formula_sum   'Sm2 Ho4 Hf2 Co16 P12'
_cell_volume   494.23339525
_cell_formula_units_Z   2
loop_
 _symmetry_equiv_pos_site_id
 _symmetry_equiv_pos_as_xyz
  1  'x, y, z'
loop_
 _atom_site_type_symbol
 _atom_site_label
 _atom_site_symmetry_multiplicity
 _atom_site_fract_x
 _atom_site_fract_y
 _atom_site_fract_z
 _atom_site_occupancy
  Sm  Sm0  1  0.000000  0.500000  0.529391  1
  Sm  Sm1  1  0.500000  0.000000  0.470609  1
  Ho  Ho2  1  0.500000  0.821713  0.203990  1
  Ho  Ho3  1  0.500000  0.178287  0.203990  1
  Ho  Ho4  1  0.000000  0.678287  0.796010  1
  Ho  Ho5  1  0.000000  0.321713  0.796010  1
  Hf  Hf6  1  0.500000  0.500000  0.155730  1
  Hf  Hf7  1  0.000000  0.000000  0.844270  1
  Co  Co8  1  0.000000  0.500000  0.986820  1
  Co  Co9  1  0.500000  0.000000  0.013180  1
  Co  Co10  1  0.500000  0.294982  0.432214  1
  Co  Co11  1  0.500000  0.705018  0.432214  1
  Co  Co12  1  0.000000  0.205018  0.567786  1
  Co  Co13  1  0.000000  0.794982  0.567786  1
  Co  Co14  1  0.500000  0.878075  0.704538  1
  Co  Co15  1  0.500000  0.121925  0.704538  1
  Co  Co16  1  0.000000  0.621925  0.295462  1
  Co  Co17  1  0.000000  0.378075  0.295462  1
  Co  Co18  1  0.500000  0.331771  0.993447  1
  Co  Co19  1  0.500000  0.668229  0.993447  1
  Co  Co20  1  0.000000  0.168229  0.006553  1
  Co  Co21  1  0.000000  0.831771  0.006553  1
  Co  Co22  1  0.500000  0.500000  0.706095  1
  Co  Co23  1  0.000000  0.000000  0.293905  1
  P  P24  1  0.500000  0.308055  0.616738  1
  P  P25  1  0.500000  0.691945  0.616738  1
  P  P26  1  0.000000  0.191945  0.383262  1
  P  P27  1  0.000000  0.808055  0.383262  1
  P  P28  1  0.500000  0.500000  0.884221  1
  P  P29  1  0.000000  0.000000  0.115779  1
  P  P30  1  0.500000  0.838421  0.893309  1
  P  P31  1  0.500000  0.161579  0.893309  1
  P  P32  1  0.000000  0.661579  0.106691  1
  P  P33  1  0.000000  0.338421  0.106691  1
  P  P34  1  0.500000  0.500000  0.359334  1
  P  P35  1  0.000000  0.000000  0.640666  1
