# generated using pymatgen
data_Nd16Dy4Si15Pt
_symmetry_space_group_name_H-M   'P 1'
_cell_length_a   7.62864500
_cell_length_b   7.96909229
_cell_length_c   15.06021000
_cell_angle_alpha   90.00000000
_cell_angle_beta   90.00000000
_cell_angle_gamma   89.85852715
_symmetry_Int_Tables_number   1
_chemical_formula_structural   Nd16Dy4Si15Pt
_chemical_formula_sum   'Nd16 Dy4 Si15 Pt1'
_cell_volume   915.55821931
_cell_formula_units_Z   1
loop_
 _symmetry_equiv_pos_site_id
 _symmetry_equiv_pos_as_xyz
  1  'x, y, z'
loop_
 _atom_site_type_symbol
 _atom_site_label
 _atom_site_symmetry_multiplicity
 _atom_site_fract_x
 _atom_site_fract_y
 _atom_site_fract_z
 _atom_site_occupancy
  Nd  Nd0  1  0.810704  0.322136  0.622046  1
  Nd  Nd1  1  0.464431  0.688337  0.900480  1
  Nd  Nd2  1  0.964681  0.814719  0.902032  1
  Nd  Nd3  1  0.193788  0.676039  0.124877  1
  Nd  Nd4  1  0.687370  0.819612  0.123354  1
  Nd  Nd5  1  0.310438  0.180278  0.877037  1
  Nd  Nd6  1  0.193788  0.676039  0.375123  1
  Nd  Nd7  1  0.034817  0.184404  0.098139  1
  Nd  Nd8  1  0.310438  0.180278  0.622963  1
  Nd  Nd9  1  0.531576  0.317226  0.402669  1
  Nd  Nd10  1  0.810704  0.322136  0.877954  1
  Nd  Nd11  1  0.964681  0.814719  0.597968  1
  Nd  Nd12  1  0.464431  0.688337  0.599520  1
  Nd  Nd13  1  0.034817  0.184404  0.401861  1
  Nd  Nd14  1  0.687370  0.819612  0.376646  1
  Nd  Nd15  1  0.531576  0.317226  0.097331  1
  Dy  Dy16  1  0.140506  0.517459  0.750000  1
  Dy  Dy17  1  0.852415  0.484099  0.250000  1
  Dy  Dy18  1  0.362281  0.019531  0.250000  1
  Dy  Dy19  1  0.639624  0.985671  0.750000  1
  Si  Si20  1  0.238728  0.365562  0.250000  1
  Si  Si21  1  0.864584  0.525452  0.457637  1
  Si  Si22  1  0.513924  0.405997  0.750000  1
  Si  Si23  1  0.635886  0.025657  0.958242  1
  Si  Si24  1  0.010861  0.097013  0.750000  1
  Si  Si25  1  0.756918  0.626278  0.750000  1
  Si  Si26  1  0.749448  0.123010  0.250000  1
  Si  Si27  1  0.360271  0.975818  0.458262  1
  Si  Si28  1  0.988829  0.904904  0.250000  1
  Si  Si29  1  0.360271  0.975818  0.041738  1
  Si  Si30  1  0.635886  0.025657  0.541758  1
  Si  Si31  1  0.140506  0.474736  0.959690  1
  Si  Si32  1  0.140506  0.474736  0.540310  1
  Si  Si33  1  0.864584  0.525452  0.042363  1
  Si  Si34  1  0.254094  0.874126  0.750000  1
  Pt  Pt35  1  0.494271  0.587519  0.250000  1
