# generated using pymatgen
data_NdHo9(In2Ir)4
_symmetry_space_group_name_H-M   'P 1'
_cell_length_a   7.99700907
_cell_length_b   18.34888955
_cell_length_c   3.65495600
_cell_angle_alpha   90.00000000
_cell_angle_beta   90.00000000
_cell_angle_gamma   90.28696944
_symmetry_Int_Tables_number   1
_chemical_formula_structural   NdHo9(In2Ir)4
_chemical_formula_sum   'Nd1 Ho9 In8 Ir4'
_cell_volume   536.30775990
_cell_formula_units_Z   1
loop_
 _symmetry_equiv_pos_site_id
 _symmetry_equiv_pos_as_xyz
  1  'x, y, z'
loop_
 _atom_site_type_symbol
 _atom_site_label
 _atom_site_symmetry_multiplicity
 _atom_site_fract_x
 _atom_site_fract_y
 _atom_site_fract_z
 _atom_site_occupancy
  Nd  Nd0  1  0.500000  0.500000  0.000000  1
  Ho  Ho1  1  0.000000  0.000000  0.000000  1
  Ho  Ho2  1  0.750454  0.275796  0.000000  1
  Ho  Ho3  1  0.249546  0.724204  0.000000  1
  Ho  Ho4  1  0.751475  0.779089  0.000000  1
  Ho  Ho5  1  0.248525  0.220911  0.000000  1
  Ho  Ho6  1  0.618114  0.089215  0.000000  1
  Ho  Ho7  1  0.381886  0.910785  0.000000  1
  Ho  Ho8  1  0.878700  0.591077  0.000000  1
  Ho  Ho9  1  0.121300  0.408923  0.000000  1
  In  In10  1  0.704427  0.933211  0.500000  1
  In  In11  1  0.295573  0.066789  0.500000  1
  In  In12  1  0.800018  0.429790  0.500000  1
  In  In13  1  0.199982  0.570210  0.500000  1
  In  In14  1  0.564176  0.652387  0.500000  1
  In  In15  1  0.435824  0.347613  0.500000  1
  In  In16  1  0.934582  0.147941  0.500000  1
  In  In17  1  0.065418  0.852059  0.500000  1
  Ir  Ir18  1  0.522145  0.194533  0.500000  1
  Ir  Ir19  1  0.477855  0.805467  0.500000  1
  Ir  Ir20  1  0.975915  0.696988  0.500000  1
  Ir  Ir21  1  0.024085  0.303012  0.500000  1
