# generated using pymatgen
data_La8As7P7Ir16
_symmetry_space_group_name_H-M   'P 1'
_cell_length_a   4.09566800
_cell_length_b   13.17550642
_cell_length_c   13.47662857
_cell_angle_alpha   81.48081410
_cell_angle_beta   90.00000000
_cell_angle_gamma   90.00000000
_symmetry_Int_Tables_number   1
_chemical_formula_structural   La8As7P7Ir16
_chemical_formula_sum   'La8 As7 P7 Ir16'
_cell_volume   719.20851288
_cell_formula_units_Z   1
loop_
 _symmetry_equiv_pos_site_id
 _symmetry_equiv_pos_as_xyz
  1  'x, y, z'
loop_
 _atom_site_type_symbol
 _atom_site_label
 _atom_site_symmetry_multiplicity
 _atom_site_fract_x
 _atom_site_fract_y
 _atom_site_fract_z
 _atom_site_occupancy
  La  La0  1  0.250000  0.104453  0.789958  1
  La  La1  1  0.750000  0.894174  0.208710  1
  La  La2  1  0.250000  0.280196  0.101787  1
  La  La3  1  0.750000  0.721959  0.894387  1
  La  La4  1  0.250000  0.515593  0.295202  1
  La  La5  1  0.750000  0.484663  0.704565  1
  La  La6  1  0.250000  0.210969  0.438851  1
  La  La7  1  0.750000  0.788183  0.563747  1
  As  As8  1  0.750000  0.154604  0.277469  1
  As  As9  1  0.750000  0.253425  0.916010  1
  As  As10  1  0.250000  0.746892  0.081546  1
  As  As11  1  0.750000  0.093978  0.591796  1
  As  As12  1  0.250000  0.903033  0.409419  1
  As  As13  1  0.750000  0.471249  0.128884  1
  As  As14  1  0.250000  0.531077  0.869252  1
  P  P15  1  0.250000  0.053783  0.097261  1
  P  P16  1  0.750000  0.946390  0.902468  1
  P  P17  1  0.250000  0.315359  0.686118  1
  P  P18  1  0.750000  0.684104  0.314218  1
  P  P19  1  0.250000  0.606072  0.559554  1
  P  P20  1  0.750000  0.394010  0.442129  1
  P  P21  1  0.250000  0.847933  0.718353  1
  Ir  Ir22  1  0.250000  0.984751  0.580317  1
  Ir  Ir23  1  0.750000  0.010839  0.425517  1
  Ir  Ir24  1  0.250000  0.671227  0.721620  1
  Ir  Ir25  1  0.750000  0.338634  0.279886  1
  Ir  Ir26  1  0.250000  0.556151  0.046950  1
  Ir  Ir27  1  0.750000  0.444787  0.951495  1
  Ir  Ir28  1  0.250000  0.054600  0.270274  1
  Ir  Ir29  1  0.750000  0.936170  0.731041  1
  Ir  Ir30  1  0.250000  0.426080  0.528456  1
  Ir  Ir31  1  0.750000  0.574006  0.472780  1
  Ir  Ir32  1  0.250000  0.925948  0.991596  1
  Ir  Ir33  1  0.750000  0.075344  0.008273  1
  Ir  Ir34  1  0.250000  0.716078  0.397011  1
  Ir  Ir35  1  0.750000  0.281895  0.603707  1
  Ir  Ir36  1  0.250000  0.343148  0.853280  1
  Ir  Ir37  1  0.750000  0.658244  0.146113  1
