# generated using pymatgen
data_Li4Lu3PaPt4
_symmetry_space_group_name_H-M   'P 1'
_cell_length_a   3.93241500
_cell_length_b   6.95681987
_cell_length_c   8.42641703
_cell_angle_alpha   90.15826210
_cell_angle_beta   90.00000000
_cell_angle_gamma   90.00000000
_symmetry_Int_Tables_number   1
_chemical_formula_structural   Li4Lu3PaPt4
_chemical_formula_sum   'Li4 Lu3 Pa1 Pt4'
_cell_volume   230.52147759
_cell_formula_units_Z   1
loop_
 _symmetry_equiv_pos_site_id
 _symmetry_equiv_pos_as_xyz
  1  'x, y, z'
loop_
 _atom_site_type_symbol
 _atom_site_label
 _atom_site_symmetry_multiplicity
 _atom_site_fract_x
 _atom_site_fract_y
 _atom_site_fract_z
 _atom_site_occupancy
  Li  Li0  1  0.250000  0.622771  0.558807  1
  Li  Li1  1  0.750000  0.369903  0.447167  1
  Li  Li2  1  0.750000  0.884763  0.056840  1
  Li  Li3  1  0.250000  0.126915  0.939191  1
  Lu  Lu4  1  0.750000  0.450495  0.814630  1
  Lu  Lu5  1  0.750000  0.946795  0.680407  1
  Lu  Lu6  1  0.250000  0.051311  0.325155  1
  Pa  Pa7  1  0.250000  0.549788  0.180907  1
  Pt  Pt8  1  0.250000  0.739988  0.880035  1
  Pt  Pt9  1  0.750000  0.269054  0.126848  1
  Pt  Pt10  1  0.750000  0.753141  0.363182  1
  Pt  Pt11  1  0.250000  0.235076  0.626831  1
