# generated using pymatgen
data_Ce2Pr5In3Pd
_symmetry_space_group_name_H-M   'P 1'
_cell_length_a   9.55858300
_cell_length_b   8.93129400
_cell_length_c   23.54290400
_cell_angle_alpha   90.00000000
_cell_angle_beta   90.00000000
_cell_angle_gamma   90.00000000
_symmetry_Int_Tables_number   1
_chemical_formula_structural   Ce2Pr5In3Pd
_chemical_formula_sum   'Ce2 Pr5 In3 Pd1'
_cell_volume   2009.86983899
_cell_formula_units_Z   1
loop_
 _symmetry_equiv_pos_site_id
 _symmetry_equiv_pos_as_xyz
  1  'x, y, z'
loop_
 _atom_site_type_symbol
 _atom_site_label
 _atom_site_symmetry_multiplicity
 _atom_site_fract_x
 _atom_site_fract_y
 _atom_site_fract_z
 _atom_site_occupancy
  Ce  Ce0  1  0.000000  0.000000  0.671639  1
  Ce  Ce1  1  0.000000  0.000000  0.329437  1
  Pr  Pr2  1  0.500000  0.000000  0.868245  1
  Pr  Pr3  1  0.000000  0.500000  0.867986  1
  Pr  Pr4  1  0.500000  0.000000  0.130508  1
  Pr  Pr5  1  0.000000  0.500000  0.132261  1
  Pr  Pr6  1  0.500000  0.000000  0.499789  1
  In  In7  1  0.500000  0.500000  0.688212  1
  In  In8  1  0.500000  0.500000  0.312881  1
  In  In9  1  0.000000  0.500000  0.499182  1
  Pd  Pd10  1  0.000000  0.000000  0.999860  1
