# generated using pymatgen
data_CeDy3InIr
_symmetry_space_group_name_H-M   'P 1'
_cell_length_a   9.65981459
_cell_length_b   9.65981417
_cell_length_c   9.65981400
_cell_angle_alpha   60.00000059
_cell_angle_beta   60.00000202
_cell_angle_gamma   59.99999597
_symmetry_Int_Tables_number   1
_chemical_formula_structural   CeDy3InIr
_chemical_formula_sum   'Ce4 Dy12 In4 Ir4'
_cell_volume   637.36956875
_cell_formula_units_Z   4
loop_
 _symmetry_equiv_pos_site_id
 _symmetry_equiv_pos_as_xyz
  1  'x, y, z'
loop_
 _atom_site_type_symbol
 _atom_site_label
 _atom_site_symmetry_multiplicity
 _atom_site_fract_x
 _atom_site_fract_y
 _atom_site_fract_z
 _atom_site_occupancy
  Ce  Ce0  1  0.598915  0.598915  0.598915  1
  Ce  Ce1  1  0.598915  0.598915  0.203256  1
  Ce  Ce2  1  0.598915  0.203256  0.598915  1
  Ce  Ce3  1  0.203256  0.598915  0.598915  1
  Dy  Dy4  1  0.061506  0.438494  0.438494  1
  Dy  Dy5  1  0.438494  0.061506  0.061506  1
  Dy  Dy6  1  0.438494  0.061506  0.438494  1
  Dy  Dy7  1  0.061506  0.438494  0.061506  1
  Dy  Dy8  1  0.438494  0.438494  0.061506  1
  Dy  Dy9  1  0.061506  0.061506  0.438494  1
  Dy  Dy10  1  0.188982  0.811018  0.811018  1
  Dy  Dy11  1  0.811018  0.188982  0.188982  1
  Dy  Dy12  1  0.811018  0.188982  0.811018  1
  Dy  Dy13  1  0.188982  0.811018  0.188982  1
  Dy  Dy14  1  0.811018  0.811018  0.188982  1
  Dy  Dy15  1  0.188982  0.188982  0.811018  1
  In  In16  1  0.833569  0.833569  0.833569  1
  In  In17  1  0.833569  0.833569  0.499294  1
  In  In18  1  0.833569  0.499294  0.833569  1
  In  In19  1  0.499294  0.833569  0.833569  1
  Ir  Ir20  1  0.393010  0.393010  0.393010  1
  Ir  Ir21  1  0.393010  0.393010  0.820970  1
  Ir  Ir22  1  0.393010  0.820970  0.393010  1
  Ir  Ir23  1  0.820970  0.393010  0.393010  1
