# generated using pymatgen
data_K2U2CuAuSe6
_symmetry_space_group_name_H-M   'P 1'
_cell_length_a   4.16541100
_cell_length_b   7.73020028
_cell_length_c   10.70370400
_cell_angle_alpha   90.00000000
_cell_angle_beta   90.00000000
_cell_angle_gamma   74.36997083
_symmetry_Int_Tables_number   1
_chemical_formula_structural   K2U2CuAuSe6
_chemical_formula_sum   'K2 U2 Cu1 Au1 Se6'
_cell_volume   331.90872987
_cell_formula_units_Z   1
loop_
 _symmetry_equiv_pos_site_id
 _symmetry_equiv_pos_as_xyz
  1  'x, y, z'
loop_
 _atom_site_type_symbol
 _atom_site_label
 _atom_site_symmetry_multiplicity
 _atom_site_fract_x
 _atom_site_fract_y
 _atom_site_fract_z
 _atom_site_occupancy
  K  K0  1  0.248287  0.503428  0.250000  1
  K  K1  1  0.747357  0.505288  0.750000  1
  U  U2  1  0.998721  0.002557  0.000405  1
  U  U3  1  0.998721  0.002557  0.499595  1
  Cu  Cu4  1  0.468638  0.062725  0.750000  1
  Au  Au5  1  0.540558  0.918886  0.250000  1
  Se  Se6  1  0.628962  0.742078  0.043043  1
  Se  Se7  1  0.925159  0.149681  0.250000  1
  Se  Se8  1  0.628962  0.742078  0.456958  1
  Se  Se9  1  0.375446  0.249108  0.562085  1
  Se  Se10  1  0.063747  0.872506  0.750000  1
  Se  Se11  1  0.375446  0.249108  0.937915  1
