# generated using pymatgen
data_Er3SnRh6C
_symmetry_space_group_name_H-M   'P 1'
_cell_length_a   5.77817400
_cell_length_b   5.77817359
_cell_length_c   13.77700900
_cell_angle_alpha   90.00000000
_cell_angle_beta   90.00000000
_cell_angle_gamma   120.00000234
_symmetry_Int_Tables_number   1
_chemical_formula_structural   Er3SnRh6C
_chemical_formula_sum   'Er6 Sn2 Rh12 C2'
_cell_volume   398.35178210
_cell_formula_units_Z   2
loop_
 _symmetry_equiv_pos_site_id
 _symmetry_equiv_pos_as_xyz
  1  'x, y, z'
loop_
 _atom_site_type_symbol
 _atom_site_label
 _atom_site_symmetry_multiplicity
 _atom_site_fract_x
 _atom_site_fract_y
 _atom_site_fract_z
 _atom_site_occupancy
  Er  Er0  1  0.000000  0.000000  0.750000  1
  Er  Er1  1  0.000000  0.000000  0.250000  1
  Er  Er2  1  0.333333  0.666667  0.411903  1
  Er  Er3  1  0.666667  0.333333  0.911903  1
  Er  Er4  1  0.666667  0.333333  0.588097  1
  Er  Er5  1  0.333333  0.666667  0.088097  1
  Sn  Sn6  1  0.333333  0.666667  0.750000  1
  Sn  Sn7  1  0.666667  0.333333  0.250000  1
  Rh  Rh8  1  0.339642  0.169821  0.414001  1
  Rh  Rh9  1  0.830179  0.169821  0.414001  1
  Rh  Rh10  1  0.830179  0.660358  0.414001  1
  Rh  Rh11  1  0.169821  0.339642  0.914001  1
  Rh  Rh12  1  0.660358  0.830179  0.585999  1
  Rh  Rh13  1  0.660358  0.830179  0.914001  1
  Rh  Rh14  1  0.339642  0.169821  0.085999  1
  Rh  Rh15  1  0.169821  0.339642  0.585999  1
  Rh  Rh16  1  0.169821  0.830179  0.585999  1
  Rh  Rh17  1  0.830179  0.169821  0.085999  1
  Rh  Rh18  1  0.830179  0.660358  0.085999  1
  Rh  Rh19  1  0.169821  0.830179  0.914001  1
  C  C20  1  0.000000  0.000000  0.500000  1
  C  C21  1  0.000000  0.000000  0.000000  1
