# generated using pymatgen
data_TbHf7Ta4(TiSi2)8
_symmetry_space_group_name_H-M   'P 1'
_cell_length_a   6.84508101
_cell_length_b   6.84542563
_cell_length_c   12.57741622
_cell_angle_alpha   89.95789806
_cell_angle_beta   89.98825204
_cell_angle_gamma   89.93417749
_symmetry_Int_Tables_number   1
_chemical_formula_structural   TbHf7Ta4(TiSi2)8
_chemical_formula_sum   'Tb1 Hf7 Ta4 Ti8 Si16'
_cell_volume   589.34563208
_cell_formula_units_Z   1
loop_
 _symmetry_equiv_pos_site_id
 _symmetry_equiv_pos_as_xyz
  1  'x, y, z'
loop_
 _atom_site_type_symbol
 _atom_site_label
 _atom_site_symmetry_multiplicity
 _atom_site_fract_x
 _atom_site_fract_y
 _atom_site_fract_z
 _atom_site_occupancy
  Tb  Tb0  1  0.996884  0.660149  0.031189  1
  Hf  Hf1  1  0.341836  0.997842  0.469268  1
  Hf  Hf2  1  0.501898  0.842743  0.717481  1
  Hf  Hf3  1  0.497195  0.158309  0.220904  1
  Hf  Hf4  1  0.842770  0.502340  0.282551  1
  Hf  Hf5  1  0.158626  0.497250  0.780832  1
  Hf  Hf6  1  0.654494  0.003879  0.967302  1
  Hf  Hf7  1  0.998128  0.342623  0.530957  1
  Ta  Ta8  1  0.330990  0.326365  0.999514  1
  Ta  Ta9  1  0.172098  0.830562  0.251942  1
  Ta  Ta10  1  0.828868  0.170721  0.748394  1
  Ta  Ta11  1  0.671130  0.671031  0.500000  1
  Ti  Ti12  1  0.155909  0.003571  0.870113  1
  Ti  Ti13  1  0.496131  0.652232  0.124039  1
  Ti  Ti14  1  0.504783  0.347689  0.622128  1
  Ti  Ti15  1  0.652373  0.492137  0.875309  1
  Ti  Ti16  1  0.347431  0.504432  0.378774  1
  Ti  Ti17  1  0.847501  0.996411  0.374215  1
  Ti  Ti18  1  0.006191  0.153585  0.128779  1
  Ti  Ti19  1  0.995676  0.848477  0.626267  1
  Si  Si20  1  0.206485  0.135244  0.675204  1
  Si  Si21  1  0.369829  0.706739  0.925016  1
  Si  Si22  1  0.635011  0.293733  0.426222  1
  Si  Si23  1  0.702686  0.360334  0.073696  1
  Si  Si24  1  0.292802  0.634921  0.574071  1
  Si  Si25  1  0.789947  0.870153  0.180528  1
  Si  Si26  1  0.134886  0.206544  0.325086  1
  Si  Si27  1  0.863051  0.795903  0.819633  1
  Si  Si28  1  0.298536  0.956121  0.063565  1
  Si  Si29  1  0.544734  0.795944  0.314276  1
  Si  Si30  1  0.453747  0.203932  0.811566  1
  Si  Si31  1  0.796177  0.545877  0.686089  1
  Si  Si32  1  0.206983  0.452891  0.189126  1
  Si  Si33  1  0.703927  0.045991  0.562510  1
  Si  Si34  1  0.954413  0.288636  0.936008  1
  Si  Si35  1  0.045874  0.704692  0.437451  1
