# generated using pymatgen
data_Sc2InB2Ir3Rh2
_symmetry_space_group_name_H-M   'P 1'
_cell_length_a   9.54687400
_cell_length_b   9.54687400
_cell_length_c   3.13711000
_cell_angle_alpha   90.00000000
_cell_angle_beta   90.00000000
_cell_angle_gamma   90.00000000
_symmetry_Int_Tables_number   1
_chemical_formula_structural   Sc2InB2Ir3Rh2
_chemical_formula_sum   'Sc4 In2 B4 Ir6 Rh4'
_cell_volume   285.92499926
_cell_formula_units_Z   2
loop_
 _symmetry_equiv_pos_site_id
 _symmetry_equiv_pos_as_xyz
  1  'x, y, z'
loop_
 _atom_site_type_symbol
 _atom_site_label
 _atom_site_symmetry_multiplicity
 _atom_site_fract_x
 _atom_site_fract_y
 _atom_site_fract_z
 _atom_site_occupancy
  Sc  Sc0  1  0.824509  0.323736  0.000000  1
  Sc  Sc1  1  0.323736  0.175491  0.000000  1
  Sc  Sc2  1  0.676264  0.824509  0.000000  1
  Sc  Sc3  1  0.175491  0.676264  0.000000  1
  In  In4  1  0.000000  0.000000  0.000000  1
  In  In5  1  0.500000  0.500000  0.000000  1
  B  B6  1  0.623301  0.122260  0.000000  1
  B  B7  1  0.122260  0.376699  0.000000  1
  B  B8  1  0.877740  0.623301  0.000000  1
  B  B9  1  0.376699  0.877740  0.000000  1
  Ir  Ir10  1  0.072027  0.224877  0.500000  1
  Ir  Ir11  1  0.224877  0.927973  0.500000  1
  Ir  Ir12  1  0.775123  0.072027  0.500000  1
  Ir  Ir13  1  0.927973  0.775123  0.500000  1
  Ir  Ir14  1  0.500000  0.000000  0.500000  1
  Ir  Ir15  1  0.000000  0.500000  0.500000  1
  Rh  Rh16  1  0.428705  0.723702  0.500000  1
  Rh  Rh17  1  0.571295  0.276298  0.500000  1
  Rh  Rh18  1  0.723702  0.571295  0.500000  1
  Rh  Rh19  1  0.276298  0.428705  0.500000  1
