# generated using pymatgen
data_Eu6Si11PRh18
_symmetry_space_group_name_H-M   'P 1'
_cell_length_a   4.07740000
_cell_length_b   11.56651874
_cell_length_c   13.12825900
_cell_angle_alpha   89.81279859
_cell_angle_beta   90.00000000
_cell_angle_gamma   90.00000000
_symmetry_Int_Tables_number   1
_chemical_formula_structural   Eu6Si11PRh18
_chemical_formula_sum   'Eu6 Si11 P1 Rh18'
_cell_volume   619.14276494
_cell_formula_units_Z   1
loop_
 _symmetry_equiv_pos_site_id
 _symmetry_equiv_pos_as_xyz
  1  'x, y, z'
loop_
 _atom_site_type_symbol
 _atom_site_label
 _atom_site_symmetry_multiplicity
 _atom_site_fract_x
 _atom_site_fract_y
 _atom_site_fract_z
 _atom_site_occupancy
  Eu  Eu0  1  0.000000  0.499729  0.526387  1
  Eu  Eu1  1  0.500000  0.001748  0.472868  1
  Eu  Eu2  1  0.500000  0.816823  0.207274  1
  Eu  Eu3  1  0.500000  0.182110  0.205233  1
  Eu  Eu4  1  0.000000  0.682184  0.794761  1
  Eu  Eu5  1  0.000000  0.318521  0.792282  1
  Si  Si6  1  0.500000  0.499373  0.884572  1
  Si  Si7  1  0.000000  0.998819  0.117954  1
  Si  Si8  1  0.500000  0.501598  0.333433  1
  Si  Si9  1  0.000000  0.000003  0.667026  1
  Si  Si10  1  0.500000  0.298815  0.613328  1
  Si  Si11  1  0.500000  0.702004  0.615889  1
  Si  Si12  1  0.000000  0.203876  0.382634  1
  Si  Si13  1  0.000000  0.799039  0.386056  1
  Si  Si14  1  0.500000  0.852052  0.899129  1
  Si  Si15  1  0.500000  0.147711  0.898294  1
  Si  Si16  1  0.000000  0.647642  0.101960  1
  P  P17  1  0.000000  0.342826  0.098210  1
  Rh  Rh18  1  0.500000  0.508674  0.154562  1
  Rh  Rh19  1  0.000000  0.999961  0.846849  1
  Rh  Rh20  1  0.500000  0.499490  0.695494  1
  Rh  Rh21  1  0.000000  0.999741  0.306092  1
  Rh  Rh22  1  0.000000  0.495397  0.984661  1
  Rh  Rh23  1  0.500000  0.999812  0.020801  1
  Rh  Rh24  1  0.500000  0.330606  0.994762  1
  Rh  Rh25  1  0.500000  0.668125  0.988662  1
  Rh  Rh26  1  0.000000  0.167720  0.008763  1
  Rh  Rh27  1  0.000000  0.830686  0.011123  1
  Rh  Rh28  1  0.500000  0.306475  0.428019  1
  Rh  Rh29  1  0.500000  0.696359  0.431598  1
  Rh  Rh30  1  0.000000  0.196415  0.567630  1
  Rh  Rh31  1  0.000000  0.804405  0.569866  1
  Rh  Rh32  1  0.500000  0.880397  0.713857  1
  Rh  Rh33  1  0.500000  0.121186  0.713311  1
  Rh  Rh34  1  0.000000  0.620307  0.288136  1
  Rh  Rh35  1  0.000000  0.379376  0.278520  1
