# generated using pymatgen
data_La3Pr3(SnRu)4
_symmetry_space_group_name_H-M   'P 1'
_cell_length_a   5.97329712
_cell_length_b   8.63229128
_cell_length_c   13.98712408
_cell_angle_alpha   90.00300469
_cell_angle_beta   89.98839724
_cell_angle_gamma   90.14915850
_symmetry_Int_Tables_number   1
_chemical_formula_structural   La3Pr3(SnRu)4
_chemical_formula_sum   'La6 Pr6 Sn8 Ru8'
_cell_volume   721.21898443
_cell_formula_units_Z   2
loop_
 _symmetry_equiv_pos_site_id
 _symmetry_equiv_pos_as_xyz
  1  'x, y, z'
loop_
 _atom_site_type_symbol
 _atom_site_label
 _atom_site_symmetry_multiplicity
 _atom_site_fract_x
 _atom_site_fract_y
 _atom_site_fract_z
 _atom_site_occupancy
  La  La0  1  0.165790  0.909369  0.590128  1
  La  La1  1  0.834249  0.090665  0.090177  1
  La  La2  1  0.164799  0.589774  0.409806  1
  La  La3  1  0.835188  0.410247  0.909786  1
  La  La4  1  0.835973  0.091865  0.409703  1
  La  La5  1  0.163972  0.908072  0.909659  1
  Pr  Pr6  1  0.839382  0.406873  0.594611  1
  Pr  Pr7  1  0.160604  0.593088  0.094673  1
  Pr  Pr8  1  0.373829  0.281256  0.750118  1
  Pr  Pr9  1  0.626143  0.718744  0.250165  1
  Pr  Pr10  1  0.373553  0.220582  0.249941  1
  Pr  Pr11  1  0.626432  0.779463  0.749871  1
  Sn  Sn12  1  0.875779  0.120773  0.750042  1
  Sn  Sn13  1  0.124237  0.879244  0.250088  1
  Sn  Sn14  1  0.877384  0.379343  0.249175  1
  Sn  Sn15  1  0.122602  0.620659  0.749130  1
  Sn  Sn16  1  0.370217  0.250885  0.500610  1
  Sn  Sn17  1  0.629798  0.749125  0.000602  1
  Sn  Sn18  1  0.634108  0.747949  0.500298  1
  Sn  Sn19  1  0.365962  0.252019  0.000327  1
  Ru  Ru20  1  0.653756  0.031038  0.586455  1
  Ru  Ru21  1  0.346118  0.968977  0.086450  1
  Ru  Ru22  1  0.647975  0.468987  0.409251  1
  Ru  Ru23  1  0.352013  0.530955  0.909244  1
  Ru  Ru24  1  0.348668  0.969030  0.413067  1
  Ru  Ru25  1  0.651363  0.030954  0.913030  1
  Ru  Ru26  1  0.346309  0.531597  0.586800  1
  Ru  Ru27  1  0.653798  0.468462  0.086792  1
