# generated using pymatgen
data_ScU2PaH12
_symmetry_space_group_name_H-M   'P 1'
_cell_length_a   6.43882700
_cell_length_b   6.42121500
_cell_length_c   6.43882700
_cell_angle_alpha   90.00000000
_cell_angle_beta   90.00000000
_cell_angle_gamma   90.00000000
_symmetry_Int_Tables_number   1
_chemical_formula_structural   ScU2PaH12
_chemical_formula_sum   'Sc2 U4 Pa2 H24'
_cell_volume   266.21389800
_cell_formula_units_Z   2
loop_
 _symmetry_equiv_pos_site_id
 _symmetry_equiv_pos_as_xyz
  1  'x, y, z'
loop_
 _atom_site_type_symbol
 _atom_site_label
 _atom_site_symmetry_multiplicity
 _atom_site_fract_x
 _atom_site_fract_y
 _atom_site_fract_z
 _atom_site_occupancy
  Sc  Sc0  1  0.000000  0.000000  0.000000  1
  Sc  Sc1  1  0.500000  0.500000  0.500000  1
  U  U2  1  0.249432  0.000000  0.500000  1
  U  U3  1  0.750568  0.000000  0.500000  1
  U  U4  1  0.000000  0.500000  0.250568  1
  U  U5  1  0.000000  0.500000  0.749432  1
  Pa  Pa6  1  0.500000  0.750000  0.000000  1
  Pa  Pa7  1  0.500000  0.250000  0.000000  1
  H  H8  1  0.000000  0.151926  0.298146  1
  H  H9  1  0.500000  0.201727  0.651644  1
  H  H10  1  0.500000  0.798273  0.348356  1
  H  H11  1  0.798146  0.651926  0.500000  1
  H  H12  1  0.201854  0.651926  0.500000  1
  H  H13  1  0.347820  0.500000  0.797124  1
  H  H14  1  0.652180  0.500000  0.797124  1
  H  H15  1  0.297124  0.000000  0.152180  1
  H  H16  1  0.151644  0.298273  0.000000  1
  H  H17  1  0.848356  0.701727  0.000000  1
  H  H18  1  0.297124  0.000000  0.847820  1
  H  H19  1  0.848356  0.298273  0.000000  1
  H  H20  1  0.702876  0.000000  0.152180  1
  H  H21  1  0.702876  0.000000  0.847820  1
  H  H22  1  0.151644  0.701727  0.000000  1
  H  H23  1  0.000000  0.848074  0.701854  1
  H  H24  1  0.000000  0.151926  0.701854  1
  H  H25  1  0.000000  0.848074  0.298146  1
  H  H26  1  0.652180  0.500000  0.202876  1
  H  H27  1  0.347820  0.500000  0.202876  1
  H  H28  1  0.798146  0.348074  0.500000  1
  H  H29  1  0.201854  0.348074  0.500000  1
  H  H30  1  0.500000  0.798273  0.651644  1
  H  H31  1  0.500000  0.201727  0.348356  1
