# generated using pymatgen
data_Yb6Dy3HoGe8
_symmetry_space_group_name_H-M   'P 1'
_cell_length_a   7.43077900
_cell_length_b   7.88274402
_cell_length_c   15.18272405
_cell_angle_alpha   90.00910500
_cell_angle_beta   90.00000000
_cell_angle_gamma   90.00000000
_symmetry_Int_Tables_number   1
_chemical_formula_structural   Yb6Dy3HoGe8
_chemical_formula_sum   'Yb12 Dy6 Ho2 Ge16'
_cell_volume   889.32696830
_cell_formula_units_Z   2
loop_
 _symmetry_equiv_pos_site_id
 _symmetry_equiv_pos_as_xyz
  1  'x, y, z'
loop_
 _atom_site_type_symbol
 _atom_site_label
 _atom_site_symmetry_multiplicity
 _atom_site_fract_x
 _atom_site_fract_y
 _atom_site_fract_z
 _atom_site_occupancy
  Yb  Yb0  1  0.979461  0.813613  0.405013  1
  Yb  Yb1  1  0.479461  0.686387  0.094987  1
  Yb  Yb2  1  0.520618  0.313716  0.595204  1
  Yb  Yb3  1  0.020618  0.186284  0.904796  1
  Yb  Yb4  1  0.020751  0.186411  0.595269  1
  Yb  Yb5  1  0.520751  0.313589  0.904731  1
  Yb  Yb6  1  0.479244  0.686428  0.404940  1
  Yb  Yb7  1  0.979244  0.813572  0.095060  1
  Yb  Yb8  1  0.346159  0.019584  0.749951  1
  Yb  Yb9  1  0.846159  0.480416  0.750049  1
  Yb  Yb10  1  0.153799  0.519689  0.250040  1
  Yb  Yb11  1  0.653799  0.980311  0.249960  1
  Dy  Dy12  1  0.318143  0.172292  0.121140  1
  Dy  Dy13  1  0.818143  0.327708  0.378860  1
  Dy  Dy14  1  0.182000  0.672458  0.878649  1
  Dy  Dy15  1  0.682000  0.827542  0.621351  1
  Dy  Dy16  1  0.317997  0.172354  0.378809  1
  Dy  Dy17  1  0.817997  0.327646  0.121191  1
  Ho  Ho18  1  0.181860  0.672387  0.621427  1
  Ho  Ho19  1  0.681860  0.827613  0.878573  1
  Ge  Ge20  1  0.846578  0.533668  0.540392  1
  Ge  Ge21  1  0.346578  0.966332  0.959608  1
  Ge  Ge22  1  0.653822  0.033365  0.459925  1
  Ge  Ge23  1  0.153822  0.466635  0.040075  1
  Ge  Ge24  1  0.154481  0.466830  0.460154  1
  Ge  Ge25  1  0.654481  0.033170  0.039846  1
  Ge  Ge26  1  0.345189  0.966126  0.540332  1
  Ge  Ge27  1  0.845189  0.533874  0.959668  1
  Ge  Ge28  1  0.977889  0.880714  0.750161  1
  Ge  Ge29  1  0.477889  0.619286  0.749839  1
  Ge  Ge30  1  0.522153  0.381473  0.249988  1
  Ge  Ge31  1  0.022153  0.118527  0.250012  1
  Ge  Ge32  1  0.236530  0.384877  0.749810  1
  Ge  Ge33  1  0.736530  0.115123  0.750190  1
  Ge  Ge34  1  0.263326  0.884559  0.249990  1
  Ge  Ge35  1  0.763326  0.615441  0.250010  1
