# generated using pymatgen
data_LaSmCu2(TeO6)2
_symmetry_space_group_name_H-M   'P 1'
_cell_length_a   5.19429804
_cell_length_b   5.19561740
_cell_length_c   10.30849101
_cell_angle_alpha   90.00422342
_cell_angle_beta   89.99529068
_cell_angle_gamma   119.97868192
_symmetry_Int_Tables_number   1
_chemical_formula_structural   LaSmCu2(TeO6)2
_chemical_formula_sum   'La1 Sm1 Cu2 Te2 O12'
_cell_volume   240.98111364
_cell_formula_units_Z   1
loop_
 _symmetry_equiv_pos_site_id
 _symmetry_equiv_pos_as_xyz
  1  'x, y, z'
loop_
 _atom_site_type_symbol
 _atom_site_label
 _atom_site_symmetry_multiplicity
 _atom_site_fract_x
 _atom_site_fract_y
 _atom_site_fract_z
 _atom_site_occupancy
  La  La0  1  0.000000  0.000000  0.000000  1
  Sm  Sm1  1  0.000000  0.000000  0.500000  1
  Cu  Cu2  1  0.333382  0.666891  0.254171  1
  Cu  Cu3  1  0.666618  0.333109  0.745829  1
  Te  Te4  1  0.666636  0.333462  0.254325  1
  Te  Te5  1  0.333364  0.666538  0.745675  1
  O  O6  1  0.630799  0.621803  0.146125  1
  O  O7  1  0.378330  0.009251  0.146110  1
  O  O8  1  0.990910  0.369248  0.146162  1
  O  O9  1  0.988806  0.630969  0.360441  1
  O  O10  1  0.369064  0.358007  0.360393  1
  O  O11  1  0.642103  0.011293  0.360399  1
  O  O12  1  0.011194  0.369031  0.639559  1
  O  O13  1  0.357897  0.988707  0.639601  1
  O  O14  1  0.630936  0.641993  0.639608  1
  O  O15  1  0.621672  0.990749  0.853889  1
  O  O16  1  0.369203  0.378197  0.853875  1
  O  O17  1  0.009092  0.630752  0.853838  1
