# generated using pymatgen
data_Lu2Be2ZnIr5
_symmetry_space_group_name_H-M   'P 1'
_cell_length_a   9.58697300
_cell_length_b   9.58697300
_cell_length_c   3.18769000
_cell_angle_alpha   90.00000000
_cell_angle_beta   90.00000000
_cell_angle_gamma   90.00000000
_symmetry_Int_Tables_number   1
_chemical_formula_structural   Lu2Be2ZnIr5
_chemical_formula_sum   'Lu4 Be4 Zn2 Ir10'
_cell_volume   292.98075144
_cell_formula_units_Z   2
loop_
 _symmetry_equiv_pos_site_id
 _symmetry_equiv_pos_as_xyz
  1  'x, y, z'
loop_
 _atom_site_type_symbol
 _atom_site_label
 _atom_site_symmetry_multiplicity
 _atom_site_fract_x
 _atom_site_fract_y
 _atom_site_fract_z
 _atom_site_occupancy
  Lu  Lu0  1  0.676274  0.176274  0.000000  1
  Lu  Lu1  1  0.323726  0.823726  0.000000  1
  Lu  Lu2  1  0.176274  0.323726  0.000000  1
  Lu  Lu3  1  0.823726  0.676274  0.000000  1
  Be  Be4  1  0.123362  0.623362  0.000000  1
  Be  Be5  1  0.876638  0.376638  0.000000  1
  Be  Be6  1  0.623362  0.876638  0.000000  1
  Be  Be7  1  0.376638  0.123362  0.000000  1
  Zn  Zn8  1  0.000000  0.000000  0.000000  1
  Zn  Zn9  1  0.500000  0.500000  0.000000  1
  Ir  Ir10  1  0.211466  0.066459  0.500000  1
  Ir  Ir11  1  0.788534  0.933541  0.500000  1
  Ir  Ir12  1  0.066459  0.788534  0.500000  1
  Ir  Ir13  1  0.711466  0.433541  0.500000  1
  Ir  Ir14  1  0.933541  0.211466  0.500000  1
  Ir  Ir15  1  0.288534  0.566459  0.500000  1
  Ir  Ir16  1  0.566459  0.711466  0.500000  1
  Ir  Ir17  1  0.433541  0.288534  0.500000  1
  Ir  Ir18  1  0.500000  0.000000  0.500000  1
  Ir  Ir19  1  0.000000  0.500000  0.500000  1
