# generated using pymatgen
data_Dy5Er2Sn23Ir6
_symmetry_space_group_name_H-M   'P 1'
_cell_length_a   9.85526987
_cell_length_b   9.83830635
_cell_length_c   10.08065400
_cell_angle_alpha   90.00000000
_cell_angle_beta   90.04371336
_cell_angle_gamma   119.94308110
_symmetry_Int_Tables_number   1
_chemical_formula_structural   Dy5Er2Sn23Ir6
_chemical_formula_sum   'Dy5 Er2 Sn23 Ir6'
_cell_volume   846.94818190
_cell_formula_units_Z   1
loop_
 _symmetry_equiv_pos_site_id
 _symmetry_equiv_pos_as_xyz
  1  'x, y, z'
loop_
 _atom_site_type_symbol
 _atom_site_label
 _atom_site_symmetry_multiplicity
 _atom_site_fract_x
 _atom_site_fract_y
 _atom_site_fract_z
 _atom_site_occupancy
  Dy  Dy0  1  0.481847  0.518896  0.308382  1
  Dy  Dy1  1  0.518153  0.481104  0.691618  1
  Dy  Dy2  1  0.481847  0.962951  0.308382  1
  Dy  Dy3  1  0.518153  0.037049  0.691618  1
  Dy  Dy4  1  0.000000  0.000000  0.000000  1
  Er  Er5  1  0.035451  0.517726  0.307579  1
  Er  Er6  1  0.964549  0.482274  0.692421  1
  Sn  Sn7  1  0.118850  0.881098  0.282961  1
  Sn  Sn8  1  0.881150  0.118902  0.717039  1
  Sn  Sn9  1  0.118850  0.237752  0.282961  1
  Sn  Sn10  1  0.881150  0.762248  0.717039  1
  Sn  Sn11  1  0.763403  0.881702  0.282835  1
  Sn  Sn12  1  0.236597  0.118298  0.717165  1
  Sn  Sn13  1  0.780471  0.221531  0.460425  1
  Sn  Sn14  1  0.219529  0.778469  0.539575  1
  Sn  Sn15  1  0.780471  0.558941  0.460425  1
  Sn  Sn16  1  0.219529  0.441059  0.539575  1
  Sn  Sn17  1  0.441024  0.220512  0.460332  1
  Sn  Sn18  1  0.558976  0.779488  0.539668  1
  Sn  Sn19  1  0.353117  0.000009  0.999726  1
  Sn  Sn20  1  0.646883  0.999991  0.000274  1
  Sn  Sn21  1  0.000000  0.352616  0.000000  1
  Sn  Sn22  1  0.000000  0.647384  0.000000  1
  Sn  Sn23  1  0.646883  0.646892  0.000274  1
  Sn  Sn24  1  0.353117  0.353108  0.999726  1
  Sn  Sn25  1  0.332645  0.666322  0.122378  1
  Sn  Sn26  1  0.667355  0.333678  0.877622  1
  Sn  Sn27  1  0.333624  0.666812  0.828362  1
  Sn  Sn28  1  0.666376  0.333188  0.171638  1
  Sn  Sn29  1  0.000000  0.000000  0.500000  1
  Ir  Ir30  1  0.830837  0.170660  0.200168  1
  Ir  Ir31  1  0.169163  0.829340  0.799832  1
  Ir  Ir32  1  0.830837  0.660178  0.200168  1
  Ir  Ir33  1  0.169163  0.339822  0.799832  1
  Ir  Ir34  1  0.339079  0.169540  0.199457  1
  Ir  Ir35  1  0.660921  0.830460  0.800543  1
