# generated using pymatgen
data_DyLu(Sc4Bi3)2
_symmetry_space_group_name_H-M   'P 1'
_cell_length_a   7.87351300
_cell_length_b   9.06021700
_cell_length_c   11.53715800
_cell_angle_alpha   90.00000000
_cell_angle_beta   90.00000000
_cell_angle_gamma   90.00000000
_symmetry_Int_Tables_number   1
_chemical_formula_structural   DyLu(Sc4Bi3)2
_chemical_formula_sum   'Dy2 Lu2 Sc16 Bi12'
_cell_volume   823.01166111
_cell_formula_units_Z   2
loop_
 _symmetry_equiv_pos_site_id
 _symmetry_equiv_pos_as_xyz
  1  'x, y, z'
loop_
 _atom_site_type_symbol
 _atom_site_label
 _atom_site_symmetry_multiplicity
 _atom_site_fract_x
 _atom_site_fract_y
 _atom_site_fract_z
 _atom_site_occupancy
  Dy  Dy0  1  0.684371  0.750000  0.781377  1
  Dy  Dy1  1  0.184371  0.750000  0.718623  1
  Lu  Lu2  1  0.315050  0.250000  0.218009  1
  Lu  Lu3  1  0.815050  0.250000  0.281991  1
  Sc  Sc4  1  0.348846  0.750000  0.220539  1
  Sc  Sc5  1  0.848846  0.750000  0.279461  1
  Sc  Sc6  1  0.651335  0.250000  0.779713  1
  Sc  Sc7  1  0.151335  0.250000  0.720287  1
  Sc  Sc8  1  0.693087  0.567402  0.062139  1
  Sc  Sc9  1  0.193087  0.932598  0.437861  1
  Sc  Sc10  1  0.307185  0.067396  0.938266  1
  Sc  Sc11  1  0.807185  0.432604  0.561734  1
  Sc  Sc12  1  0.307185  0.432604  0.938266  1
  Sc  Sc13  1  0.807185  0.067396  0.561734  1
  Sc  Sc14  1  0.693087  0.932598  0.062139  1
  Sc  Sc15  1  0.193087  0.567402  0.437861  1
  Sc  Sc16  1  0.481726  0.250000  0.487959  1
  Sc  Sc17  1  0.981726  0.250000  0.012041  1
  Sc  Sc18  1  0.518222  0.750000  0.511000  1
  Sc  Sc19  1  0.018222  0.750000  0.989000  1
  Bi  Bi20  1  0.402235  0.750000  0.966994  1
  Bi  Bi21  1  0.902235  0.750000  0.533006  1
  Bi  Bi22  1  0.597081  0.250000  0.034780  1
  Bi  Bi23  1  0.097081  0.250000  0.465220  1
  Bi  Bi24  1  0.564159  0.991822  0.327400  1
  Bi  Bi25  1  0.064159  0.508178  0.172600  1
  Bi  Bi26  1  0.436136  0.489747  0.671789  1
  Bi  Bi27  1  0.936136  0.010253  0.828211  1
  Bi  Bi28  1  0.436136  0.010253  0.671789  1
  Bi  Bi29  1  0.936136  0.489747  0.828211  1
  Bi  Bi30  1  0.564159  0.508178  0.327400  1
  Bi  Bi31  1  0.064159  0.991822  0.172600  1
