# generated using pymatgen
data_Ho5Er11Cd4NiRu3
_symmetry_space_group_name_H-M   'P 1'
_cell_length_a   9.53254824
_cell_length_b   9.58066209
_cell_length_c   9.58066246
_cell_angle_alpha   59.61932916
_cell_angle_beta   59.44651266
_cell_angle_gamma   59.44651087
_symmetry_Int_Tables_number   1
_chemical_formula_structural   Ho5Er11Cd4NiRu3
_chemical_formula_sum   'Ho5 Er11 Cd4 Ni1 Ru3'
_cell_volume   611.72587903
_cell_formula_units_Z   1
loop_
 _symmetry_equiv_pos_site_id
 _symmetry_equiv_pos_as_xyz
  1  'x, y, z'
loop_
 _atom_site_type_symbol
 _atom_site_label
 _atom_site_symmetry_multiplicity
 _atom_site_fract_x
 _atom_site_fract_y
 _atom_site_fract_z
 _atom_site_occupancy
  Ho  Ho0  1  0.559128  0.937186  0.937186  1
  Ho  Ho1  1  0.558758  0.937562  0.566325  1
  Ho  Ho2  1  0.939780  0.559975  0.939642  1
  Ho  Ho3  1  0.558758  0.566325  0.937562  1
  Ho  Ho4  1  0.939780  0.939642  0.559975  1
  Er  Er5  1  0.350447  0.346035  0.346035  1
  Er  Er6  1  0.351035  0.346247  0.958822  1
  Er  Er7  1  0.351035  0.958822  0.346247  1
  Er  Er8  1  0.958507  0.347258  0.347258  1
  Er  Er9  1  0.810646  0.187831  0.187831  1
  Er  Er10  1  0.185730  0.811544  0.811544  1
  Er  Er11  1  0.187526  0.810926  0.188623  1
  Er  Er12  1  0.810267  0.188817  0.811268  1
  Er  Er13  1  0.187526  0.188623  0.810926  1
  Er  Er14  1  0.810267  0.811268  0.188817  1
  Er  Er15  1  0.939420  0.560235  0.560235  1
  Cd  Cd16  1  0.579576  0.580897  0.580897  1
  Cd  Cd17  1  0.579643  0.580922  0.258258  1
  Cd  Cd18  1  0.579643  0.258258  0.580922  1
  Cd  Cd19  1  0.257043  0.580910  0.580910  1
  Ni  Ni20  1  0.576693  0.142062  0.142062  1
  Ru  Ru21  1  0.142281  0.139759  0.139759  1
  Ru  Ru22  1  0.143256  0.141265  0.577630  1
  Ru  Ru23  1  0.143256  0.577630  0.141265  1
