# generated using pymatgen
data_Yb2Ag2Ir3RuO14
_symmetry_space_group_name_H-M   'P 1'
_cell_length_a   7.20440754
_cell_length_b   7.20440744
_cell_length_c   7.34274418
_cell_angle_alpha   59.34217298
_cell_angle_beta   59.34217478
_cell_angle_gamma   58.93557315
_symmetry_Int_Tables_number   1
_chemical_formula_structural   Yb2Ag2Ir3RuO14
_chemical_formula_sum   'Yb2 Ag2 Ir3 Ru1 O14'
_cell_volume   264.60825991
_cell_formula_units_Z   1
loop_
 _symmetry_equiv_pos_site_id
 _symmetry_equiv_pos_as_xyz
  1  'x, y, z'
loop_
 _atom_site_type_symbol
 _atom_site_label
 _atom_site_symmetry_multiplicity
 _atom_site_fract_x
 _atom_site_fract_y
 _atom_site_fract_z
 _atom_site_occupancy
  Yb  Yb0  1  0.125000  0.125000  0.125000  1
  Yb  Yb1  1  0.125000  0.125000  0.625000  1
  Ag  Ag2  1  0.625000  0.125000  0.125000  1
  Ag  Ag3  1  0.125000  0.625000  0.125000  1
  Ir  Ir4  1  0.625000  0.625000  0.625000  1
  Ir  Ir5  1  0.125000  0.625000  0.625000  1
  Ir  Ir6  1  0.625000  0.125000  0.625000  1
  Ru  Ru7  1  0.625000  0.625000  0.125000  1
  O  O8  1  0.985058  0.985058  0.015484  1
  O  O9  1  0.264942  0.264942  0.234516  1
  O  O10  1  0.290347  0.290347  0.712273  1
  O  O11  1  0.560967  0.560967  0.938900  1
  O  O12  1  0.701311  0.296844  0.701551  1
  O  O13  1  0.698186  0.301135  0.303496  1
  O  O14  1  0.296844  0.701311  0.701551  1
  O  O15  1  0.301135  0.698186  0.303496  1
  O  O16  1  0.689033  0.689033  0.311100  1
  O  O17  1  0.953156  0.548689  0.548449  1
  O  O18  1  0.551814  0.948865  0.946504  1
  O  O19  1  0.959653  0.959653  0.537727  1
  O  O20  1  0.948865  0.551814  0.946504  1
  O  O21  1  0.548689  0.953156  0.548449  1
