# generated using pymatgen
data_Lu3AgO6
_symmetry_space_group_name_H-M   'P 1'
_cell_length_a   3.46806315
_cell_length_b   5.48281382
_cell_length_c   6.98074697
_cell_angle_alpha   89.49750131
_cell_angle_beta   102.85598201
_cell_angle_gamma   91.15256769
_symmetry_Int_Tables_number   1
_chemical_formula_structural   Lu3AgO6
_chemical_formula_sum   'Lu3 Ag1 O6'
_cell_volume   129.38228398
_cell_formula_units_Z   1
loop_
 _symmetry_equiv_pos_site_id
 _symmetry_equiv_pos_as_xyz
  1  'x, y, z'
loop_
 _atom_site_type_symbol
 _atom_site_label
 _atom_site_symmetry_multiplicity
 _atom_site_fract_x
 _atom_site_fract_y
 _atom_site_fract_z
 _atom_site_occupancy
  Lu  Lu0  1  0.615851  0.531693  0.762355  1
  Lu  Lu1  1  0.384149  0.468307  0.237645  1
  Lu  Lu2  1  0.000000  0.000000  0.500000  1
  Ag  Ag3  1  0.000000  0.000000  0.000000  1
  O  O4  1  0.171920  0.325146  0.895531  1
  O  O5  1  0.870259  0.201309  0.219506  1
  O  O6  1  0.129741  0.798691  0.780494  1
  O  O7  1  0.475854  0.744164  0.466543  1
  O  O8  1  0.828080  0.674854  0.104469  1
  O  O9  1  0.524146  0.255836  0.533457  1
