# generated using pymatgen
data_Tb11In2Hg7Pt4
_symmetry_space_group_name_H-M   'P 1'
_cell_length_a   13.15350476
_cell_length_b   13.17429188
_cell_length_c   3.71440600
_cell_angle_alpha   90.00000000
_cell_angle_beta   90.00000000
_cell_angle_gamma   112.14650842
_symmetry_Int_Tables_number   1
_chemical_formula_structural   Tb11In2Hg7Pt4
_chemical_formula_sum   'Tb11 In2 Hg7 Pt4'
_cell_volume   596.17487667
_cell_formula_units_Z   1
loop_
 _symmetry_equiv_pos_site_id
 _symmetry_equiv_pos_as_xyz
  1  'x, y, z'
loop_
 _atom_site_type_symbol
 _atom_site_label
 _atom_site_symmetry_multiplicity
 _atom_site_fract_x
 _atom_site_fract_y
 _atom_site_fract_z
 _atom_site_occupancy
  Tb  Tb0  1  0.416387  0.077960  0.000000  1
  Tb  Tb1  1  0.585605  0.922701  0.000000  1
  Tb  Tb2  1  0.078880  0.415693  0.000000  1
  Tb  Tb3  1  0.922350  0.579975  0.000000  1
  Tb  Tb4  1  0.164737  0.834127  0.000000  1
  Tb  Tb5  1  0.835136  0.166819  0.000000  1
  Tb  Tb6  1  0.370810  0.627907  0.000000  1
  Tb  Tb7  1  0.628964  0.371737  0.000000  1
  Tb  Tb8  1  0.302164  0.300870  0.000000  1
  Tb  Tb9  1  0.693235  0.695251  0.000000  1
  Tb  Tb10  1  0.002048  0.005429  0.000000  1
  In  In11  1  0.929964  0.786865  0.500000  1
  In  In12  1  0.499492  0.499118  0.500000  1
  Hg  Hg13  1  0.367292  0.847614  0.500000  1
  Hg  Hg14  1  0.633290  0.153679  0.500000  1
  Hg  Hg15  1  0.846044  0.365544  0.500000  1
  Hg  Hg16  1  0.153801  0.634170  0.500000  1
  Hg  Hg17  1  0.212416  0.065507  0.500000  1
  Hg  Hg18  1  0.789058  0.932367  0.500000  1
  Hg  Hg19  1  0.066325  0.214024  0.500000  1
  Pt  Pt20  1  0.449847  0.250143  0.500000  1
  Pt  Pt21  1  0.549026  0.749875  0.500000  1
  Pt  Pt22  1  0.250623  0.448437  0.500000  1
  Pt  Pt23  1  0.752506  0.554187  0.500000  1
