# generated using pymatgen
data_Pm2Te2WO12
_symmetry_space_group_name_H-M   'P 1'
_cell_length_a   6.88858240
_cell_length_b   6.88858238
_cell_length_c   12.21325035
_cell_angle_alpha   76.30318131
_cell_angle_beta   76.30317668
_cell_angle_gamma   110.05741272
_symmetry_Int_Tables_number   1
_chemical_formula_structural   Pm2Te2WO12
_chemical_formula_sum   'Pm4 Te4 W2 O24'
_cell_volume   495.77327350
_cell_formula_units_Z   2
loop_
 _symmetry_equiv_pos_site_id
 _symmetry_equiv_pos_as_xyz
  1  'x, y, z'
loop_
 _atom_site_type_symbol
 _atom_site_label
 _atom_site_symmetry_multiplicity
 _atom_site_fract_x
 _atom_site_fract_y
 _atom_site_fract_z
 _atom_site_occupancy
  Pm  Pm0  1  0.189071  0.436314  0.593263  1
  Pm  Pm1  1  0.810929  0.563686  0.406737  1
  Pm  Pm2  1  0.563686  0.810929  0.906737  1
  Pm  Pm3  1  0.436314  0.189071  0.093263  1
  Te  Te4  1  0.021989  0.306668  0.949723  1
  Te  Te5  1  0.978011  0.693332  0.050277  1
  Te  Te6  1  0.693332  0.978011  0.550277  1
  Te  Te7  1  0.306668  0.021989  0.449723  1
  W  W8  1  0.592494  0.407506  0.750000  1
  W  W9  1  0.407506  0.592494  0.250000  1
  O  O10  1  0.543313  0.470988  0.602273  1
  O  O11  1  0.456687  0.529012  0.397727  1
  O  O12  1  0.529012  0.456687  0.897727  1
  O  O13  1  0.470988  0.543313  0.102273  1
  O  O14  1  0.501018  0.113050  0.797079  1
  O  O15  1  0.498982  0.886950  0.202921  1
  O  O16  1  0.886950  0.498982  0.702921  1
  O  O17  1  0.113050  0.501018  0.297079  1
  O  O18  1  0.740972  0.157030  0.946445  1
  O  O19  1  0.259028  0.842970  0.053555  1
  O  O20  1  0.842970  0.259028  0.553555  1
  O  O21  1  0.157030  0.740972  0.446445  1
  O  O22  1  0.379287  0.824663  0.583541  1
  O  O23  1  0.620713  0.175337  0.416459  1
  O  O24  1  0.175337  0.620713  0.916459  1
  O  O25  1  0.824663  0.379287  0.083541  1
  O  O26  1  0.200424  0.334195  0.797431  1
  O  O27  1  0.799576  0.665805  0.202569  1
  O  O28  1  0.665805  0.799576  0.702569  1
  O  O29  1  0.334195  0.200424  0.297431  1
  O  O30  1  0.905646  0.848520  0.935135  1
  O  O31  1  0.094354  0.151480  0.064865  1
  O  O32  1  0.151480  0.094354  0.564865  1
  O  O33  1  0.848520  0.905646  0.435135  1
