# generated using pymatgen
data_Ho3Tm13(InPd)4
_symmetry_space_group_name_H-M   'P 1'
_cell_length_a   9.61028338
_cell_length_b   9.60588562
_cell_length_c   9.62210400
_cell_angle_alpha   59.97439495
_cell_angle_beta   59.92905109
_cell_angle_gamma   59.86542156
_symmetry_Int_Tables_number   1
_chemical_formula_structural   Ho3Tm13(InPd)4
_chemical_formula_sum   'Ho3 Tm13 In4 Pd4'
_cell_volume   627.00096623
_cell_formula_units_Z   1
loop_
 _symmetry_equiv_pos_site_id
 _symmetry_equiv_pos_as_xyz
  1  'x, y, z'
loop_
 _atom_site_type_symbol
 _atom_site_label
 _atom_site_symmetry_multiplicity
 _atom_site_fract_x
 _atom_site_fract_y
 _atom_site_fract_z
 _atom_site_occupancy
  Ho  Ho0  1  0.062930  0.063034  0.437041  1
  Ho  Ho1  1  0.434807  0.065766  0.434732  1
  Ho  Ho2  1  0.063642  0.436434  0.063663  1
  Tm  Tm3  1  0.059910  0.647661  0.647883  1
  Tm  Tm4  1  0.435739  0.435800  0.064930  1
  Tm  Tm5  1  0.647539  0.059707  0.647346  1
  Tm  Tm6  1  0.190566  0.808340  0.190201  1
  Tm  Tm7  1  0.190319  0.190149  0.808892  1
  Tm  Tm8  1  0.811446  0.811455  0.187592  1
  Tm  Tm9  1  0.438587  0.062012  0.061576  1
  Tm  Tm10  1  0.808595  0.190362  0.190346  1
  Tm  Tm11  1  0.064124  0.436704  0.436207  1
  Tm  Tm12  1  0.810879  0.187879  0.811777  1
  Tm  Tm13  1  0.187352  0.810850  0.811814  1
  Tm  Tm14  1  0.647990  0.647603  0.059484  1
  Tm  Tm15  1  0.647336  0.648491  0.647807  1
  In  In16  1  0.415493  0.415251  0.415062  1
  In  In17  1  0.748870  0.417525  0.416838  1
  In  In18  1  0.417307  0.748702  0.415995  1
  In  In19  1  0.416600  0.416197  0.750452  1
  Pd  Pd20  1  0.857110  0.855952  0.431403  1
  Pd  Pd21  1  0.854691  0.856248  0.855764  1
  Pd  Pd22  1  0.431696  0.856270  0.857008  1
  Pd  Pd23  1  0.856473  0.431607  0.856190  1
