# generated using pymatgen
data_Hf2Co5NiP4
_symmetry_space_group_name_H-M   'P 1'
_cell_length_a   3.61195100
_cell_length_b   10.30428200
_cell_length_c   11.88167100
_cell_angle_alpha   90.00000000
_cell_angle_beta   90.00000000
_cell_angle_gamma   90.00000000
_symmetry_Int_Tables_number   1
_chemical_formula_structural   Hf2Co5NiP4
_chemical_formula_sum   'Hf6 Co15 Ni3 P12'
_cell_volume   442.21870491
_cell_formula_units_Z   3
loop_
 _symmetry_equiv_pos_site_id
 _symmetry_equiv_pos_as_xyz
  1  'x, y, z'
loop_
 _atom_site_type_symbol
 _atom_site_label
 _atom_site_symmetry_multiplicity
 _atom_site_fract_x
 _atom_site_fract_y
 _atom_site_fract_z
 _atom_site_occupancy
  Hf  Hf0  1  0.000000  0.500000  0.524146  1
  Hf  Hf1  1  0.500000  0.000000  0.473435  1
  Hf  Hf2  1  0.500000  0.821418  0.207931  1
  Hf  Hf3  1  0.500000  0.178582  0.207931  1
  Hf  Hf4  1  0.000000  0.680284  0.793388  1
  Hf  Hf5  1  0.000000  0.319716  0.793388  1
  Co  Co6  1  0.000000  0.000000  0.297489  1
  Co  Co7  1  0.000000  0.500000  0.987318  1
  Co  Co8  1  0.500000  0.000000  0.013204  1
  Co  Co9  1  0.500000  0.332417  0.994909  1
  Co  Co10  1  0.500000  0.667583  0.994909  1
  Co  Co11  1  0.000000  0.167182  0.005066  1
  Co  Co12  1  0.000000  0.832818  0.005066  1
  Co  Co13  1  0.500000  0.300388  0.432909  1
  Co  Co14  1  0.500000  0.699612  0.432909  1
  Co  Co15  1  0.000000  0.200122  0.567187  1
  Co  Co16  1  0.000000  0.799878  0.567187  1
  Co  Co17  1  0.500000  0.873505  0.707613  1
  Co  Co18  1  0.500000  0.126495  0.707613  1
  Co  Co19  1  0.000000  0.626402  0.292697  1
  Co  Co20  1  0.000000  0.373598  0.292697  1
  Ni  Ni21  1  0.500000  0.500000  0.163106  1
  Ni  Ni22  1  0.000000  0.000000  0.835873  1
  Ni  Ni23  1  0.500000  0.500000  0.702373  1
  P  P24  1  0.500000  0.500000  0.880493  1
  P  P25  1  0.000000  0.000000  0.121015  1
  P  P26  1  0.500000  0.500000  0.351296  1
  P  P27  1  0.000000  0.000000  0.647414  1
  P  P28  1  0.500000  0.316176  0.616672  1
  P  P29  1  0.500000  0.683824  0.616672  1
  P  P30  1  0.000000  0.182578  0.382422  1
  P  P31  1  0.000000  0.817422  0.382422  1
  P  P32  1  0.500000  0.843562  0.889656  1
  P  P33  1  0.500000  0.156438  0.889656  1
  P  P34  1  0.000000  0.656983  0.110967  1
  P  P35  1  0.000000  0.343017  0.110967  1
