# generated using pymatgen
data_Y4Ho6Si6O
_symmetry_space_group_name_H-M   'P 1'
_cell_length_a   8.39609975
_cell_length_b   8.39389844
_cell_length_c   6.26409057
_cell_angle_alpha   90.02435279
_cell_angle_beta   89.95130717
_cell_angle_gamma   120.00867164
_symmetry_Int_Tables_number   1
_chemical_formula_structural   Y4Ho6Si6O
_chemical_formula_sum   'Y4 Ho6 Si6 O1'
_cell_volume   382.28904015
_cell_formula_units_Z   1
loop_
 _symmetry_equiv_pos_site_id
 _symmetry_equiv_pos_as_xyz
  1  'x, y, z'
loop_
 _atom_site_type_symbol
 _atom_site_label
 _atom_site_symmetry_multiplicity
 _atom_site_fract_x
 _atom_site_fract_y
 _atom_site_fract_z
 _atom_site_occupancy
  Y  Y0  1  0.763181  0.000000  0.258135  1
  Y  Y1  1  0.000251  0.237297  0.741795  1
  Y  Y2  1  0.762954  0.762703  0.741795  1
  Y  Y3  1  0.236994  0.000000  0.741984  1
  Ho  Ho4  1  0.333029  0.666426  0.499859  1
  Ho  Ho5  1  0.666604  0.333574  0.499859  1
  Ho  Ho6  1  0.666640  0.333604  0.000229  1
  Ho  Ho7  1  0.333036  0.666396  0.000229  1
  Ho  Ho8  1  0.000094  0.764173  0.260030  1
  Ho  Ho9  1  0.235920  0.235827  0.260030  1
  Si  Si10  1  0.000477  0.398083  0.249235  1
  Si  Si11  1  0.602394  0.601917  0.249235  1
  Si  Si12  1  0.396597  0.000000  0.249364  1
  Si  Si13  1  0.999964  0.602324  0.750668  1
  Si  Si14  1  0.397640  0.397676  0.750668  1
  Si  Si15  1  0.602311  0.000000  0.750701  1
  O  O16  1  0.001913  0.000000  0.496183  1
