# generated using pymatgen
data_Yb2Pr8Sn5Bi3
_symmetry_space_group_name_H-M   'P 1'
_cell_length_a   8.39707500
_cell_length_b   8.46378928
_cell_length_c   16.28565510
_cell_angle_alpha   90.12781224
_cell_angle_beta   90.00000000
_cell_angle_gamma   90.00000000
_symmetry_Int_Tables_number   1
_chemical_formula_structural   Yb2Pr8Sn5Bi3
_chemical_formula_sum   'Yb4 Pr16 Sn10 Bi6'
_cell_volume   1157.43610868
_cell_formula_units_Z   2
loop_
 _symmetry_equiv_pos_site_id
 _symmetry_equiv_pos_as_xyz
  1  'x, y, z'
loop_
 _atom_site_type_symbol
 _atom_site_label
 _atom_site_symmetry_multiplicity
 _atom_site_fract_x
 _atom_site_fract_y
 _atom_site_fract_z
 _atom_site_occupancy
  Yb  Yb0  1  0.790044  0.499037  0.750057  1
  Yb  Yb1  1  0.290044  0.000963  0.749943  1
  Yb  Yb2  1  0.209021  0.501422  0.251869  1
  Yb  Yb3  1  0.709021  0.998578  0.248131  1
  Pr  Pr4  1  0.619465  0.161906  0.621602  1
  Pr  Pr5  1  0.119465  0.338094  0.878398  1
  Pr  Pr6  1  0.386373  0.838538  0.121206  1
  Pr  Pr7  1  0.886373  0.661462  0.378794  1
  Pr  Pr8  1  0.379858  0.833592  0.379125  1
  Pr  Pr9  1  0.879858  0.666408  0.120875  1
  Pr  Pr10  1  0.621194  0.158996  0.879418  1
  Pr  Pr11  1  0.121194  0.341004  0.620582  1
  Pr  Pr12  1  0.461835  0.675302  0.605606  1
  Pr  Pr13  1  0.961835  0.824698  0.894394  1
  Pr  Pr14  1  0.534177  0.316653  0.106974  1
  Pr  Pr15  1  0.034177  0.183347  0.393026  1
  Pr  Pr16  1  0.526898  0.324128  0.394468  1
  Pr  Pr17  1  0.026898  0.175872  0.105532  1
  Pr  Pr18  1  0.469475  0.681620  0.894314  1
  Pr  Pr19  1  0.969475  0.818380  0.605686  1
  Sn  Sn20  1  0.722269  0.969025  0.041986  1
  Sn  Sn21  1  0.222269  0.530975  0.458014  1
  Sn  Sn22  1  0.421964  0.383504  0.751050  1
  Sn  Sn23  1  0.921964  0.116496  0.748950  1
  Sn  Sn24  1  0.580139  0.615784  0.250206  1
  Sn  Sn25  1  0.080139  0.884216  0.249794  1
  Sn  Sn26  1  0.667194  0.857500  0.748863  1
  Sn  Sn27  1  0.167194  0.642500  0.751137  1
  Sn  Sn28  1  0.330232  0.140197  0.250102  1
  Sn  Sn29  1  0.830232  0.359803  0.249898  1
  Bi  Bi30  1  0.724647  0.971220  0.457098  1
  Bi  Bi31  1  0.224647  0.528780  0.042902  1
  Bi  Bi32  1  0.277414  0.029769  0.957876  1
  Bi  Bi33  1  0.777414  0.470231  0.542124  1
  Bi  Bi34  1  0.277801  0.030566  0.542359  1
  Bi  Bi35  1  0.777801  0.469434  0.957641  1
