# generated using pymatgen
data_TmNpRh6
_symmetry_space_group_name_H-M   'P 1'
_cell_length_a   5.68866300
_cell_length_b   5.68866200
_cell_length_c   9.17928600
_cell_angle_alpha   90.00000000
_cell_angle_beta   90.00000000
_cell_angle_gamma   120.00104354
_symmetry_Int_Tables_number   1
_chemical_formula_structural   TmNpRh6
_chemical_formula_sum   'Tm2 Np2 Rh12'
_cell_volume   257.24995247
_cell_formula_units_Z   2
loop_
 _symmetry_equiv_pos_site_id
 _symmetry_equiv_pos_as_xyz
  1  'x, y, z'
loop_
 _atom_site_type_symbol
 _atom_site_label
 _atom_site_symmetry_multiplicity
 _atom_site_fract_x
 _atom_site_fract_y
 _atom_site_fract_z
 _atom_site_occupancy
  Tm  Tm0  1  0.666690  0.333310  0.750000  1
  Tm  Tm1  1  0.333310  0.666690  0.250000  1
  Np  Np2  1  0.000000  0.000000  0.500000  1
  Np  Np3  1  0.000000  0.000000  0.000000  1
  Rh  Rh4  1  0.500000  0.000000  0.500000  1
  Rh  Rh5  1  0.500000  0.500000  0.500000  1
  Rh  Rh6  1  0.000000  0.500000  0.500000  1
  Rh  Rh7  1  0.500000  0.000000  0.000000  1
  Rh  Rh8  1  0.500000  0.500000  0.000000  1
  Rh  Rh9  1  0.000000  0.500000  0.000000  1
  Rh  Rh10  1  0.167217  0.832783  0.750000  1
  Rh  Rh11  1  0.665966  0.832958  0.750000  1
  Rh  Rh12  1  0.167042  0.334034  0.750000  1
  Rh  Rh13  1  0.832783  0.167217  0.250000  1
  Rh  Rh14  1  0.334034  0.167042  0.250000  1
  Rh  Rh15  1  0.832958  0.665966  0.250000  1
