# generated using pymatgen
data_Ba2Sr2TaNb3O14
_symmetry_space_group_name_H-M   'P 1'
_cell_length_a   4.05471725
_cell_length_b   7.94192252
_cell_length_c   11.15027306
_cell_angle_alpha   110.80442155
_cell_angle_beta   100.47587754
_cell_angle_gamma   90.00000359
_symmetry_Int_Tables_number   1
_chemical_formula_structural   Ba2Sr2TaNb3O14
_chemical_formula_sum   'Ba2 Sr2 Ta1 Nb3 O14'
_cell_volume   329.24194823
_cell_formula_units_Z   1
loop_
 _symmetry_equiv_pos_site_id
 _symmetry_equiv_pos_as_xyz
  1  'x, y, z'
loop_
 _atom_site_type_symbol
 _atom_site_label
 _atom_site_symmetry_multiplicity
 _atom_site_fract_x
 _atom_site_fract_y
 _atom_site_fract_z
 _atom_site_occupancy
  Ba  Ba0  1  0.739367  0.241214  0.478731  1
  Ba  Ba1  1  0.261907  0.759441  0.523815  1
  Sr  Sr2  1  0.499906  0.000698  0.999810  1
  Sr  Sr3  1  0.499972  0.499488  0.999942  1
  Ta  Ta4  1  0.897434  0.650209  0.794865  1
  Nb  Nb5  1  0.103382  0.351658  0.206764  1
  Nb  Nb6  1  0.103781  0.856048  0.207562  1
  Nb  Nb7  1  0.896316  0.145799  0.792629  1
  O  O8  1  0.000047  0.291416  0.000094  1
  O  O9  1  0.998849  0.707220  0.997698  1
  O  O10  1  0.078720  0.078422  0.157440  1
  O  O11  1  0.593067  0.339526  0.186131  1
  O  O12  1  0.592712  0.845964  0.185421  1
  O  O13  1  0.115520  0.615606  0.231039  1
  O  O14  1  0.193582  0.393004  0.387164  1
  O  O15  1  0.193566  0.993664  0.387132  1
  O  O16  1  0.806329  0.007016  0.612655  1
  O  O17  1  0.806741  0.605840  0.613480  1
  O  O18  1  0.884583  0.385521  0.769163  1
  O  O19  1  0.406984  0.153229  0.813967  1
  O  O20  1  0.406452  0.659538  0.812905  1
  O  O21  1  0.920797  0.919479  0.841591  1
