# generated using pymatgen
data_Hf2Ta5H16
_symmetry_space_group_name_H-M   'P 1'
_cell_length_a   6.45290067
_cell_length_b   6.39943314
_cell_length_c   6.45290200
_cell_angle_alpha   60.27370899
_cell_angle_beta   59.45258181
_cell_angle_gamma   60.27371318
_symmetry_Int_Tables_number   1
_chemical_formula_structural   Hf2Ta5H16
_chemical_formula_sum   'Hf2 Ta5 H16'
_cell_volume   188.39849335
_cell_formula_units_Z   1
loop_
 _symmetry_equiv_pos_site_id
 _symmetry_equiv_pos_as_xyz
  1  'x, y, z'
loop_
 _atom_site_type_symbol
 _atom_site_label
 _atom_site_symmetry_multiplicity
 _atom_site_fract_x
 _atom_site_fract_y
 _atom_site_fract_z
 _atom_site_occupancy
  Hf  Hf0  1  0.500000  0.000000  0.500000  1
  Hf  Hf1  1  0.000000  0.500000  0.000000  1
  Ta  Ta2  1  0.000000  0.000000  0.500000  1
  Ta  Ta3  1  0.000000  0.500000  0.500000  1
  Ta  Ta4  1  0.500000  0.500000  0.000000  1
  Ta  Ta5  1  0.500000  0.000000  0.000000  1
  Ta  Ta6  1  0.000000  0.000000  0.000000  1
  H  H7  1  0.883658  0.872016  0.372308  1
  H  H8  1  0.872016  0.372308  0.872016  1
  H  H9  1  0.372308  0.872016  0.883658  1
  H  H10  1  0.872016  0.883658  0.872016  1
  H  H11  1  0.116342  0.127984  0.627692  1
  H  H12  1  0.127984  0.627692  0.127984  1
  H  H13  1  0.627692  0.127984  0.116342  1
  H  H14  1  0.127984  0.116342  0.127984  1
  H  H15  1  0.609667  0.627023  0.136286  1
  H  H16  1  0.627023  0.136286  0.627023  1
  H  H17  1  0.136286  0.627023  0.609667  1
  H  H18  1  0.627023  0.609667  0.627023  1
  H  H19  1  0.390333  0.372977  0.863714  1
  H  H20  1  0.372977  0.863714  0.372977  1
  H  H21  1  0.863714  0.372977  0.390333  1
  H  H22  1  0.372977  0.390333  0.372977  1
