# generated using pymatgen
data_Li4TaMn3Pt8
_symmetry_space_group_name_H-M   'P 1'
_cell_length_a   5.76289700
_cell_length_b   7.03264600
_cell_length_c   5.74953800
_cell_angle_alpha   90.00000000
_cell_angle_beta   90.00000000
_cell_angle_gamma   90.00000000
_symmetry_Int_Tables_number   1
_chemical_formula_structural   Li4TaMn3Pt8
_chemical_formula_sum   'Li4 Ta1 Mn3 Pt8'
_cell_volume   233.01965945
_cell_formula_units_Z   1
loop_
 _symmetry_equiv_pos_site_id
 _symmetry_equiv_pos_as_xyz
  1  'x, y, z'
loop_
 _atom_site_type_symbol
 _atom_site_label
 _atom_site_symmetry_multiplicity
 _atom_site_fract_x
 _atom_site_fract_y
 _atom_site_fract_z
 _atom_site_occupancy
  Li  Li0  1  0.750008  0.250000  0.000002  1
  Li  Li1  1  0.250002  0.750001  0.999996  1
  Li  Li2  1  0.250002  0.750001  0.499994  1
  Li  Li3  1  0.750009  0.250000  0.500005  1
  Ta  Ta4  1  0.250000  0.250000  0.999997  1
  Mn  Mn5  1  0.749960  0.750001  0.999998  1
  Mn  Mn6  1  0.749993  0.750001  0.500012  1
  Mn  Mn7  1  0.250002  0.250000  0.499993  1
  Pt  Pt8  1  0.998246  0.000592  0.251074  1
  Pt  Pt9  1  0.998246  0.499412  0.251074  1
  Pt  Pt10  1  0.501754  0.000594  0.251079  1
  Pt  Pt11  1  0.501754  0.499403  0.251079  1
  Pt  Pt12  1  0.501756  0.000601  0.748923  1
  Pt  Pt13  1  0.501756  0.499403  0.748923  1
  Pt  Pt14  1  0.998255  0.000588  0.748926  1
  Pt  Pt15  1  0.998255  0.499407  0.748926  1
