# generated using pymatgen
data_Zr4ZnCdNi4
_symmetry_space_group_name_H-M   'P 1'
_cell_length_a   7.15971600
_cell_length_b   7.15971600
_cell_length_c   3.30641500
_cell_angle_alpha   90.00000000
_cell_angle_beta   90.00000000
_cell_angle_gamma   90.00000000
_symmetry_Int_Tables_number   1
_chemical_formula_structural   Zr4ZnCdNi4
_chemical_formula_sum   'Zr4 Zn1 Cd1 Ni4'
_cell_volume   169.49190230
_cell_formula_units_Z   1
loop_
 _symmetry_equiv_pos_site_id
 _symmetry_equiv_pos_as_xyz
  1  'x, y, z'
loop_
 _atom_site_type_symbol
 _atom_site_label
 _atom_site_symmetry_multiplicity
 _atom_site_fract_x
 _atom_site_fract_y
 _atom_site_fract_z
 _atom_site_occupancy
  Zr  Zr0  1  0.313461  0.156787  0.499999  1
  Zr  Zr1  1  0.843214  0.313461  0.499999  1
  Zr  Zr2  1  0.156787  0.686540  0.499999  1
  Zr  Zr3  1  0.686540  0.843214  0.499999  1
  Zn  Zn4  1  0.000000  0.000000  0.000000  1
  Cd  Cd5  1  0.500000  0.500000  0.000000  1
  Ni  Ni6  1  0.622323  0.126756  0.000000  1
  Ni  Ni7  1  0.126756  0.377678  0.000000  1
  Ni  Ni8  1  0.873244  0.622323  0.000000  1
  Ni  Ni9  1  0.377678  0.873244  0.000000  1
