# generated using pymatgen
data_Eu3Mg2AgPt3
_symmetry_space_group_name_H-M   'P 1'
_cell_length_a   7.57094400
_cell_length_b   7.44049143
_cell_length_c   4.23301800
_cell_angle_alpha   90.00000000
_cell_angle_beta   90.00000000
_cell_angle_gamma   120.58168585
_symmetry_Int_Tables_number   1
_chemical_formula_structural   Eu3Mg2AgPt3
_chemical_formula_sum   'Eu3 Mg2 Ag1 Pt3'
_cell_volume   205.28482454
_cell_formula_units_Z   1
loop_
 _symmetry_equiv_pos_site_id
 _symmetry_equiv_pos_as_xyz
  1  'x, y, z'
loop_
 _atom_site_type_symbol
 _atom_site_label
 _atom_site_symmetry_multiplicity
 _atom_site_fract_x
 _atom_site_fract_y
 _atom_site_fract_z
 _atom_site_occupancy
  Eu  Eu0  1  0.423420  0.000000  0.500001  1
  Eu  Eu1  1  0.990199  0.401286  0.500001  1
  Eu  Eu2  1  0.588913  0.598715  0.500001  1
  Mg  Mg3  1  0.239734  0.240887  0.000000  1
  Mg  Mg4  1  0.998849  0.759114  0.000000  1
  Ag  Ag5  1  0.759948  0.000000  0.000000  1
  Pt  Pt6  1  0.660687  0.345039  0.000000  1
  Pt  Pt7  1  0.315649  0.654962  0.000000  1
  Pt  Pt8  1  0.022601  0.000000  0.500001  1
