# generated using pymatgen
data_BaCeIn2Pt3
_symmetry_space_group_name_H-M   'P 1'
_cell_length_a   4.40775000
_cell_length_b   8.30608400
_cell_length_c   9.20267600
_cell_angle_alpha   90.00000000
_cell_angle_beta   90.00000000
_cell_angle_gamma   90.00000000
_symmetry_Int_Tables_number   1
_chemical_formula_structural   BaCeIn2Pt3
_chemical_formula_sum   'Ba2 Ce2 In4 Pt6'
_cell_volume   336.92047552
_cell_formula_units_Z   2
loop_
 _symmetry_equiv_pos_site_id
 _symmetry_equiv_pos_as_xyz
  1  'x, y, z'
loop_
 _atom_site_type_symbol
 _atom_site_label
 _atom_site_symmetry_multiplicity
 _atom_site_fract_x
 _atom_site_fract_y
 _atom_site_fract_z
 _atom_site_occupancy
  Ba  Ba0  1  0.500000  0.000000  0.727974  1
  Ba  Ba1  1  0.000000  0.500000  0.272026  1
  Ce  Ce2  1  0.000000  0.000000  0.349998  1
  Ce  Ce3  1  0.500000  0.500000  0.650002  1
  In  In4  1  0.000000  0.305391  0.890884  1
  In  In5  1  0.500000  0.194609  0.109116  1
  In  In6  1  0.000000  0.694609  0.890884  1
  In  In7  1  0.500000  0.805391  0.109116  1
  Pt  Pt8  1  0.000000  0.728298  0.592439  1
  Pt  Pt9  1  0.500000  0.771702  0.407561  1
  Pt  Pt10  1  0.500000  0.500000  0.970019  1
  Pt  Pt11  1  0.000000  0.000000  0.029981  1
  Pt  Pt12  1  0.500000  0.228298  0.407561  1
  Pt  Pt13  1  0.000000  0.271702  0.592439  1
