# generated using pymatgen
data_CaSm3Ni4(SnH)4
_symmetry_space_group_name_H-M   'P 1'
_cell_length_a   4.33292200
_cell_length_b   7.18358131
_cell_length_c   8.36470811
_cell_angle_alpha   90.31674446
_cell_angle_beta   90.00000000
_cell_angle_gamma   90.00000000
_symmetry_Int_Tables_number   1
_chemical_formula_structural   CaSm3Ni4(SnH)4
_chemical_formula_sum   'Ca1 Sm3 Ni4 Sn4 H4'
_cell_volume   260.35506875
_cell_formula_units_Z   1
loop_
 _symmetry_equiv_pos_site_id
 _symmetry_equiv_pos_as_xyz
  1  'x, y, z'
loop_
 _atom_site_type_symbol
 _atom_site_label
 _atom_site_symmetry_multiplicity
 _atom_site_fract_x
 _atom_site_fract_y
 _atom_site_fract_z
 _atom_site_occupancy
  Ca  Ca0  1  0.750000  0.014628  0.685686  1
  Sm  Sm1  1  0.250000  0.986886  0.316019  1
  Sm  Sm2  1  0.250000  0.486007  0.187350  1
  Sm  Sm3  1  0.750000  0.513276  0.811236  1
  Ni  Ni4  1  0.750000  0.774585  0.106770  1
  Ni  Ni5  1  0.250000  0.226224  0.899272  1
  Ni  Ni6  1  0.250000  0.721034  0.604819  1
  Ni  Ni7  1  0.750000  0.277614  0.390916  1
  Sn  Sn8  1  0.750000  0.655566  0.431472  1
  Sn  Sn9  1  0.250000  0.344847  0.567922  1
  Sn  Sn10  1  0.250000  0.845410  0.930631  1
  Sn  Sn11  1  0.750000  0.154017  0.068569  1
  H  H12  1  0.250000  0.446191  0.919373  1
  H  H13  1  0.750000  0.555474  0.079834  1
  H  H14  1  0.750000  0.059465  0.419118  1
  H  H15  1  0.250000  0.938775  0.581013  1
