# generated using pymatgen
data_Ta5Nb(V3Ga5)2
_symmetry_space_group_name_H-M   'P 1'
_cell_length_a   8.70754706
_cell_length_b   8.70754767
_cell_length_c   5.24793600
_cell_angle_alpha   90.00000000
_cell_angle_beta   90.00000000
_cell_angle_gamma   119.96411097
_symmetry_Int_Tables_number   1
_chemical_formula_structural   Ta5Nb(V3Ga5)2
_chemical_formula_sum   'Ta5 Nb1 V6 Ga10'
_cell_volume   344.72104565
_cell_formula_units_Z   1
loop_
 _symmetry_equiv_pos_site_id
 _symmetry_equiv_pos_as_xyz
  1  'x, y, z'
loop_
 _atom_site_type_symbol
 _atom_site_label
 _atom_site_symmetry_multiplicity
 _atom_site_fract_x
 _atom_site_fract_y
 _atom_site_fract_z
 _atom_site_occupancy
  Ta  Ta0  1  0.153288  0.307072  0.250000  1
  Ta  Ta1  1  0.692928  0.846712  0.250000  1
  Ta  Ta2  1  0.846590  0.153410  0.750000  1
  Ta  Ta3  1  0.842989  0.690937  0.750000  1
  Ta  Ta4  1  0.309063  0.157011  0.750000  1
  Nb  Nb5  1  0.153902  0.846098  0.250000  1
  V  V6  1  0.500067  0.499933  0.500305  1
  V  V7  1  0.500732  0.000270  0.500265  1
  V  V8  1  0.999730  0.499268  0.500265  1
  V  V9  1  0.500067  0.499933  0.999695  1
  V  V10  1  0.500732  0.000270  0.999735  1
  V  V11  1  0.999730  0.499268  0.999735  1
  Ga  Ga12  1  0.000672  0.999328  0.500809  1
  Ga  Ga13  1  0.000672  0.999328  0.999191  1
  Ga  Ga14  1  0.333749  0.666251  0.250000  1
  Ga  Ga15  1  0.667050  0.332950  0.750000  1
  Ga  Ga16  1  0.785501  0.214499  0.250000  1
  Ga  Ga17  1  0.785569  0.571258  0.250000  1
  Ga  Ga18  1  0.428742  0.214431  0.250000  1
  Ga  Ga19  1  0.213117  0.786883  0.750000  1
  Ga  Ga20  1  0.214951  0.429841  0.750000  1
  Ga  Ga21  1  0.570159  0.785049  0.750000  1
