# generated using pymatgen
data_Tb3Tl2InAg2Rh
_symmetry_space_group_name_H-M   'P 1'
_cell_length_a   8.04996714
_cell_length_b   8.11631021
_cell_length_c   3.74171800
_cell_angle_alpha   90.00000000
_cell_angle_beta   90.00000000
_cell_angle_gamma   119.78900334
_symmetry_Int_Tables_number   1
_chemical_formula_structural   Tb3Tl2InAg2Rh
_chemical_formula_sum   'Tb3 Tl2 In1 Ag2 Rh1'
_cell_volume   212.16506795
_cell_formula_units_Z   1
loop_
 _symmetry_equiv_pos_site_id
 _symmetry_equiv_pos_as_xyz
  1  'x, y, z'
loop_
 _atom_site_type_symbol
 _atom_site_label
 _atom_site_symmetry_multiplicity
 _atom_site_fract_x
 _atom_site_fract_y
 _atom_site_fract_z
 _atom_site_occupancy
  Tb  Tb0  1  0.965367  0.577196  0.500000  1
  Tb  Tb1  1  0.418145  0.387826  0.500000  1
  Tb  Tb2  1  0.613301  0.032482  0.500000  1
  Tl  Tl3  1  0.720549  0.727766  0.000000  1
  Tl  Tl4  1  0.013542  0.281427  0.000000  1
  In  In5  1  0.271127  0.993455  0.000000  1
  Ag  Ag6  1  0.331833  0.673291  0.000000  1
  Ag  Ag7  1  0.006396  0.998882  0.500000  1
  Rh  Rh8  1  0.659742  0.327673  0.000000  1
