# generated using pymatgen
data_NdEuMnSb4Pd
_symmetry_space_group_name_H-M   'P 1'
_cell_length_a   4.38671500
_cell_length_b   4.41494400
_cell_length_c   10.40515300
_cell_angle_alpha   90.00000000
_cell_angle_beta   90.00000000
_cell_angle_gamma   90.00000000
_symmetry_Int_Tables_number   1
_chemical_formula_structural   NdEuMnSb4Pd
_chemical_formula_sum   'Nd1 Eu1 Mn1 Sb4 Pd1'
_cell_volume   201.51764979
_cell_formula_units_Z   1
loop_
 _symmetry_equiv_pos_site_id
 _symmetry_equiv_pos_as_xyz
  1  'x, y, z'
loop_
 _atom_site_type_symbol
 _atom_site_label
 _atom_site_symmetry_multiplicity
 _atom_site_fract_x
 _atom_site_fract_y
 _atom_site_fract_z
 _atom_site_occupancy
  Nd  Nd0  1  0.000000  0.500000  0.742951  1
  Eu  Eu1  1  0.500000  0.000000  0.258891  1
  Mn  Mn2  1  0.000000  0.000000  0.000022  1
  Sb  Sb3  1  0.500000  0.000000  0.842236  1
  Sb  Sb4  1  0.000000  0.500000  0.152471  1
  Sb  Sb5  1  0.000000  0.000000  0.503907  1
  Sb  Sb6  1  0.500000  0.500000  0.502987  1
  Pd  Pd7  1  0.500000  0.500000  0.996535  1
