# generated using pymatgen
data_K3Li3(NbS4)2
_symmetry_space_group_name_H-M   'P 1'
_cell_length_a   12.74609915
_cell_length_b   12.74609911
_cell_length_c   14.09580756
_cell_angle_alpha   61.80787537
_cell_angle_beta   61.80787609
_cell_angle_gamma   27.29385882
_symmetry_Int_Tables_number   1
_chemical_formula_structural   K3Li3(NbS4)2
_chemical_formula_sum   'K6 Li6 Nb4 S16'
_cell_volume   917.66364207
_cell_formula_units_Z   2
loop_
 _symmetry_equiv_pos_site_id
 _symmetry_equiv_pos_as_xyz
  1  'x, y, z'
loop_
 _atom_site_type_symbol
 _atom_site_label
 _atom_site_symmetry_multiplicity
 _atom_site_fract_x
 _atom_site_fract_y
 _atom_site_fract_z
 _atom_site_occupancy
  K  K0  1  0.624297  0.769440  0.397003  1
  K  K1  1  0.000000  0.000000  0.000000  1
  K  K2  1  0.769440  0.624297  0.897003  1
  K  K3  1  0.000000  0.000000  0.500000  1
  K  K4  1  0.230560  0.375703  0.102997  1
  K  K5  1  0.375703  0.230560  0.602997  1
  Li  Li6  1  0.304083  0.695917  0.750000  1
  Li  Li7  1  0.334938  0.914904  0.212435  1
  Li  Li8  1  0.914904  0.334938  0.712435  1
  Li  Li9  1  0.085096  0.665062  0.287565  1
  Li  Li10  1  0.695917  0.304083  0.250000  1
  Li  Li11  1  0.665062  0.085096  0.787565  1
  Nb  Nb12  1  0.579717  0.163254  0.278406  1
  Nb  Nb13  1  0.163254  0.579717  0.778406  1
  Nb  Nb14  1  0.836746  0.420283  0.221594  1
  Nb  Nb15  1  0.420283  0.836746  0.721594  1
  S  S16  1  0.465517  0.437766  0.660152  1
  S  S17  1  0.202182  0.110596  0.813764  1
  S  S18  1  0.437766  0.465517  0.160152  1
  S  S19  1  0.797818  0.889404  0.186236  1
  S  S20  1  0.562234  0.534483  0.839848  1
  S  S21  1  0.310805  0.271858  0.885351  1
  S  S22  1  0.728142  0.689195  0.614649  1
  S  S23  1  0.271858  0.310805  0.385351  1
  S  S24  1  0.889404  0.797818  0.686236  1
  S  S25  1  0.179514  0.008353  0.624566  1
  S  S26  1  0.689195  0.728142  0.114649  1
  S  S27  1  0.534483  0.562234  0.339848  1
  S  S28  1  0.991647  0.820486  0.875434  1
  S  S29  1  0.110596  0.202182  0.313764  1
  S  S30  1  0.820486  0.991647  0.375434  1
  S  S31  1  0.008353  0.179514  0.124566  1
