# generated using pymatgen
data_Ce2Al8FeCo
_symmetry_space_group_name_H-M   'P 1'
_cell_length_a   4.08030900
_cell_length_b   6.81197200
_cell_length_c   7.63362900
_cell_angle_alpha   90.00000000
_cell_angle_beta   90.00000000
_cell_angle_gamma   90.00000000
_symmetry_Int_Tables_number   1
_chemical_formula_structural   Ce2Al8FeCo
_chemical_formula_sum   'Ce2 Al8 Fe1 Co1'
_cell_volume   212.17634141
_cell_formula_units_Z   1
loop_
 _symmetry_equiv_pos_site_id
 _symmetry_equiv_pos_as_xyz
  1  'x, y, z'
loop_
 _atom_site_type_symbol
 _atom_site_label
 _atom_site_symmetry_multiplicity
 _atom_site_fract_x
 _atom_site_fract_y
 _atom_site_fract_z
 _atom_site_occupancy
  Ce  Ce0  1  0.000000  0.612891  0.750000  1
  Ce  Ce1  1  0.000000  0.383897  0.250000  1
  Al  Al2  1  0.500000  0.299827  0.569333  1
  Al  Al3  1  0.500000  0.697994  0.430838  1
  Al  Al4  1  0.500000  0.299827  0.930667  1
  Al  Al5  1  0.500000  0.697994  0.069162  1
  Al  Al6  1  0.000000  0.000267  0.000247  1
  Al  Al7  1  0.000000  0.000267  0.499753  1
  Al  Al8  1  0.500000  0.045235  0.250000  1
  Al  Al9  1  0.500000  0.958180  0.750000  1
  Fe  Fe10  1  0.000000  0.198855  0.750000  1
  Co  Co11  1  0.000000  0.804767  0.250000  1
