# generated using pymatgen
data_Pu2Hf2O7
_symmetry_space_group_name_H-M   'P 1'
_cell_length_a   7.52331979
_cell_length_b   7.52331983
_cell_length_c   7.52332000
_cell_angle_alpha   59.99999927
_cell_angle_beta   59.99999908
_cell_angle_gamma   60.00000211
_symmetry_Int_Tables_number   1
_chemical_formula_structural   Pu2Hf2O7
_chemical_formula_sum   'Pu4 Hf4 O14'
_cell_volume   301.10196247
_cell_formula_units_Z   2
loop_
 _symmetry_equiv_pos_site_id
 _symmetry_equiv_pos_as_xyz
  1  'x, y, z'
loop_
 _atom_site_type_symbol
 _atom_site_label
 _atom_site_symmetry_multiplicity
 _atom_site_fract_x
 _atom_site_fract_y
 _atom_site_fract_z
 _atom_site_occupancy
  Pu  Pu0  1  0.125000  0.125000  0.125000  1
  Pu  Pu1  1  0.125000  0.625000  0.125000  1
  Pu  Pu2  1  0.125000  0.125000  0.625000  1
  Pu  Pu3  1  0.625000  0.125000  0.125000  1
  Hf  Hf4  1  0.625000  0.125000  0.625000  1
  Hf  Hf5  1  0.625000  0.625000  0.125000  1
  Hf  Hf6  1  0.625000  0.625000  0.625000  1
  Hf  Hf7  1  0.125000  0.625000  0.625000  1
  O  O8  1  0.958989  0.541011  0.541011  1
  O  O9  1  0.291011  0.291011  0.708989  1
  O  O10  1  0.291011  0.708989  0.291011  1
  O  O11  1  0.958989  0.541011  0.958989  1
  O  O12  1  0.708989  0.291011  0.291011  1
  O  O13  1  0.708989  0.708989  0.291011  1
  O  O14  1  0.541011  0.958989  0.541011  1
  O  O15  1  0.708989  0.291011  0.708989  1
  O  O16  1  0.541011  0.541011  0.958989  1
  O  O17  1  0.000000  0.000000  0.000000  1
  O  O18  1  0.541011  0.958989  0.958989  1
  O  O19  1  0.291011  0.708989  0.708989  1
  O  O20  1  0.958989  0.958989  0.541011  1
  O  O21  1  0.250000  0.250000  0.250000  1
