# generated using pymatgen
data_Lu2V3Si4
_symmetry_space_group_name_H-M   'P 1'
_cell_length_a   6.60064800
_cell_length_b   6.79368200
_cell_length_c   12.77978800
_cell_angle_alpha   90.00000000
_cell_angle_beta   90.00000000
_cell_angle_gamma   90.00000000
_symmetry_Int_Tables_number   1
_chemical_formula_structural   Lu2V3Si4
_chemical_formula_sum   'Lu8 V12 Si16'
_cell_volume   573.08024415
_cell_formula_units_Z   4
loop_
 _symmetry_equiv_pos_site_id
 _symmetry_equiv_pos_as_xyz
  1  'x, y, z'
loop_
 _atom_site_type_symbol
 _atom_site_label
 _atom_site_symmetry_multiplicity
 _atom_site_fract_x
 _atom_site_fract_y
 _atom_site_fract_z
 _atom_site_occupancy
  Lu  Lu0  1  0.498685  0.330348  0.095381  1
  Lu  Lu1  1  0.998685  0.169652  0.404619  1
  Lu  Lu2  1  0.501315  0.669652  0.595381  1
  Lu  Lu3  1  0.001315  0.830348  0.904619  1
  Lu  Lu4  1  0.501315  0.669652  0.904619  1
  Lu  Lu5  1  0.001315  0.830348  0.595381  1
  Lu  Lu6  1  0.498685  0.330348  0.404619  1
  Lu  Lu7  1  0.998685  0.169652  0.095381  1
  V  V8  1  0.837524  0.326863  0.626092  1
  V  V9  1  0.337524  0.173137  0.873908  1
  V  V10  1  0.162476  0.673137  0.126092  1
  V  V11  1  0.662476  0.826863  0.373908  1
  V  V12  1  0.162476  0.673137  0.373908  1
  V  V13  1  0.662476  0.826863  0.126092  1
  V  V14  1  0.837524  0.326863  0.873908  1
  V  V15  1  0.337524  0.173137  0.626092  1
  V  V16  1  0.665465  0.013429  0.750000  1
  V  V17  1  0.165465  0.486571  0.750000  1
  V  V18  1  0.334535  0.986571  0.250000  1
  V  V19  1  0.834535  0.513429  0.250000  1
  Si  Si20  1  0.662343  0.041731  0.543254  1
  Si  Si21  1  0.162343  0.458269  0.956746  1
  Si  Si22  1  0.337657  0.958269  0.043254  1
  Si  Si23  1  0.837657  0.541731  0.456746  1
  Si  Si24  1  0.337657  0.958269  0.456746  1
  Si  Si25  1  0.837657  0.541731  0.043254  1
  Si  Si26  1  0.662343  0.041731  0.956746  1
  Si  Si27  1  0.162343  0.458269  0.543254  1
  Si  Si28  1  0.539845  0.368090  0.750000  1
  Si  Si29  1  0.039845  0.131910  0.750000  1
  Si  Si30  1  0.460155  0.631910  0.250000  1
  Si  Si31  1  0.960155  0.868090  0.250000  1
  Si  Si32  1  0.803784  0.621793  0.750000  1
  Si  Si33  1  0.303784  0.878207  0.750000  1
  Si  Si34  1  0.196216  0.378207  0.250000  1
  Si  Si35  1  0.696216  0.121793  0.250000  1
