# generated using pymatgen
data_Li(ThB8)3
_symmetry_space_group_name_H-M   'P 1'
_cell_length_a   7.14260090
_cell_length_b   7.14259963
_cell_length_c   5.79463300
_cell_angle_alpha   90.00000000
_cell_angle_beta   90.00000000
_cell_angle_gamma   109.62369407
_symmetry_Int_Tables_number   1
_chemical_formula_structural   Li(ThB8)3
_chemical_formula_sum   'Li1 Th3 B24'
_cell_volume   278.45307772
_cell_formula_units_Z   1
loop_
 _symmetry_equiv_pos_site_id
 _symmetry_equiv_pos_as_xyz
  1  'x, y, z'
loop_
 _atom_site_type_symbol
 _atom_site_label
 _atom_site_symmetry_multiplicity
 _atom_site_fract_x
 _atom_site_fract_y
 _atom_site_fract_z
 _atom_site_occupancy
  Li  Li0  1  0.000000  0.000000  0.000000  1
  Th  Th1  1  0.752332  0.247668  0.500000  1
  Th  Th2  1  0.500000  0.500000  0.000000  1
  Th  Th3  1  0.247668  0.752332  0.500000  1
  B  B4  1  0.174790  0.325040  0.651384  1
  B  B5  1  0.924742  0.574963  0.151736  1
  B  B6  1  0.674960  0.825210  0.651384  1
  B  B7  1  0.425037  0.075258  0.151736  1
  B  B8  1  0.174790  0.325040  0.348616  1
  B  B9  1  0.924742  0.574963  0.848264  1
  B  B10  1  0.674960  0.825210  0.348616  1
  B  B11  1  0.425037  0.075258  0.848264  1
  B  B12  1  0.401062  0.401062  0.500000  1
  B  B13  1  0.150591  0.650876  0.000000  1
  B  B14  1  0.900507  0.900507  0.500000  1
  B  B15  1  0.650876  0.150591  0.000000  1
  B  B16  1  0.325040  0.174790  0.651384  1
  B  B17  1  0.075258  0.425037  0.151736  1
  B  B18  1  0.825210  0.674960  0.651384  1
  B  B19  1  0.574963  0.924742  0.151736  1
  B  B20  1  0.099493  0.099493  0.500000  1
  B  B21  1  0.849409  0.349124  0.000000  1
  B  B22  1  0.598938  0.598938  0.500000  1
  B  B23  1  0.349124  0.849409  0.000000  1
  B  B24  1  0.325040  0.174790  0.348616  1
  B  B25  1  0.075258  0.425037  0.848264  1
  B  B26  1  0.825210  0.674960  0.348616  1
  B  B27  1  0.574963  0.924742  0.848264  1
