# generated using pymatgen
data_Dy3Th(Ga3Ir)6
_symmetry_space_group_name_H-M   'P 1'
_cell_length_a   7.59718913
_cell_length_b   7.61375774
_cell_length_c   9.48606000
_cell_angle_alpha   89.99416790
_cell_angle_beta   89.98958490
_cell_angle_gamma   119.61990007
_symmetry_Int_Tables_number   1
_chemical_formula_structural   Dy3Th(Ga3Ir)6
_chemical_formula_sum   'Dy3 Th1 Ga18 Ir6'
_cell_volume   477.00087061
_cell_formula_units_Z   1
loop_
 _symmetry_equiv_pos_site_id
 _symmetry_equiv_pos_as_xyz
  1  'x, y, z'
loop_
 _atom_site_type_symbol
 _atom_site_label
 _atom_site_symmetry_multiplicity
 _atom_site_fract_x
 _atom_site_fract_y
 _atom_site_fract_z
 _atom_site_occupancy
  Dy  Dy0  1  0.999764  0.329562  0.750155  1
  Dy  Dy1  1  0.673689  0.997584  0.250126  1
  Dy  Dy2  1  0.328580  0.000753  0.750145  1
  Th  Th3  1  0.997183  0.671211  0.250110  1
  Ga  Ga4  1  0.662028  0.666606  0.442365  1
  Ga  Ga5  1  0.662527  0.667094  0.057750  1
  Ga  Ga6  1  0.329604  0.329640  0.931391  1
  Ga  Ga7  1  0.132580  0.133995  0.249921  1
  Ga  Ga8  1  0.872039  0.875061  0.749920  1
  Ga  Ga9  1  0.000943  0.330401  0.078379  1
  Ga  Ga10  1  0.000037  0.664675  0.913497  1
  Ga  Ga11  1  0.000023  0.664447  0.587022  1
  Ga  Ga12  1  0.342006  0.005027  0.421757  1
  Ga  Ga13  1  0.000917  0.330170  0.421878  1
  Ga  Ga14  1  0.664640  0.001558  0.581595  1
  Ga  Ga15  1  0.664752  0.001661  0.918678  1
  Ga  Ga16  1  0.342105  0.005075  0.078504  1
  Ga  Ga17  1  0.329498  0.329437  0.568517  1
  Ga  Ga18  1  0.345637  0.549464  0.249976  1
  Ga  Ga19  1  0.657105  0.450479  0.749749  1
  Ga  Ga20  1  0.544148  0.338223  0.249979  1
  Ga  Ga21  1  0.450923  0.660870  0.749790  1
  Ir  Ir22  1  0.674030  0.331033  0.000336  1
  Ir  Ir23  1  0.325806  0.670794  0.000234  1
  Ir  Ir24  1  0.325832  0.670787  0.499546  1
  Ir  Ir25  1  0.674058  0.331009  0.499401  1
  Ir  Ir26  1  0.000149  0.997133  0.001166  1
  Ir  Ir27  1  0.999392  0.996252  0.498116  1
