# generated using pymatgen
data_Tb7Nd8Tm5Si16
_symmetry_space_group_name_H-M   'P 1'
_cell_length_a   7.76015918
_cell_length_b   7.75684859
_cell_length_c   14.36056277
_cell_angle_alpha   90.07336254
_cell_angle_beta   89.89649946
_cell_angle_gamma   89.99837902
_symmetry_Int_Tables_number   1
_chemical_formula_structural   Tb7Nd8Tm5Si16
_chemical_formula_sum   'Tb7 Nd8 Tm5 Si16'
_cell_volume   864.42305041
_cell_formula_units_Z   1
loop_
 _symmetry_equiv_pos_site_id
 _symmetry_equiv_pos_as_xyz
  1  'x, y, z'
loop_
 _atom_site_type_symbol
 _atom_site_label
 _atom_site_symmetry_multiplicity
 _atom_site_fract_x
 _atom_site_fract_y
 _atom_site_fract_z
 _atom_site_occupancy
  Tb  Tb0  1  0.491371  0.362909  0.125071  1
  Tb  Tb1  1  0.990824  0.137298  0.625197  1
  Tb  Tb2  1  0.863114  0.009571  0.875432  1
  Tb  Tb3  1  0.137170  0.990517  0.374113  1
  Tb  Tb4  1  0.509425  0.637133  0.624690  1
  Tb  Tb5  1  0.361979  0.491507  0.876308  1
  Tb  Tb6  1  0.637796  0.509532  0.374257  1
  Nd  Nd7  1  0.640919  0.992129  0.456803  1
  Nd  Nd8  1  0.358715  0.008387  0.958935  1
  Nd  Nd9  1  0.992562  0.640481  0.542590  1
  Nd  Nd10  1  0.491146  0.859311  0.207492  1
  Nd  Nd11  1  0.508121  0.140806  0.707611  1
  Nd  Nd12  1  0.859469  0.492652  0.793161  1
  Nd  Nd13  1  0.141218  0.507473  0.291560  1
  Nd  Nd14  1  0.007423  0.358535  0.042360  1
  Tm  Tm15  1  0.007761  0.862428  0.125046  1
  Tm  Tm16  1  0.316115  0.315658  0.499661  1
  Tm  Tm17  1  0.184367  0.815823  0.750490  1
  Tm  Tm18  1  0.816530  0.182901  0.249603  1
  Tm  Tm19  1  0.684143  0.684646  0.000163  1
  Si  Si20  1  0.290911  0.935437  0.561992  1
  Si  Si21  1  0.709986  0.063347  0.062988  1
  Si  Si22  1  0.935630  0.290479  0.437453  1
  Si  Si23  1  0.435387  0.208618  0.311758  1
  Si  Si24  1  0.564358  0.791315  0.812437  1
  Si  Si25  1  0.209288  0.435699  0.688296  1
  Si  Si26  1  0.791935  0.565747  0.186822  1
  Si  Si27  1  0.064102  0.711042  0.939613  1
  Si  Si28  1  0.798132  0.844613  0.691609  1
  Si  Si29  1  0.201315  0.152383  0.188804  1
  Si  Si30  1  0.845522  0.798406  0.306972  1
  Si  Si31  1  0.345055  0.701928  0.440593  1
  Si  Si32  1  0.655174  0.298450  0.941323  1
  Si  Si33  1  0.702306  0.344590  0.558396  1
  Si  Si34  1  0.295038  0.655890  0.061040  1
  Si  Si35  1  0.155695  0.202361  0.809357  1
