# generated using pymatgen
data_Pr2AsRhBr2
_symmetry_space_group_name_H-M   'P 1'
_cell_length_a   4.34629300
_cell_length_b   4.34629485
_cell_length_c   11.19825300
_cell_angle_alpha   90.00000000
_cell_angle_beta   90.00000000
_cell_angle_gamma   119.99999352
_symmetry_Int_Tables_number   1
_chemical_formula_structural   Pr2AsRhBr2
_chemical_formula_sum   'Pr2 As1 Rh1 Br2'
_cell_volume   183.19732213
_cell_formula_units_Z   1
loop_
 _symmetry_equiv_pos_site_id
 _symmetry_equiv_pos_as_xyz
  1  'x, y, z'
loop_
 _atom_site_type_symbol
 _atom_site_label
 _atom_site_symmetry_multiplicity
 _atom_site_fract_x
 _atom_site_fract_y
 _atom_site_fract_z
 _atom_site_occupancy
  Pr  Pr0  1  0.000000  0.000000  0.164692  1
  Pr  Pr1  1  0.000000  0.000000  0.833290  1
  As  As2  1  0.666667  0.333333  0.987549  1
  Rh  Rh3  1  0.333333  0.666667  0.010094  1
  Br  Br4  1  0.333333  0.666667  0.671328  1
  Br  Br5  1  0.666667  0.333333  0.333045  1
