# generated using pymatgen
data_KZnSb3F18
_symmetry_space_group_name_H-M   'P 1'
_cell_length_a   9.90435700
_cell_length_b   11.19389600
_cell_length_c   14.72135300
_cell_angle_alpha   90.00000000
_cell_angle_beta   90.00000000
_cell_angle_gamma   90.00000000
_symmetry_Int_Tables_number   1
_chemical_formula_structural   KZnSb3F18
_chemical_formula_sum   'K4 Zn4 Sb12 F72'
_cell_volume   1632.13200212
_cell_formula_units_Z   4
loop_
 _symmetry_equiv_pos_site_id
 _symmetry_equiv_pos_as_xyz
  1  'x, y, z'
loop_
 _atom_site_type_symbol
 _atom_site_label
 _atom_site_symmetry_multiplicity
 _atom_site_fract_x
 _atom_site_fract_y
 _atom_site_fract_z
 _atom_site_occupancy
  K  K0  1  0.533987  0.922494  0.750000  1
  K  K1  1  0.966013  0.422494  0.750000  1
  K  K2  1  0.466013  0.077506  0.250000  1
  K  K3  1  0.033987  0.577506  0.250000  1
  Zn  Zn4  1  0.000000  0.000000  0.500000  1
  Zn  Zn5  1  0.500000  0.500000  0.000000  1
  Zn  Zn6  1  0.000000  0.000000  0.000000  1
  Zn  Zn7  1  0.500000  0.500000  0.500000  1
  Sb  Sb8  1  0.100611  0.026670  0.750000  1
  Sb  Sb9  1  0.399389  0.526670  0.750000  1
  Sb  Sb10  1  0.899389  0.973330  0.250000  1
  Sb  Sb11  1  0.600611  0.473330  0.250000  1
  Sb  Sb12  1  0.692434  0.204469  0.548125  1
  Sb  Sb13  1  0.807566  0.704469  0.951875  1
  Sb  Sb14  1  0.307566  0.795531  0.048125  1
  Sb  Sb15  1  0.192434  0.295531  0.451875  1
  Sb  Sb16  1  0.307566  0.795531  0.451875  1
  Sb  Sb17  1  0.192434  0.295531  0.048125  1
  Sb  Sb18  1  0.692434  0.204469  0.951875  1
  Sb  Sb19  1  0.807566  0.704469  0.548125  1
  F  F20  1  0.103496  0.030836  0.616380  1
  F  F21  1  0.396504  0.530836  0.883620  1
  F  F22  1  0.896504  0.969164  0.116380  1
  F  F23  1  0.603496  0.469164  0.383620  1
  F  F24  1  0.896504  0.969164  0.383620  1
  F  F25  1  0.603496  0.469164  0.116380  1
  F  F26  1  0.103496  0.030836  0.883620  1
  F  F27  1  0.396504  0.530836  0.616380  1
  F  F28  1  0.121310  0.858635  0.750000  1
  F  F29  1  0.378690  0.358635  0.750000  1
  F  F30  1  0.878690  0.141365  0.250000  1
  F  F31  1  0.621310  0.641365  0.250000  1
  F  F32  1  0.291957  0.043937  0.750000  1
  F  F33  1  0.208043  0.543937  0.750000  1
  F  F34  1  0.708043  0.956063  0.250000  1
  F  F35  1  0.791957  0.456063  0.250000  1
  F  F36  1  0.079491  0.196072  0.750000  1
  F  F37  1  0.420509  0.696072  0.750000  1
  F  F38  1  0.920509  0.803928  0.250000  1
  F  F39  1  0.579491  0.303928  0.250000  1
  F  F40  1  0.909633  0.009220  0.750000  1
  F  F41  1  0.590367  0.509220  0.750000  1
  F  F42  1  0.090367  0.990780  0.250000  1
  F  F43  1  0.409633  0.490780  0.250000  1
  F  F44  1  0.826072  0.073894  0.551377  1
  F  F45  1  0.673928  0.573894  0.948623  1
  F  F46  1  0.173928  0.926106  0.051377  1
  F  F47  1  0.326072  0.426106  0.448623  1
  F  F48  1  0.173928  0.926106  0.448623  1
  F  F49  1  0.326072  0.426106  0.051377  1
  F  F50  1  0.826072  0.073894  0.948623  1
  F  F51  1  0.673928  0.573894  0.551377  1
  F  F52  1  0.797909  0.288483  0.461817  1
  F  F53  1  0.702091  0.788483  0.038183  1
  F  F54  1  0.202091  0.711517  0.961817  1
  F  F55  1  0.297909  0.211517  0.538183  1
  F  F56  1  0.202091  0.711517  0.538183  1
  F  F57  1  0.297909  0.211517  0.961817  1
  F  F58  1  0.797909  0.288483  0.038183  1
  F  F59  1  0.702091  0.788483  0.461817  1
  F  F60  1  0.597466  0.127318  0.452319  1
  F  F61  1  0.902534  0.627318  0.047681  1
  F  F62  1  0.402534  0.872682  0.952319  1
  F  F63  1  0.097466  0.372682  0.547681  1
  F  F64  1  0.402534  0.872682  0.547681  1
  F  F65  1  0.097466  0.372682  0.952319  1
  F  F66  1  0.597466  0.127318  0.047681  1
  F  F67  1  0.902534  0.627318  0.452319  1
  F  F68  1  0.559572  0.335395  0.550196  1
  F  F69  1  0.940428  0.835395  0.949804  1
  F  F70  1  0.440428  0.664605  0.050196  1
  F  F71  1  0.059572  0.164605  0.449804  1
  F  F72  1  0.440428  0.664605  0.449804  1
  F  F73  1  0.059572  0.164605  0.050196  1
  F  F74  1  0.559572  0.335395  0.949804  1
  F  F75  1  0.940428  0.835395  0.550196  1
  F  F76  1  0.590344  0.117624  0.635523  1
  F  F77  1  0.909656  0.617624  0.864477  1
  F  F78  1  0.409656  0.882376  0.135523  1
  F  F79  1  0.090344  0.382376  0.364477  1
  F  F80  1  0.409656  0.882376  0.364477  1
  F  F81  1  0.090344  0.382376  0.135523  1
  F  F82  1  0.590344  0.117624  0.864477  1
  F  F83  1  0.909656  0.617624  0.635523  1
  F  F84  1  0.789104  0.281576  0.643854  1
  F  F85  1  0.710896  0.781576  0.856146  1
  F  F86  1  0.210896  0.718424  0.143854  1
  F  F87  1  0.289104  0.218424  0.356146  1
  F  F88  1  0.210896  0.718424  0.356146  1
  F  F89  1  0.289104  0.218424  0.143854  1
  F  F90  1  0.789104  0.281576  0.856146  1
  F  F91  1  0.710896  0.781576  0.643854  1
