# generated using pymatgen
data_CdSb6(SO8)2
_symmetry_space_group_name_H-M   'P 1'
_cell_length_a   5.71619724
_cell_length_b   7.95814738
_cell_length_c   9.44335980
_cell_angle_alpha   94.91374424
_cell_angle_beta   96.82041231
_cell_angle_gamma   108.88784738
_symmetry_Int_Tables_number   1
_chemical_formula_structural   CdSb6(SO8)2
_chemical_formula_sum   'Cd1 Sb6 S2 O16'
_cell_volume   400.03745873
_cell_formula_units_Z   1
loop_
 _symmetry_equiv_pos_site_id
 _symmetry_equiv_pos_as_xyz
  1  'x, y, z'
loop_
 _atom_site_type_symbol
 _atom_site_label
 _atom_site_symmetry_multiplicity
 _atom_site_fract_x
 _atom_site_fract_y
 _atom_site_fract_z
 _atom_site_occupancy
  Cd  Cd0  1  0.000000  0.500000  0.500000  1
  Sb  Sb1  1  0.684888  0.518895  0.787079  1
  Sb  Sb2  1  0.315112  0.481105  0.212921  1
  Sb  Sb3  1  0.643335  0.833473  0.524772  1
  Sb  Sb4  1  0.356665  0.166527  0.475228  1
  Sb  Sb5  1  0.330182  0.859767  0.802501  1
  Sb  Sb6  1  0.669818  0.140233  0.197499  1
  S  S7  1  0.133838  0.217532  0.852619  1
  S  S8  1  0.866162  0.782468  0.147381  1
  O  O9  1  0.012651  0.666454  0.707518  1
  O  O10  1  0.987349  0.333546  0.292482  1
  O  O11  1  0.526367  0.693202  0.702625  1
  O  O12  1  0.473633  0.306798  0.297375  1
  O  O13  1  0.066306  0.027047  0.776721  1
  O  O14  1  0.933694  0.972953  0.223279  1
  O  O15  1  0.650604  0.367290  0.592628  1
  O  O16  1  0.349396  0.632710  0.407372  1
  O  O17  1  0.335199  0.247885  0.976242  1
  O  O18  1  0.664801  0.752115  0.023758  1
  O  O19  1  0.422295  0.956758  0.615018  1
  O  O20  1  0.577705  0.043242  0.384982  1
  O  O21  1  0.234492  0.342971  0.744676  1
  O  O22  1  0.765508  0.657029  0.255324  1
  O  O23  1  0.907793  0.243000  0.895592  1
  O  O24  1  0.092207  0.757000  0.104408  1
