# generated using pymatgen
data_Tb2Zn2Ag5
_symmetry_space_group_name_H-M   'P 1'
_cell_length_a   5.41216416
_cell_length_b   5.33052225
_cell_length_c   14.12293000
_cell_angle_alpha   90.00000000
_cell_angle_beta   90.00000000
_cell_angle_gamma   119.07491253
_symmetry_Int_Tables_number   1
_chemical_formula_structural   Tb2Zn2Ag5
_chemical_formula_sum   'Tb4 Zn4 Ag10'
_cell_volume   356.09801231
_cell_formula_units_Z   2
loop_
 _symmetry_equiv_pos_site_id
 _symmetry_equiv_pos_as_xyz
  1  'x, y, z'
loop_
 _atom_site_type_symbol
 _atom_site_label
 _atom_site_symmetry_multiplicity
 _atom_site_fract_x
 _atom_site_fract_y
 _atom_site_fract_z
 _atom_site_occupancy
  Tb  Tb0  1  0.314371  0.319532  0.120723  1
  Tb  Tb1  1  0.685629  0.680468  0.620723  1
  Tb  Tb2  1  0.314371  0.319532  0.379277  1
  Tb  Tb3  1  0.685629  0.680468  0.879277  1
  Zn  Zn4  1  0.821926  0.825086  0.250000  1
  Zn  Zn5  1  0.178074  0.174914  0.750000  1
  Zn  Zn6  1  0.820565  0.328843  0.250000  1
  Zn  Zn7  1  0.179435  0.671157  0.750000  1
  Ag  Ag8  1  0.326876  0.826503  0.250000  1
  Ag  Ag9  1  0.673124  0.173497  0.750000  1
  Ag  Ag10  1  0.972794  0.654842  0.076631  1
  Ag  Ag11  1  0.027206  0.345158  0.576631  1
  Ag  Ag12  1  0.665758  0.989138  0.424535  1
  Ag  Ag13  1  0.334242  0.010862  0.924535  1
  Ag  Ag14  1  0.027206  0.345158  0.923369  1
  Ag  Ag15  1  0.972794  0.654842  0.423369  1
  Ag  Ag16  1  0.334242  0.010862  0.575465  1
  Ag  Ag17  1  0.665758  0.989138  0.075465  1
