# generated using pymatgen
data_Tm6Fe3Co14NiP12
_symmetry_space_group_name_H-M   'P 1'
_cell_length_a   3.67814100
_cell_length_b   10.48070500
_cell_length_c   12.09249700
_cell_angle_alpha   90.00000000
_cell_angle_beta   90.00000000
_cell_angle_gamma   90.00000000
_symmetry_Int_Tables_number   1
_chemical_formula_structural   Tm6Fe3Co14NiP12
_chemical_formula_sum   'Tm6 Fe3 Co14 Ni1 P12'
_cell_volume   466.15984333
_cell_formula_units_Z   1
loop_
 _symmetry_equiv_pos_site_id
 _symmetry_equiv_pos_as_xyz
  1  'x, y, z'
loop_
 _atom_site_type_symbol
 _atom_site_label
 _atom_site_symmetry_multiplicity
 _atom_site_fract_x
 _atom_site_fract_y
 _atom_site_fract_z
 _atom_site_occupancy
  Tm  Tm0  1  0.000000  0.500000  0.520223  1
  Tm  Tm1  1  0.500000  0.000000  0.477072  1
  Tm  Tm2  1  0.500000  0.818195  0.205324  1
  Tm  Tm3  1  0.500000  0.181805  0.205324  1
  Tm  Tm4  1  0.000000  0.682142  0.796538  1
  Tm  Tm5  1  0.000000  0.317858  0.796538  1
  Fe  Fe6  1  0.500000  0.500000  0.155697  1
  Fe  Fe7  1  0.000000  0.000000  0.842096  1
  Fe  Fe8  1  0.000000  0.500000  0.988325  1
  Co  Co9  1  0.000000  0.000000  0.298443  1
  Co  Co10  1  0.500000  0.000000  0.014314  1
  Co  Co11  1  0.500000  0.330844  0.993823  1
  Co  Co12  1  0.500000  0.669156  0.993823  1
  Co  Co13  1  0.000000  0.166191  0.005906  1
  Co  Co14  1  0.000000  0.833809  0.005906  1
  Co  Co15  1  0.500000  0.297958  0.430949  1
  Co  Co16  1  0.500000  0.702042  0.430949  1
  Co  Co17  1  0.000000  0.202563  0.569196  1
  Co  Co18  1  0.000000  0.797437  0.569196  1
  Co  Co19  1  0.500000  0.878115  0.708714  1
  Co  Co20  1  0.500000  0.121885  0.708714  1
  Co  Co21  1  0.000000  0.621710  0.290686  1
  Co  Co22  1  0.000000  0.378290  0.290686  1
  Ni  Ni23  1  0.500000  0.500000  0.702112  1
  P  P24  1  0.500000  0.500000  0.885093  1
  P  P25  1  0.000000  0.000000  0.118912  1
  P  P26  1  0.500000  0.500000  0.342899  1
  P  P27  1  0.000000  0.000000  0.655589  1
  P  P28  1  0.500000  0.310749  0.616026  1
  P  P29  1  0.500000  0.689251  0.616026  1
  P  P30  1  0.000000  0.188834  0.383100  1
  P  P31  1  0.000000  0.811166  0.383100  1
  P  P32  1  0.500000  0.847735  0.892062  1
  P  P33  1  0.500000  0.152265  0.892062  1
  P  P34  1  0.000000  0.653567  0.107288  1
  P  P35  1  0.000000  0.346433  0.107288  1
