# generated using pymatgen
data_Ba4Mn(FeO5)2
_symmetry_space_group_name_H-M   'P 1'
_cell_length_a   7.23228564
_cell_length_b   7.23229140
_cell_length_c   13.15734000
_cell_angle_alpha   90.00000000
_cell_angle_beta   90.00000000
_cell_angle_gamma   132.44187972
_symmetry_Int_Tables_number   1
_chemical_formula_structural   Ba4Mn(FeO5)2
_chemical_formula_sum   'Ba8 Mn2 Fe4 O20'
_cell_volume   507.87138276
_cell_formula_units_Z   2
loop_
 _symmetry_equiv_pos_site_id
 _symmetry_equiv_pos_as_xyz
  1  'x, y, z'
loop_
 _atom_site_type_symbol
 _atom_site_label
 _atom_site_symmetry_multiplicity
 _atom_site_fract_x
 _atom_site_fract_y
 _atom_site_fract_z
 _atom_site_occupancy
  Ba  Ba0  1  0.243533  0.756466  0.890186  1
  Ba  Ba1  1  0.756467  0.243534  0.109814  1
  Ba  Ba2  1  0.256467  0.743534  0.390186  1
  Ba  Ba3  1  0.743533  0.256466  0.609814  1
  Ba  Ba4  1  0.036461  0.963539  0.639028  1
  Ba  Ba5  1  0.963539  0.036461  0.360972  1
  Ba  Ba6  1  0.463539  0.536461  0.139028  1
  Ba  Ba7  1  0.536461  0.463539  0.860972  1
  Mn  Mn8  1  0.500000  0.500000  0.500000  1
  Mn  Mn9  1  0.000000  0.000000  0.000000  1
  Fe  Fe10  1  0.374441  0.625559  0.654105  1
  Fe  Fe11  1  0.625559  0.374441  0.345895  1
  Fe  Fe12  1  0.125559  0.874441  0.154105  1
  Fe  Fe13  1  0.874441  0.125559  0.845895  1
  O  O14  1  0.132814  0.367187  0.750000  1
  O  O15  1  0.367186  0.132813  0.250000  1
  O  O16  1  0.867186  0.632813  0.250000  1
  O  O17  1  0.632814  0.867187  0.750000  1
  O  O18  1  0.379995  0.173905  0.466215  1
  O  O19  1  0.173905  0.379995  0.533785  1
  O  O20  1  0.120005  0.326095  0.966215  1
  O  O21  1  0.326095  0.120005  0.033785  1
  O  O22  1  0.620005  0.826095  0.533785  1
  O  O23  1  0.826095  0.620005  0.466215  1
  O  O24  1  0.879995  0.673905  0.033785  1
  O  O25  1  0.673905  0.879995  0.966215  1
  O  O26  1  0.235436  0.764564  0.652265  1
  O  O27  1  0.764564  0.235436  0.347735  1
  O  O28  1  0.968493  0.031507  0.144335  1
  O  O29  1  0.031507  0.968493  0.855665  1
  O  O30  1  0.531507  0.468493  0.644335  1
  O  O31  1  0.468493  0.531507  0.355665  1
  O  O32  1  0.735436  0.264564  0.847735  1
  O  O33  1  0.264564  0.735436  0.152265  1
