# generated using pymatgen
data_Y3ErAl18Co5Ni
_symmetry_space_group_name_H-M   'P 1'
_cell_length_a   7.37420298
_cell_length_b   7.37224813
_cell_length_c   9.28283400
_cell_angle_alpha   89.97387576
_cell_angle_beta   89.96985971
_cell_angle_gamma   119.26610110
_symmetry_Int_Tables_number   1
_chemical_formula_structural   Y3ErAl18Co5Ni
_chemical_formula_sum   'Y3 Er1 Al18 Co5 Ni1'
_cell_volume   440.24100207
_cell_formula_units_Z   1
loop_
 _symmetry_equiv_pos_site_id
 _symmetry_equiv_pos_as_xyz
  1  'x, y, z'
loop_
 _atom_site_type_symbol
 _atom_site_label
 _atom_site_symmetry_multiplicity
 _atom_site_fract_x
 _atom_site_fract_y
 _atom_site_fract_z
 _atom_site_occupancy
  Y  Y0  1  0.006030  0.327690  0.749664  1
  Y  Y1  1  0.672598  0.993741  0.250344  1
  Y  Y2  1  0.328318  0.006807  0.749505  1
  Er  Er3  1  0.993268  0.672252  0.250716  1
  Al  Al4  1  0.125061  0.123693  0.250368  1
  Al  Al5  1  0.875463  0.874558  0.749607  1
  Al  Al6  1  0.331997  0.331822  0.541170  1
  Al  Al7  1  0.668161  0.669989  0.044259  1
  Al  Al8  1  0.329936  0.332474  0.956562  1
  Al  Al9  1  0.668823  0.667975  0.457993  1
  Al  Al10  1  0.338979  0.554779  0.250321  1
  Al  Al11  1  0.660351  0.447974  0.746840  1
  Al  Al12  1  0.553363  0.341013  0.253093  1
  Al  Al13  1  0.445455  0.659927  0.749659  1
  Al  Al14  1  0.001022  0.336651  0.073007  1
  Al  Al15  1  0.002705  0.664593  0.570073  1
  Al  Al16  1  0.334628  0.996469  0.428557  1
  Al  Al17  1  0.664240  0.998929  0.927719  1
  Al  Al18  1  0.004458  0.667598  0.928835  1
  Al  Al19  1  0.997926  0.335770  0.427869  1
  Al  Al20  1  0.665135  0.002080  0.571367  1
  Al  Al21  1  0.331510  0.994591  0.072587  1
  Co  Co22  1  0.999712  0.999593  0.000506  1
  Co  Co23  1  0.000237  0.999064  0.499462  1
  Co  Co24  1  0.328981  0.670811  0.499663  1
  Co  Co25  1  0.328915  0.670880  0.000324  1
  Co  Co26  1  0.671554  0.329031  0.499597  1
  Ni  Ni27  1  0.671172  0.329248  0.000335  1
