# generated using pymatgen
data_TaNb4Cu4(SiGe)2
_symmetry_space_group_name_H-M   'P 1'
_cell_length_a   7.50399921
_cell_length_b   7.50399997
_cell_length_c   7.51657761
_cell_angle_alpha   93.42504321
_cell_angle_beta   93.35071585
_cell_angle_gamma   151.83737058
_symmetry_Int_Tables_number   1
_chemical_formula_structural   TaNb4Cu4(SiGe)2
_chemical_formula_sum   'Ta1 Nb4 Cu4 Si2 Ge2'
_cell_volume   193.78541434
_cell_formula_units_Z   1
loop_
 _symmetry_equiv_pos_site_id
 _symmetry_equiv_pos_as_xyz
  1  'x, y, z'
loop_
 _atom_site_type_symbol
 _atom_site_label
 _atom_site_symmetry_multiplicity
 _atom_site_fract_x
 _atom_site_fract_y
 _atom_site_fract_z
 _atom_site_occupancy
  Ta  Ta0  1  0.502595  0.502353  0.004948  1
  Nb  Nb1  1  0.130189  0.808699  0.938887  1
  Nb  Nb2  1  0.194255  0.128394  0.322650  1
  Nb  Nb3  1  0.803685  0.872439  0.676123  1
  Nb  Nb4  1  0.875534  0.198115  0.073649  1
  Cu  Cu5  1  0.394631  0.915880  0.310511  1
  Cu  Cu6  1  0.599196  0.077098  0.676294  1
  Cu  Cu7  1  0.917095  0.598406  0.515502  1
  Cu  Cu8  1  0.080215  0.393747  0.473962  1
  Si  Si9  1  0.561370  0.753121  0.314490  1
  Si  Si10  1  0.752347  0.440688  0.193036  1
  Ge  Ge11  1  0.248417  0.562132  0.810549  1
  Ge  Ge12  1  0.440472  0.248928  0.689400  1
