# generated using pymatgen
data_LiNd8AlRh2
_symmetry_space_group_name_H-M   'P 1'
_cell_length_a   9.91574677
_cell_length_b   9.91574641
_cell_length_c   9.94849900
_cell_angle_alpha   59.89067778
_cell_angle_beta   59.89067897
_cell_angle_gamma   59.78224420
_symmetry_Int_Tables_number   1
_chemical_formula_structural   LiNd8AlRh2
_chemical_formula_sum   'Li2 Nd16 Al2 Rh4'
_cell_volume   689.37629159
_cell_formula_units_Z   2
loop_
 _symmetry_equiv_pos_site_id
 _symmetry_equiv_pos_as_xyz
  1  'x, y, z'
loop_
 _atom_site_type_symbol
 _atom_site_label
 _atom_site_symmetry_multiplicity
 _atom_site_fract_x
 _atom_site_fract_y
 _atom_site_fract_z
 _atom_site_occupancy
  Li  Li0  1  0.818596  0.818596  0.827608  1
  Li  Li1  1  0.818596  0.818596  0.535202  1
  Nd  Nd2  1  0.599617  0.599617  0.600871  1
  Nd  Nd3  1  0.599617  0.599617  0.199894  1
  Nd  Nd4  1  0.598859  0.203827  0.598656  1
  Nd  Nd5  1  0.203827  0.598859  0.598656  1
  Nd  Nd6  1  0.060132  0.440304  0.442495  1
  Nd  Nd7  1  0.440304  0.060132  0.057069  1
  Nd  Nd8  1  0.440304  0.060132  0.442495  1
  Nd  Nd9  1  0.060132  0.440304  0.057069  1
  Nd  Nd10  1  0.446232  0.446232  0.053768  1
  Nd  Nd11  1  0.067204  0.067204  0.432796  1
  Nd  Nd12  1  0.191499  0.811930  0.812655  1
  Nd  Nd13  1  0.811930  0.191499  0.183915  1
  Nd  Nd14  1  0.811930  0.191499  0.812655  1
  Nd  Nd15  1  0.191499  0.811930  0.183915  1
  Nd  Nd16  1  0.811656  0.811656  0.188344  1
  Nd  Nd17  1  0.188338  0.188338  0.811662  1
  Al  Al18  1  0.825835  0.507387  0.833390  1
  Al  Al19  1  0.507387  0.825835  0.833390  1
  Rh  Rh20  1  0.393830  0.393830  0.389747  1
  Rh  Rh21  1  0.393830  0.393830  0.822594  1
  Rh  Rh22  1  0.393894  0.824953  0.390576  1
  Rh  Rh23  1  0.824953  0.393894  0.390576  1
