# generated using pymatgen
data_Sm5Tm3(IO6)4
_symmetry_space_group_name_H-M   'P 1'
_cell_length_a   5.54804237
_cell_length_b   7.84498681
_cell_length_c   11.67272800
_cell_angle_alpha   76.71879989
_cell_angle_beta   90.11601592
_cell_angle_gamma   90.05763371
_symmetry_Int_Tables_number   1
_chemical_formula_structural   Sm5Tm3(IO6)4
_chemical_formula_sum   'Sm5 Tm3 I4 O24'
_cell_volume   494.45836493
_cell_formula_units_Z   1
loop_
 _symmetry_equiv_pos_site_id
 _symmetry_equiv_pos_as_xyz
  1  'x, y, z'
loop_
 _atom_site_type_symbol
 _atom_site_label
 _atom_site_symmetry_multiplicity
 _atom_site_fract_x
 _atom_site_fract_y
 _atom_site_fract_z
 _atom_site_occupancy
  Sm  Sm0  1  0.747358  0.018400  0.755367  1
  Sm  Sm1  1  0.250330  0.979039  0.244102  1
  Sm  Sm2  1  0.690063  0.498303  0.753238  1
  Sm  Sm3  1  0.308209  0.504106  0.247197  1
  Sm  Sm4  1  0.827198  0.193974  0.426856  1
  Tm  Tm5  1  0.170999  0.804172  0.574318  1
  Tm  Tm6  1  0.808442  0.775111  0.085931  1
  Tm  Tm7  1  0.185782  0.223419  0.914700  1
  I  I8  1  0.256083  0.733880  0.881690  1
  I  I9  1  0.736814  0.710854  0.394265  1
  I  I10  1  0.262373  0.293238  0.609413  1
  I  I11  1  0.743422  0.266373  0.115555  1
  O  O12  1  0.086391  0.946816  0.895532  1
  O  O13  1  0.543371  0.823008  0.936738  1
  O  O14  1  0.009519  0.947527  0.400352  1
  O  O15  1  0.420662  0.813733  0.731031  1
  O  O16  1  0.467862  0.836204  0.437094  1
  O  O17  1  0.981859  0.709480  0.783653  1
  O  O18  1  0.541323  0.774990  0.222500  1
  O  O19  1  0.854293  0.638049  0.560077  1
  O  O20  1  0.364491  0.506739  0.880463  1
  O  O21  1  0.044367  0.719232  0.239213  1
  O  O22  1  0.372936  0.522084  0.608811  1
  O  O23  1  0.866082  0.363956  0.966482  1
  O  O24  1  0.136465  0.642631  0.032841  1
  O  O25  1  0.622644  0.484168  0.393365  1
  O  O26  1  0.947184  0.278724  0.762095  1
  O  O27  1  0.634518  0.492258  0.120452  1
  O  O28  1  0.159008  0.362449  0.439584  1
  O  O29  1  0.450628  0.228281  0.776157  1
  O  O30  1  0.018406  0.288205  0.214343  1
  O  O31  1  0.533509  0.169136  0.570467  1
  O  O32  1  0.576180  0.182376  0.263957  1
  O  O33  1  0.002054  0.038753  0.605001  1
  O  O34  1  0.461406  0.175742  0.057939  1
  O  O35  1  0.917765  0.054591  0.099222  1
