# generated using pymatgen
data_CaEr7(Sn11Ru3)2
_symmetry_space_group_name_H-M   'P 1'
_cell_length_a   9.83278000
_cell_length_b   9.83278027
_cell_length_c   10.11966300
_cell_angle_alpha   90.00000000
_cell_angle_beta   90.00000000
_cell_angle_gamma   120.00000583
_symmetry_Int_Tables_number   1
_chemical_formula_structural   CaEr7(Sn11Ru3)2
_chemical_formula_sum   'Ca1 Er7 Sn22 Ru6'
_cell_volume   847.32361933
_cell_formula_units_Z   1
loop_
 _symmetry_equiv_pos_site_id
 _symmetry_equiv_pos_as_xyz
  1  'x, y, z'
loop_
 _atom_site_type_symbol
 _atom_site_label
 _atom_site_symmetry_multiplicity
 _atom_site_fract_x
 _atom_site_fract_y
 _atom_site_fract_z
 _atom_site_occupancy
  Ca  Ca0  1  0.000000  0.000000  0.500000  1
  Er  Er1  1  0.483621  0.516379  0.307773  1
  Er  Er2  1  0.516379  0.483621  0.692227  1
  Er  Er3  1  0.483621  0.967244  0.307773  1
  Er  Er4  1  0.516379  0.032756  0.692227  1
  Er  Er5  1  0.032756  0.516379  0.307773  1
  Er  Er6  1  0.967244  0.483621  0.692227  1
  Er  Er7  1  0.000000  0.000000  0.000000  1
  Sn  Sn8  1  0.127494  0.872506  0.260552  1
  Sn  Sn9  1  0.872506  0.127494  0.739448  1
  Sn  Sn10  1  0.127494  0.254989  0.260552  1
  Sn  Sn11  1  0.872506  0.745011  0.739448  1
  Sn  Sn12  1  0.745011  0.872506  0.260552  1
  Sn  Sn13  1  0.254989  0.127494  0.739448  1
  Sn  Sn14  1  0.779726  0.220274  0.461744  1
  Sn  Sn15  1  0.220274  0.779726  0.538256  1
  Sn  Sn16  1  0.779726  0.559452  0.461744  1
  Sn  Sn17  1  0.220274  0.440548  0.538256  1
  Sn  Sn18  1  0.440548  0.220274  0.461744  1
  Sn  Sn19  1  0.559452  0.779726  0.538256  1
  Sn  Sn20  1  0.349061  0.000000  0.000000  1
  Sn  Sn21  1  0.650939  0.000000  0.000000  1
  Sn  Sn22  1  0.000000  0.349061  0.000000  1
  Sn  Sn23  1  0.000000  0.650939  0.000000  1
  Sn  Sn24  1  0.650939  0.650939  0.000000  1
  Sn  Sn25  1  0.349061  0.349061  0.000000  1
  Sn  Sn26  1  0.333333  0.666667  0.129183  1
  Sn  Sn27  1  0.666667  0.333333  0.870817  1
  Sn  Sn28  1  0.333333  0.666667  0.822402  1
  Sn  Sn29  1  0.666667  0.333333  0.177598  1
  Ru  Ru30  1  0.831676  0.168324  0.204222  1
  Ru  Ru31  1  0.168324  0.831676  0.795778  1
  Ru  Ru32  1  0.831676  0.663353  0.204222  1
  Ru  Ru33  1  0.168324  0.336647  0.795778  1
  Ru  Ru34  1  0.336647  0.168324  0.204222  1
  Ru  Ru35  1  0.663353  0.831676  0.795778  1
