# generated using pymatgen
data_Sr2FeF7
_symmetry_space_group_name_H-M   'P 1'
_cell_length_a   7.59604000
_cell_length_b   8.29709700
_cell_length_c   10.26266700
_cell_angle_alpha   90.00000000
_cell_angle_beta   90.00000000
_cell_angle_gamma   90.00000000
_symmetry_Int_Tables_number   1
_chemical_formula_structural   Sr2FeF7
_chemical_formula_sum   'Sr8 Fe4 F28'
_cell_volume   646.80541583
_cell_formula_units_Z   4
loop_
 _symmetry_equiv_pos_site_id
 _symmetry_equiv_pos_as_xyz
  1  'x, y, z'
loop_
 _atom_site_type_symbol
 _atom_site_label
 _atom_site_symmetry_multiplicity
 _atom_site_fract_x
 _atom_site_fract_y
 _atom_site_fract_z
 _atom_site_occupancy
  Sr  Sr0  1  0.250000  0.802558  0.393492  1
  Sr  Sr1  1  0.750000  0.197442  0.606508  1
  Sr  Sr2  1  0.750000  0.697442  0.893492  1
  Sr  Sr3  1  0.250000  0.302558  0.106508  1
  Sr  Sr4  1  0.250000  0.610937  0.742223  1
  Sr  Sr5  1  0.750000  0.389063  0.257777  1
  Sr  Sr6  1  0.750000  0.889063  0.242223  1
  Sr  Sr7  1  0.250000  0.110937  0.757777  1
  Fe  Fe8  1  0.250000  0.811396  0.057586  1
  Fe  Fe9  1  0.750000  0.188604  0.942414  1
  Fe  Fe10  1  0.750000  0.688604  0.557586  1
  Fe  Fe11  1  0.250000  0.311396  0.442414  1
  F  F12  1  0.250000  0.597846  0.131651  1
  F  F13  1  0.750000  0.402154  0.868349  1
  F  F14  1  0.750000  0.902154  0.631651  1
  F  F15  1  0.250000  0.097846  0.368349  1
  F  F16  1  0.250000  0.533731  0.508464  1
  F  F17  1  0.750000  0.466269  0.491536  1
  F  F18  1  0.750000  0.966269  0.008464  1
  F  F19  1  0.250000  0.033731  0.991536  1
  F  F20  1  0.075772  0.749201  0.923385  1
  F  F21  1  0.924228  0.250799  0.076615  1
  F  F22  1  0.924228  0.750799  0.423385  1
  F  F23  1  0.575772  0.250799  0.076615  1
  F  F24  1  0.075772  0.249201  0.576615  1
  F  F25  1  0.424228  0.749201  0.923385  1
  F  F26  1  0.424228  0.249201  0.576615  1
  F  F27  1  0.575772  0.750799  0.423385  1
  F  F28  1  0.250000  0.868965  0.626950  1
  F  F29  1  0.750000  0.131035  0.373050  1
  F  F30  1  0.750000  0.631035  0.126950  1
  F  F31  1  0.250000  0.368965  0.873050  1
  F  F32  1  0.571620  0.629358  0.687981  1
  F  F33  1  0.428380  0.370642  0.312019  1
  F  F34  1  0.428380  0.870642  0.187981  1
  F  F35  1  0.071620  0.370642  0.312019  1
  F  F36  1  0.571620  0.129358  0.812019  1
  F  F37  1  0.928380  0.629358  0.687981  1
  F  F38  1  0.928380  0.129358  0.812019  1
  F  F39  1  0.071620  0.870642  0.187981  1
