# generated using pymatgen
data_Tb12In2CuTc2Ni
_symmetry_space_group_name_H-M   'P 1'
_cell_length_a   8.53285586
_cell_length_b   8.53285589
_cell_length_c   8.53285665
_cell_angle_alpha   113.90737120
_cell_angle_beta   110.57357818
_cell_angle_gamma   104.08322640
_symmetry_Int_Tables_number   1
_chemical_formula_structural   Tb12In2CuTc2Ni
_chemical_formula_sum   'Tb12 In2 Cu1 Tc2 Ni1'
_cell_volume   474.67922641
_cell_formula_units_Z   1
loop_
 _symmetry_equiv_pos_site_id
 _symmetry_equiv_pos_as_xyz
  1  'x, y, z'
loop_
 _atom_site_type_symbol
 _atom_site_label
 _atom_site_symmetry_multiplicity
 _atom_site_fract_x
 _atom_site_fract_y
 _atom_site_fract_z
 _atom_site_occupancy
  Tb  Tb0  1  0.434899  0.238571  0.196328  1
  Tb  Tb1  1  0.562464  0.759601  0.802863  1
  Tb  Tb2  1  0.042241  0.238571  0.803672  1
  Tb  Tb3  1  0.956738  0.759601  0.197137  1
  Tb  Tb4  1  0.181550  0.280486  0.467705  1
  Tb  Tb5  1  0.812782  0.713846  0.532295  1
  Tb  Tb6  1  0.181550  0.713846  0.901064  1
  Tb  Tb7  1  0.812782  0.280486  0.098936  1
  Tb  Tb8  1  0.338452  0.652462  0.314010  1
  Tb  Tb9  1  0.670165  0.354465  0.684300  1
  Tb  Tb10  1  0.338452  0.024442  0.685990  1
  Tb  Tb11  1  0.670165  0.985864  0.315700  1
  In  In12  1  0.499776  0.499776  0.000000  1
  In  In13  1  0.998148  0.998148  0.000000  1
  Cu  Cu14  1  0.117394  0.617394  0.500000  1
  Tc  Tc15  1  0.323544  0.999175  0.324371  1
  Tc  Tc16  1  0.674804  0.999175  0.675629  1
  Ni  Ni17  1  0.884096  0.384096  0.500000  1
