# generated using pymatgen
data_Y5Ho3(SiI6)2
_symmetry_space_group_name_H-M   'P 1'
_cell_length_a   4.19668800
_cell_length_b   14.01354657
_cell_length_c   14.80417060
_cell_angle_alpha   90.03259885
_cell_angle_beta   90.00000000
_cell_angle_gamma   90.00000000
_symmetry_Int_Tables_number   1
_chemical_formula_structural   Y5Ho3(SiI6)2
_chemical_formula_sum   'Y5 Ho3 Si2 I12'
_cell_volume   870.64027821
_cell_formula_units_Z   1
loop_
 _symmetry_equiv_pos_site_id
 _symmetry_equiv_pos_as_xyz
  1  'x, y, z'
loop_
 _atom_site_type_symbol
 _atom_site_label
 _atom_site_symmetry_multiplicity
 _atom_site_fract_x
 _atom_site_fract_y
 _atom_site_fract_z
 _atom_site_occupancy
  Y  Y0  1  0.500000  0.114357  0.347589  1
  Y  Y1  1  0.500000  0.885649  0.652409  1
  Y  Y2  1  0.500000  0.614205  0.152251  1
  Y  Y3  1  0.500000  0.385834  0.847779  1
  Y  Y4  1  0.000000  0.111000  0.574464  1
  Ho  Ho5  1  0.000000  0.888898  0.425511  1
  Ho  Ho6  1  0.000000  0.610603  0.925878  1
  Ho  Ho7  1  0.000000  0.389403  0.074121  1
  Si  Si8  1  0.500000  0.999064  0.499371  1
  Si  Si9  1  0.500000  0.500021  0.000015  1
  I  I10  1  0.500000  0.246642  0.161112  1
  I  I11  1  0.500000  0.753311  0.838878  1
  I  I12  1  0.500000  0.746519  0.338742  1
  I  I13  1  0.500000  0.254676  0.661875  1
  I  I14  1  0.000000  0.259190  0.414560  1
  I  I15  1  0.000000  0.741236  0.584614  1
  I  I16  1  0.000000  0.758698  0.084570  1
  I  I17  1  0.000000  0.241336  0.915473  1
  I  I18  1  0.000000  0.998475  0.240746  1
  I  I19  1  0.000000  0.000794  0.759997  1
  I  I20  1  0.000000  0.498476  0.259178  1
  I  I21  1  0.000000  0.501615  0.740867  1
