# generated using pymatgen
data_HoPa2(TcSn)3
_symmetry_space_group_name_H-M   'P 1'
_cell_length_a   7.25526000
_cell_length_b   7.63234634
_cell_length_c   3.96600400
_cell_angle_alpha   90.00000000
_cell_angle_beta   90.00000000
_cell_angle_gamma   118.37867819
_symmetry_Int_Tables_number   1
_chemical_formula_structural   HoPa2(TcSn)3
_chemical_formula_sum   'Ho1 Pa2 Tc3 Sn3'
_cell_volume   193.22385706
_cell_formula_units_Z   1
loop_
 _symmetry_equiv_pos_site_id
 _symmetry_equiv_pos_as_xyz
  1  'x, y, z'
loop_
 _atom_site_type_symbol
 _atom_site_label
 _atom_site_symmetry_multiplicity
 _atom_site_fract_x
 _atom_site_fract_y
 _atom_site_fract_z
 _atom_site_occupancy
  Ho  Ho0  1  0.407745  0.000000  0.000000  1
  Pa  Pa1  1  0.998993  0.413202  0.000000  1
  Pa  Pa2  1  0.585792  0.586798  0.000000  1
  Tc  Tc3  1  0.701149  0.372768  0.500000  1
  Tc  Tc4  1  0.328380  0.627232  0.500000  1
  Tc  Tc5  1  0.978170  0.000000  0.000000  1
  Sn  Sn6  1  0.256676  0.237565  0.500000  1
  Sn  Sn7  1  0.019111  0.762435  0.500000  1
  Sn  Sn8  1  0.723985  0.000000  0.500000  1
