# generated using pymatgen
data_YbSm6CuBr12
_symmetry_space_group_name_H-M   'P 1'
_cell_length_a   9.38499257
_cell_length_b   9.38499329
_cell_length_c   9.38499400
_cell_angle_alpha   107.15947324
_cell_angle_beta   107.15947460
_cell_angle_gamma   107.15946305
_symmetry_Int_Tables_number   1
_chemical_formula_structural   YbSm6CuBr12
_chemical_formula_sum   'Yb1 Sm6 Cu1 Br12'
_cell_volume   685.39393679
_cell_formula_units_Z   1
loop_
 _symmetry_equiv_pos_site_id
 _symmetry_equiv_pos_as_xyz
  1  'x, y, z'
loop_
 _atom_site_type_symbol
 _atom_site_label
 _atom_site_symmetry_multiplicity
 _atom_site_fract_x
 _atom_site_fract_y
 _atom_site_fract_z
 _atom_site_occupancy
  Yb  Yb0  1  0.500000  0.500000  0.500000  1
  Sm  Sm1  1  0.974238  0.894784  0.682179  1
  Sm  Sm2  1  0.025762  0.105216  0.317821  1
  Sm  Sm3  1  0.105216  0.317821  0.025762  1
  Sm  Sm4  1  0.317821  0.025762  0.105216  1
  Sm  Sm5  1  0.894784  0.682179  0.974238  1
  Sm  Sm6  1  0.682179  0.974238  0.894784  1
  Cu  Cu7  1  0.000000  0.000000  0.000000  1
  Br  Br8  1  0.542887  0.621122  0.837510  1
  Br  Br9  1  0.457113  0.378878  0.162490  1
  Br  Br10  1  0.318488  0.927898  0.777368  1
  Br  Br11  1  0.378878  0.162490  0.457113  1
  Br  Br12  1  0.927898  0.777368  0.318488  1
  Br  Br13  1  0.681512  0.072102  0.222632  1
  Br  Br14  1  0.072102  0.222632  0.681512  1
  Br  Br15  1  0.777368  0.318488  0.927898  1
  Br  Br16  1  0.222632  0.681512  0.072102  1
  Br  Br17  1  0.837510  0.542887  0.621122  1
  Br  Br18  1  0.162490  0.457113  0.378878  1
  Br  Br19  1  0.621122  0.837510  0.542887  1
