# generated using pymatgen
data_Th3Al12FeRe3
_symmetry_space_group_name_H-M   'P 1'
_cell_length_a   8.99453000
_cell_length_b   8.99453009
_cell_length_c   9.64787500
_cell_angle_alpha   90.00000000
_cell_angle_beta   90.00000000
_cell_angle_gamma   120.00000703
_symmetry_Int_Tables_number   1
_chemical_formula_structural   Th3Al12FeRe3
_chemical_formula_sum   'Th6 Al24 Fe2 Re6'
_cell_volume   675.95723770
_cell_formula_units_Z   2
loop_
 _symmetry_equiv_pos_site_id
 _symmetry_equiv_pos_as_xyz
  1  'x, y, z'
loop_
 _atom_site_type_symbol
 _atom_site_label
 _atom_site_symmetry_multiplicity
 _atom_site_fract_x
 _atom_site_fract_y
 _atom_site_fract_z
 _atom_site_occupancy
  Th  Th0  1  0.804075  0.195925  0.750000  1
  Th  Th1  1  0.195925  0.804075  0.250000  1
  Th  Th2  1  0.391850  0.195925  0.750000  1
  Th  Th3  1  0.608150  0.804075  0.250000  1
  Th  Th4  1  0.804075  0.608150  0.750000  1
  Th  Th5  1  0.195925  0.391850  0.250000  1
  Al  Al6  1  0.666667  0.333333  0.998715  1
  Al  Al7  1  0.333333  0.666667  0.001285  1
  Al  Al8  1  0.333333  0.666667  0.498715  1
  Al  Al9  1  0.666667  0.333333  0.501285  1
  Al  Al10  1  0.840508  0.159492  0.422871  1
  Al  Al11  1  0.159492  0.840508  0.577129  1
  Al  Al12  1  0.318985  0.159492  0.422871  1
  Al  Al13  1  0.159492  0.840508  0.922871  1
  Al  Al14  1  0.681015  0.840508  0.577129  1
  Al  Al15  1  0.840508  0.159492  0.077129  1
  Al  Al16  1  0.840508  0.681015  0.422871  1
  Al  Al17  1  0.681015  0.840508  0.922871  1
  Al  Al18  1  0.159492  0.318985  0.577129  1
  Al  Al19  1  0.318985  0.159492  0.077129  1
  Al  Al20  1  0.159492  0.318985  0.922871  1
  Al  Al21  1  0.840508  0.681015  0.077129  1
  Al  Al22  1  0.436818  0.563182  0.750000  1
  Al  Al23  1  0.563182  0.436818  0.250000  1
  Al  Al24  1  0.126364  0.563182  0.750000  1
  Al  Al25  1  0.873636  0.436818  0.250000  1
  Al  Al26  1  0.436818  0.873636  0.750000  1
  Al  Al27  1  0.563182  0.126364  0.250000  1
  Al  Al28  1  0.000000  0.000000  0.750000  1
  Al  Al29  1  0.000000  0.000000  0.250000  1
  Fe  Fe30  1  0.000000  0.000000  0.000000  1
  Fe  Fe31  1  0.000000  0.000000  0.500000  1
  Re  Re32  1  0.500000  0.500000  0.000000  1
  Re  Re33  1  0.000000  0.500000  0.000000  1
  Re  Re34  1  0.500000  0.500000  0.500000  1
  Re  Re35  1  0.500000  0.000000  0.000000  1
  Re  Re36  1  0.000000  0.500000  0.500000  1
  Re  Re37  1  0.500000  0.000000  0.500000  1
