# generated using pymatgen
data_Er4HgPt
_symmetry_space_group_name_H-M   'P 1'
_cell_length_a   9.55401191
_cell_length_b   9.55401198
_cell_length_c   9.55401100
_cell_angle_alpha   59.99999993
_cell_angle_beta   59.99999970
_cell_angle_gamma   59.99999803
_symmetry_Int_Tables_number   1
_chemical_formula_structural   Er4HgPt
_chemical_formula_sum   'Er16 Hg4 Pt4'
_cell_volume   616.65504851
_cell_formula_units_Z   4
loop_
 _symmetry_equiv_pos_site_id
 _symmetry_equiv_pos_as_xyz
  1  'x, y, z'
loop_
 _atom_site_type_symbol
 _atom_site_label
 _atom_site_symmetry_multiplicity
 _atom_site_fract_x
 _atom_site_fract_y
 _atom_site_fract_z
 _atom_site_occupancy
  Er  Er0  1  0.355028  0.355028  0.355028  1
  Er  Er1  1  0.355028  0.355028  0.934916  1
  Er  Er2  1  0.355028  0.934916  0.355028  1
  Er  Er3  1  0.934916  0.355028  0.355028  1
  Er  Er4  1  0.810383  0.189617  0.189617  1
  Er  Er5  1  0.189617  0.810383  0.810383  1
  Er  Er6  1  0.189617  0.810383  0.189617  1
  Er  Er7  1  0.810383  0.189617  0.810383  1
  Er  Er8  1  0.189617  0.189617  0.810383  1
  Er  Er9  1  0.810383  0.810383  0.189617  1
  Er  Er10  1  0.935923  0.564077  0.564077  1
  Er  Er11  1  0.564077  0.935923  0.935923  1
  Er  Er12  1  0.564077  0.935923  0.564077  1
  Er  Er13  1  0.935923  0.564077  0.935923  1
  Er  Er14  1  0.564077  0.564077  0.935923  1
  Er  Er15  1  0.935923  0.935923  0.564077  1
  Hg  Hg16  1  0.586495  0.586495  0.586495  1
  Hg  Hg17  1  0.586495  0.586495  0.240516  1
  Hg  Hg18  1  0.586495  0.240516  0.586495  1
  Hg  Hg19  1  0.240516  0.586495  0.586495  1
  Pt  Pt20  1  0.144215  0.144215  0.144215  1
  Pt  Pt21  1  0.144215  0.144215  0.567353  1
  Pt  Pt22  1  0.144215  0.567353  0.144215  1
  Pt  Pt23  1  0.567353  0.144215  0.144215  1
