# generated using pymatgen
data_La11PrPt3RhBr12
_symmetry_space_group_name_H-M   'P 1'
_cell_length_a   10.65751901
_cell_length_b   10.65645648
_cell_length_c   10.64315607
_cell_angle_alpha   109.16694399
_cell_angle_beta   109.17469320
_cell_angle_gamma   109.41923283
_symmetry_Int_Tables_number   1
_chemical_formula_structural   La11PrPt3RhBr12
_chemical_formula_sum   'La11 Pr1 Pt3 Rh1 Br12'
_cell_volume   937.91944622
_cell_formula_units_Z   1
loop_
 _symmetry_equiv_pos_site_id
 _symmetry_equiv_pos_as_xyz
  1  'x, y, z'
loop_
 _atom_site_type_symbol
 _atom_site_label
 _atom_site_symmetry_multiplicity
 _atom_site_fract_x
 _atom_site_fract_y
 _atom_site_fract_z
 _atom_site_occupancy
  La  La0  1  0.472326  0.484700  0.236719  1
  La  La1  1  0.748356  0.236184  0.262497  1
  La  La2  1  0.751317  0.013601  0.487624  1
  La  La3  1  0.237846  0.472172  0.484657  1
  La  La4  1  0.263864  0.751657  0.237516  1
  La  La5  1  0.027915  0.262229  0.015307  1
  La  La6  1  0.015458  0.027562  0.263239  1
  La  La7  1  0.486358  0.748571  0.012326  1
  La  La8  1  0.483853  0.238298  0.473333  1
  La  La9  1  0.014373  0.485626  0.750074  1
  La  La10  1  0.261753  0.016055  0.026713  1
  Pr  Pr11  1  0.236542  0.263427  0.749990  1
  Pt  Pt12  1  0.499569  0.000419  0.250013  1
  Pt  Pt13  1  0.000075  0.249598  0.498839  1
  Pt  Pt14  1  0.250382  0.499905  0.001157  1
  Rh  Rh15  1  0.250009  0.249991  0.249992  1
  Br  Br16  1  0.250039  0.755001  0.744745  1
  Br  Br17  1  0.509951  0.504469  0.755612  1
  Br  Br18  1  0.989550  0.744486  0.994402  1
  Br  Br19  1  0.744998  0.249985  0.755274  1
  Br  Br20  1  0.995533  0.990056  0.744408  1
  Br  Br21  1  0.250064  0.995710  0.506417  1
  Br  Br22  1  0.755495  0.510439  0.505604  1
  Br  Br23  1  0.504278  0.249926  0.993554  1
  Br  Br24  1  0.755193  0.744814  0.250013  1
  Br  Br25  1  0.744486  0.994378  0.989621  1
  Br  Br26  1  0.994805  0.505205  0.249985  1
  Br  Br27  1  0.505616  0.755533  0.510369  1
