# generated using pymatgen
data_Lu3Al8(FeSi)4
_symmetry_space_group_name_H-M   'P 1'
_cell_length_a   8.42980200
_cell_length_b   8.42980116
_cell_length_c   9.16107100
_cell_angle_alpha   90.00000000
_cell_angle_beta   90.00000000
_cell_angle_gamma   119.98976181
_symmetry_Int_Tables_number   1
_chemical_formula_structural   Lu3Al8(FeSi)4
_chemical_formula_sum   'Lu6 Al16 Fe8 Si8'
_cell_volume   563.84064742
_cell_formula_units_Z   2
loop_
 _symmetry_equiv_pos_site_id
 _symmetry_equiv_pos_as_xyz
  1  'x, y, z'
loop_
 _atom_site_type_symbol
 _atom_site_label
 _atom_site_symmetry_multiplicity
 _atom_site_fract_x
 _atom_site_fract_y
 _atom_site_fract_z
 _atom_site_occupancy
  Lu  Lu0  1  0.193102  0.389892  0.250000  1
  Lu  Lu1  1  0.806898  0.610108  0.750000  1
  Lu  Lu2  1  0.610108  0.806898  0.250000  1
  Lu  Lu3  1  0.389892  0.193102  0.750000  1
  Lu  Lu4  1  0.196425  0.803575  0.250000  1
  Lu  Lu5  1  0.803575  0.196425  0.750000  1
  Al  Al6  1  0.163924  0.326919  0.575556  1
  Al  Al7  1  0.836076  0.673081  0.424444  1
  Al  Al8  1  0.673081  0.836076  0.575556  1
  Al  Al9  1  0.836076  0.673081  0.075556  1
  Al  Al10  1  0.326919  0.163924  0.424444  1
  Al  Al11  1  0.163924  0.326919  0.924444  1
  Al  Al12  1  0.164107  0.835893  0.575266  1
  Al  Al13  1  0.326919  0.163924  0.075556  1
  Al  Al14  1  0.835893  0.164107  0.424734  1
  Al  Al15  1  0.673081  0.836076  0.924444  1
  Al  Al16  1  0.835893  0.164107  0.075266  1
  Al  Al17  1  0.164107  0.835893  0.924734  1
  Al  Al18  1  0.562447  0.437553  0.250000  1
  Al  Al19  1  0.437553  0.562447  0.750000  1
  Al  Al20  1  0.000465  0.999535  0.250000  1
  Al  Al21  1  0.999535  0.000465  0.750000  1
  Fe  Fe22  1  0.500000  0.000000  0.000000  1
  Fe  Fe23  1  0.000000  0.500000  0.000000  1
  Fe  Fe24  1  0.500000  0.000000  0.500000  1
  Fe  Fe25  1  0.500000  0.500000  0.000000  1
  Fe  Fe26  1  0.000000  0.500000  0.500000  1
  Fe  Fe27  1  0.500000  0.500000  0.500000  1
  Fe  Fe28  1  0.000000  0.000000  0.000000  1
  Fe  Fe29  1  0.000000  0.000000  0.500000  1
  Si  Si30  1  0.335510  0.664490  0.034017  1
  Si  Si31  1  0.664490  0.335510  0.965983  1
  Si  Si32  1  0.664490  0.335510  0.534017  1
  Si  Si33  1  0.335510  0.664490  0.465983  1
  Si  Si34  1  0.560353  0.117786  0.250000  1
  Si  Si35  1  0.439647  0.882214  0.750000  1
  Si  Si36  1  0.882214  0.439647  0.250000  1
  Si  Si37  1  0.117786  0.560353  0.750000  1
