# generated using pymatgen
data_Tb3CeTlInPd4
_symmetry_space_group_name_H-M   'P 1'
_cell_length_a   7.83363638
_cell_length_b   7.83791894
_cell_length_c   3.72856500
_cell_angle_alpha   90.00000000
_cell_angle_beta   90.00000000
_cell_angle_gamma   90.64548585
_symmetry_Int_Tables_number   1
_chemical_formula_structural   Tb3CeTlInPd4
_chemical_formula_sum   'Tb3 Ce1 Tl1 In1 Pd4'
_cell_volume   228.91715205
_cell_formula_units_Z   1
loop_
 _symmetry_equiv_pos_site_id
 _symmetry_equiv_pos_as_xyz
  1  'x, y, z'
loop_
 _atom_site_type_symbol
 _atom_site_label
 _atom_site_symmetry_multiplicity
 _atom_site_fract_x
 _atom_site_fract_y
 _atom_site_fract_z
 _atom_site_occupancy
  Tb  Tb0  1  0.823117  0.670594  0.500000  1
  Tb  Tb1  1  0.172036  0.325081  0.500000  1
  Tb  Tb2  1  0.674336  0.176096  0.500000  1
  Ce  Ce3  1  0.327477  0.826275  0.500000  1
  Tl  Tl4  1  0.996938  0.999336  0.000000  1
  In  In5  1  0.499705  0.497217  0.000000  1
  Pd  Pd6  1  0.377654  0.128585  0.000000  1
  Pd  Pd7  1  0.873123  0.381125  0.000000  1
  Pd  Pd8  1  0.135319  0.626246  0.000000  1
  Pd  Pd9  1  0.620295  0.869443  0.000000  1
