# generated using pymatgen
data_Pr2HgRhAu
_symmetry_space_group_name_H-M   'P 1'
_cell_length_a   7.96461334
_cell_length_b   7.96461385
_cell_length_c   3.93242000
_cell_angle_alpha   90.00000000
_cell_angle_beta   90.00000000
_cell_angle_gamma   89.65198748
_symmetry_Int_Tables_number   1
_chemical_formula_structural   Pr2HgRhAu
_chemical_formula_sum   'Pr4 Hg2 Rh2 Au2'
_cell_volume   249.44873523
_cell_formula_units_Z   2
loop_
 _symmetry_equiv_pos_site_id
 _symmetry_equiv_pos_as_xyz
  1  'x, y, z'
loop_
 _atom_site_type_symbol
 _atom_site_label
 _atom_site_symmetry_multiplicity
 _atom_site_fract_x
 _atom_site_fract_y
 _atom_site_fract_z
 _atom_site_occupancy
  Pr  Pr0  1  0.660578  0.160578  0.500000  1
  Pr  Pr1  1  0.339422  0.839422  0.500000  1
  Pr  Pr2  1  0.185949  0.314051  0.500000  1
  Pr  Pr3  1  0.814051  0.685949  0.500000  1
  Hg  Hg4  1  0.000000  0.000000  0.000000  1
  Hg  Hg5  1  0.500000  0.500000  0.000000  1
  Rh  Rh6  1  0.630489  0.869511  0.000000  1
  Rh  Rh7  1  0.369511  0.130489  0.000000  1
  Au  Au8  1  0.127312  0.627312  0.000000  1
  Au  Au9  1  0.872688  0.372688  0.000000  1
