# generated using pymatgen
data_Ga3Ni2Pt3
_symmetry_space_group_name_H-M   'P 1'
_cell_length_a   5.36593570
_cell_length_b   5.36593517
_cell_length_c   3.90482500
_cell_angle_alpha   90.00000000
_cell_angle_beta   90.00000000
_cell_angle_gamma   94.25666478
_symmetry_Int_Tables_number   1
_chemical_formula_structural   Ga3Ni2Pt3
_chemical_formula_sum   'Ga3 Ni2 Pt3'
_cell_volume   112.12251464
_cell_formula_units_Z   1
loop_
 _symmetry_equiv_pos_site_id
 _symmetry_equiv_pos_as_xyz
  1  'x, y, z'
loop_
 _atom_site_type_symbol
 _atom_site_label
 _atom_site_symmetry_multiplicity
 _atom_site_fract_x
 _atom_site_fract_y
 _atom_site_fract_z
 _atom_site_occupancy
  Ga  Ga0  1  0.010059  0.010059  0.000000  1
  Ga  Ga1  1  0.701303  0.288698  0.500000  1
  Ga  Ga2  1  0.288698  0.701303  0.500000  1
  Ni  Ni3  1  0.497705  0.497705  0.000000  1
  Ni  Ni4  1  0.228667  0.228667  0.500000  1
  Pt  Pt5  1  0.483367  0.000025  0.000000  1
  Pt  Pt6  1  0.000025  0.483367  0.000000  1
  Pt  Pt7  1  0.790175  0.790175  0.500000  1
