# generated using pymatgen
data_Ho2Tm3Tc2C7
_symmetry_space_group_name_H-M   'P 1'
_cell_length_a   8.23350616
_cell_length_b   8.21208651
_cell_length_c   3.41007500
_cell_angle_alpha   90.00000000
_cell_angle_beta   90.00000000
_cell_angle_gamma   122.10101549
_symmetry_Int_Tables_number   1
_chemical_formula_structural   Ho2Tm3Tc2C7
_chemical_formula_sum   'Ho2 Tm3 Tc2 C7'
_cell_volume   195.31848771
_cell_formula_units_Z   1
loop_
 _symmetry_equiv_pos_site_id
 _symmetry_equiv_pos_as_xyz
  1  'x, y, z'
loop_
 _atom_site_type_symbol
 _atom_site_label
 _atom_site_symmetry_multiplicity
 _atom_site_fract_x
 _atom_site_fract_y
 _atom_site_fract_z
 _atom_site_occupancy
  Ho  Ho0  1  0.076807  0.335139  0.500000  1
  Ho  Ho1  1  0.923193  0.664861  0.500000  1
  Tm  Tm2  1  0.500000  0.500000  0.000000  1
  Tm  Tm3  1  0.660726  0.922605  0.500000  1
  Tm  Tm4  1  0.339274  0.077395  0.500000  1
  Tc  Tc5  1  0.713402  0.286629  0.000000  1
  Tc  Tc6  1  0.286598  0.713371  0.000000  1
  C  C7  1  0.623830  0.376079  0.500000  1
  C  C8  1  0.376170  0.623921  0.500000  1
  C  C9  1  0.000000  0.000000  0.000000  1
  C  C10  1  0.172512  0.168135  0.000000  1
  C  C11  1  0.827488  0.831865  0.000000  1
  C  C12  1  0.000000  0.500000  0.000000  1
  C  C13  1  0.500000  0.000000  0.000000  1
