# generated using pymatgen
data_Pr2Np(SnIr)3
_symmetry_space_group_name_H-M   'P 1'
_cell_length_a   7.67185900
_cell_length_b   7.54496201
_cell_length_c   4.04140600
_cell_angle_alpha   90.00000000
_cell_angle_beta   90.00000000
_cell_angle_gamma   120.55793326
_symmetry_Int_Tables_number   1
_chemical_formula_structural   Pr2Np(SnIr)3
_chemical_formula_sum   'Pr2 Np1 Sn3 Ir3'
_cell_volume   201.44271960
_cell_formula_units_Z   1
loop_
 _symmetry_equiv_pos_site_id
 _symmetry_equiv_pos_as_xyz
  1  'x, y, z'
loop_
 _atom_site_type_symbol
 _atom_site_label
 _atom_site_symmetry_multiplicity
 _atom_site_fract_x
 _atom_site_fract_y
 _atom_site_fract_z
 _atom_site_occupancy
  Pr  Pr0  1  0.000905  0.590034  0.000000  1
  Pr  Pr1  1  0.410872  0.409966  0.000000  1
  Np  Np2  1  0.586145  0.000000  0.000000  1
  Sn  Sn3  1  0.241053  0.000000  0.500000  1
  Sn  Sn4  1  0.007305  0.260502  0.500000  1
  Sn  Sn5  1  0.746803  0.739498  0.500000  1
  Ir  Ir6  1  0.369075  0.711053  0.500000  1
  Ir  Ir7  1  0.658023  0.288947  0.500000  1
  Ir  Ir8  1  0.979819  0.000000  0.000000  1
