# generated using pymatgen
data_V2Pb(SeO3)4
_symmetry_space_group_name_H-M   'P 1'
_cell_length_a   7.03210900
_cell_length_b   9.39804427
_cell_length_c   9.39884436
_cell_angle_alpha   68.85794740
_cell_angle_beta   95.99478947
_cell_angle_gamma   89.76954148
_symmetry_Int_Tables_number   1
_chemical_formula_structural   V2Pb(SeO3)4
_chemical_formula_sum   'V4 Pb2 Se8 O24'
_cell_volume   575.59076030
_cell_formula_units_Z   2
loop_
 _symmetry_equiv_pos_site_id
 _symmetry_equiv_pos_as_xyz
  1  'x, y, z'
loop_
 _atom_site_type_symbol
 _atom_site_label
 _atom_site_symmetry_multiplicity
 _atom_site_fract_x
 _atom_site_fract_y
 _atom_site_fract_z
 _atom_site_occupancy
  V  V0  1  0.999982  0.750326  0.751284  1
  V  V1  1  0.500121  0.749753  0.249294  1
  V  V2  1  0.000026  0.250377  0.251282  1
  V  V3  1  0.500156  0.249853  0.749409  1
  Pb  Pb4  1  0.008549  0.533958  0.480169  1
  Pb  Pb5  1  0.008812  0.033886  0.980263  1
  Se  Se6  1  0.555097  0.129968  0.130181  1
  Se  Se7  1  0.555022  0.629910  0.630254  1
  Se  Se8  1  0.445110  0.870051  0.870695  1
  Se  Se9  1  0.445131  0.370118  0.370700  1
  Se  Se10  1  0.801224  0.097896  0.578383  1
  Se  Se11  1  0.801090  0.598018  0.078328  1
  Se  Se12  1  0.197391  0.903495  0.420079  1
  Se  Se13  1  0.197403  0.403508  0.920081  1
  O  O14  1  0.716973  0.719888  0.714132  1
  O  O15  1  0.717016  0.219822  0.214216  1
  O  O16  1  0.283634  0.279292  0.286517  1
  O  O17  1  0.283683  0.779135  0.786557  1
  O  O18  1  0.988982  0.181621  0.482161  1
  O  O19  1  0.988921  0.681611  0.982138  1
  O  O20  1  0.011293  0.812867  0.517240  1
  O  O21  1  0.011287  0.312896  0.017204  1
  O  O22  1  0.656394  0.622962  0.468831  1
  O  O23  1  0.656586  0.122889  0.968882  1
  O  O24  1  0.344371  0.378336  0.531091  1
  O  O25  1  0.344318  0.878381  0.031018  1
  O  O26  1  0.930960  0.963137  0.742316  1
  O  O27  1  0.930726  0.463180  0.242184  1
  O  O28  1  0.069938  0.036131  0.256178  1
  O  O29  1  0.069803  0.535962  0.756122  1
  O  O30  1  0.583415  0.945878  0.266045  1
  O  O31  1  0.583660  0.445818  0.766057  1
  O  O32  1  0.411360  0.054126  0.735140  1
  O  O33  1  0.411393  0.554192  0.235097  1
  O  O34  1  0.750648  0.232648  0.657464  1
  O  O35  1  0.750631  0.732652  0.157606  1
  O  O36  1  0.250249  0.762379  0.348515  1
  O  O37  1  0.250443  0.262280  0.848685  1
