# generated using pymatgen
data_Gd6Zn22AgSe
_symmetry_space_group_name_H-M   'P 1'
_cell_length_a   9.03972122
_cell_length_b   9.03972111
_cell_length_c   9.03972200
_cell_angle_alpha   59.99999673
_cell_angle_beta   59.99999716
_cell_angle_gamma   59.99999557
_symmetry_Int_Tables_number   1
_chemical_formula_structural   Gd6Zn22AgSe
_chemical_formula_sum   'Gd6 Zn22 Ag1 Se1'
_cell_volume   522.33618375
_cell_formula_units_Z   1
loop_
 _symmetry_equiv_pos_site_id
 _symmetry_equiv_pos_as_xyz
  1  'x, y, z'
loop_
 _atom_site_type_symbol
 _atom_site_label
 _atom_site_symmetry_multiplicity
 _atom_site_fract_x
 _atom_site_fract_y
 _atom_site_fract_z
 _atom_site_occupancy
  Gd  Gd0  1  0.718329  0.281671  0.281671  1
  Gd  Gd1  1  0.718329  0.281671  0.718329  1
  Gd  Gd2  1  0.718329  0.718329  0.281671  1
  Gd  Gd3  1  0.281671  0.718329  0.718329  1
  Gd  Gd4  1  0.281671  0.718329  0.281671  1
  Gd  Gd5  1  0.281671  0.281671  0.718329  1
  Zn  Zn6  1  0.622590  0.125804  0.125804  1
  Zn  Zn7  1  0.125804  0.622590  0.125804  1
  Zn  Zn8  1  0.125804  0.125804  0.622590  1
  Zn  Zn9  1  0.125804  0.125804  0.125804  1
  Zn  Zn10  1  0.377410  0.874196  0.874196  1
  Zn  Zn11  1  0.874196  0.377410  0.874196  1
  Zn  Zn12  1  0.874196  0.874196  0.377410  1
  Zn  Zn13  1  0.874196  0.874196  0.874196  1
  Zn  Zn14  1  0.500000  0.000000  0.000000  1
  Zn  Zn15  1  0.500000  0.000000  0.500000  1
  Zn  Zn16  1  0.500000  0.500000  0.000000  1
  Zn  Zn17  1  0.000000  0.500000  0.500000  1
  Zn  Zn18  1  0.000000  0.500000  0.000000  1
  Zn  Zn19  1  0.000000  0.000000  0.500000  1
  Zn  Zn20  1  0.013721  0.328759  0.328759  1
  Zn  Zn21  1  0.328759  0.013721  0.328759  1
  Zn  Zn22  1  0.328759  0.328759  0.013721  1
  Zn  Zn23  1  0.328759  0.328759  0.328759  1
  Zn  Zn24  1  0.986279  0.671241  0.671241  1
  Zn  Zn25  1  0.671241  0.986279  0.671241  1
  Zn  Zn26  1  0.671241  0.671241  0.986279  1
  Zn  Zn27  1  0.671241  0.671241  0.671241  1
  Ag  Ag28  1  0.000000  0.000000  0.000000  1
  Se  Se29  1  0.500000  0.500000  0.500000  1
