# generated using pymatgen
data_Y4Al17SiRh5Au
_symmetry_space_group_name_H-M   'P 1'
_cell_length_a   7.58889314
_cell_length_b   7.59079760
_cell_length_c   9.42359743
_cell_angle_alpha   90.00091124
_cell_angle_beta   89.98151255
_cell_angle_gamma   119.61668224
_symmetry_Int_Tables_number   1
_chemical_formula_structural   Y4Al17SiRh5Au
_chemical_formula_sum   'Y4 Al17 Si1 Rh5 Au1'
_cell_volume   471.93016940
_cell_formula_units_Z   1
loop_
 _symmetry_equiv_pos_site_id
 _symmetry_equiv_pos_as_xyz
  1  'x, y, z'
loop_
 _atom_site_type_symbol
 _atom_site_label
 _atom_site_symmetry_multiplicity
 _atom_site_fract_x
 _atom_site_fract_y
 _atom_site_fract_z
 _atom_site_occupancy
  Y  Y0  1  0.989785  0.671016  0.250688  1
  Y  Y1  1  0.001052  0.328813  0.750083  1
  Y  Y2  1  0.676857  0.996779  0.250213  1
  Y  Y3  1  0.333718  0.007968  0.749586  1
  Al  Al4  1  0.878507  0.876405  0.748077  1
  Al  Al5  1  0.012491  0.336852  0.079247  1
  Al  Al6  1  0.008009  0.675215  0.922756  1
  Al  Al7  1  0.002031  0.665928  0.573422  1
  Al  Al8  1  0.336497  0.997789  0.425683  1
  Al  Al9  1  0.000777  0.336761  0.424678  1
  Al  Al10  1  0.665729  0.999361  0.573948  1
  Al  Al11  1  0.665220  0.987892  0.922507  1
  Al  Al12  1  0.327404  0.991875  0.078699  1
  Al  Al13  1  0.330313  0.331025  0.553223  1
  Al  Al14  1  0.665203  0.665647  0.451744  1
  Al  Al15  1  0.662796  0.669564  0.056366  1
  Al  Al16  1  0.326464  0.333704  0.938063  1
  Al  Al17  1  0.337813  0.553756  0.251841  1
  Al  Al18  1  0.661727  0.458877  0.741617  1
  Al  Al19  1  0.539437  0.335042  0.258305  1
  Al  Al20  1  0.447784  0.660391  0.748364  1
  Si  Si21  1  0.130602  0.127586  0.251194  1
  Rh  Rh22  1  0.327505  0.669950  0.000663  1
  Rh  Rh23  1  0.327276  0.670030  0.499561  1
  Rh  Rh24  1  0.670829  0.326200  0.499358  1
  Rh  Rh25  1  0.000691  0.000722  0.006780  1
  Rh  Rh26  1  0.001003  0.000118  0.492797  1
  Au  Au27  1  0.672477  0.324736  0.000538  1
