# generated using pymatgen
data_Th14Tc5Ni
_symmetry_space_group_name_H-M   'P 1'
_cell_length_a   9.95073668
_cell_length_b   9.95073650
_cell_length_c   6.34002710
_cell_angle_alpha   90.02265027
_cell_angle_beta   89.97735095
_cell_angle_gamma   119.79846824
_symmetry_Int_Tables_number   1
_chemical_formula_structural   Th14Tc5Ni
_chemical_formula_sum   'Th14 Tc5 Ni1'
_cell_volume   544.76667731
_cell_formula_units_Z   1
loop_
 _symmetry_equiv_pos_site_id
 _symmetry_equiv_pos_as_xyz
  1  'x, y, z'
loop_
 _atom_site_type_symbol
 _atom_site_label
 _atom_site_symmetry_multiplicity
 _atom_site_fract_x
 _atom_site_fract_y
 _atom_site_fract_z
 _atom_site_occupancy
  Th  Th0  1  0.332367  0.667633  0.029343  1
  Th  Th1  1  0.666761  0.333239  0.524490  1
  Th  Th2  1  0.125239  0.874761  0.252039  1
  Th  Th3  1  0.254497  0.127328  0.755704  1
  Th  Th4  1  0.872672  0.745503  0.755704  1
  Th  Th5  1  0.126260  0.250666  0.256354  1
  Th  Th6  1  0.749334  0.873740  0.256354  1
  Th  Th7  1  0.875647  0.124353  0.755601  1
  Th  Th8  1  0.540325  0.459675  0.046296  1
  Th  Th9  1  0.077613  0.540801  0.550266  1
  Th  Th10  1  0.459199  0.922387  0.550266  1
  Th  Th11  1  0.544084  0.080528  0.046979  1
  Th  Th12  1  0.919472  0.455916  0.046979  1
  Th  Th13  1  0.458966  0.541034  0.550812  1
  Tc  Tc14  1  0.815667  0.184333  0.295880  1
  Tc  Tc15  1  0.625005  0.817786  0.797469  1
  Tc  Tc16  1  0.182214  0.374995  0.797469  1
  Tc  Tc17  1  0.820161  0.631717  0.295441  1
  Tc  Tc18  1  0.368283  0.179839  0.295441  1
  Ni  Ni19  1  0.186233  0.813767  0.801119  1
