# generated using pymatgen
data_PrSmGa3SiPd4
_symmetry_space_group_name_H-M   'P 1'
_cell_length_a   4.28408600
_cell_length_b   4.28408600
_cell_length_c   10.35423700
_cell_angle_alpha   90.00000000
_cell_angle_beta   90.00000000
_cell_angle_gamma   90.00000000
_symmetry_Int_Tables_number   1
_chemical_formula_structural   PrSmGa3SiPd4
_chemical_formula_sum   'Pr1 Sm1 Ga3 Si1 Pd4'
_cell_volume   190.03537938
_cell_formula_units_Z   1
loop_
 _symmetry_equiv_pos_site_id
 _symmetry_equiv_pos_as_xyz
  1  'x, y, z'
loop_
 _atom_site_type_symbol
 _atom_site_label
 _atom_site_symmetry_multiplicity
 _atom_site_fract_x
 _atom_site_fract_y
 _atom_site_fract_z
 _atom_site_occupancy
  Pr  Pr0  1  0.500000  0.000000  0.256365  1
  Sm  Sm1  1  0.000000  0.500000  0.748113  1
  Ga  Ga2  1  0.000000  0.500000  0.126464  1
  Ga  Ga3  1  0.500000  0.500000  0.505237  1
  Ga  Ga4  1  0.000000  0.000000  0.505237  1
  Si  Si5  1  0.500000  0.000000  0.870507  1
  Pd  Pd6  1  0.500000  0.000000  0.642560  1
  Pd  Pd7  1  0.000000  0.000000  0.989173  1
  Pd  Pd8  1  0.500000  0.500000  0.989173  1
  Pd  Pd9  1  0.000000  0.500000  0.367168  1
