# generated using pymatgen
data_Ac3Ce(AgAs2)4
_symmetry_space_group_name_H-M   'P 1'
_cell_length_a   4.19187900
_cell_length_b   4.24849703
_cell_length_c   21.78213146
_cell_angle_alpha   89.71774046
_cell_angle_beta   90.00000000
_cell_angle_gamma   90.00000000
_symmetry_Int_Tables_number   1
_chemical_formula_structural   Ac3Ce(AgAs2)4
_chemical_formula_sum   'Ac3 Ce1 Ag4 As8'
_cell_volume   387.91731249
_cell_formula_units_Z   1
loop_
 _symmetry_equiv_pos_site_id
 _symmetry_equiv_pos_as_xyz
  1  'x, y, z'
loop_
 _atom_site_type_symbol
 _atom_site_label
 _atom_site_symmetry_multiplicity
 _atom_site_fract_x
 _atom_site_fract_y
 _atom_site_fract_z
 _atom_site_occupancy
  Ac  Ac0  1  0.750000  0.228487  0.111173  1
  Ac  Ac1  1  0.250000  0.723047  0.382080  1
  Ac  Ac2  1  0.750000  0.276327  0.620357  1
  Ce  Ce3  1  0.250000  0.770975  0.882946  1
  Ag  Ag4  1  0.250000  0.225924  0.247351  1
  Ag  Ag5  1  0.750000  0.726419  0.247853  1
  Ag  Ag6  1  0.250000  0.272395  0.756131  1
  Ag  Ag7  1  0.750000  0.772424  0.756412  1
  As  As8  1  0.250000  0.726908  0.163799  1
  As  As9  1  0.750000  0.224058  0.331298  1
  As  As10  1  0.250000  0.774460  0.673033  1
  As  As11  1  0.750000  0.269338  0.842840  1
  As  As12  1  0.750000  0.700508  0.992461  1
  As  As13  1  0.250000  0.189733  0.499344  1
  As  As14  1  0.750000  0.810532  0.503679  1
  As  As15  1  0.250000  0.308468  0.989238  1
