# generated using pymatgen
data_Ho3AlIn2SnPt2
_symmetry_space_group_name_H-M   'P 1'
_cell_length_a   7.53276731
_cell_length_b   7.48996314
_cell_length_c   4.15067900
_cell_angle_alpha   90.00000000
_cell_angle_beta   90.00000000
_cell_angle_gamma   120.85304914
_symmetry_Int_Tables_number   1
_chemical_formula_structural   Ho3AlIn2SnPt2
_chemical_formula_sum   'Ho3 Al1 In2 Sn1 Pt2'
_cell_volume   201.04177636
_cell_formula_units_Z   1
loop_
 _symmetry_equiv_pos_site_id
 _symmetry_equiv_pos_as_xyz
  1  'x, y, z'
loop_
 _atom_site_type_symbol
 _atom_site_label
 _atom_site_symmetry_multiplicity
 _atom_site_fract_x
 _atom_site_fract_y
 _atom_site_fract_z
 _atom_site_occupancy
  Ho  Ho0  1  0.603202  0.018796  0.500000  1
  Ho  Ho1  1  0.423186  0.402269  0.500000  1
  Ho  Ho2  1  0.980011  0.586135  0.500000  1
  Al  Al3  1  0.768474  0.750262  0.000000  1
  In  In4  1  0.985532  0.240586  0.000000  1
  In  In5  1  0.252090  0.009616  0.000000  1
  Sn  Sn6  1  0.343588  0.667976  0.000000  1
  Pt  Pt7  1  0.670406  0.351139  0.000000  1
  Pt  Pt8  1  0.973512  0.973220  0.500000  1
