# generated using pymatgen
data_Nd4HgPt3Pb2
_symmetry_space_group_name_H-M   'P 1'
_cell_length_a   3.72736600
_cell_length_b   8.30906530
_cell_length_c   8.30906606
_cell_angle_alpha   89.26095066
_cell_angle_beta   90.00000000
_cell_angle_gamma   90.00000000
_symmetry_Int_Tables_number   1
_chemical_formula_structural   Nd4HgPt3Pb2
_chemical_formula_sum   'Nd4 Hg1 Pt3 Pb2'
_cell_volume   257.31807470
_cell_formula_units_Z   1
loop_
 _symmetry_equiv_pos_site_id
 _symmetry_equiv_pos_as_xyz
  1  'x, y, z'
loop_
 _atom_site_type_symbol
 _atom_site_label
 _atom_site_symmetry_multiplicity
 _atom_site_fract_x
 _atom_site_fract_y
 _atom_site_fract_z
 _atom_site_occupancy
  Nd  Nd0  1  0.500000  0.171375  0.671375  1
  Nd  Nd1  1  0.500000  0.850806  0.350806  1
  Nd  Nd2  1  0.500000  0.306859  0.162568  1
  Nd  Nd3  1  0.500000  0.662568  0.806859  1
  Hg  Hg4  1  0.000000  0.627113  0.127113  1
  Pt  Pt5  1  0.000000  0.378304  0.878304  1
  Pt  Pt6  1  0.000000  0.879230  0.631305  1
  Pt  Pt7  1  0.000000  0.131305  0.379230  1
  Pb  Pb8  1  0.000000  0.998894  0.993545  1
  Pb  Pb9  1  0.000000  0.493545  0.498894  1
