# generated using pymatgen
data_Zr5SiSb2
_symmetry_space_group_name_H-M   'P 1'
_cell_length_a   5.48445161
_cell_length_b   8.31675551
_cell_length_c   8.31675595
_cell_angle_alpha   83.75862509
_cell_angle_beta   70.74804251
_cell_angle_gamma   70.74804509
_symmetry_Int_Tables_number   1
_chemical_formula_structural   Zr5SiSb2
_chemical_formula_sum   'Zr10 Si2 Sb4'
_cell_volume   338.10892752
_cell_formula_units_Z   2
loop_
 _symmetry_equiv_pos_site_id
 _symmetry_equiv_pos_as_xyz
  1  'x, y, z'
loop_
 _atom_site_type_symbol
 _atom_site_label
 _atom_site_symmetry_multiplicity
 _atom_site_fract_x
 _atom_site_fract_y
 _atom_site_fract_z
 _atom_site_occupancy
  Zr  Zr0  1  0.250000  0.500000  0.500000  1
  Zr  Zr1  1  0.750000  0.500000  0.500000  1
  Zr  Zr2  1  0.073647  0.134536  0.718172  1
  Zr  Zr3  1  0.926353  0.865464  0.281828  1
  Zr  Zr4  1  0.791819  0.281828  0.134536  1
  Zr  Zr5  1  0.426353  0.281828  0.865464  1
  Zr  Zr6  1  0.208181  0.718172  0.865464  1
  Zr  Zr7  1  0.573647  0.718172  0.134536  1
  Zr  Zr8  1  0.708181  0.865464  0.718172  1
  Zr  Zr9  1  0.291819  0.134536  0.281828  1
  Si  Si10  1  0.250000  0.000000  0.000000  1
  Si  Si11  1  0.750000  0.000000  0.000000  1
  Sb  Sb12  1  0.164649  0.500000  0.170700  1
  Sb  Sb13  1  0.835351  0.500000  0.829300  1
  Sb  Sb14  1  0.335351  0.829300  0.500000  1
  Sb  Sb15  1  0.664649  0.170700  0.500000  1
