# generated using pymatgen
data_Ac8Ti(Pd3Pt)6
_symmetry_space_group_name_H-M   'P 1'
_cell_length_a   8.73245500
_cell_length_b   8.73245500
_cell_length_c   8.73245500
_cell_angle_alpha   90.00000000
_cell_angle_beta   90.00000000
_cell_angle_gamma   90.00000000
_symmetry_Int_Tables_number   1
_chemical_formula_structural   Ac8Ti(Pd3Pt)6
_chemical_formula_sum   'Ac8 Ti1 Pd18 Pt6'
_cell_volume   665.90008287
_cell_formula_units_Z   1
loop_
 _symmetry_equiv_pos_site_id
 _symmetry_equiv_pos_as_xyz
  1  'x, y, z'
loop_
 _atom_site_type_symbol
 _atom_site_label
 _atom_site_symmetry_multiplicity
 _atom_site_fract_x
 _atom_site_fract_y
 _atom_site_fract_z
 _atom_site_occupancy
  Ac  Ac0  1  0.251294  0.251294  0.251294  1
  Ac  Ac1  1  0.748706  0.748706  0.748706  1
  Ac  Ac2  1  0.748706  0.748706  0.251294  1
  Ac  Ac3  1  0.748706  0.251294  0.748706  1
  Ac  Ac4  1  0.251294  0.251294  0.748706  1
  Ac  Ac5  1  0.251294  0.748706  0.251294  1
  Ac  Ac6  1  0.251294  0.748706  0.748706  1
  Ac  Ac7  1  0.748706  0.251294  0.251294  1
  Ti  Ti8  1  0.000000  0.000000  0.000000  1
  Pd  Pd9  1  0.265372  0.500000  0.000000  1
  Pd  Pd10  1  0.734628  0.500000  0.000000  1
  Pd  Pd11  1  0.000000  0.265372  0.500000  1
  Pd  Pd12  1  0.500000  0.265372  0.000000  1
  Pd  Pd13  1  0.000000  0.734628  0.500000  1
  Pd  Pd14  1  0.500000  0.734628  0.000000  1
  Pd  Pd15  1  0.500000  0.000000  0.265372  1
  Pd  Pd16  1  0.265372  0.000000  0.500000  1
  Pd  Pd17  1  0.500000  0.000000  0.734628  1
  Pd  Pd18  1  0.734628  0.000000  0.500000  1
  Pd  Pd19  1  0.000000  0.500000  0.265372  1
  Pd  Pd20  1  0.000000  0.500000  0.734628  1
  Pd  Pd21  1  0.255435  0.500000  0.500000  1
  Pd  Pd22  1  0.744565  0.500000  0.500000  1
  Pd  Pd23  1  0.500000  0.255435  0.500000  1
  Pd  Pd24  1  0.500000  0.744565  0.500000  1
  Pd  Pd25  1  0.500000  0.500000  0.255435  1
  Pd  Pd26  1  0.500000  0.500000  0.744565  1
  Pt  Pt27  1  0.301375  0.000000  0.000000  1
  Pt  Pt28  1  0.698625  0.000000  0.000000  1
  Pt  Pt29  1  0.000000  0.301375  0.000000  1
  Pt  Pt30  1  0.000000  0.698625  0.000000  1
  Pt  Pt31  1  0.000000  0.000000  0.301375  1
  Pt  Pt32  1  0.000000  0.000000  0.698625  1
