# generated using pymatgen
data_SmEr4(TcB3)2
_symmetry_space_group_name_H-M   'P 1'
_cell_length_a   8.66311966
_cell_length_b   8.66311881
_cell_length_c   8.66312000
_cell_angle_alpha   37.04671725
_cell_angle_beta   37.04672469
_cell_angle_gamma   37.04671939
_symmetry_Int_Tables_number   1
_chemical_formula_structural   SmEr4(TcB3)2
_chemical_formula_sum   'Sm1 Er4 Tc2 B6'
_cell_volume   211.46573161
_cell_formula_units_Z   1
loop_
 _symmetry_equiv_pos_site_id
 _symmetry_equiv_pos_as_xyz
  1  'x, y, z'
loop_
 _atom_site_type_symbol
 _atom_site_label
 _atom_site_symmetry_multiplicity
 _atom_site_fract_x
 _atom_site_fract_y
 _atom_site_fract_z
 _atom_site_occupancy
  Sm  Sm0  1  0.000000  0.000000  0.000000  1
  Er  Er1  1  0.578711  0.578711  0.578711  1
  Er  Er2  1  0.421289  0.421289  0.421289  1
  Er  Er3  1  0.754849  0.754849  0.754849  1
  Er  Er4  1  0.245151  0.245151  0.245151  1
  Tc  Tc5  1  0.888789  0.888789  0.888789  1
  Tc  Tc6  1  0.111211  0.111211  0.111211  1
  B  B7  1  0.500000  0.829417  0.170583  1
  B  B8  1  0.170583  0.500000  0.829417  1
  B  B9  1  0.829417  0.170583  0.500000  1
  B  B10  1  0.500000  0.170583  0.829417  1
  B  B11  1  0.829417  0.500000  0.170583  1
  B  B12  1  0.170583  0.829417  0.500000  1
