# generated using pymatgen
data_Pr10BiPb5Cl2
_symmetry_space_group_name_H-M   'P 1'
_cell_length_a   9.64317900
_cell_length_b   9.64317911
_cell_length_c   6.84971600
_cell_angle_alpha   90.00000000
_cell_angle_beta   90.00000000
_cell_angle_gamma   120.13525218
_symmetry_Int_Tables_number   1
_chemical_formula_structural   Pr10BiPb5Cl2
_chemical_formula_sum   'Pr10 Bi1 Pb5 Cl2'
_cell_volume   550.87130179
_cell_formula_units_Z   1
loop_
 _symmetry_equiv_pos_site_id
 _symmetry_equiv_pos_as_xyz
  1  'x, y, z'
loop_
 _atom_site_type_symbol
 _atom_site_label
 _atom_site_symmetry_multiplicity
 _atom_site_fract_x
 _atom_site_fract_y
 _atom_site_fract_z
 _atom_site_occupancy
  Pr  Pr0  1  0.260255  0.000558  0.750000  1
  Pr  Pr1  1  0.740911  0.002785  0.250000  1
  Pr  Pr2  1  0.000558  0.260255  0.750000  1
  Pr  Pr3  1  0.002785  0.740911  0.250000  1
  Pr  Pr4  1  0.739396  0.739396  0.750000  1
  Pr  Pr5  1  0.257714  0.257714  0.250000  1
  Pr  Pr6  1  0.332317  0.667489  0.499803  1
  Pr  Pr7  1  0.667489  0.332317  0.499803  1
  Pr  Pr8  1  0.667489  0.332317  0.000197  1
  Pr  Pr9  1  0.332317  0.667489  0.000197  1
  Bi  Bi10  1  0.613092  0.613092  0.250000  1
  Pb  Pb11  1  0.612715  0.999835  0.750000  1
  Pb  Pb12  1  0.388102  0.000719  0.250000  1
  Pb  Pb13  1  0.999835  0.612715  0.750000  1
  Pb  Pb14  1  0.000719  0.388102  0.250000  1
  Pb  Pb15  1  0.387423  0.387423  0.750000  1
  Cl  Cl16  1  0.998442  0.998442  0.499573  1
  Cl  Cl17  1  0.998442  0.998442  0.000427  1
