# generated using pymatgen
data_Li7Dy5Ho3ZnSn8
_symmetry_space_group_name_H-M   'P 1'
_cell_length_a   9.38335100
_cell_length_b   9.38121052
_cell_length_c   7.25044205
_cell_angle_alpha   89.94024554
_cell_angle_beta   90.00031669
_cell_angle_gamma   120.00950906
_symmetry_Int_Tables_number   1
_chemical_formula_structural   Li7Dy5Ho3ZnSn8
_chemical_formula_sum   'Li7 Dy5 Ho3 Zn1 Sn8'
_cell_volume   552.67526251
_cell_formula_units_Z   1
loop_
 _symmetry_equiv_pos_site_id
 _symmetry_equiv_pos_as_xyz
  1  'x, y, z'
loop_
 _atom_site_type_symbol
 _atom_site_label
 _atom_site_symmetry_multiplicity
 _atom_site_fract_x
 _atom_site_fract_y
 _atom_site_fract_z
 _atom_site_occupancy
  Li  Li0  1  0.165193  0.832407  0.288964  1
  Li  Li1  1  0.667225  0.832429  0.288966  1
  Li  Li2  1  0.833196  0.666325  0.789262  1
  Li  Li3  1  0.832028  0.166156  0.788420  1
  Li  Li4  1  0.334106  0.166113  0.788404  1
  Li  Li5  1  0.334031  0.668095  0.679296  1
  Li  Li6  1  0.668294  0.336518  0.175667  1
  Dy  Dy7  1  0.511391  0.022779  0.496667  1
  Dy  Dy8  1  0.511335  0.488668  0.493081  1
  Dy  Dy9  1  0.977329  0.488666  0.493090  1
  Dy  Dy10  1  0.488860  0.977727  0.990081  1
  Dy  Dy11  1  0.486898  0.510136  0.992654  1
  Ho  Ho12  1  0.023224  0.510150  0.992644  1
  Ho  Ho13  1  0.999417  0.998831  0.498623  1
  Ho  Ho14  1  0.001002  0.002012  0.997762  1
  Zn  Zn15  1  0.166496  0.333009  0.299971  1
  Sn  Sn16  1  0.166063  0.332234  0.729762  1
  Sn  Sn17  1  0.165496  0.832691  0.728599  1
  Sn  Sn18  1  0.667221  0.832768  0.728537  1
  Sn  Sn19  1  0.833976  0.667822  0.229768  1
  Sn  Sn20  1  0.831808  0.165759  0.227016  1
  Sn  Sn21  1  0.333892  0.165647  0.227090  1
  Sn  Sn22  1  0.334346  0.668840  0.257572  1
  Sn  Sn23  1  0.667173  0.334218  0.760070  1
