# generated using pymatgen
data_Pr4DyP12Ir16Rh3
_symmetry_space_group_name_H-M   'P 1'
_cell_length_a   12.81285600
_cell_length_b   12.81285618
_cell_length_c   4.01259600
_cell_angle_alpha   90.00000000
_cell_angle_beta   90.00000000
_cell_angle_gamma   119.99999953
_symmetry_Int_Tables_number   1
_chemical_formula_structural   Pr4DyP12Ir16Rh3
_chemical_formula_sum   'Pr4 Dy1 P12 Ir16 Rh3'
_cell_volume   570.48990821
_cell_formula_units_Z   1
loop_
 _symmetry_equiv_pos_site_id
 _symmetry_equiv_pos_as_xyz
  1  'x, y, z'
loop_
 _atom_site_type_symbol
 _atom_site_label
 _atom_site_symmetry_multiplicity
 _atom_site_fract_x
 _atom_site_fract_y
 _atom_site_fract_z
 _atom_site_occupancy
  Pr  Pr0  1  0.333333  0.666667  0.500000  1
  Pr  Pr1  1  0.000096  0.812963  0.000000  1
  Pr  Pr2  1  0.187037  0.187133  0.000000  1
  Pr  Pr3  1  0.812867  0.999904  0.000000  1
  Dy  Dy4  1  0.666667  0.333333  0.500000  1
  P  P5  1  0.000703  0.637332  0.500000  1
  P  P6  1  0.362668  0.363372  0.500000  1
  P  P7  1  0.636628  0.999297  0.500000  1
  P  P8  1  0.518203  0.687105  0.000000  1
  P  P9  1  0.312895  0.831098  0.000000  1
  P  P10  1  0.168902  0.481797  0.000000  1
  P  P11  1  0.484202  0.172377  0.000000  1
  P  P12  1  0.688175  0.515798  0.000000  1
  P  P13  1  0.827623  0.311825  0.000000  1
  P  P14  1  0.999355  0.181506  0.500000  1
  P  P15  1  0.818494  0.817849  0.500000  1
  P  P16  1  0.182151  0.000645  0.500000  1
  Ir  Ir17  1  0.510554  0.870575  0.000000  1
  Ir  Ir18  1  0.129425  0.639980  0.000000  1
  Ir  Ir19  1  0.360020  0.489446  0.000000  1
  Ir  Ir20  1  0.494307  0.360202  0.000000  1
  Ir  Ir21  1  0.865896  0.505693  0.000000  1
  Ir  Ir22  1  0.639798  0.134104  0.000000  1
  Ir  Ir23  1  0.998843  0.285116  0.000000  1
  Ir  Ir24  1  0.714884  0.713727  0.000000  1
  Ir  Ir25  1  0.286273  0.001157  0.000000  1
  Ir  Ir26  1  0.622959  0.802405  0.500000  1
  Ir  Ir27  1  0.197595  0.820555  0.500000  1
  Ir  Ir28  1  0.179445  0.377041  0.500000  1
  Ir  Ir29  1  0.378858  0.181305  0.500000  1
  Ir  Ir30  1  0.802447  0.621142  0.500000  1
  Ir  Ir31  1  0.818695  0.197553  0.500000  1
  Ir  Ir32  1  0.000000  0.000000  0.500000  1
  Rh  Rh33  1  0.999201  0.459597  0.500000  1
  Rh  Rh34  1  0.540403  0.539604  0.500000  1
  Rh  Rh35  1  0.460396  0.000799  0.500000  1
