# generated using pymatgen
data_Ho8Al3Si8Sn
_symmetry_space_group_name_H-M   'P 1'
_cell_length_a   5.60013523
_cell_length_b   5.60013545
_cell_length_c   19.51203535
_cell_angle_alpha   81.85802609
_cell_angle_beta   81.85802670
_cell_angle_gamma   42.71203999
_symmetry_Int_Tables_number   1
_chemical_formula_structural   Ho8Al3Si8Sn
_chemical_formula_sum   'Ho8 Al3 Si8 Sn1'
_cell_volume   410.25134933
_cell_formula_units_Z   1
loop_
 _symmetry_equiv_pos_site_id
 _symmetry_equiv_pos_as_xyz
  1  'x, y, z'
loop_
 _atom_site_type_symbol
 _atom_site_label
 _atom_site_symmetry_multiplicity
 _atom_site_fract_x
 _atom_site_fract_y
 _atom_site_fract_z
 _atom_site_occupancy
  Ho  Ho0  1  0.461798  0.461798  0.675787  1
  Ho  Ho1  1  0.707131  0.707131  0.925974  1
  Ho  Ho2  1  0.974092  0.974092  0.180800  1
  Ho  Ho3  1  0.217337  0.217337  0.428140  1
  Ho  Ho4  1  0.782663  0.782663  0.571860  1
  Ho  Ho5  1  0.025908  0.025908  0.819200  1
  Ho  Ho6  1  0.292869  0.292869  0.074026  1
  Ho  Ho7  1  0.538202  0.538202  0.324213  1
  Al  Al8  1  0.256267  0.256267  0.253389  1
  Al  Al9  1  0.500000  0.500000  0.500000  1
  Al  Al10  1  0.743733  0.743733  0.746611  1
  Si  Si11  1  0.171789  0.171789  0.675691  1
  Si  Si12  1  0.413473  0.413473  0.919915  1
  Si  Si13  1  0.688528  0.688528  0.182391  1
  Si  Si14  1  0.928466  0.928466  0.428258  1
  Si  Si15  1  0.071534  0.071534  0.571742  1
  Si  Si16  1  0.311472  0.311472  0.817609  1
  Si  Si17  1  0.586527  0.586527  0.080085  1
  Si  Si18  1  0.828211  0.828211  0.324309  1
  Sn  Sn19  1  0.000000  0.000000  0.000000  1
