# generated using pymatgen
data_Sc3Fe9(BO5)4
_symmetry_space_group_name_H-M   'P 1'
_cell_length_a   9.63633749
_cell_length_b   12.65775122
_cell_length_c   3.16040700
_cell_angle_alpha   90.00000000
_cell_angle_beta   90.00000000
_cell_angle_gamma   89.28621899
_symmetry_Int_Tables_number   1
_chemical_formula_structural   Sc3Fe9(BO5)4
_chemical_formula_sum   'Sc3 Fe9 B4 O20'
_cell_volume   385.45871672
_cell_formula_units_Z   1
loop_
 _symmetry_equiv_pos_site_id
 _symmetry_equiv_pos_as_xyz
  1  'x, y, z'
loop_
 _atom_site_type_symbol
 _atom_site_label
 _atom_site_symmetry_multiplicity
 _atom_site_fract_x
 _atom_site_fract_y
 _atom_site_fract_z
 _atom_site_occupancy
  Sc  Sc0  1  0.241375  0.115164  0.000000  1
  Sc  Sc1  1  0.759094  0.882719  0.000000  1
  Sc  Sc2  1  0.740294  0.386297  0.000000  1
  Fe  Fe3  1  0.499040  0.998909  0.000000  1
  Fe  Fe4  1  0.001979  0.500267  0.000000  1
  Fe  Fe5  1  0.000042  0.278767  0.499999  1
  Fe  Fe6  1  0.002627  0.721393  0.499999  1
  Fe  Fe7  1  0.499385  0.222184  0.499999  1
  Fe  Fe8  1  0.498744  0.776153  0.499999  1
  Fe  Fe9  1  0.256842  0.614483  0.000000  1
  Fe  Fe10  1  0.000091  0.999193  0.499999  1
  Fe  Fe11  1  0.498282  0.501717  0.499999  1
  B  B12  1  0.270136  0.364731  0.000000  1
  B  B13  1  0.730990  0.637920  0.000000  1
  B  B14  1  0.770315  0.138926  0.000000  1
  B  B15  1  0.231031  0.859243  0.000000  1
  O  O16  1  0.345369  0.269060  0.000000  1
  O  O17  1  0.657564  0.733375  0.000000  1
  O  O18  1  0.841359  0.233222  0.000000  1
  O  O19  1  0.161688  0.763382  0.000000  1
  O  O20  1  0.383342  0.078939  0.499999  1
  O  O21  1  0.614037  0.917548  0.499999  1
  O  O22  1  0.886204  0.418859  0.499999  1
  O  O23  1  0.119960  0.582745  0.499999  1
  O  O24  1  0.126628  0.361352  0.000000  1
  O  O25  1  0.875281  0.638459  0.000000  1
  O  O26  1  0.625136  0.140435  0.000000  1
  O  O27  1  0.374394  0.860204  0.000000  1
  O  O28  1  0.107159  0.143643  0.499999  1
  O  O29  1  0.893171  0.855338  0.499999  1
  O  O30  1  0.605864  0.361857  0.499999  1
  O  O31  1  0.387161  0.641463  0.499999  1
  O  O32  1  0.340513  0.460285  0.000000  1
  O  O33  1  0.657101  0.544362  0.000000  1
  O  O34  1  0.843979  0.042921  0.000000  1
  O  O35  1  0.153820  0.954477  0.000000  1
