# generated using pymatgen
data_SiTe5Ir2
_symmetry_space_group_name_H-M   'P 1'
_cell_length_a   4.02105700
_cell_length_b   8.30394634
_cell_length_c   13.66319650
_cell_angle_alpha   77.96834521
_cell_angle_beta   90.00000000
_cell_angle_gamma   90.00000000
_symmetry_Int_Tables_number   1
_chemical_formula_structural   SiTe5Ir2
_chemical_formula_sum   'Si2 Te10 Ir4'
_cell_volume   446.20085881
_cell_formula_units_Z   2
loop_
 _symmetry_equiv_pos_site_id
 _symmetry_equiv_pos_as_xyz
  1  'x, y, z'
loop_
 _atom_site_type_symbol
 _atom_site_label
 _atom_site_symmetry_multiplicity
 _atom_site_fract_x
 _atom_site_fract_y
 _atom_site_fract_z
 _atom_site_occupancy
  Si  Si0  1  0.500000  0.164659  0.689339  1
  Si  Si1  1  0.500000  0.835341  0.310661  1
  Te  Te2  1  0.000000  0.952252  0.109445  1
  Te  Te3  1  0.000000  0.047748  0.890555  1
  Te  Te4  1  0.000000  0.469639  0.773793  1
  Te  Te5  1  0.000000  0.530361  0.226207  1
  Te  Te6  1  0.500000  0.673321  0.973556  1
  Te  Te7  1  0.500000  0.326679  0.026444  1
  Te  Te8  1  0.500000  0.160215  0.285628  1
  Te  Te9  1  0.500000  0.839785  0.714372  1
  Te  Te10  1  0.000000  0.230300  0.567265  1
  Te  Te11  1  0.000000  0.769700  0.432735  1
  Ir  Ir12  1  0.000000  0.247331  0.152231  1
  Ir  Ir13  1  0.000000  0.752669  0.847769  1
  Ir  Ir14  1  0.500000  0.748067  0.155419  1
  Ir  Ir15  1  0.500000  0.251933  0.844581  1
