# generated using pymatgen
data_CrFe2Ni(AuO2)4
_symmetry_space_group_name_H-M   'P 1'
_cell_length_a   5.32594309
_cell_length_b   6.18126214
_cell_length_c   7.11765962
_cell_angle_alpha   64.27568454
_cell_angle_beta   75.51839324
_cell_angle_gamma   90.03817206
_symmetry_Int_Tables_number   1
_chemical_formula_structural   CrFe2Ni(AuO2)4
_chemical_formula_sum   'Cr1 Fe2 Ni1 Au4 O8'
_cell_volume   202.78276193
_cell_formula_units_Z   1
loop_
 _symmetry_equiv_pos_site_id
 _symmetry_equiv_pos_as_xyz
  1  'x, y, z'
loop_
 _atom_site_type_symbol
 _atom_site_label
 _atom_site_symmetry_multiplicity
 _atom_site_fract_x
 _atom_site_fract_y
 _atom_site_fract_z
 _atom_site_occupancy
  Cr  Cr0  1  0.499871  0.249913  0.000075  1
  Fe  Fe1  1  0.999961  0.503356  0.999991  1
  Fe  Fe2  1  0.999998  0.996866  0.000001  1
  Ni  Ni3  1  0.500010  0.749896  0.999997  1
  Au  Au4  1  0.003191  0.000303  0.499482  1
  Au  Au5  1  0.996813  0.499775  0.500520  1
  Au  Au6  1  0.500021  0.749947  0.499967  1
  Au  Au7  1  0.500002  0.249918  0.500015  1
  O  O8  1  0.896754  0.834238  0.831627  1
  O  O9  1  0.886237  0.332503  0.835126  1
  O  O10  1  0.385822  0.576118  0.834028  1
  O  O11  1  0.385869  0.089763  0.834051  1
  O  O12  1  0.113824  0.167609  0.164852  1
  O  O13  1  0.103262  0.665837  0.168383  1
  O  O14  1  0.614163  0.923832  0.165906  1
  O  O15  1  0.614203  0.410129  0.165976  1
