# generated using pymatgen
data_Ce2ZnSiRh2
_symmetry_space_group_name_H-M   'P 1'
_cell_length_a   4.09198700
_cell_length_b   7.17490200
_cell_length_c   15.66427200
_cell_angle_alpha   90.00000000
_cell_angle_beta   90.00000000
_cell_angle_gamma   90.00000000
_symmetry_Int_Tables_number   1
_chemical_formula_structural   Ce2ZnSiRh2
_chemical_formula_sum   'Ce8 Zn4 Si4 Rh8'
_cell_volume   459.89684966
_cell_formula_units_Z   4
loop_
 _symmetry_equiv_pos_site_id
 _symmetry_equiv_pos_as_xyz
  1  'x, y, z'
loop_
 _atom_site_type_symbol
 _atom_site_label
 _atom_site_symmetry_multiplicity
 _atom_site_fract_x
 _atom_site_fract_y
 _atom_site_fract_z
 _atom_site_occupancy
  Ce  Ce0  1  0.250000  0.156725  0.558560  1
  Ce  Ce1  1  0.750000  0.843275  0.441440  1
  Ce  Ce2  1  0.250000  0.656725  0.941440  1
  Ce  Ce3  1  0.750000  0.343275  0.058560  1
  Ce  Ce4  1  0.250000  0.025259  0.780401  1
  Ce  Ce5  1  0.750000  0.974741  0.219599  1
  Ce  Ce6  1  0.250000  0.525259  0.719599  1
  Ce  Ce7  1  0.750000  0.474741  0.280401  1
  Zn  Zn8  1  0.250000  0.009601  0.058115  1
  Zn  Zn9  1  0.750000  0.990399  0.941885  1
  Zn  Zn10  1  0.250000  0.509601  0.441885  1
  Zn  Zn11  1  0.750000  0.490399  0.558115  1
  Si  Si12  1  0.250000  0.135152  0.348207  1
  Si  Si13  1  0.750000  0.864848  0.651793  1
  Si  Si14  1  0.250000  0.635152  0.151793  1
  Si  Si15  1  0.750000  0.364848  0.848207  1
  Rh  Rh16  1  0.750000  0.252870  0.418921  1
  Rh  Rh17  1  0.250000  0.747130  0.581079  1
  Rh  Rh18  1  0.750000  0.752870  0.081079  1
  Rh  Rh19  1  0.250000  0.247130  0.918921  1
  Rh  Rh20  1  0.750000  0.725822  0.813765  1
  Rh  Rh21  1  0.250000  0.274178  0.186235  1
  Rh  Rh22  1  0.750000  0.225822  0.686235  1
  Rh  Rh23  1  0.250000  0.774178  0.313765  1
