# generated using pymatgen
data_Yb2CeEr(B4Ru)4
_symmetry_space_group_name_H-M   'P 1'
_cell_length_a   3.56012900
_cell_length_b   5.95742456
_cell_length_c   11.52457917
_cell_angle_alpha   90.03566302
_cell_angle_beta   90.00000000
_cell_angle_gamma   90.00000000
_symmetry_Int_Tables_number   1
_chemical_formula_structural   Yb2CeEr(B4Ru)4
_chemical_formula_sum   'Yb2 Ce1 Er1 B16 Ru4'
_cell_volume   244.42705646
_cell_formula_units_Z   1
loop_
 _symmetry_equiv_pos_site_id
 _symmetry_equiv_pos_as_xyz
  1  'x, y, z'
loop_
 _atom_site_type_symbol
 _atom_site_label
 _atom_site_symmetry_multiplicity
 _atom_site_fract_x
 _atom_site_fract_y
 _atom_site_fract_z
 _atom_site_occupancy
  Yb  Yb0  1  0.500000  0.128257  0.352129  1
  Yb  Yb1  1  0.500000  0.871791  0.649476  1
  Ce  Ce2  1  0.500000  0.629304  0.151499  1
  Er  Er3  1  0.500000  0.370591  0.847721  1
  B  B4  1  0.000000  0.975753  0.191215  1
  B  B5  1  0.000000  0.025185  0.807333  1
  B  B6  1  0.000000  0.476701  0.310201  1
  B  B7  1  0.000000  0.523571  0.691655  1
  B  B8  1  0.000000  0.787424  0.316398  1
  B  B9  1  0.000000  0.211944  0.684617  1
  B  B10  1  0.000000  0.286654  0.185370  1
  B  B11  1  0.000000  0.712943  0.813166  1
  B  B12  1  0.000000  0.863931  0.469909  1
  B  B13  1  0.000000  0.135892  0.531042  1
  B  B14  1  0.000000  0.363936  0.029882  1
  B  B15  1  0.000000  0.636334  0.968064  1
  B  B16  1  0.000000  0.889986  0.045675  1
  B  B17  1  0.000000  0.112410  0.951459  1
  B  B18  1  0.000000  0.385903  0.454360  1
  B  B19  1  0.000000  0.612631  0.546975  1
  Ru  Ru20  1  0.500000  0.636853  0.410145  1
  Ru  Ru21  1  0.500000  0.362567  0.590786  1
  Ru  Ru22  1  0.500000  0.140386  0.092309  1
  Ru  Ru23  1  0.500000  0.859048  0.908613  1
