# generated using pymatgen
data_Sr6Sn6PdAu5
_symmetry_space_group_name_H-M   'P 1'
_cell_length_a   4.86577600
_cell_length_b   8.38286501
_cell_length_c   23.85016802
_cell_angle_alpha   89.99575236
_cell_angle_beta   90.00000000
_cell_angle_gamma   90.00000000
_symmetry_Int_Tables_number   1
_chemical_formula_structural   Sr6Sn6PdAu5
_chemical_formula_sum   'Sr12 Sn12 Pd2 Au10'
_cell_volume   972.82791962
_cell_formula_units_Z   2
loop_
 _symmetry_equiv_pos_site_id
 _symmetry_equiv_pos_as_xyz
  1  'x, y, z'
loop_
 _atom_site_type_symbol
 _atom_site_label
 _atom_site_symmetry_multiplicity
 _atom_site_fract_x
 _atom_site_fract_y
 _atom_site_fract_z
 _atom_site_occupancy
  Sr  Sr0  1  0.750000  0.207937  0.499236  1
  Sr  Sr1  1  0.250000  0.792413  0.165871  1
  Sr  Sr2  1  0.250000  0.791648  0.504575  1
  Sr  Sr3  1  0.250000  0.797524  0.830924  1
  Sr  Sr4  1  0.250000  0.706779  0.333878  1
  Sr  Sr5  1  0.750000  0.203468  0.832897  1
  Sr  Sr6  1  0.750000  0.288054  0.997457  1
  Sr  Sr7  1  0.750000  0.289489  0.666590  1
  Sr  Sr8  1  0.750000  0.291981  0.334302  1
  Sr  Sr9  1  0.250000  0.710318  0.666168  1
  Sr  Sr10  1  0.250000  0.711259  0.001788  1
  Sr  Sr11  1  0.750000  0.206470  0.166354  1
  Sn  Sn12  1  0.250000  0.407050  0.564799  1
  Sn  Sn13  1  0.250000  0.084280  0.397818  1
  Sn  Sn14  1  0.250000  0.086224  0.065444  1
  Sn  Sn15  1  0.250000  0.416824  0.897362  1
  Sn  Sn16  1  0.750000  0.584228  0.102194  1
  Sn  Sn17  1  0.250000  0.409532  0.768711  1
  Sn  Sn18  1  0.750000  0.582375  0.230669  1
  Sn  Sn19  1  0.750000  0.585993  0.434735  1
  Sn  Sn20  1  0.750000  0.913229  0.936038  1
  Sn  Sn21  1  0.250000  0.082143  0.269307  1
  Sn  Sn22  1  0.750000  0.923630  0.602108  1
  Sn  Sn23  1  0.750000  0.924275  0.730951  1
  Pd  Pd24  1  0.250000  0.085497  0.593567  1
  Pd  Pd25  1  0.250000  0.086930  0.738394  1
  Au  Au26  1  0.750000  0.586465  0.906779  1
  Au  Au27  1  0.750000  0.912736  0.405947  1
  Au  Au28  1  0.750000  0.585732  0.567152  1
  Au  Au29  1  0.750000  0.588064  0.760799  1
  Au  Au30  1  0.250000  0.415741  0.433175  1
  Au  Au31  1  0.250000  0.413929  0.239218  1
  Au  Au32  1  0.750000  0.915379  0.066713  1
  Au  Au33  1  0.250000  0.413377  0.093735  1
  Au  Au34  1  0.250000  0.085118  0.933579  1
  Au  Au35  1  0.750000  0.913907  0.260765  1
