# generated using pymatgen
data_Zr6CuBiTe
_symmetry_space_group_name_H-M   'P 1'
_cell_length_a   7.78765200
_cell_length_b   7.78765159
_cell_length_c   3.80271300
_cell_angle_alpha   90.00000000
_cell_angle_beta   90.00000000
_cell_angle_gamma   120.00000172
_symmetry_Int_Tables_number   1
_chemical_formula_structural   Zr6CuBiTe
_chemical_formula_sum   'Zr6 Cu1 Bi1 Te1'
_cell_volume   199.72720461
_cell_formula_units_Z   1
loop_
 _symmetry_equiv_pos_site_id
 _symmetry_equiv_pos_as_xyz
  1  'x, y, z'
loop_
 _atom_site_type_symbol
 _atom_site_label
 _atom_site_symmetry_multiplicity
 _atom_site_fract_x
 _atom_site_fract_y
 _atom_site_fract_z
 _atom_site_occupancy
  Zr  Zr0  1  0.404935  0.397998  0.500000  1
  Zr  Zr1  1  0.602002  0.006937  0.500000  1
  Zr  Zr2  1  0.993063  0.595065  0.500000  1
  Zr  Zr3  1  0.760477  0.760203  0.000000  1
  Zr  Zr4  1  0.239797  0.000274  0.000000  1
  Zr  Zr5  1  0.999726  0.239523  0.000000  1
  Cu  Cu6  1  0.000000  0.000000  0.500000  1
  Bi  Bi7  1  0.333333  0.666667  0.000000  1
  Te  Te8  1  0.666667  0.333333  0.000000  1
