# generated using pymatgen
data_Zr10Tl4In2CuP
_symmetry_space_group_name_H-M   'P 1'
_cell_length_a   8.76786728
_cell_length_b   8.76786753
_cell_length_c   5.89189400
_cell_angle_alpha   90.00165686
_cell_angle_beta   90.00165033
_cell_angle_gamma   119.97085208
_symmetry_Int_Tables_number   1
_chemical_formula_structural   Zr10Tl4In2CuP
_chemical_formula_sum   'Zr10 Tl4 In2 Cu1 P1'
_cell_volume   392.37469103
_cell_formula_units_Z   1
loop_
 _symmetry_equiv_pos_site_id
 _symmetry_equiv_pos_as_xyz
  1  'x, y, z'
loop_
 _atom_site_type_symbol
 _atom_site_label
 _atom_site_symmetry_multiplicity
 _atom_site_fract_x
 _atom_site_fract_y
 _atom_site_fract_z
 _atom_site_occupancy
  Zr  Zr0  1  0.748970  0.748970  0.257639  1
  Zr  Zr1  1  0.251303  0.000237  0.257186  1
  Zr  Zr2  1  0.000237  0.251303  0.257186  1
  Zr  Zr3  1  0.251175  0.251175  0.742565  1
  Zr  Zr4  1  0.748454  0.001368  0.742745  1
  Zr  Zr5  1  0.001368  0.748454  0.742745  1
  Zr  Zr6  1  0.666653  0.332739  0.501370  1
  Zr  Zr7  1  0.332739  0.666653  0.501370  1
  Zr  Zr8  1  0.332765  0.666776  0.998780  1
  Zr  Zr9  1  0.666776  0.332765  0.998780  1
  Tl  Tl10  1  0.389217  0.389217  0.245153  1
  Tl  Tl11  1  0.610035  0.999955  0.245107  1
  Tl  Tl12  1  0.999955  0.610035  0.245107  1
  Tl  Tl13  1  0.611119  0.611119  0.754525  1
  In  In14  1  0.389188  0.000093  0.755104  1
  In  In15  1  0.000093  0.389188  0.755104  1
  Cu  Cu16  1  0.000162  0.000162  0.999127  1
  P  P17  1  0.999792  0.999792  0.500406  1
