# generated using pymatgen
data_Y8V(Pd3Pt)6
_symmetry_space_group_name_H-M   'P 1'
_cell_length_a   8.36323300
_cell_length_b   8.35620000
_cell_length_c   8.36214700
_cell_angle_alpha   90.00000000
_cell_angle_beta   90.00000000
_cell_angle_gamma   90.00000000
_symmetry_Int_Tables_number   1
_chemical_formula_structural   Y8V(Pd3Pt)6
_chemical_formula_sum   'Y8 V1 Pd18 Pt6'
_cell_volume   584.38736866
_cell_formula_units_Z   1
loop_
 _symmetry_equiv_pos_site_id
 _symmetry_equiv_pos_as_xyz
  1  'x, y, z'
loop_
 _atom_site_type_symbol
 _atom_site_label
 _atom_site_symmetry_multiplicity
 _atom_site_fract_x
 _atom_site_fract_y
 _atom_site_fract_z
 _atom_site_occupancy
  Y  Y0  1  0.251840  0.251839  0.252285  1
  Y  Y1  1  0.747615  0.747133  0.746870  1
  Y  Y2  1  0.747615  0.747133  0.253130  1
  Y  Y3  1  0.748160  0.251839  0.747715  1
  Y  Y4  1  0.251840  0.251839  0.747715  1
  Y  Y5  1  0.252385  0.747133  0.253130  1
  Y  Y6  1  0.252385  0.747133  0.746870  1
  Y  Y7  1  0.748160  0.251839  0.252285  1
  V  V8  1  0.000000  0.010139  0.000000  1
  Pd  Pd9  1  0.261719  0.500252  0.000000  1
  Pd  Pd10  1  0.738281  0.500252  0.000000  1
  Pd  Pd11  1  0.000000  0.260613  0.500000  1
  Pd  Pd12  1  0.500000  0.259674  0.000000  1
  Pd  Pd13  1  0.000000  0.736984  0.500000  1
  Pd  Pd14  1  0.500000  0.737499  0.000000  1
  Pd  Pd15  1  0.500000  0.999883  0.261024  1
  Pd  Pd16  1  0.261858  0.000038  0.500000  1
  Pd  Pd17  1  0.500000  0.999883  0.738976  1
  Pd  Pd18  1  0.738142  0.000038  0.500000  1
  Pd  Pd19  1  0.000000  0.500290  0.261617  1
  Pd  Pd20  1  0.000000  0.500290  0.738383  1
  Pd  Pd21  1  0.500000  0.745940  0.500000  1
  Pd  Pd22  1  0.500000  0.499514  0.253679  1
  Pd  Pd23  1  0.500000  0.499514  0.746321  1
  Pd  Pd24  1  0.000000  0.712453  0.000000  1
  Pd  Pd25  1  0.000000  0.997986  0.293590  1
  Pd  Pd26  1  0.000000  0.997986  0.706410  1
  Pt  Pt27  1  0.253630  0.499297  0.500000  1
  Pt  Pt28  1  0.746370  0.499297  0.500000  1
  Pt  Pt29  1  0.500000  0.253711  0.500000  1
  Pt  Pt30  1  0.290200  0.997495  0.000000  1
  Pt  Pt31  1  0.709800  0.997495  0.000000  1
  Pt  Pt32  1  0.000000  0.297589  0.000000  1
