# generated using pymatgen
data_TbYTh(InIr)3
_symmetry_space_group_name_H-M   'P 1'
_cell_length_a   7.55747872
_cell_length_b   7.59030270
_cell_length_c   3.93951900
_cell_angle_alpha   90.00000000
_cell_angle_beta   90.00000000
_cell_angle_gamma   118.21932363
_symmetry_Int_Tables_number   1
_chemical_formula_structural   TbYTh(InIr)3
_chemical_formula_sum   'Tb1 Y1 Th1 In3 Ir3'
_cell_volume   199.12515692
_cell_formula_units_Z   1
loop_
 _symmetry_equiv_pos_site_id
 _symmetry_equiv_pos_as_xyz
  1  'x, y, z'
loop_
 _atom_site_type_symbol
 _atom_site_label
 _atom_site_symmetry_multiplicity
 _atom_site_fract_x
 _atom_site_fract_y
 _atom_site_fract_z
 _atom_site_occupancy
  Tb  Tb0  1  0.998490  0.593532  0.000000  1
  Y  Y1  1  0.594348  0.998558  0.000000  1
  Th  Th2  1  0.416763  0.416960  0.000000  1
  In  In3  1  0.989313  0.255901  0.500000  1
  In  In4  1  0.756118  0.756955  0.500000  1
  In  In5  1  0.257215  0.990094  0.500000  1
  Ir  Ir6  1  0.006388  0.005522  0.000000  1
  Ir  Ir7  1  0.330584  0.647843  0.500000  1
  Ir  Ir8  1  0.650781  0.334635  0.500000  1
