# generated using pymatgen
data_Nb6Si6Mo5Os
_symmetry_space_group_name_H-M   'P 1'
_cell_length_a   7.68340465
_cell_length_b   7.69678764
_cell_length_c   7.68332182
_cell_angle_alpha   126.44924144
_cell_angle_beta   128.25341160
_cell_angle_gamma   77.64766571
_symmetry_Int_Tables_number   1
_chemical_formula_structural   Nb6Si6Mo5Os
_chemical_formula_sum   'Nb6 Si6 Mo5 Os1'
_cell_volume   278.36121675
_cell_formula_units_Z   1
loop_
 _symmetry_equiv_pos_site_id
 _symmetry_equiv_pos_as_xyz
  1  'x, y, z'
loop_
 _atom_site_type_symbol
 _atom_site_label
 _atom_site_symmetry_multiplicity
 _atom_site_fract_x
 _atom_site_fract_y
 _atom_site_fract_z
 _atom_site_occupancy
  Nb  Nb0  1  0.549747  0.085237  0.036647  1
  Nb  Nb1  1  0.448043  0.497197  0.552770  1
  Nb  Nb2  1  0.944200  0.496462  0.048114  1
  Nb  Nb3  1  0.048187  0.085571  0.535838  1
  Nb  Nb4  1  0.756595  0.908401  0.654743  1
  Nb  Nb5  1  0.253345  0.908122  0.151481  1
  Si  Si6  1  0.746578  0.496617  0.250277  1
  Si  Si7  1  0.246517  0.496809  0.750842  1
  Si  Si8  1  0.334130  0.821770  0.486974  1
  Si  Si9  1  0.668088  0.166028  0.496814  1
  Si  Si10  1  0.834457  0.827748  0.993405  1
  Si  Si11  1  0.172494  0.171617  0.999640  1
  Mo  Mo12  1  0.498525  0.239060  0.740514  1
  Mo  Mo13  1  0.001671  0.240833  0.239699  1
  Mo  Mo14  1  0.129074  0.754850  0.625962  1
  Mo  Mo15  1  0.869033  0.496749  0.627422  1
  Mo  Mo16  1  0.627761  0.752541  0.125007  1
  Os  Os17  1  0.371555  0.496586  0.126053  1
