# generated using pymatgen
data_Tm11LuIn2Tc3
_symmetry_space_group_name_H-M   'P 1'
_cell_length_a   8.35807322
_cell_length_b   8.35558845
_cell_length_c   8.35558944
_cell_angle_alpha   108.81288648
_cell_angle_beta   108.87596944
_cell_angle_gamma   110.71987360
_symmetry_Int_Tables_number   1
_chemical_formula_structural   Tm11LuIn2Tc3
_chemical_formula_sum   'Tm11 Lu1 In2 Tc3'
_cell_volume   449.10491048
_cell_formula_units_Z   1
loop_
 _symmetry_equiv_pos_site_id
 _symmetry_equiv_pos_as_xyz
  1  'x, y, z'
loop_
 _atom_site_type_symbol
 _atom_site_label
 _atom_site_symmetry_multiplicity
 _atom_site_fract_x
 _atom_site_fract_y
 _atom_site_fract_z
 _atom_site_occupancy
  Tm  Tm0  1  0.305654  0.305815  0.610989  1
  Tm  Tm1  1  0.694482  0.694703  0.389324  1
  Tm  Tm2  1  0.694482  0.305156  0.999778  1
  Tm  Tm3  1  0.305654  0.694666  0.999839  1
  Tm  Tm4  1  0.190097  0.429678  0.239701  1
  Tm  Tm5  1  0.809733  0.570749  0.760577  1
  Tm  Tm6  1  0.190097  0.950395  0.760419  1
  Tm  Tm7  1  0.950159  0.189550  0.760610  1
  Tm  Tm8  1  0.809733  0.049157  0.238984  1
  Tm  Tm9  1  0.049527  0.810126  0.239400  1
  Tm  Tm10  1  0.429397  0.189920  0.239477  1
  Lu  Lu11  1  0.571413  0.810274  0.761140  1
  In  In12  1  0.999990  0.500001  0.499989  1
  In  In13  1  0.499968  0.999747  0.500222  1
  Tc  Tc14  1  0.371174  0.371240  0.999935  1
  Tc  Tc15  1  0.628710  0.628922  0.999788  1
  Tc  Tc16  1  0.999730  0.999902  0.999829  1
