# generated using pymatgen
data_P(S8O)3
_symmetry_space_group_name_H-M   'P 1'
_cell_length_a   14.65560596
_cell_length_b   14.65560656
_cell_length_c   14.65560500
_cell_angle_alpha   118.67950567
_cell_angle_beta   118.67950695
_cell_angle_gamma   118.67949542
_symmetry_Int_Tables_number   1
_chemical_formula_structural   P(S8O)3
_chemical_formula_sum   'P1 S24 O3'
_cell_volume   933.80254730
_cell_formula_units_Z   1
loop_
 _symmetry_equiv_pos_site_id
 _symmetry_equiv_pos_as_xyz
  1  'x, y, z'
loop_
 _atom_site_type_symbol
 _atom_site_label
 _atom_site_symmetry_multiplicity
 _atom_site_fract_x
 _atom_site_fract_y
 _atom_site_fract_z
 _atom_site_occupancy
  P  P0  1  0.930932  0.930932  0.930932  1
  S  S1  1  0.801535  0.527731  0.527731  1
  S  S2  1  0.527731  0.527731  0.801535  1
  S  S3  1  0.527731  0.801535  0.527731  1
  S  S4  1  0.249769  0.382794  0.635455  1
  S  S5  1  0.345103  0.951005  0.345103  1
  S  S6  1  0.345103  0.345103  0.951005  1
  S  S7  1  0.951005  0.345103  0.345103  1
  S  S8  1  0.122969  0.740049  0.255948  1
  S  S9  1  0.255948  0.122969  0.740049  1
  S  S10  1  0.740049  0.255948  0.122969  1
  S  S11  1  0.740049  0.122969  0.255948  1
  S  S12  1  0.255948  0.740049  0.122969  1
  S  S13  1  0.122969  0.255948  0.740049  1
  S  S14  1  0.348786  0.882075  0.535513  1
  S  S15  1  0.535513  0.348786  0.882075  1
  S  S16  1  0.882075  0.535513  0.348786  1
  S  S17  1  0.882075  0.348786  0.535513  1
  S  S18  1  0.535513  0.882075  0.348786  1
  S  S19  1  0.348786  0.535513  0.882075  1
  S  S20  1  0.249769  0.635455  0.382794  1
  S  S21  1  0.382794  0.249769  0.635455  1
  S  S22  1  0.635455  0.382794  0.249769  1
  S  S23  1  0.635455  0.249769  0.382794  1
  S  S24  1  0.382794  0.635455  0.249769  1
  O  O25  1  0.861435  0.964002  0.964002  1
  O  O26  1  0.964002  0.964002  0.861435  1
  O  O27  1  0.964002  0.861435  0.964002  1
