# generated using pymatgen
data_TmLu9(ZnIn3)2
_symmetry_space_group_name_H-M   'P 1'
_cell_length_a   8.96384500
_cell_length_b   8.97054300
_cell_length_c   6.60159300
_cell_angle_alpha   90.00000000
_cell_angle_beta   90.00000000
_cell_angle_gamma   119.97529986
_symmetry_Int_Tables_number   1
_chemical_formula_structural   TmLu9(ZnIn3)2
_chemical_formula_sum   'Tm1 Lu9 Zn2 In6'
_cell_volume   459.83337362
_cell_formula_units_Z   1
loop_
 _symmetry_equiv_pos_site_id
 _symmetry_equiv_pos_as_xyz
  1  'x, y, z'
loop_
 _atom_site_type_symbol
 _atom_site_label
 _atom_site_symmetry_multiplicity
 _atom_site_fract_x
 _atom_site_fract_y
 _atom_site_fract_z
 _atom_site_occupancy
  Tm  Tm0  1  0.269627  0.000000  0.750000  1
  Lu  Lu1  1  0.334206  0.665753  0.500236  1
  Lu  Lu2  1  0.668454  0.334247  0.500236  1
  Lu  Lu3  1  0.668454  0.334247  0.999764  1
  Lu  Lu4  1  0.334206  0.665753  0.999764  1
  Lu  Lu5  1  0.722749  0.000000  0.250000  1
  Lu  Lu6  1  0.001525  0.272457  0.750000  1
  Lu  Lu7  1  0.001264  0.727213  0.250000  1
  Lu  Lu8  1  0.729067  0.727543  0.750000  1
  Lu  Lu9  1  0.274051  0.272787  0.250000  1
  Zn  Zn10  1  0.995488  0.000000  0.495540  1
  Zn  Zn11  1  0.995488  0.000000  0.004460  1
  In  In12  1  0.621485  0.000000  0.750000  1
  In  In13  1  0.380200  0.000000  0.250000  1
  In  In14  1  0.000205  0.618273  0.750000  1
  In  In15  1  0.000406  0.379213  0.250000  1
  In  In16  1  0.381932  0.381727  0.750000  1
  In  In17  1  0.621193  0.620787  0.250000  1
