# generated using pymatgen
data_Pr8Gd12CuSi15
_symmetry_space_group_name_H-M   'P 1'
_cell_length_a   7.51481212
_cell_length_b   7.77913957
_cell_length_c   14.82886600
_cell_angle_alpha   89.88171303
_cell_angle_beta   89.46051381
_cell_angle_gamma   90.23126686
_symmetry_Int_Tables_number   1
_chemical_formula_structural   Pr8Gd12CuSi15
_chemical_formula_sum   'Pr8 Gd12 Cu1 Si15'
_cell_volume   866.82989597
_cell_formula_units_Z   1
loop_
 _symmetry_equiv_pos_site_id
 _symmetry_equiv_pos_as_xyz
  1  'x, y, z'
loop_
 _atom_site_type_symbol
 _atom_site_label
 _atom_site_symmetry_multiplicity
 _atom_site_fract_x
 _atom_site_fract_y
 _atom_site_fract_z
 _atom_site_occupancy
  Pr  Pr0  1  0.017554  0.175864  0.402823  1
  Pr  Pr1  1  0.520423  0.318103  0.400561  1
  Pr  Pr2  1  0.476949  0.681030  0.900661  1
  Pr  Pr3  1  0.482753  0.679729  0.598632  1
  Pr  Pr4  1  0.979977  0.825154  0.597888  1
  Pr  Pr5  1  0.977796  0.822019  0.901205  1
  Pr  Pr6  1  0.521215  0.319288  0.098268  1
  Pr  Pr7  1  0.024156  0.180154  0.099719  1
  Gd  Gd8  1  0.328940  0.183742  0.620834  1
  Gd  Gd9  1  0.671497  0.820213  0.376995  1
  Gd  Gd10  1  0.656629  0.992683  0.747459  1
  Gd  Gd11  1  0.174384  0.672456  0.380213  1
  Gd  Gd12  1  0.824841  0.319328  0.877667  1
  Gd  Gd13  1  0.827208  0.323955  0.621127  1
  Gd  Gd14  1  0.843181  0.488616  0.253593  1
  Gd  Gd15  1  0.344640  0.005246  0.251889  1
  Gd  Gd16  1  0.323145  0.180570  0.877469  1
  Gd  Gd17  1  0.175839  0.680755  0.123149  1
  Gd  Gd18  1  0.676511  0.819858  0.123099  1
  Gd  Gd19  1  0.159024  0.509294  0.747043  1
  Cu  Cu20  1  0.141994  0.469749  0.538471  1
  Si  Si21  1  0.270917  0.883174  0.749304  1
  Si  Si22  1  0.465528  0.605628  0.249481  1
  Si  Si23  1  0.035138  0.111218  0.750042  1
  Si  Si24  1  0.536330  0.393021  0.751100  1
  Si  Si25  1  0.966959  0.890318  0.250579  1
  Si  Si26  1  0.730345  0.119003  0.249558  1
  Si  Si27  1  0.854246  0.531233  0.038726  1
  Si  Si28  1  0.354960  0.968082  0.038522  1
  Si  Si29  1  0.144510  0.469272  0.961899  1
  Si  Si30  1  0.648775  0.032391  0.537599  1
  Si  Si31  1  0.350363  0.966341  0.462056  1
  Si  Si32  1  0.845576  0.533285  0.460812  1
  Si  Si33  1  0.773760  0.619484  0.750981  1
  Si  Si34  1  0.229150  0.379290  0.249828  1
  Si  Si35  1  0.644785  0.030457  0.960755  1
