# generated using pymatgen
data_Dy7TmV4O20
_symmetry_space_group_name_H-M   'P 1'
_cell_length_a   3.72549600
_cell_length_b   10.34252677
_cell_length_c   11.27383500
_cell_angle_alpha   90.03351594
_cell_angle_beta   90.00000000
_cell_angle_gamma   90.00000000
_symmetry_Int_Tables_number   1
_chemical_formula_structural   Dy7TmV4O20
_chemical_formula_sum   'Dy7 Tm1 V4 O20'
_cell_volume   434.39253680
_cell_formula_units_Z   1
loop_
 _symmetry_equiv_pos_site_id
 _symmetry_equiv_pos_as_xyz
  1  'x, y, z'
loop_
 _atom_site_type_symbol
 _atom_site_label
 _atom_site_symmetry_multiplicity
 _atom_site_fract_x
 _atom_site_fract_y
 _atom_site_fract_z
 _atom_site_occupancy
  Dy  Dy0  1  0.250000  0.122204  0.272244  1
  Dy  Dy1  1  0.250000  0.136248  0.943575  1
  Dy  Dy2  1  0.750000  0.362658  0.445211  1
  Dy  Dy3  1  0.750000  0.377808  0.772224  1
  Dy  Dy4  1  0.250000  0.622100  0.227821  1
  Dy  Dy5  1  0.250000  0.638006  0.555999  1
  Dy  Dy6  1  0.750000  0.862763  0.054524  1
  Tm  Tm7  1  0.750000  0.876366  0.728316  1
  V  V8  1  0.250000  0.165929  0.616688  1
  V  V9  1  0.750000  0.332486  0.116036  1
  V  V10  1  0.250000  0.668045  0.883032  1
  V  V11  1  0.750000  0.832973  0.384581  1
  O  O12  1  0.750000  0.002772  0.891996  1
  O  O13  1  0.250000  0.002530  0.653475  1
  O  O14  1  0.250000  0.225553  0.455972  1
  O  O15  1  0.750000  0.245919  0.267128  1
  O  O16  1  0.750000  0.230851  0.614125  1
  O  O17  1  0.250000  0.268485  0.113745  1
  O  O18  1  0.250000  0.254190  0.767026  1
  O  O19  1  0.750000  0.272863  0.955542  1
  O  O20  1  0.750000  0.496368  0.151355  1
  O  O21  1  0.250000  0.495742  0.394871  1
  O  O22  1  0.750000  0.505127  0.605659  1
  O  O23  1  0.250000  0.504212  0.847834  1
  O  O24  1  0.250000  0.726172  0.043833  1
  O  O25  1  0.750000  0.746187  0.233163  1
  O  O26  1  0.750000  0.731969  0.884486  1
  O  O27  1  0.250000  0.768593  0.386777  1
  O  O28  1  0.250000  0.757388  0.733423  1
  O  O29  1  0.750000  0.775689  0.546108  1
  O  O30  1  0.750000  0.996361  0.348514  1
  O  O31  1  0.250000  0.995442  0.104715  1
