# generated using pymatgen
data_Pr2Ga3Cu4Si
_symmetry_space_group_name_H-M   'P 1'
_cell_length_a   4.18964700
_cell_length_b   4.18964700
_cell_length_c   10.12779700
_cell_angle_alpha   90.00000000
_cell_angle_beta   90.00000000
_cell_angle_gamma   90.00000000
_symmetry_Int_Tables_number   1
_chemical_formula_structural   Pr2Ga3Cu4Si
_chemical_formula_sum   'Pr2 Ga3 Cu4 Si1'
_cell_volume   177.77465873
_cell_formula_units_Z   1
loop_
 _symmetry_equiv_pos_site_id
 _symmetry_equiv_pos_as_xyz
  1  'x, y, z'
loop_
 _atom_site_type_symbol
 _atom_site_label
 _atom_site_symmetry_multiplicity
 _atom_site_fract_x
 _atom_site_fract_y
 _atom_site_fract_z
 _atom_site_occupancy
  Pr  Pr0  1  0.000000  0.500000  0.242056  1
  Pr  Pr1  1  0.500000  0.000000  0.758056  1
  Ga  Ga2  1  0.000000  0.000000  0.501098  1
  Ga  Ga3  1  0.500000  0.500000  0.501098  1
  Ga  Ga4  1  0.500000  0.000000  0.130255  1
  Cu  Cu5  1  0.000000  0.000000  0.993264  1
  Cu  Cu6  1  0.500000  0.500000  0.993264  1
  Cu  Cu7  1  0.000000  0.500000  0.639206  1
  Cu  Cu8  1  0.500000  0.000000  0.368535  1
  Si  Si9  1  0.000000  0.500000  0.873168  1
