# generated using pymatgen
data_Ho5Er7Th4(CdCo)4
_symmetry_space_group_name_H-M   'P 1'
_cell_length_a   9.55980699
_cell_length_b   9.54635831
_cell_length_c   9.54635689
_cell_angle_alpha   59.92282397
_cell_angle_beta   59.95338082
_cell_angle_gamma   59.95337564
_symmetry_Int_Tables_number   1
_chemical_formula_structural   Ho5Er7Th4(CdCo)4
_chemical_formula_sum   'Ho5 Er7 Th4 Cd4 Co4'
_cell_volume   615.24704001
_cell_formula_units_Z   1
loop_
 _symmetry_equiv_pos_site_id
 _symmetry_equiv_pos_as_xyz
  1  'x, y, z'
loop_
 _atom_site_type_symbol
 _atom_site_label
 _atom_site_symmetry_multiplicity
 _atom_site_fract_x
 _atom_site_fract_y
 _atom_site_fract_z
 _atom_site_occupancy
  Ho  Ho0  1  0.812750  0.187250  0.187250  1
  Ho  Ho1  1  0.813712  0.187213  0.813849  1
  Ho  Ho2  1  0.185226  0.813849  0.187213  1
  Ho  Ho3  1  0.813712  0.813849  0.187213  1
  Ho  Ho4  1  0.185226  0.187213  0.813849  1
  Er  Er5  1  0.062465  0.437535  0.437535  1
  Er  Er6  1  0.435317  0.064683  0.064683  1
  Er  Er7  1  0.435930  0.063305  0.437216  1
  Er  Er8  1  0.063549  0.437216  0.063305  1
  Er  Er9  1  0.435930  0.437216  0.063305  1
  Er  Er10  1  0.063549  0.063305  0.437216  1
  Er  Er11  1  0.185602  0.814398  0.814398  1
  Th  Th12  1  0.595571  0.595990  0.595990  1
  Th  Th13  1  0.596422  0.596952  0.210206  1
  Th  Th14  1  0.596422  0.210206  0.596952  1
  Th  Th15  1  0.212451  0.595990  0.595990  1
  Cd  Cd16  1  0.833746  0.830917  0.830917  1
  Cd  Cd17  1  0.832923  0.830561  0.503595  1
  Cd  Cd18  1  0.832923  0.503595  0.830561  1
  Cd  Cd19  1  0.504420  0.830917  0.830917  1
  Co  Co20  1  0.395841  0.393941  0.393941  1
  Co  Co21  1  0.395019  0.393704  0.816259  1
  Co  Co22  1  0.395019  0.816259  0.393704  1
  Co  Co23  1  0.816277  0.393941  0.393941  1
