# generated using pymatgen
data_Sc4In2B4Ir9Rh
_symmetry_space_group_name_H-M   'P 1'
_cell_length_a   9.56572872
_cell_length_b   9.58273172
_cell_length_c   3.12733100
_cell_angle_alpha   90.00000000
_cell_angle_beta   90.00000000
_cell_angle_gamma   90.04449986
_symmetry_Int_Tables_number   1
_chemical_formula_structural   Sc4In2B4Ir9Rh
_chemical_formula_sum   'Sc4 In2 B4 Ir9 Rh1'
_cell_volume   286.66924925
_cell_formula_units_Z   1
loop_
 _symmetry_equiv_pos_site_id
 _symmetry_equiv_pos_as_xyz
  1  'x, y, z'
loop_
 _atom_site_type_symbol
 _atom_site_label
 _atom_site_symmetry_multiplicity
 _atom_site_fract_x
 _atom_site_fract_y
 _atom_site_fract_z
 _atom_site_occupancy
  Sc  Sc0  1  0.823801  0.324185  0.000000  1
  Sc  Sc1  1  0.323784  0.175896  0.000000  1
  Sc  Sc2  1  0.675771  0.823899  0.000000  1
  Sc  Sc3  1  0.175363  0.676828  0.000000  1
  In  In4  1  0.000160  0.000279  0.000000  1
  In  In5  1  0.497313  0.499114  0.000000  1
  B  B6  1  0.622701  0.122657  0.000000  1
  B  B7  1  0.121454  0.377112  0.000000  1
  B  B8  1  0.877413  0.622418  0.000000  1
  B  B9  1  0.378064  0.877357  0.000000  1
  Ir  Ir10  1  0.072443  0.225016  0.500000  1
  Ir  Ir11  1  0.224410  0.928701  0.500000  1
  Ir  Ir12  1  0.775969  0.070616  0.500000  1
  Ir  Ir13  1  0.929242  0.775226  0.500000  1
  Ir  Ir14  1  0.429323  0.724657  0.500000  1
  Ir  Ir15  1  0.571947  0.275851  0.500000  1
  Ir  Ir16  1  0.724134  0.570690  0.500000  1
  Ir  Ir17  1  0.499834  0.000624  0.500000  1
  Ir  Ir18  1  0.001013  0.499860  0.500000  1
  Rh  Rh19  1  0.275861  0.429013  0.500000  1
