# generated using pymatgen
data_Pr5Al2Os2Ru
_symmetry_space_group_name_H-M   'P 1'
_cell_length_a   8.64001844
_cell_length_b   8.61978210
_cell_length_c   8.62030755
_cell_angle_alpha   109.45588678
_cell_angle_beta   109.78872405
_cell_angle_gamma   109.34693330
_symmetry_Int_Tables_number   1
_chemical_formula_structural   Pr5Al2Os2Ru
_chemical_formula_sum   'Pr10 Al4 Os4 Ru2'
_cell_volume   493.11644428
_cell_formula_units_Z   2
loop_
 _symmetry_equiv_pos_site_id
 _symmetry_equiv_pos_as_xyz
  1  'x, y, z'
loop_
 _atom_site_type_symbol
 _atom_site_label
 _atom_site_symmetry_multiplicity
 _atom_site_fract_x
 _atom_site_fract_y
 _atom_site_fract_z
 _atom_site_occupancy
  Pr  Pr0  1  0.249217  0.681506  0.433776  1
  Pr  Pr1  1  0.749646  0.817748  0.065847  1
  Pr  Pr2  1  0.432777  0.248730  0.681861  1
  Pr  Pr3  1  0.682180  0.433391  0.250550  1
  Pr  Pr4  1  0.067298  0.750972  0.818582  1
  Pr  Pr5  1  0.817524  0.066969  0.748740  1
  Pr  Pr6  1  0.214082  0.214367  0.214522  1
  Pr  Pr7  1  0.499684  0.999812  0.285797  1
  Pr  Pr8  1  0.286382  0.500002  0.000215  1
  Pr  Pr9  1  0.999705  0.285713  0.499471  1
  Al  Al10  1  0.590106  0.589059  0.590078  1
  Al  Al11  1  0.500523  0.001387  0.910904  1
  Al  Al12  1  0.910477  0.500165  0.000532  1
  Al  Al13  1  0.001232  0.910578  0.499663  1
  Os  Os14  1  0.250056  0.116717  0.866384  1
  Os  Os15  1  0.749629  0.383212  0.633344  1
  Os  Os16  1  0.865936  0.250106  0.116258  1
  Os  Os17  1  0.116076  0.866059  0.250015  1
  Ru  Ru18  1  0.633643  0.749646  0.383545  1
  Ru  Ru19  1  0.383824  0.633859  0.749917  1
