# generated using pymatgen
data_Mg(TaS2)3
_symmetry_space_group_name_H-M   'P 1'
_cell_length_a   5.80103900
_cell_length_b   5.80103863
_cell_length_c   13.00899200
_cell_angle_alpha   90.00000000
_cell_angle_beta   90.00000000
_cell_angle_gamma   119.99999643
_symmetry_Int_Tables_number   1
_chemical_formula_structural   Mg(TaS2)3
_chemical_formula_sum   'Mg2 Ta6 S12'
_cell_volume   379.12797954
_cell_formula_units_Z   2
loop_
 _symmetry_equiv_pos_site_id
 _symmetry_equiv_pos_as_xyz
  1  'x, y, z'
loop_
 _atom_site_type_symbol
 _atom_site_label
 _atom_site_symmetry_multiplicity
 _atom_site_fract_x
 _atom_site_fract_y
 _atom_site_fract_z
 _atom_site_occupancy
  Mg  Mg0  1  0.333333  0.666667  0.250000  1
  Mg  Mg1  1  0.666667  0.333333  0.750000  1
  Ta  Ta2  1  0.000000  0.000000  0.500000  1
  Ta  Ta3  1  0.000000  0.000000  0.000000  1
  Ta  Ta4  1  0.333333  0.666667  0.998733  1
  Ta  Ta5  1  0.666667  0.333333  0.001267  1
  Ta  Ta6  1  0.666667  0.333333  0.498733  1
  Ta  Ta7  1  0.333333  0.666667  0.501267  1
  S  S8  1  0.332988  0.330827  0.379634  1
  S  S9  1  0.669173  0.002161  0.379634  1
  S  S10  1  0.997839  0.667012  0.379634  1
  S  S11  1  0.330827  0.332988  0.620366  1
  S  S12  1  0.002161  0.669173  0.620366  1
  S  S13  1  0.667012  0.997839  0.620366  1
  S  S14  1  0.667012  0.669173  0.879634  1
  S  S15  1  0.330827  0.997839  0.879634  1
  S  S16  1  0.002161  0.332988  0.879634  1
  S  S17  1  0.669173  0.667012  0.120366  1
  S  S18  1  0.997839  0.330827  0.120366  1
  S  S19  1  0.332988  0.002161  0.120366  1
