# generated using pymatgen
data_Tm6Lu4Si5Ge
_symmetry_space_group_name_H-M   'P 1'
_cell_length_a   8.29566300
_cell_length_b   8.29653024
_cell_length_c   6.20151500
_cell_angle_alpha   90.00000000
_cell_angle_beta   90.00000000
_cell_angle_gamma   119.99654619
_symmetry_Int_Tables_number   1
_chemical_formula_structural   Tm6Lu4Si5Ge
_chemical_formula_sum   'Tm6 Lu4 Si5 Ge1'
_cell_volume   369.65037033
_cell_formula_units_Z   1
loop_
 _symmetry_equiv_pos_site_id
 _symmetry_equiv_pos_as_xyz
  1  'x, y, z'
loop_
 _atom_site_type_symbol
 _atom_site_label
 _atom_site_symmetry_multiplicity
 _atom_site_fract_x
 _atom_site_fract_y
 _atom_site_fract_z
 _atom_site_occupancy
  Tm  Tm0  1  0.758360  0.000000  0.750000  1
  Tm  Tm1  1  0.757617  0.757671  0.250000  1
  Tm  Tm2  1  0.999946  0.242329  0.250000  1
  Tm  Tm3  1  0.999071  0.756999  0.750000  1
  Tm  Tm4  1  0.242073  0.243001  0.750000  1
  Tm  Tm5  1  0.242062  0.000000  0.250000  1
  Lu  Lu6  1  0.667257  0.334036  0.000592  1
  Lu  Lu7  1  0.333219  0.665964  0.499408  1
  Lu  Lu8  1  0.333219  0.665964  0.000592  1
  Lu  Lu9  1  0.667257  0.334036  0.499408  1
  Si  Si10  1  0.395023  0.394993  0.250000  1
  Si  Si11  1  0.000030  0.605007  0.250000  1
  Si  Si12  1  0.999991  0.395032  0.750000  1
  Si  Si13  1  0.604958  0.604968  0.750000  1
  Si  Si14  1  0.605133  0.000000  0.250000  1
  Ge  Ge15  1  0.394784  0.000000  0.750000  1
