# generated using pymatgen
data_Tb4Ho2Al24Ru5Pt3
_symmetry_space_group_name_H-M   'P 1'
_cell_length_a   8.85266701
_cell_length_b   8.84568237
_cell_length_c   9.52152121
_cell_angle_alpha   90.21450822
_cell_angle_beta   90.01050813
_cell_angle_gamma   119.83359867
_symmetry_Int_Tables_number   1
_chemical_formula_structural   Tb4Ho2Al24Ru5Pt3
_chemical_formula_sum   'Tb4 Ho2 Al24 Ru5 Pt3'
_cell_volume   646.79098964
_cell_formula_units_Z   1
loop_
 _symmetry_equiv_pos_site_id
 _symmetry_equiv_pos_as_xyz
  1  'x, y, z'
loop_
 _atom_site_type_symbol
 _atom_site_label
 _atom_site_symmetry_multiplicity
 _atom_site_fract_x
 _atom_site_fract_y
 _atom_site_fract_z
 _atom_site_occupancy
  Tb  Tb0  1  0.189794  0.385222  0.251498  1
  Tb  Tb1  1  0.810206  0.614778  0.748502  1
  Tb  Tb2  1  0.615107  0.809095  0.250753  1
  Tb  Tb3  1  0.384893  0.190905  0.749247  1
  Ho  Ho4  1  0.192052  0.805488  0.250601  1
  Ho  Ho5  1  0.807948  0.194512  0.749399  1
  Al  Al6  1  0.327629  0.663661  0.027150  1
  Al  Al7  1  0.672371  0.336339  0.972850  1
  Al  Al8  1  0.669331  0.330347  0.524205  1
  Al  Al9  1  0.330669  0.669653  0.475795  1
  Al  Al10  1  0.157674  0.324583  0.577091  1
  Al  Al11  1  0.842326  0.675417  0.422909  1
  Al  Al12  1  0.675922  0.842376  0.577416  1
  Al  Al13  1  0.842209  0.675357  0.077099  1
  Al  Al14  1  0.324078  0.157624  0.422584  1
  Al  Al15  1  0.157791  0.324643  0.922901  1
  Al  Al16  1  0.162599  0.835844  0.576147  1
  Al  Al17  1  0.322094  0.161556  0.078700  1
  Al  Al18  1  0.837401  0.164156  0.423853  1
  Al  Al19  1  0.677906  0.838444  0.921300  1
  Al  Al20  1  0.842045  0.167503  0.076718  1
  Al  Al21  1  0.157955  0.832497  0.923282  1
  Al  Al22  1  0.562083  0.125427  0.253594  1
  Al  Al23  1  0.437917  0.874573  0.746406  1
  Al  Al24  1  0.877663  0.439635  0.249479  1
  Al  Al25  1  0.122337  0.560365  0.750521  1
  Al  Al26  1  0.563980  0.436462  0.249333  1
  Al  Al27  1  0.436020  0.563538  0.750667  1
  Al  Al28  1  0.997938  0.999841  0.250132  1
  Al  Al29  1  0.002062  0.000159  0.749868  1
  Ru  Ru30  1  0.000000  0.500000  0.000000  1
  Ru  Ru31  1  0.500000  0.000000  0.500000  1
  Ru  Ru32  1  0.000000  0.500000  0.500000  1
  Ru  Ru33  1  0.000000  0.000000  0.000000  1
  Ru  Ru34  1  0.000000  0.000000  0.500000  1
  Pt  Pt35  1  0.500000  0.000000  0.000000  1
  Pt  Pt36  1  0.500000  0.500000  0.000000  1
  Pt  Pt37  1  0.500000  0.500000  0.500000  1
