# generated using pymatgen
data_Gd2Sc2MnCrB12
_symmetry_space_group_name_H-M   'P 1'
_cell_length_a   3.46624900
_cell_length_b   9.01350995
_cell_length_c   11.40552420
_cell_angle_alpha   89.94747609
_cell_angle_beta   90.00000000
_cell_angle_gamma   90.00000000
_symmetry_Int_Tables_number   1
_chemical_formula_structural   Gd2Sc2MnCrB12
_chemical_formula_sum   'Gd4 Sc4 Mn2 Cr2 B24'
_cell_volume   356.34343935
_cell_formula_units_Z   2
loop_
 _symmetry_equiv_pos_site_id
 _symmetry_equiv_pos_as_xyz
  1  'x, y, z'
loop_
 _atom_site_type_symbol
 _atom_site_label
 _atom_site_symmetry_multiplicity
 _atom_site_fract_x
 _atom_site_fract_y
 _atom_site_fract_z
 _atom_site_occupancy
  Gd  Gd0  1  0.000000  0.822005  0.085209  1
  Gd  Gd1  1  0.000000  0.177995  0.914791  1
  Gd  Gd2  1  0.000000  0.322404  0.414896  1
  Gd  Gd3  1  0.000000  0.677596  0.585104  1
  Sc  Sc4  1  0.000000  0.444210  0.129863  1
  Sc  Sc5  1  0.000000  0.555790  0.870137  1
  Sc  Sc6  1  0.000000  0.943667  0.370168  1
  Sc  Sc7  1  0.000000  0.056333  0.629832  1
  Mn  Mn8  1  0.000000  0.141686  0.182186  1
  Mn  Mn9  1  0.000000  0.858314  0.817814  1
  Cr  Cr10  1  0.000000  0.642033  0.317070  1
  Cr  Cr11  1  0.000000  0.357967  0.682930  1
  B  B12  1  0.500000  0.055942  0.069335  1
  B  B13  1  0.500000  0.944058  0.930665  1
  B  B14  1  0.500000  0.555004  0.431021  1
  B  B15  1  0.500000  0.444996  0.568979  1
  B  B16  1  0.500000  0.252799  0.083351  1
  B  B17  1  0.500000  0.747201  0.916649  1
  B  B18  1  0.500000  0.752919  0.416698  1
  B  B19  1  0.500000  0.247081  0.583302  1
  B  B20  1  0.500000  0.293841  0.234870  1
  B  B21  1  0.500000  0.706159  0.765130  1
  B  B22  1  0.500000  0.794896  0.264770  1
  B  B23  1  0.500000  0.205104  0.735230  1
  B  B24  1  0.500000  0.129445  0.316043  1
  B  B25  1  0.500000  0.870555  0.683957  1
  B  B26  1  0.500000  0.629641  0.183368  1
  B  B27  1  0.500000  0.370359  0.816632  1
  B  B28  1  0.500000  0.482727  0.285602  1
  B  B29  1  0.500000  0.517273  0.714398  1
  B  B30  1  0.500000  0.983632  0.213845  1
  B  B31  1  0.500000  0.016368  0.786155  1
  B  B32  1  0.500000  0.096281  0.473823  1
  B  B33  1  0.500000  0.903719  0.526177  1
  B  B34  1  0.500000  0.596461  0.025742  1
  B  B35  1  0.500000  0.403539  0.974258  1
