# generated using pymatgen
data_Nd2DyEr5(CdPt)2
_symmetry_space_group_name_H-M   'P 1'
_cell_length_a   9.71753155
_cell_length_b   9.69441498
_cell_length_c   9.69441425
_cell_angle_alpha   60.15782147
_cell_angle_beta   59.92108894
_cell_angle_gamma   59.92108548
_symmetry_Int_Tables_number   1
_chemical_formula_structural   Nd2DyEr5(CdPt)2
_chemical_formula_sum   'Nd4 Dy2 Er10 Cd4 Pt4'
_cell_volume   645.77195025
_cell_formula_units_Z   2
loop_
 _symmetry_equiv_pos_site_id
 _symmetry_equiv_pos_as_xyz
  1  'x, y, z'
loop_
 _atom_site_type_symbol
 _atom_site_label
 _atom_site_symmetry_multiplicity
 _atom_site_fract_x
 _atom_site_fract_y
 _atom_site_fract_z
 _atom_site_occupancy
  Nd  Nd0  1  0.564545  0.935455  0.564545  1
  Nd  Nd1  1  0.935455  0.564545  0.935455  1
  Nd  Nd2  1  0.564545  0.564545  0.935455  1
  Nd  Nd3  1  0.935455  0.935455  0.564545  1
  Dy  Dy4  1  0.941042  0.558958  0.558958  1
  Dy  Dy5  1  0.558958  0.941042  0.941042  1
  Er  Er6  1  0.350941  0.350592  0.350592  1
  Er  Er7  1  0.350592  0.350941  0.947875  1
  Er  Er8  1  0.350592  0.947875  0.350941  1
  Er  Er9  1  0.947875  0.350592  0.350592  1
  Er  Er10  1  0.811256  0.188744  0.188744  1
  Er  Er11  1  0.188744  0.811256  0.811256  1
  Er  Er12  1  0.189186  0.810814  0.189186  1
  Er  Er13  1  0.810814  0.189186  0.810814  1
  Er  Er14  1  0.189186  0.189186  0.810814  1
  Er  Er15  1  0.810814  0.810814  0.189186  1
  Cd  Cd16  1  0.582854  0.579088  0.579088  1
  Cd  Cd17  1  0.579088  0.582854  0.258971  1
  Cd  Cd18  1  0.579088  0.258971  0.582854  1
  Cd  Cd19  1  0.258971  0.579088  0.579088  1
  Pt  Pt20  1  0.144835  0.141655  0.141655  1
  Pt  Pt21  1  0.141655  0.144835  0.571854  1
  Pt  Pt22  1  0.141655  0.571854  0.144835  1
  Pt  Pt23  1  0.571854  0.141655  0.141655  1
