# generated using pymatgen
data_CaDyCu2(Ni3B)2
_symmetry_space_group_name_H-M   'P 1'
_cell_length_a   5.06190600
_cell_length_b   5.05767539
_cell_length_c   6.93738800
_cell_angle_alpha   90.00000000
_cell_angle_beta   90.00000000
_cell_angle_gamma   120.02766107
_symmetry_Int_Tables_number   1
_chemical_formula_structural   CaDyCu2(Ni3B)2
_chemical_formula_sum   'Ca1 Dy1 Cu2 Ni6 B2'
_cell_volume   153.76961462
_cell_formula_units_Z   1
loop_
 _symmetry_equiv_pos_site_id
 _symmetry_equiv_pos_as_xyz
  1  'x, y, z'
loop_
 _atom_site_type_symbol
 _atom_site_label
 _atom_site_symmetry_multiplicity
 _atom_site_fract_x
 _atom_site_fract_y
 _atom_site_fract_z
 _atom_site_occupancy
  Ca  Ca0  1  0.500000  0.000000  0.000000  1
  Dy  Dy1  1  0.500000  0.000000  0.500000  1
  Cu  Cu2  1  0.833127  0.666253  0.000000  1
  Cu  Cu3  1  0.166873  0.333747  0.000000  1
  Ni  Ni4  1  0.000000  0.000000  0.702062  1
  Ni  Ni5  1  0.500000  0.500000  0.702682  1
  Ni  Ni6  1  0.000000  0.500000  0.702682  1
  Ni  Ni7  1  0.000000  0.000000  0.297938  1
  Ni  Ni8  1  0.500000  0.500000  0.297318  1
  Ni  Ni9  1  0.000000  0.500000  0.297318  1
  B  B10  1  0.833290  0.666579  0.500000  1
  B  B11  1  0.166710  0.333421  0.500000  1
