# generated using pymatgen
data_CeTh2AlSn2Ir3
_symmetry_space_group_name_H-M   'P 1'
_cell_length_a   7.45419549
_cell_length_b   7.50139393
_cell_length_c   4.10540400
_cell_angle_alpha   90.00000000
_cell_angle_beta   90.00000000
_cell_angle_gamma   120.71955481
_symmetry_Int_Tables_number   1
_chemical_formula_structural   CeTh2AlSn2Ir3
_chemical_formula_sum   'Ce1 Th2 Al1 Sn2 Ir3'
_cell_volume   197.34878298
_cell_formula_units_Z   1
loop_
 _symmetry_equiv_pos_site_id
 _symmetry_equiv_pos_as_xyz
  1  'x, y, z'
loop_
 _atom_site_type_symbol
 _atom_site_label
 _atom_site_symmetry_multiplicity
 _atom_site_fract_x
 _atom_site_fract_y
 _atom_site_fract_z
 _atom_site_occupancy
  Ce  Ce0  1  0.414718  0.009100  0.500000  1
  Th  Th1  1  0.006833  0.414045  0.500000  1
  Th  Th2  1  0.576391  0.575229  0.500000  1
  Al  Al3  1  0.242973  0.240819  0.000000  1
  Sn  Sn4  1  0.750277  0.001250  0.000000  1
  Sn  Sn5  1  0.007597  0.759909  0.000000  1
  Ir  Ir6  1  0.328866  0.647790  0.000000  1
  Ir  Ir7  1  0.652064  0.329972  0.000000  1
  Ir  Ir8  1  0.020283  0.021886  0.500000  1
