# generated using pymatgen
data_CaNd9(Sn3N)2
_symmetry_space_group_name_H-M   'P 1'
_cell_length_a   9.49687535
_cell_length_b   9.49687493
_cell_length_c   9.49687525
_cell_angle_alpha   127.79062561
_cell_angle_beta   127.79062179
_cell_angle_gamma   76.96445915
_symmetry_Int_Tables_number   1
_chemical_formula_structural   CaNd9(Sn3N)2
_chemical_formula_sum   'Ca1 Nd9 Sn6 N2'
_cell_volume   519.25893865
_cell_formula_units_Z   1
loop_
 _symmetry_equiv_pos_site_id
 _symmetry_equiv_pos_as_xyz
  1  'x, y, z'
loop_
 _atom_site_type_symbol
 _atom_site_label
 _atom_site_symmetry_multiplicity
 _atom_site_fract_x
 _atom_site_fract_y
 _atom_site_fract_z
 _atom_site_occupancy
  Ca  Ca0  1  0.500000  0.500000  0.000000  1
  Nd  Nd1  1  0.000000  0.000000  0.000000  1
  Nd  Nd2  1  0.497525  0.003133  0.807239  1
  Nd  Nd3  1  0.195895  0.690288  0.192761  1
  Nd  Nd4  1  0.003133  0.195895  0.505608  1
  Nd  Nd5  1  0.690288  0.497525  0.494392  1
  Nd  Nd6  1  0.502475  0.996867  0.192761  1
  Nd  Nd7  1  0.804105  0.309712  0.807239  1
  Nd  Nd8  1  0.996867  0.804105  0.494392  1
  Nd  Nd9  1  0.309712  0.502475  0.505608  1
  Sn  Sn10  1  0.246702  0.246702  0.000000  1
  Sn  Sn11  1  0.753298  0.753298  0.000000  1
  Sn  Sn12  1  0.870161  0.366560  0.236722  1
  Sn  Sn13  1  0.129839  0.633440  0.763278  1
  Sn  Sn14  1  0.366560  0.129839  0.496399  1
  Sn  Sn15  1  0.633440  0.870161  0.503601  1
  N  N16  1  0.250000  0.750000  0.500000  1
  N  N17  1  0.750000  0.250000  0.500000  1
