# generated using pymatgen
data_YbPa3Sn2(PdPt)2
_symmetry_space_group_name_H-M   'P 1'
_cell_length_a   7.77854443
_cell_length_b   7.77854432
_cell_length_c   3.68661500
_cell_angle_alpha   90.00000000
_cell_angle_beta   90.00000000
_cell_angle_gamma   90.31571670
_symmetry_Int_Tables_number   1
_chemical_formula_structural   YbPa3Sn2(PdPt)2
_chemical_formula_sum   'Yb1 Pa3 Sn2 Pd2 Pt2'
_cell_volume   223.05802884
_cell_formula_units_Z   1
loop_
 _symmetry_equiv_pos_site_id
 _symmetry_equiv_pos_as_xyz
  1  'x, y, z'
loop_
 _atom_site_type_symbol
 _atom_site_label
 _atom_site_symmetry_multiplicity
 _atom_site_fract_x
 _atom_site_fract_y
 _atom_site_fract_z
 _atom_site_occupancy
  Yb  Yb0  1  0.826130  0.673870  0.500000  1
  Pa  Pa1  1  0.676915  0.175860  0.500000  1
  Pa  Pa2  1  0.324140  0.823085  0.500000  1
  Pa  Pa3  1  0.168889  0.331111  0.500000  1
  Sn  Sn4  1  0.995583  0.990284  0.000000  1
  Sn  Sn5  1  0.509716  0.504417  0.000000  1
  Pd  Pd6  1  0.618048  0.881952  0.000000  1
  Pd  Pd7  1  0.367168  0.132832  0.000000  1
  Pt  Pt8  1  0.138155  0.624746  0.000000  1
  Pt  Pt9  1  0.875254  0.361845  0.000000  1
