# generated using pymatgen
data_Tb3Zn3Ni2Pd
_symmetry_space_group_name_H-M   'P 1'
_cell_length_a   7.17094900
_cell_length_b   7.17095011
_cell_length_c   3.83861600
_cell_angle_alpha   90.00000000
_cell_angle_beta   90.00000000
_cell_angle_gamma   119.99999948
_symmetry_Int_Tables_number   1
_chemical_formula_structural   Tb3Zn3Ni2Pd
_chemical_formula_sum   'Tb3 Zn3 Ni2 Pd1'
_cell_volume   170.94587998
_cell_formula_units_Z   1
loop_
 _symmetry_equiv_pos_site_id
 _symmetry_equiv_pos_as_xyz
  1  'x, y, z'
loop_
 _atom_site_type_symbol
 _atom_site_label
 _atom_site_symmetry_multiplicity
 _atom_site_fract_x
 _atom_site_fract_y
 _atom_site_fract_z
 _atom_site_occupancy
  Tb  Tb0  1  0.011505  0.600108  0.000000  1
  Tb  Tb1  1  0.399892  0.411397  0.000000  1
  Tb  Tb2  1  0.588603  0.988495  0.000000  1
  Zn  Zn3  1  0.236072  0.994918  0.500000  1
  Zn  Zn4  1  0.758845  0.763928  0.500000  1
  Zn  Zn5  1  0.005082  0.241155  0.500000  1
  Ni  Ni6  1  0.000000  0.000000  0.000000  1
  Ni  Ni7  1  0.333333  0.666667  0.500000  1
  Pd  Pd8  1  0.666667  0.333333  0.500000  1
