# generated using pymatgen
data_Ba10Ga4Si13Ge
_symmetry_space_group_name_H-M   'P 1'
_cell_length_a   6.70206112
_cell_length_b   6.70206016
_cell_length_c   18.37622243
_cell_angle_alpha   81.76405069
_cell_angle_beta   81.76404204
_cell_angle_gamma   100.78041545
_symmetry_Int_Tables_number   1
_chemical_formula_structural   Ba10Ga4Si13Ge
_chemical_formula_sum   'Ba10 Ga4 Si13 Ge1'
_cell_volume   790.11609197
_cell_formula_units_Z   1
loop_
 _symmetry_equiv_pos_site_id
 _symmetry_equiv_pos_as_xyz
  1  'x, y, z'
loop_
 _atom_site_type_symbol
 _atom_site_label
 _atom_site_symmetry_multiplicity
 _atom_site_fract_x
 _atom_site_fract_y
 _atom_site_fract_z
 _atom_site_occupancy
  Ba  Ba0  1  0.748739  0.250737  0.000370  1
  Ba  Ba1  1  0.118676  0.573128  0.788332  1
  Ba  Ba2  1  0.290318  0.709792  0.499924  1
  Ba  Ba3  1  0.763525  0.763525  0.643715  1
  Ba  Ba4  1  0.237622  0.237622  0.355258  1
  Ba  Ba5  1  0.573128  0.118676  0.788332  1
  Ba  Ba6  1  0.250737  0.748739  0.000370  1
  Ba  Ba7  1  0.709792  0.290318  0.499924  1
  Ba  Ba8  1  0.426027  0.881529  0.211696  1
  Ba  Ba9  1  0.881529  0.426027  0.211696  1
  Ga  Ga10  1  0.223054  0.223054  0.069402  1
  Ga  Ga11  1  0.934300  0.934300  0.261879  1
  Ga  Ga12  1  0.064919  0.064919  0.738402  1
  Ga  Ga13  1  0.778529  0.778529  0.932138  1
  Si  Si14  1  0.350710  0.350710  0.642396  1
  Si  Si15  1  0.291352  0.291352  0.931350  1
  Si  Si16  1  0.934673  0.934673  0.129161  1
  Si  Si17  1  0.649308  0.649308  0.357712  1
  Si  Si18  1  0.424697  0.424697  0.147770  1
  Si  Si19  1  0.064301  0.064301  0.871566  1
  Si  Si20  1  0.817905  0.817905  0.449530  1
  Si  Si21  1  0.329234  0.975848  0.641252  1
  Si  Si22  1  0.670528  0.024177  0.358838  1
  Si  Si23  1  0.182330  0.182330  0.550426  1
  Si  Si24  1  0.975848  0.329234  0.641252  1
  Si  Si25  1  0.024177  0.670528  0.358838  1
  Si  Si26  1  0.703936  0.703936  0.069984  1
  Ge  Ge27  1  0.580105  0.580105  0.848488  1
