# generated using pymatgen
data_TaTi(CoP)2
_symmetry_space_group_name_H-M   'P 1'
_cell_length_a   3.57607600
_cell_length_b   6.07235800
_cell_length_c   6.91619200
_cell_angle_alpha   90.00000000
_cell_angle_beta   90.00000000
_cell_angle_gamma   90.00000000
_symmetry_Int_Tables_number   1
_chemical_formula_structural   TaTi(CoP)2
_chemical_formula_sum   'Ta2 Ti2 Co4 P4'
_cell_volume   150.18658732
_cell_formula_units_Z   2
loop_
 _symmetry_equiv_pos_site_id
 _symmetry_equiv_pos_as_xyz
  1  'x, y, z'
loop_
 _atom_site_type_symbol
 _atom_site_label
 _atom_site_symmetry_multiplicity
 _atom_site_fract_x
 _atom_site_fract_y
 _atom_site_fract_z
 _atom_site_occupancy
  Ta  Ta0  1  0.250000  0.972325  0.326114  1
  Ta  Ta1  1  0.250000  0.472325  0.173886  1
  Ti  Ti2  1  0.750000  0.024473  0.677100  1
  Ti  Ti3  1  0.750000  0.524473  0.822900  1
  Co  Co4  1  0.250000  0.858865  0.936760  1
  Co  Co5  1  0.250000  0.358865  0.563240  1
  Co  Co6  1  0.750000  0.141951  0.059538  1
  Co  Co7  1  0.750000  0.641951  0.440462  1
  P  P8  1  0.250000  0.230450  0.874065  1
  P  P9  1  0.250000  0.730450  0.625935  1
  P  P10  1  0.750000  0.771937  0.117036  1
  P  P11  1  0.750000  0.271937  0.382964  1
