# generated using pymatgen
data_V18Si5Ni7
_symmetry_space_group_name_H-M   'P 1'
_cell_length_a   4.62984000
_cell_length_b   8.90600566
_cell_length_c   9.03015150
_cell_angle_alpha   90.15923309
_cell_angle_beta   90.00000000
_cell_angle_gamma   90.00000000
_symmetry_Int_Tables_number   1
_chemical_formula_structural   V18Si5Ni7
_chemical_formula_sum   'V18 Si5 Ni7'
_cell_volume   372.34224138
_cell_formula_units_Z   1
loop_
 _symmetry_equiv_pos_site_id
 _symmetry_equiv_pos_as_xyz
  1  'x, y, z'
loop_
 _atom_site_type_symbol
 _atom_site_label
 _atom_site_symmetry_multiplicity
 _atom_site_fract_x
 _atom_site_fract_y
 _atom_site_fract_z
 _atom_site_occupancy
  V  V0  1  0.243285  0.318863  0.684775  1
  V  V1  1  0.245228  0.677628  0.316658  1
  V  V2  1  0.749710  0.818712  0.815757  1
  V  V3  1  0.751180  0.178407  0.181369  1
  V  V4  1  0.754772  0.677628  0.316658  1
  V  V5  1  0.756715  0.318863  0.684775  1
  V  V6  1  0.248820  0.178407  0.181369  1
  V  V7  1  0.250290  0.818712  0.815757  1
  V  V8  1  0.500000  0.102178  0.896830  1
  V  V9  1  0.500000  0.894986  0.103618  1
  V  V10  1  0.000000  0.612898  0.599158  1
  V  V11  1  0.000000  0.386391  0.401267  1
  V  V12  1  0.000000  0.534668  0.871957  1
  V  V13  1  0.000000  0.462325  0.133907  1
  V  V14  1  0.500000  0.629979  0.033569  1
  V  V15  1  0.500000  0.371106  0.964981  1
  V  V16  1  0.000000  0.879785  0.532059  1
  V  V17  1  0.000000  0.124427  0.466545  1
  Si  Si18  1  0.500000  0.770436  0.557845  1
  Si  Si19  1  0.500000  0.241065  0.435087  1
  Si  Si20  1  0.000000  0.254177  0.935888  1
  Si  Si21  1  0.000000  0.744807  0.064711  1
  Si  Si22  1  0.500000  0.565618  0.758893  1
  Ni  Ni23  1  0.500000  0.503519  0.505677  1
  Ni  Ni24  1  0.000000  0.998680  0.998388  1
  Ni  Ni25  1  0.500000  0.431992  0.245147  1
  Ni  Ni26  1  0.000000  0.930680  0.257452  1
  Ni  Ni27  1  0.000000  0.068728  0.741376  1
  Ni  Ni28  1  0.500000  0.037053  0.631348  1
  Ni  Ni29  1  0.500000  0.967281  0.367181  1
