# generated using pymatgen
data_Ho4ErBi2Ru
_symmetry_space_group_name_H-M   'P 1'
_cell_length_a   7.93649404
_cell_length_b   8.99381907
_cell_length_c   12.41969616
_cell_angle_alpha   89.98566866
_cell_angle_beta   90.01114152
_cell_angle_gamma   89.99974334
_symmetry_Int_Tables_number   1
_chemical_formula_structural   Ho4ErBi2Ru
_chemical_formula_sum   'Ho16 Er4 Bi8 Ru4'
_cell_volume   886.51030880
_cell_formula_units_Z   4
loop_
 _symmetry_equiv_pos_site_id
 _symmetry_equiv_pos_as_xyz
  1  'x, y, z'
loop_
 _atom_site_type_symbol
 _atom_site_label
 _atom_site_symmetry_multiplicity
 _atom_site_fract_x
 _atom_site_fract_y
 _atom_site_fract_z
 _atom_site_occupancy
  Ho  Ho0  1  0.840216  0.750082  0.792497  1
  Ho  Ho1  1  0.159910  0.249973  0.207561  1
  Ho  Ho2  1  0.340205  0.249920  0.707424  1
  Ho  Ho3  1  0.659676  0.750033  0.292608  1
  Ho  Ho4  1  0.375561  0.750080  0.690135  1
  Ho  Ho5  1  0.624284  0.249890  0.309832  1
  Ho  Ho6  1  0.875605  0.249922  0.809664  1
  Ho  Ho7  1  0.124525  0.750117  0.190291  1
  Ho  Ho8  1  0.945730  0.750099  0.504302  1
  Ho  Ho9  1  0.054537  0.249938  0.495680  1
  Ho  Ho10  1  0.445485  0.249902  0.995722  1
  Ho  Ho11  1  0.554268  0.750065  0.004265  1
  Ho  Ho12  1  0.825783  0.041751  0.064710  1
  Ho  Ho13  1  0.674235  0.458204  0.564717  1
  Ho  Ho14  1  0.825545  0.458194  0.064785  1
  Ho  Ho15  1  0.174374  0.541857  0.935240  1
  Er  Er16  1  0.673802  0.041807  0.564680  1
  Er  Er17  1  0.326290  0.958129  0.435353  1
  Er  Er18  1  0.173937  0.958100  0.935280  1
  Er  Er19  1  0.326056  0.541934  0.435278  1
  Bi  Bi20  1  0.567267  0.493200  0.827383  1
  Bi  Bi21  1  0.432691  0.506823  0.172649  1
  Bi  Bi22  1  0.067255  0.506838  0.672571  1
  Bi  Bi23  1  0.432723  0.993186  0.172645  1
  Bi  Bi24  1  0.932875  0.493201  0.327479  1
  Bi  Bi25  1  0.567144  0.006782  0.827406  1
  Bi  Bi26  1  0.932908  0.006792  0.327485  1
  Bi  Bi27  1  0.067134  0.993185  0.672548  1
  Ru  Ru28  1  0.573537  0.750166  0.510008  1
  Ru  Ru29  1  0.425990  0.249796  0.489904  1
  Ru  Ru30  1  0.074223  0.249835  0.989836  1
  Ru  Ru31  1  0.926228  0.750198  0.010061  1
