# generated using pymatgen
data_YErAs4O9
_symmetry_space_group_name_H-M   'P 1'
_cell_length_a   6.73488499
_cell_length_b   7.52722602
_cell_length_c   9.81647831
_cell_angle_alpha   94.71973433
_cell_angle_beta   104.03775717
_cell_angle_gamma   104.85676326
_symmetry_Int_Tables_number   1
_chemical_formula_structural   YErAs4O9
_chemical_formula_sum   'Y2 Er2 As8 O18'
_cell_volume   461.07312468
_cell_formula_units_Z   2
loop_
 _symmetry_equiv_pos_site_id
 _symmetry_equiv_pos_as_xyz
  1  'x, y, z'
loop_
 _atom_site_type_symbol
 _atom_site_label
 _atom_site_symmetry_multiplicity
 _atom_site_fract_x
 _atom_site_fract_y
 _atom_site_fract_z
 _atom_site_occupancy
  Y  Y0  1  0.242807  0.939156  0.614811  1
  Y  Y1  1  0.757193  0.060844  0.385189  1
  Er  Er2  1  0.720806  0.529141  0.409762  1
  Er  Er3  1  0.279194  0.470859  0.590238  1
  As  As4  1  0.682379  0.773679  0.078701  1
  As  As5  1  0.317621  0.226321  0.921299  1
  As  As6  1  0.170740  0.751743  0.912868  1
  As  As7  1  0.829260  0.248257  0.087132  1
  As  As8  1  0.743131  0.914339  0.709931  1
  As  As9  1  0.256869  0.085661  0.290069  1
  As  As10  1  0.809855  0.352466  0.701411  1
  As  As11  1  0.190145  0.647534  0.298589  1
  O  O12  1  0.721983  0.746998  0.259162  1
  O  O13  1  0.278017  0.253002  0.740838  1
  O  O14  1  0.315873  0.978896  0.869997  1
  O  O15  1  0.684127  0.021104  0.130003  1
  O  O16  1  0.608051  0.325112  0.985357  1
  O  O17  1  0.391949  0.674888  0.014643  1
  O  O18  1  0.127730  0.644730  0.738359  1
  O  O19  1  0.872270  0.355270  0.261641  1
  O  O20  1  0.846441  0.873456  0.559797  1
  O  O21  1  0.153559  0.126544  0.440203  1
  O  O22  1  0.482265  0.766263  0.666409  1
  O  O23  1  0.517735  0.233737  0.333591  1
  O  O24  1  0.373588  0.533604  0.381083  1
  O  O25  1  0.626412  0.466396  0.618917  1
  O  O26  1  0.087794  0.667407  0.453345  1
  O  O27  1  0.912206  0.332593  0.546655  1
  O  O28  1  0.376326  0.899466  0.358732  1
  O  O29  1  0.623674  0.100534  0.641268  1
