# generated using pymatgen
data_Ta2B(IrRu2)2
_symmetry_space_group_name_H-M   'P 1'
_cell_length_a   5.65159350
_cell_length_b   5.65159265
_cell_length_c   5.63072700
_cell_angle_alpha   60.12204941
_cell_angle_beta   60.12205433
_cell_angle_gamma   59.71158807
_symmetry_Int_Tables_number   1
_chemical_formula_structural   Ta2B(IrRu2)2
_chemical_formula_sum   'Ta2 B1 Ir2 Ru4'
_cell_volume   127.12499588
_cell_formula_units_Z   1
loop_
 _symmetry_equiv_pos_site_id
 _symmetry_equiv_pos_as_xyz
  1  'x, y, z'
loop_
 _atom_site_type_symbol
 _atom_site_label
 _atom_site_symmetry_multiplicity
 _atom_site_fract_x
 _atom_site_fract_y
 _atom_site_fract_z
 _atom_site_occupancy
  Ta  Ta0  1  0.249968  0.249968  0.249938  1
  Ta  Ta1  1  0.750032  0.750032  0.749874  1
  B  B2  1  0.000000  0.000000  0.995041  1
  Ir  Ir3  1  0.741529  0.258471  0.259052  1
  Ir  Ir4  1  0.258471  0.741529  0.259052  1
  Ru  Ru5  1  0.742690  0.742690  0.258327  1
  Ru  Ru6  1  0.257310  0.257310  0.743708  1
  Ru  Ru7  1  0.741176  0.258824  0.742504  1
  Ru  Ru8  1  0.258824  0.741176  0.742504  1
