# generated using pymatgen
data_Lu5Bi2Pd
_symmetry_space_group_name_H-M   'P 1'
_cell_length_a   12.07337000
_cell_length_b   9.00132000
_cell_length_c   7.90446600
_cell_angle_alpha   89.99653537
_cell_angle_beta   89.99798163
_cell_angle_gamma   89.99993492
_symmetry_Int_Tables_number   1
_chemical_formula_structural   Lu5Bi2Pd
_chemical_formula_sum   'Lu20 Bi8 Pd4'
_cell_volume   859.02785526
_cell_formula_units_Z   4
loop_
 _symmetry_equiv_pos_site_id
 _symmetry_equiv_pos_as_xyz
  1  'x, y, z'
loop_
 _atom_site_type_symbol
 _atom_site_label
 _atom_site_symmetry_multiplicity
 _atom_site_fract_x
 _atom_site_fract_y
 _atom_site_fract_z
 _atom_site_occupancy
  Lu  Lu0  1  0.499338  0.749969  0.044804  1
  Lu  Lu1  1  0.803056  0.249993  0.129612  1
  Lu  Lu2  1  0.787803  0.749982  0.165622  1
  Lu  Lu3  1  0.065985  0.049846  0.177672  1
  Lu  Lu4  1  0.066008  0.450136  0.177720  1
  Lu  Lu5  1  0.565968  0.049886  0.322272  1
  Lu  Lu6  1  0.565958  0.450123  0.322241  1
  Lu  Lu7  1  0.287781  0.750007  0.334393  1
  Lu  Lu8  1  0.303120  0.250005  0.370419  1
  Lu  Lu9  1  0.999314  0.749954  0.455190  1
  Lu  Lu10  1  0.000690  0.250013  0.544758  1
  Lu  Lu11  1  0.696923  0.749977  0.629583  1
  Lu  Lu12  1  0.712187  0.249989  0.665572  1
  Lu  Lu13  1  0.433998  0.549867  0.677708  1
  Lu  Lu14  1  0.434008  0.950137  0.677668  1
  Lu  Lu15  1  0.934021  0.549874  0.822270  1
  Lu  Lu16  1  0.934039  0.950107  0.822295  1
  Lu  Lu17  1  0.212225  0.250013  0.834375  1
  Lu  Lu18  1  0.196883  0.749999  0.870432  1
  Lu  Lu19  1  0.500698  0.250022  0.955267  1
  Bi  Bi20  1  0.327016  0.009047  0.067491  1
  Bi  Bi21  1  0.327031  0.490931  0.067486  1
  Bi  Bi22  1  0.827016  0.009046  0.432481  1
  Bi  Bi23  1  0.827033  0.490961  0.432490  1
  Bi  Bi24  1  0.172991  0.509052  0.567457  1
  Bi  Bi25  1  0.173001  0.990938  0.567465  1
  Bi  Bi26  1  0.672947  0.509039  0.932538  1
  Bi  Bi27  1  0.672970  0.990957  0.932526  1
  Pd  Pd28  1  0.014761  0.750109  0.084634  1
  Pd  Pd29  1  0.514799  0.750041  0.415449  1
  Pd  Pd30  1  0.485220  0.249978  0.584573  1
  Pd  Pd31  1  0.985209  0.250006  0.915536  1
