# generated using pymatgen
data_Y2Ho3Os2
_symmetry_space_group_name_H-M   'P 1'
_cell_length_a   6.36014492
_cell_length_b   7.35631042
_cell_length_c   8.42830408
_cell_angle_alpha   96.95443093
_cell_angle_beta   112.16708125
_cell_angle_gamma   89.99999542
_symmetry_Int_Tables_number   1
_chemical_formula_structural   Y2Ho3Os2
_chemical_formula_sum   'Y4 Ho6 Os4'
_cell_volume   362.05563475
_cell_formula_units_Z   2
loop_
 _symmetry_equiv_pos_site_id
 _symmetry_equiv_pos_as_xyz
  1  'x, y, z'
loop_
 _atom_site_type_symbol
 _atom_site_label
 _atom_site_symmetry_multiplicity
 _atom_site_fract_x
 _atom_site_fract_y
 _atom_site_fract_z
 _atom_site_occupancy
  Y  Y0  1  0.976740  0.916528  0.184173  1
  Y  Y1  1  0.792567  0.583472  0.815827  1
  Y  Y2  1  0.023260  0.083472  0.815827  1
  Y  Y3  1  0.207433  0.416528  0.184173  1
  Ho  Ho4  1  0.638389  0.816973  0.435252  1
  Ho  Ho5  1  0.203137  0.683027  0.564748  1
  Ho  Ho6  1  0.361611  0.183027  0.564748  1
  Ho  Ho7  1  0.796863  0.316973  0.435252  1
  Ho  Ho8  1  0.422412  0.750000  0.000000  1
  Ho  Ho9  1  0.577588  0.250000  0.000000  1
  Os  Os10  1  0.820352  0.577172  0.220578  1
  Os  Os11  1  0.599774  0.922828  0.779422  1
  Os  Os12  1  0.179648  0.422828  0.779422  1
  Os  Os13  1  0.400226  0.077172  0.220578  1
