# generated using pymatgen
data_VBi(BO3)2
_symmetry_space_group_name_H-M   'P 1'
_cell_length_a   6.03220290
_cell_length_b   6.06198039
_cell_length_c   6.07089617
_cell_angle_alpha   47.97638241
_cell_angle_beta   47.83764091
_cell_angle_gamma   48.13355806
_symmetry_Int_Tables_number   1
_chemical_formula_structural   VBi(BO3)2
_chemical_formula_sum   'V1 Bi1 B2 O6'
_cell_volume   112.24891744
_cell_formula_units_Z   1
loop_
 _symmetry_equiv_pos_site_id
 _symmetry_equiv_pos_as_xyz
  1  'x, y, z'
loop_
 _atom_site_type_symbol
 _atom_site_label
 _atom_site_symmetry_multiplicity
 _atom_site_fract_x
 _atom_site_fract_y
 _atom_site_fract_z
 _atom_site_occupancy
  V  V0  1  0.500000  0.500000  0.500000  1
  Bi  Bi1  1  0.000000  0.000000  0.000000  1
  B  B2  1  0.239379  0.239817  0.241384  1
  B  B3  1  0.760621  0.760183  0.758616  1
  O  O4  1  0.720886  0.053662  0.496552  1
  O  O5  1  0.940758  0.501547  0.283659  1
  O  O6  1  0.501124  0.282321  0.942987  1
  O  O7  1  0.498876  0.717679  0.057013  1
  O  O8  1  0.059242  0.498453  0.716341  1
  O  O9  1  0.279114  0.946338  0.503448  1
