# generated using pymatgen
data_Ho6Er6GaCo4Sn
_symmetry_space_group_name_H-M   'P 1'
_cell_length_a   8.27875969
_cell_length_b   8.26967259
_cell_length_c   8.26967312
_cell_angle_alpha   111.95212040
_cell_angle_beta   109.20850383
_cell_angle_gamma   107.24596652
_symmetry_Int_Tables_number   1
_chemical_formula_structural   Ho6Er6GaCo4Sn
_chemical_formula_sum   'Ho6 Er6 Ga1 Co4 Sn1'
_cell_volume   435.31270328
_cell_formula_units_Z   1
loop_
 _symmetry_equiv_pos_site_id
 _symmetry_equiv_pos_as_xyz
  1  'x, y, z'
loop_
 _atom_site_type_symbol
 _atom_site_label
 _atom_site_symmetry_multiplicity
 _atom_site_fract_x
 _atom_site_fract_y
 _atom_site_fract_z
 _atom_site_occupancy
  Ho  Ho0  1  0.565206  0.265894  0.299311  1
  Ho  Ho1  1  0.434794  0.734106  0.700689  1
  Ho  Ho2  1  0.179794  0.780192  0.960531  1
  Ho  Ho3  1  0.820206  0.780737  0.600399  1
  Ho  Ho4  1  0.179794  0.219263  0.399601  1
  Ho  Ho5  1  0.820206  0.219808  0.039469  1
  Er  Er6  1  0.966369  0.265706  0.700664  1
  Er  Er7  1  0.033631  0.734294  0.299336  1
  Er  Er8  1  0.675085  0.859290  0.185217  1
  Er  Er9  1  0.324915  0.510132  0.184204  1
  Er  Er10  1  0.324915  0.140710  0.814783  1
  Er  Er11  1  0.675085  0.489868  0.815796  1
  Ga  Ga12  1  0.000000  0.500000  0.500000  1
  Co  Co13  1  0.113964  0.114628  0.999336  1
  Co  Co14  1  0.886036  0.885372  0.000664  1
  Co  Co15  1  0.662127  0.500246  0.161882  1
  Co  Co16  1  0.337873  0.499754  0.838118  1
  Sn  Sn17  1  0.500000  0.000000  0.500000  1
