# generated using pymatgen
data_Ho5Er11Cd2In2Pd3Rh
_symmetry_space_group_name_H-M   'P 1'
_cell_length_a   9.64950919
_cell_length_b   9.64563743
_cell_length_c   9.64991000
_cell_angle_alpha   59.83710681
_cell_angle_beta   59.89893940
_cell_angle_gamma   59.84303062
_symmetry_Int_Tables_number   1
_chemical_formula_structural   Ho5Er11Cd2In2Pd3Rh
_chemical_formula_sum   'Ho5 Er11 Cd2 In2 Pd3 Rh1'
_cell_volume   633.08080551
_cell_formula_units_Z   1
loop_
 _symmetry_equiv_pos_site_id
 _symmetry_equiv_pos_as_xyz
  1  'x, y, z'
loop_
 _atom_site_type_symbol
 _atom_site_label
 _atom_site_symmetry_multiplicity
 _atom_site_fract_x
 _atom_site_fract_y
 _atom_site_fract_z
 _atom_site_occupancy
  Ho  Ho0  1  0.189757  0.189691  0.810534  1
  Ho  Ho1  1  0.438318  0.063764  0.063642  1
  Ho  Ho2  1  0.434613  0.064488  0.433192  1
  Ho  Ho3  1  0.065891  0.437377  0.063243  1
  Ho  Ho4  1  0.649163  0.056287  0.648534  1
  Er  Er5  1  0.184855  0.811647  0.811210  1
  Er  Er6  1  0.065393  0.062499  0.437806  1
  Er  Er7  1  0.809435  0.190891  0.190810  1
  Er  Er8  1  0.810774  0.810468  0.185880  1
  Er  Er9  1  0.647988  0.647877  0.057438  1
  Er  Er10  1  0.647257  0.647499  0.647643  1
  Er  Er11  1  0.065627  0.435065  0.434665  1
  Er  Er12  1  0.056475  0.649370  0.648274  1
  Er  Er13  1  0.811215  0.185702  0.810271  1
  Er  Er14  1  0.435060  0.434330  0.063928  1
  Er  Er15  1  0.190008  0.810399  0.190015  1
  Cd  Cd16  1  0.416780  0.748895  0.418448  1
  Cd  Cd17  1  0.416859  0.418565  0.749147  1
  In  In18  1  0.748082  0.418175  0.418104  1
  In  In19  1  0.416154  0.417991  0.417074  1
  Pd  Pd20  1  0.855345  0.432217  0.856211  1
  Pd  Pd21  1  0.856777  0.855556  0.430739  1
  Pd  Pd22  1  0.431375  0.854742  0.856773  1
  Rh  Rh23  1  0.856803  0.856508  0.856419  1
