# generated using pymatgen
data_La5NdHg10
_symmetry_space_group_name_H-M   'P 1'
_cell_length_a   6.64189018
_cell_length_b   6.64189109
_cell_length_c   10.74462000
_cell_angle_alpha   90.00000000
_cell_angle_beta   90.00000000
_cell_angle_gamma   106.93267945
_symmetry_Int_Tables_number   1
_chemical_formula_structural   La5NdHg10
_chemical_formula_sum   'La5 Nd1 Hg10'
_cell_volume   453.44696364
_cell_formula_units_Z   1
loop_
 _symmetry_equiv_pos_site_id
 _symmetry_equiv_pos_as_xyz
  1  'x, y, z'
loop_
 _atom_site_type_symbol
 _atom_site_label
 _atom_site_symmetry_multiplicity
 _atom_site_fract_x
 _atom_site_fract_y
 _atom_site_fract_z
 _atom_site_occupancy
  La  La0  1  0.587296  0.587296  0.250000  1
  La  La1  1  0.203189  0.796686  0.500252  1
  La  La2  1  0.203189  0.796686  0.999748  1
  La  La3  1  0.796686  0.203189  0.500252  1
  La  La4  1  0.796686  0.203189  0.999748  1
  Nd  Nd5  1  0.411343  0.411343  0.750000  1
  Hg  Hg6  1  0.998606  0.998605  0.250000  1
  Hg  Hg7  1  0.004045  0.004044  0.750000  1
  Hg  Hg8  1  0.303737  0.303737  0.032356  1
  Hg  Hg9  1  0.696414  0.696414  0.963654  1
  Hg  Hg10  1  0.303737  0.303737  0.467644  1
  Hg  Hg11  1  0.696414  0.696414  0.536346  1
  Hg  Hg12  1  0.483530  0.051089  0.250000  1
  Hg  Hg13  1  0.949440  0.514598  0.750000  1
  Hg  Hg14  1  0.514598  0.949440  0.750000  1
  Hg  Hg15  1  0.051089  0.483530  0.250000  1
