# generated using pymatgen
data_GaBr35
_symmetry_space_group_name_H-M   'P 1'
_cell_length_a   15.98197694
_cell_length_b   11.40028128
_cell_length_c   10.79188300
_cell_angle_alpha   88.81408278
_cell_angle_beta   66.02770512
_cell_angle_gamma   92.31545406
_symmetry_Int_Tables_number   1
_chemical_formula_structural   GaBr35
_chemical_formula_sum   'Ga1 Br35'
_cell_volume   1793.71352310
_cell_formula_units_Z   1
loop_
 _symmetry_equiv_pos_site_id
 _symmetry_equiv_pos_as_xyz
  1  'x, y, z'
loop_
 _atom_site_type_symbol
 _atom_site_label
 _atom_site_symmetry_multiplicity
 _atom_site_fract_x
 _atom_site_fract_y
 _atom_site_fract_z
 _atom_site_occupancy
  Ga  Ga0  1  0.221022  0.364965  0.446868  1
  Br  Br1  1  0.509487  0.293829  0.532461  1
  Br  Br2  1  0.742590  0.577076  0.593553  1
  Br  Br3  1  0.473374  0.702557  0.767832  1
  Br  Br4  1  0.054918  0.898888  0.821741  1
  Br  Br5  1  0.891772  0.152239  0.037502  1
  Br  Br6  1  0.640382  0.336736  0.294366  1
  Br  Br7  1  0.600272  0.310079  0.857986  1
  Br  Br8  1  0.340327  0.800257  0.739046  1
  Br  Br9  1  0.363069  0.585589  0.166145  1
  Br  Br10  1  0.649495  0.114901  0.802552  1
  Br  Br11  1  0.890268  0.557202  0.388314  1
  Br  Br12  1  0.058141  0.929505  0.588478  1
  Br  Br13  1  0.903231  0.126252  0.267861  1
  Br  Br14  1  0.874835  0.190156  0.817691  1
  Br  Br15  1  0.646885  0.062494  0.248908  1
  Br  Br16  1  0.034260  0.849772  0.070651  1
  Br  Br17  1  0.363798  0.020792  0.753258  1
  Br  Br18  1  0.893122  0.339393  0.331687  1
  Br  Br19  1  0.877450  0.907970  0.669991  1
  Br  Br20  1  0.951340  0.626693  0.821870  1
  Br  Br21  1  0.342582  0.031184  0.206711  1
  Br  Br22  1  0.351031  0.333884  0.231116  1
  Br  Br23  1  0.595593  0.594704  0.813437  1
  Br  Br24  1  0.104272  0.428045  0.394288  1
  Br  Br25  1  0.708051  0.889631  0.762572  1
  Br  Br26  1  0.902456  0.412239  0.818581  1
  Br  Br27  1  0.498897  0.044868  0.231412  1
  Br  Br28  1  0.194915  0.204354  0.592649  1
  Br  Br29  1  0.685080  0.787204  0.265770  1
  Br  Br30  1  0.860062  0.816168  0.170237  1
  Br  Br31  1  0.383469  0.243912  0.763898  1
  Br  Br32  1  0.283371  0.527404  0.541053  1
  Br  Br33  1  0.659099  0.559908  0.271950  1
  Br  Br34  1  0.118614  0.588438  0.690970  1
  Br  Br35  1  0.332468  0.790711  0.226597  1
