# generated using pymatgen
data_CsVW2O9
_symmetry_space_group_name_H-M   'P 1'
_cell_length_a   3.95752279
_cell_length_b   12.86856127
_cell_length_c   12.79396890
_cell_angle_alpha   59.44873559
_cell_angle_beta   89.89746816
_cell_angle_gamma   90.02056898
_symmetry_Int_Tables_number   1
_chemical_formula_structural   CsVW2O9
_chemical_formula_sum   'Cs3 V3 W6 O27'
_cell_volume   561.11103188
_cell_formula_units_Z   3
loop_
 _symmetry_equiv_pos_site_id
 _symmetry_equiv_pos_as_xyz
  1  'x, y, z'
loop_
 _atom_site_type_symbol
 _atom_site_label
 _atom_site_symmetry_multiplicity
 _atom_site_fract_x
 _atom_site_fract_y
 _atom_site_fract_z
 _atom_site_occupancy
  Cs  Cs0  1  0.973921  0.833337  0.829921  1
  Cs  Cs1  1  0.971392  0.168690  0.170278  1
  Cs  Cs2  1  0.921485  0.496498  0.501388  1
  V  V3  1  0.529547  0.669318  0.669882  1
  V  V4  1  0.528618  0.328018  0.338923  1
  V  V5  1  0.379355  0.172262  0.659173  1
  W  W6  1  0.494227  0.001369  0.504562  1
  W  W7  1  0.492968  0.495293  0.002685  1
  W  W8  1  0.500967  0.001898  0.993657  1
  W  W9  1  0.410557  0.832831  0.337611  1
  W  W10  1  0.411898  0.337773  0.824341  1
  W  W11  1  0.410698  0.660759  0.170768  1
  O  O12  1  0.458971  0.832089  0.623356  1
  O  O13  1  0.459262  0.168434  0.377790  1
  O  O14  1  0.456177  0.378164  0.169735  1
  O  O15  1  0.457142  0.620534  0.832018  1
  O  O16  1  0.964520  0.167889  0.665340  1
  O  O17  1  0.944497  0.833218  0.333865  1
  O  O18  1  0.945280  0.334576  0.830851  1
  O  O19  1  0.944505  0.665609  0.167417  1
  O  O20  1  0.961680  0.999968  0.500639  1
  O  O21  1  0.959820  0.498271  0.000861  1
  O  O22  1  0.453477  0.044701  0.624355  1
  O  O23  1  0.450281  0.959498  0.375100  1
  O  O24  1  0.450982  0.374077  0.957998  1
  O  O25  1  0.450852  0.624235  0.041579  1
  O  O26  1  0.943925  0.667558  0.667394  1
  O  O27  1  0.943695  0.333158  0.334869  1
  O  O28  1  0.450383  0.713056  0.502885  1
  O  O29  1  0.452628  0.284260  0.499910  1
  O  O30  1  0.449758  0.497085  0.290103  1
  O  O31  1  0.452921  0.503174  0.709759  1
  O  O32  1  0.447660  0.291259  0.706138  1
  O  O33  1  0.447202  0.707632  0.292617  1
  O  O34  1  0.461918  0.049120  0.829106  1
  O  O35  1  0.456223  0.954553  0.166246  1
  O  O36  1  0.457327  0.167602  0.955230  1
  O  O37  1  0.456813  0.832431  0.043166  1
  O  O38  1  0.966269  0.999804  0.998484  1
