# generated using pymatgen
data_Ta10AlSi5
_symmetry_space_group_name_H-M   'P 1'
_cell_length_a   7.57846586
_cell_length_b   7.57846533
_cell_length_c   7.57846539
_cell_angle_alpha   128.32929282
_cell_angle_beta   128.32929142
_cell_angle_gamma   76.09219511
_symmetry_Int_Tables_number   1
_chemical_formula_structural   Ta10AlSi5
_chemical_formula_sum   'Ta10 Al1 Si5'
_cell_volume   260.38166697
_cell_formula_units_Z   1
loop_
 _symmetry_equiv_pos_site_id
 _symmetry_equiv_pos_as_xyz
  1  'x, y, z'
loop_
 _atom_site_type_symbol
 _atom_site_label
 _atom_site_symmetry_multiplicity
 _atom_site_fract_x
 _atom_site_fract_y
 _atom_site_fract_z
 _atom_site_occupancy
  Ta  Ta0  1  0.017865  0.188419  0.504692  1
  Ta  Ta1  1  0.683727  0.513173  0.495308  1
  Ta  Ta2  1  0.513173  0.017865  0.829445  1
  Ta  Ta3  1  0.188419  0.683727  0.170555  1
  Ta  Ta4  1  0.986827  0.816273  0.504692  1
  Ta  Ta5  1  0.311581  0.482135  0.495308  1
  Ta  Ta6  1  0.482135  0.986827  0.170555  1
  Ta  Ta7  1  0.816273  0.311581  0.829445  1
  Ta  Ta8  1  0.000628  0.000628  0.000000  1
  Ta  Ta9  1  0.499372  0.499372  0.000000  1
  Al  Al10  1  0.750000  0.750000  0.000000  1
  Si  Si11  1  0.250000  0.250000  0.000000  1
  Si  Si12  1  0.370156  0.129844  0.500000  1
  Si  Si13  1  0.629844  0.870156  0.500000  1
  Si  Si14  1  0.870156  0.370156  0.240311  1
  Si  Si15  1  0.129844  0.629844  0.759689  1
