# generated using pymatgen
data_TbLu5ReBi2
_symmetry_space_group_name_H-M   'P 1'
_cell_length_a   8.12629338
_cell_length_b   8.12629407
_cell_length_c   4.30809200
_cell_angle_alpha   90.00000000
_cell_angle_beta   90.00000000
_cell_angle_gamma   119.72511388
_symmetry_Int_Tables_number   1
_chemical_formula_structural   TbLu5ReBi2
_chemical_formula_sum   'Tb1 Lu5 Re1 Bi2'
_cell_volume   247.05687741
_cell_formula_units_Z   1
loop_
 _symmetry_equiv_pos_site_id
 _symmetry_equiv_pos_as_xyz
  1  'x, y, z'
loop_
 _atom_site_type_symbol
 _atom_site_label
 _atom_site_symmetry_multiplicity
 _atom_site_fract_x
 _atom_site_fract_y
 _atom_site_fract_z
 _atom_site_occupancy
  Tb  Tb0  1  0.387094  0.387094  0.000000  1
  Lu  Lu1  1  0.229138  0.998682  0.500000  1
  Lu  Lu2  1  0.998682  0.229138  0.500000  1
  Lu  Lu3  1  0.768165  0.768165  0.500000  1
  Lu  Lu4  1  0.619494  0.000588  0.000000  1
  Lu  Lu5  1  0.000588  0.619494  0.000000  1
  Re  Re6  1  0.995757  0.995757  0.000000  1
  Bi  Bi7  1  0.332543  0.668535  0.500000  1
  Bi  Bi8  1  0.668535  0.332543  0.500000  1
