# generated using pymatgen
data_Tm4Al3GaRh4
_symmetry_space_group_name_H-M   'P 1'
_cell_length_a   4.23358500
_cell_length_b   6.75396440
_cell_length_c   7.87605147
_cell_angle_alpha   89.96062743
_cell_angle_beta   90.00000000
_cell_angle_gamma   90.00000000
_symmetry_Int_Tables_number   1
_chemical_formula_structural   Tm4Al3GaRh4
_chemical_formula_sum   'Tm4 Al3 Ga1 Rh4'
_cell_volume   225.20368552
_cell_formula_units_Z   1
loop_
 _symmetry_equiv_pos_site_id
 _symmetry_equiv_pos_as_xyz
  1  'x, y, z'
loop_
 _atom_site_type_symbol
 _atom_site_label
 _atom_site_symmetry_multiplicity
 _atom_site_fract_x
 _atom_site_fract_y
 _atom_site_fract_z
 _atom_site_occupancy
  Tm  Tm0  1  0.250000  0.962064  0.322197  1
  Tm  Tm1  1  0.750000  0.537243  0.818224  1
  Tm  Tm2  1  0.250000  0.464093  0.180370  1
  Tm  Tm3  1  0.750000  0.033570  0.679422  1
  Al  Al4  1  0.750000  0.138911  0.059745  1
  Al  Al5  1  0.250000  0.359466  0.560393  1
  Al  Al6  1  0.250000  0.861950  0.940129  1
  Ga  Ga7  1  0.750000  0.643458  0.437896  1
  Rh  Rh8  1  0.750000  0.764968  0.118195  1
  Rh  Rh9  1  0.750000  0.261451  0.378705  1
  Rh  Rh10  1  0.250000  0.237418  0.878591  1
  Rh  Rh11  1  0.250000  0.735408  0.626132  1
