# generated using pymatgen
data_Ho16Al4Pt3Rh
_symmetry_space_group_name_H-M   'P 1'
_cell_length_a   9.53492863
_cell_length_b   9.53492944
_cell_length_c   9.54876180
_cell_angle_alpha   60.04790872
_cell_angle_beta   60.04790869
_cell_angle_gamma   60.00000150
_symmetry_Int_Tables_number   1
_chemical_formula_structural   Ho16Al4Pt3Rh
_chemical_formula_sum   'Ho16 Al4 Pt3 Rh1'
_cell_volume   614.30083787
_cell_formula_units_Z   1
loop_
 _symmetry_equiv_pos_site_id
 _symmetry_equiv_pos_as_xyz
  1  'x, y, z'
loop_
 _atom_site_type_symbol
 _atom_site_label
 _atom_site_symmetry_multiplicity
 _atom_site_fract_x
 _atom_site_fract_y
 _atom_site_fract_z
 _atom_site_occupancy
  Ho  Ho0  1  0.186418  0.186418  0.814345  1
  Ho  Ho1  1  0.604463  0.604463  0.186612  1
  Ho  Ho2  1  0.443688  0.056636  0.443040  1
  Ho  Ho3  1  0.441888  0.441888  0.055335  1
  Ho  Ho4  1  0.812817  0.186418  0.814345  1
  Ho  Ho5  1  0.186862  0.812982  0.187173  1
  Ho  Ho6  1  0.441888  0.060890  0.055335  1
  Ho  Ho7  1  0.186418  0.812817  0.814345  1
  Ho  Ho8  1  0.060890  0.441888  0.055335  1
  Ho  Ho9  1  0.812982  0.812982  0.187173  1
  Ho  Ho10  1  0.189596  0.602569  0.605266  1
  Ho  Ho11  1  0.056636  0.443688  0.443040  1
  Ho  Ho12  1  0.056636  0.056636  0.443040  1
  Ho  Ho13  1  0.812982  0.186862  0.187173  1
  Ho  Ho14  1  0.602569  0.189596  0.605266  1
  Ho  Ho15  1  0.602569  0.602569  0.605266  1
  Al  Al16  1  0.827439  0.827439  0.828354  1
  Al  Al17  1  0.828408  0.828408  0.514776  1
  Al  Al18  1  0.516768  0.827439  0.828354  1
  Al  Al19  1  0.827439  0.516768  0.828354  1
  Pt  Pt20  1  0.393596  0.820168  0.392640  1
  Pt  Pt21  1  0.393596  0.393596  0.392640  1
  Pt  Pt22  1  0.820168  0.393596  0.392640  1
  Rh  Rh23  1  0.393282  0.393282  0.820153  1
