# generated using pymatgen
data_SmBi3(CO5)2
_symmetry_space_group_name_H-M   'P 1'
_cell_length_a   6.72310400
_cell_length_b   7.95994218
_cell_length_c   8.25483585
_cell_angle_alpha   91.57560757
_cell_angle_beta   90.00000000
_cell_angle_gamma   90.00000000
_symmetry_Int_Tables_number   1
_chemical_formula_structural   SmBi3(CO5)2
_chemical_formula_sum   'Sm2 Bi6 C4 O20'
_cell_volume   441.59480074
_cell_formula_units_Z   2
loop_
 _symmetry_equiv_pos_site_id
 _symmetry_equiv_pos_as_xyz
  1  'x, y, z'
loop_
 _atom_site_type_symbol
 _atom_site_label
 _atom_site_symmetry_multiplicity
 _atom_site_fract_x
 _atom_site_fract_y
 _atom_site_fract_z
 _atom_site_occupancy
  Sm  Sm0  1  0.063503  0.657970  0.180614  1
  Sm  Sm1  1  0.563503  0.842030  0.319386  1
  Bi  Bi2  1  0.564076  0.368791  0.159410  1
  Bi  Bi3  1  0.064076  0.131209  0.340590  1
  Bi  Bi4  1  0.929989  0.361601  0.853328  1
  Bi  Bi5  1  0.429989  0.138399  0.646672  1
  Bi  Bi6  1  0.429115  0.639176  0.853498  1
  Bi  Bi7  1  0.929115  0.860824  0.646502  1
  C  C8  1  0.745661  0.466981  0.502364  1
  C  C9  1  0.245661  0.033019  0.997636  1
  C  C10  1  0.259226  0.535384  0.482608  1
  C  C11  1  0.759226  0.964616  0.017392  1
  O  O12  1  0.325842  0.466378  0.610800  1
  O  O13  1  0.171343  0.444986  0.369428  1
  O  O14  1  0.825842  0.033622  0.889200  1
  O  O15  1  0.688757  0.559783  0.381607  1
  O  O16  1  0.321517  0.957031  0.870522  1
  O  O17  1  0.821517  0.542969  0.629478  1
  O  O18  1  0.188757  0.940217  0.118393  1
  O  O19  1  0.227720  0.193445  0.008419  1
  O  O20  1  0.773738  0.803539  0.040323  1
  O  O21  1  0.273738  0.696461  0.459677  1
  O  O22  1  0.727720  0.306555  0.491581  1
  O  O23  1  0.671343  0.055014  0.130572  1
  O  O24  1  0.877830  0.417620  0.113396  1
  O  O25  1  0.377830  0.082380  0.386604  1
  O  O26  1  0.586801  0.394205  0.889574  1
  O  O27  1  0.086801  0.105795  0.610426  1
  O  O28  1  0.917620  0.871192  0.371392  1
  O  O29  1  0.417620  0.628808  0.128608  1
  O  O30  1  0.617264  0.909584  0.599301  1
  O  O31  1  0.117264  0.590416  0.900699  1
