# generated using pymatgen
data_Gd4CoB14
_symmetry_space_group_name_H-M   'P 1'
_cell_length_a   7.25899800
_cell_length_b   7.25899800
_cell_length_c   7.57604200
_cell_angle_alpha   90.00000000
_cell_angle_beta   90.00000000
_cell_angle_gamma   90.00000000
_symmetry_Int_Tables_number   1
_chemical_formula_structural   Gd4CoB14
_chemical_formula_sum   'Gd8 Co2 B28'
_cell_volume   399.20477479
_cell_formula_units_Z   2
loop_
 _symmetry_equiv_pos_site_id
 _symmetry_equiv_pos_as_xyz
  1  'x, y, z'
loop_
 _atom_site_type_symbol
 _atom_site_label
 _atom_site_symmetry_multiplicity
 _atom_site_fract_x
 _atom_site_fract_y
 _atom_site_fract_z
 _atom_site_occupancy
  Gd  Gd0  1  0.193476  0.329312  0.000000  1
  Gd  Gd1  1  0.670688  0.193476  0.000000  1
  Gd  Gd2  1  0.329312  0.806524  0.000000  1
  Gd  Gd3  1  0.693476  0.170688  0.500000  1
  Gd  Gd4  1  0.306524  0.829312  0.500000  1
  Gd  Gd5  1  0.806524  0.670688  0.000000  1
  Gd  Gd6  1  0.829312  0.693476  0.500000  1
  Gd  Gd7  1  0.170688  0.306524  0.500000  1
  Co  Co8  1  0.000000  0.000000  0.000000  1
  Co  Co9  1  0.500000  0.500000  0.500000  1
  B  B10  1  0.173577  0.038903  0.231289  1
  B  B11  1  0.961097  0.173577  0.231289  1
  B  B12  1  0.038903  0.826423  0.231289  1
  B  B13  1  0.673577  0.461097  0.268711  1
  B  B14  1  0.326423  0.538903  0.268711  1
  B  B15  1  0.826423  0.961097  0.231289  1
  B  B16  1  0.538903  0.673577  0.268711  1
  B  B17  1  0.461097  0.326423  0.268711  1
  B  B18  1  0.826423  0.961097  0.768711  1
  B  B19  1  0.038903  0.826423  0.768711  1
  B  B20  1  0.961097  0.173577  0.768711  1
  B  B21  1  0.326423  0.538903  0.731289  1
  B  B22  1  0.673577  0.461097  0.731289  1
  B  B23  1  0.173577  0.038903  0.768711  1
  B  B24  1  0.461097  0.326423  0.731289  1
  B  B25  1  0.538903  0.673577  0.731289  1
  B  B26  1  0.088740  0.588740  0.250000  1
  B  B27  1  0.411260  0.088740  0.250000  1
  B  B28  1  0.588740  0.911260  0.250000  1
  B  B29  1  0.911260  0.411260  0.250000  1
  B  B30  1  0.911260  0.411260  0.750000  1
  B  B31  1  0.588740  0.911260  0.750000  1
  B  B32  1  0.411260  0.088740  0.750000  1
  B  B33  1  0.088740  0.588740  0.750000  1
  B  B34  1  0.000000  0.000000  0.388370  1
  B  B35  1  0.500000  0.500000  0.111630  1
  B  B36  1  0.000000  0.000000  0.611630  1
  B  B37  1  0.500000  0.500000  0.888370  1
