# generated using pymatgen
data_NdEuOsC2
_symmetry_space_group_name_H-M   'P 1'
_cell_length_a   5.38716500
_cell_length_b   6.55950200
_cell_length_c   10.32531500
_cell_angle_alpha   90.00000000
_cell_angle_beta   90.00000000
_cell_angle_gamma   90.00000000
_symmetry_Int_Tables_number   1
_chemical_formula_structural   NdEuOsC2
_chemical_formula_sum   'Nd4 Eu4 Os4 C8'
_cell_volume   364.86689098
_cell_formula_units_Z   4
loop_
 _symmetry_equiv_pos_site_id
 _symmetry_equiv_pos_as_xyz
  1  'x, y, z'
loop_
 _atom_site_type_symbol
 _atom_site_label
 _atom_site_symmetry_multiplicity
 _atom_site_fract_x
 _atom_site_fract_y
 _atom_site_fract_z
 _atom_site_occupancy
  Nd  Nd0  1  0.250000  0.805864  0.052595  1
  Nd  Nd1  1  0.750000  0.694136  0.552595  1
  Nd  Nd2  1  0.250000  0.305864  0.447405  1
  Nd  Nd3  1  0.750000  0.194136  0.947405  1
  Eu  Eu4  1  0.250000  0.474862  0.781174  1
  Eu  Eu5  1  0.750000  0.025138  0.281174  1
  Eu  Eu6  1  0.250000  0.974862  0.718826  1
  Eu  Eu7  1  0.750000  0.525138  0.218826  1
  Os  Os8  1  0.250000  0.269281  0.143875  1
  Os  Os9  1  0.750000  0.230719  0.643875  1
  Os  Os10  1  0.250000  0.769281  0.356125  1
  Os  Os11  1  0.750000  0.730719  0.856125  1
  C  C12  1  0.250000  0.692219  0.533052  1
  C  C13  1  0.750000  0.807781  0.033052  1
  C  C14  1  0.250000  0.192219  0.966948  1
  C  C15  1  0.750000  0.307781  0.466948  1
  C  C16  1  0.250000  0.029907  0.256017  1
  C  C17  1  0.750000  0.470093  0.756017  1
  C  C18  1  0.250000  0.529907  0.243983  1
  C  C19  1  0.750000  0.970093  0.743983  1
