# generated using pymatgen
data_Tb2Er10Co5Pb
_symmetry_space_group_name_H-M   'P 1'
_cell_length_a   8.24930587
_cell_length_b   8.24946823
_cell_length_c   8.24337200
_cell_angle_alpha   110.82628375
_cell_angle_beta   110.69960572
_cell_angle_gamma   106.94850257
_symmetry_Int_Tables_number   1
_chemical_formula_structural   Tb2Er10Co5Pb
_chemical_formula_sum   'Tb2 Er10 Co5 Pb1'
_cell_volume   431.04605749
_cell_formula_units_Z   1
loop_
 _symmetry_equiv_pos_site_id
 _symmetry_equiv_pos_as_xyz
  1  'x, y, z'
loop_
 _atom_site_type_symbol
 _atom_site_label
 _atom_site_symmetry_multiplicity
 _atom_site_fract_x
 _atom_site_fract_y
 _atom_site_fract_z
 _atom_site_occupancy
  Tb  Tb0  1  0.289320  0.184295  0.473613  1
  Tb  Tb1  1  0.710680  0.815705  0.526387  1
  Er  Er2  1  0.288448  0.814197  0.102662  1
  Er  Er3  1  0.711552  0.185803  0.897338  1
  Er  Er4  1  0.620925  0.312564  0.306630  1
  Er  Er5  1  0.379075  0.687436  0.693370  1
  Er  Er6  1  0.005968  0.314278  0.693380  1
  Er  Er7  1  0.994032  0.685722  0.306620  1
  Er  Er8  1  0.208268  0.402745  0.193033  1
  Er  Er9  1  0.791732  0.597255  0.806967  1
  Er  Er10  1  0.209685  0.015231  0.806925  1
  Er  Er11  1  0.790315  0.984769  0.193075  1
  Co  Co12  1  0.999356  0.376722  0.376091  1
  Co  Co13  1  0.000644  0.623278  0.623909  1
  Co  Co14  1  0.387819  0.887836  0.500007  1
  Co  Co15  1  0.612181  0.112164  0.499993  1
  Co  Co16  1  0.000000  0.000000  0.000000  1
  Pb  Pb17  1  0.500000  0.500000  0.000000  1
