# generated using pymatgen
data_YbTm2Lu(Ga2Ag)4
_symmetry_space_group_name_H-M   'P 1'
_cell_length_a   4.33267900
_cell_length_b   6.92966150
_cell_length_c   10.25160853
_cell_angle_alpha   90.43063959
_cell_angle_beta   90.00000000
_cell_angle_gamma   90.00000000
_symmetry_Int_Tables_number   1
_chemical_formula_structural   YbTm2Lu(Ga2Ag)4
_chemical_formula_sum   'Yb1 Tm2 Lu1 Ga8 Ag4'
_cell_volume   307.78558909
_cell_formula_units_Z   1
loop_
 _symmetry_equiv_pos_site_id
 _symmetry_equiv_pos_as_xyz
  1  'x, y, z'
loop_
 _atom_site_type_symbol
 _atom_site_label
 _atom_site_symmetry_multiplicity
 _atom_site_fract_x
 _atom_site_fract_y
 _atom_site_fract_z
 _atom_site_occupancy
  Yb  Yb0  1  0.250000  0.274658  0.673096  1
  Tm  Tm1  1  0.750000  0.224672  0.172936  1
  Tm  Tm2  1  0.750000  0.723317  0.327895  1
  Lu  Lu3  1  0.250000  0.777230  0.826430  1
  Ga  Ga4  1  0.250000  0.705128  0.535975  1
  Ga  Ga5  1  0.750000  0.298800  0.463401  1
  Ga  Ga6  1  0.750000  0.794964  0.037376  1
  Ga  Ga7  1  0.250000  0.198004  0.965421  1
  Ga  Ga8  1  0.250000  0.927858  0.156861  1
  Ga  Ga9  1  0.750000  0.068042  0.848302  1
  Ga  Ga10  1  0.750000  0.571858  0.651551  1
  Ga  Ga11  1  0.250000  0.430095  0.343092  1
  Ag  Ag12  1  0.250000  0.544693  0.096090  1
  Ag  Ag13  1  0.750000  0.456762  0.901164  1
  Ag  Ag14  1  0.750000  0.958183  0.597916  1
  Ag  Ag15  1  0.250000  0.045735  0.402495  1
