# generated using pymatgen
data_Nd8Tm12Si15As
_symmetry_space_group_name_H-M   'P 1'
_cell_length_a   7.70491011
_cell_length_b   7.73991470
_cell_length_c   14.17222435
_cell_angle_alpha   89.35075539
_cell_angle_beta   90.29615687
_cell_angle_gamma   90.14946619
_symmetry_Int_Tables_number   1
_chemical_formula_structural   Nd8Tm12Si15As
_chemical_formula_sum   'Nd8 Tm12 Si15 As1'
_cell_volume   845.09722006
_cell_formula_units_Z   1
loop_
 _symmetry_equiv_pos_site_id
 _symmetry_equiv_pos_as_xyz
  1  'x, y, z'
loop_
 _atom_site_type_symbol
 _atom_site_label
 _atom_site_symmetry_multiplicity
 _atom_site_fract_x
 _atom_site_fract_y
 _atom_site_fract_z
 _atom_site_occupancy
  Nd  Nd0  1  0.642050  0.991727  0.460153  1
  Nd  Nd1  1  0.357215  0.004660  0.959018  1
  Nd  Nd2  1  0.996408  0.644402  0.539532  1
  Nd  Nd3  1  0.492871  0.852978  0.211319  1
  Nd  Nd4  1  0.509990  0.151593  0.713120  1
  Nd  Nd5  1  0.855881  0.495186  0.790306  1
  Nd  Nd6  1  0.141621  0.501258  0.288141  1
  Nd  Nd7  1  0.005583  0.355526  0.040295  1
  Tm  Tm8  1  0.492845  0.356772  0.122962  1
  Tm  Tm9  1  0.991324  0.146695  0.629114  1
  Tm  Tm10  1  0.857335  0.007283  0.874212  1
  Tm  Tm11  1  0.144922  0.986859  0.376346  1
  Tm  Tm12  1  0.503040  0.646197  0.620474  1
  Tm  Tm13  1  0.356839  0.494734  0.876843  1
  Tm  Tm14  1  0.646653  0.501698  0.374433  1
  Tm  Tm15  1  0.006739  0.858378  0.126332  1
  Tm  Tm16  1  0.318211  0.324912  0.498249  1
  Tm  Tm17  1  0.181171  0.821325  0.752143  1
  Tm  Tm18  1  0.818989  0.177516  0.250706  1
  Tm  Tm19  1  0.681556  0.680614  0.999469  1
  Si  Si20  1  0.710033  0.059639  0.061999  1
  Si  Si21  1  0.940866  0.286376  0.439031  1
  Si  Si22  1  0.440506  0.203872  0.311442  1
  Si  Si23  1  0.560035  0.790643  0.810892  1
  Si  Si24  1  0.209844  0.445261  0.687707  1
  Si  Si25  1  0.787673  0.559495  0.186651  1
  Si  Si26  1  0.059249  0.709727  0.938613  1
  Si  Si27  1  0.794674  0.851818  0.685762  1
  Si  Si28  1  0.206153  0.146842  0.188621  1
  Si  Si29  1  0.851437  0.795345  0.313252  1
  Si  Si30  1  0.355734  0.689951  0.424547  1
  Si  Si31  1  0.648509  0.295076  0.937186  1
  Si  Si32  1  0.703036  0.352267  0.563155  1
  Si  Si33  1  0.293329  0.648929  0.062475  1
  Si  Si34  1  0.148180  0.206740  0.815129  1
  As  As35  1  0.289498  0.957706  0.570372  1
