# generated using pymatgen
data_Pr2NpCdO7
_symmetry_space_group_name_H-M   'P 1'
_cell_length_a   6.62281488
_cell_length_b   6.79335224
_cell_length_c   8.15043900
_cell_angle_alpha   90.00000000
_cell_angle_beta   90.00000000
_cell_angle_gamma   111.92943117
_symmetry_Int_Tables_number   1
_chemical_formula_structural   Pr2NpCdO7
_chemical_formula_sum   'Pr4 Np2 Cd2 O14'
_cell_volume   340.16477819
_cell_formula_units_Z   2
loop_
 _symmetry_equiv_pos_site_id
 _symmetry_equiv_pos_as_xyz
  1  'x, y, z'
loop_
 _atom_site_type_symbol
 _atom_site_label
 _atom_site_symmetry_multiplicity
 _atom_site_fract_x
 _atom_site_fract_y
 _atom_site_fract_z
 _atom_site_occupancy
  Pr  Pr0  1  0.000000  0.000000  0.000000  1
  Pr  Pr1  1  0.000000  0.000000  0.500000  1
  Pr  Pr2  1  0.957559  0.490983  0.750000  1
  Pr  Pr3  1  0.042441  0.509017  0.250000  1
  Np  Np4  1  0.500000  0.500000  0.000000  1
  Np  Np5  1  0.500000  0.500000  0.500000  1
  Cd  Cd6  1  0.491317  0.989918  0.750000  1
  Cd  Cd7  1  0.508683  0.010082  0.250000  1
  O  O8  1  0.587354  0.483563  0.750000  1
  O  O9  1  0.412646  0.516437  0.250000  1
  O  O10  1  0.845216  0.116944  0.750000  1
  O  O11  1  0.154784  0.883056  0.250000  1
  O  O12  1  0.137634  0.871291  0.750000  1
  O  O13  1  0.862366  0.128709  0.250000  1
  O  O14  1  0.429799  0.191660  0.011748  1
  O  O15  1  0.570201  0.808340  0.511748  1
  O  O16  1  0.164338  0.413956  0.971048  1
  O  O17  1  0.835662  0.586044  0.471048  1
  O  O18  1  0.429799  0.191660  0.488252  1
  O  O19  1  0.570201  0.808340  0.988252  1
  O  O20  1  0.835662  0.586044  0.028952  1
  O  O21  1  0.164338  0.413956  0.528952  1
