# generated using pymatgen
data_Er5Lu7OsRu3
_symmetry_space_group_name_H-M   'P 1'
_cell_length_a   6.21200582
_cell_length_b   7.29328741
_cell_length_c   8.92308521
_cell_angle_alpha   89.98014457
_cell_angle_beta   90.12188837
_cell_angle_gamma   89.97313221
_symmetry_Int_Tables_number   1
_chemical_formula_structural   Er5Lu7OsRu3
_chemical_formula_sum   'Er5 Lu7 Os1 Ru3'
_cell_volume   404.26781397
_cell_formula_units_Z   1
loop_
 _symmetry_equiv_pos_site_id
 _symmetry_equiv_pos_as_xyz
  1  'x, y, z'
loop_
 _atom_site_type_symbol
 _atom_site_label
 _atom_site_symmetry_multiplicity
 _atom_site_fract_x
 _atom_site_fract_y
 _atom_site_fract_z
 _atom_site_occupancy
  Er  Er0  1  0.332705  0.676516  0.063765  1
  Er  Er1  1  0.869095  0.538888  0.250533  1
  Er  Er2  1  0.628687  0.040677  0.250372  1
  Er  Er3  1  0.129938  0.459101  0.749394  1
  Er  Er4  1  0.370565  0.959595  0.749407  1
  Lu  Lu5  1  0.166704  0.175688  0.436514  1
  Lu  Lu6  1  0.666270  0.324097  0.563671  1
  Lu  Lu7  1  0.835065  0.824884  0.937449  1
  Lu  Lu8  1  0.666728  0.323583  0.935913  1
  Lu  Lu9  1  0.834987  0.824717  0.562206  1
  Lu  Lu10  1  0.332653  0.676109  0.436573  1
  Lu  Lu11  1  0.166439  0.175498  0.063588  1
  Os  Os12  1  0.039780  0.884736  0.250785  1
  Ru  Ru13  1  0.459961  0.383760  0.250587  1
  Ru  Ru14  1  0.959976  0.116462  0.750189  1
  Ru  Ru15  1  0.540449  0.615690  0.749053  1
