# generated using pymatgen
data_Y19Mg(Cd3Os)2
_symmetry_space_group_name_H-M   'P 1'
_cell_length_a   9.61206100
_cell_length_b   9.61206038
_cell_length_c   9.81651900
_cell_angle_alpha   90.00000000
_cell_angle_beta   90.00000000
_cell_angle_gamma   120.00000559
_symmetry_Int_Tables_number   1
_chemical_formula_structural   Y19Mg(Cd3Os)2
_chemical_formula_sum   'Y19 Mg1 Cd6 Os2'
_cell_volume   785.45467163
_cell_formula_units_Z   1
loop_
 _symmetry_equiv_pos_site_id
 _symmetry_equiv_pos_as_xyz
  1  'x, y, z'
loop_
 _atom_site_type_symbol
 _atom_site_label
 _atom_site_symmetry_multiplicity
 _atom_site_fract_x
 _atom_site_fract_y
 _atom_site_fract_z
 _atom_site_occupancy
  Y  Y0  1  0.000000  0.000000  0.000000  1
  Y  Y1  1  0.207695  0.792305  0.439768  1
  Y  Y2  1  0.207695  0.415390  0.439768  1
  Y  Y3  1  0.584610  0.792305  0.439768  1
  Y  Y4  1  0.792305  0.207695  0.560232  1
  Y  Y5  1  0.792305  0.584610  0.560232  1
  Y  Y6  1  0.415390  0.207695  0.560232  1
  Y  Y7  1  0.789531  0.210469  0.941690  1
  Y  Y8  1  0.789531  0.579062  0.941690  1
  Y  Y9  1  0.420938  0.210469  0.941690  1
  Y  Y10  1  0.210469  0.789531  0.058310  1
  Y  Y11  1  0.210469  0.420938  0.058310  1
  Y  Y12  1  0.579062  0.789531  0.058310  1
  Y  Y13  1  0.540567  0.459433  0.251838  1
  Y  Y14  1  0.540567  0.081134  0.251838  1
  Y  Y15  1  0.918866  0.459433  0.251838  1
  Y  Y16  1  0.459433  0.540567  0.748162  1
  Y  Y17  1  0.459433  0.918866  0.748162  1
  Y  Y18  1  0.081134  0.540567  0.748162  1
  Mg  Mg19  1  0.000000  0.000000  0.500000  1
  Cd  Cd20  1  0.887299  0.112701  0.256199  1
  Cd  Cd21  1  0.887299  0.774600  0.256199  1
  Cd  Cd22  1  0.225400  0.112701  0.256199  1
  Cd  Cd23  1  0.112701  0.887299  0.743801  1
  Cd  Cd24  1  0.112701  0.225400  0.743801  1
  Cd  Cd25  1  0.774600  0.887299  0.743801  1
  Os  Os26  1  0.333333  0.666667  0.250508  1
  Os  Os27  1  0.666667  0.333333  0.749492  1
