# generated using pymatgen
data_Yb3Y5(Pd2Pb)4
_symmetry_space_group_name_H-M   'P 1'
_cell_length_a   7.89677425
_cell_length_b   7.89677391
_cell_length_c   7.30738300
_cell_angle_alpha   90.00000000
_cell_angle_beta   90.00000000
_cell_angle_gamma   90.04211908
_symmetry_Int_Tables_number   1
_chemical_formula_structural   Yb3Y5(Pd2Pb)4
_chemical_formula_sum   'Yb3 Y5 Pd8 Pb4'
_cell_volume   455.68127196
_cell_formula_units_Z   1
loop_
 _symmetry_equiv_pos_site_id
 _symmetry_equiv_pos_as_xyz
  1  'x, y, z'
loop_
 _atom_site_type_symbol
 _atom_site_label
 _atom_site_symmetry_multiplicity
 _atom_site_fract_x
 _atom_site_fract_y
 _atom_site_fract_z
 _atom_site_occupancy
  Yb  Yb0  1  0.664078  0.664078  0.500000  1
  Yb  Yb1  1  0.837442  0.162756  0.000000  1
  Yb  Yb2  1  0.162756  0.837442  0.000000  1
  Y  Y3  1  0.677237  0.677237  0.000000  1
  Y  Y4  1  0.336560  0.336560  0.500000  1
  Y  Y5  1  0.822190  0.176602  0.500000  1
  Y  Y6  1  0.322867  0.322867  0.000000  1
  Y  Y7  1  0.176602  0.822190  0.500000  1
  Pd  Pd8  1  0.874058  0.874058  0.733860  1
  Pd  Pd9  1  0.127224  0.127224  0.732954  1
  Pd  Pd10  1  0.625581  0.373690  0.764933  1
  Pd  Pd11  1  0.625581  0.373690  0.235067  1
  Pd  Pd12  1  0.373690  0.625581  0.235067  1
  Pd  Pd13  1  0.127224  0.127224  0.267046  1
  Pd  Pd14  1  0.874058  0.874058  0.266140  1
  Pd  Pd15  1  0.373690  0.625581  0.764933  1
  Pb  Pb16  1  0.500550  0.999030  0.750549  1
  Pb  Pb17  1  0.500550  0.999030  0.249451  1
  Pb  Pb18  1  0.999030  0.500550  0.750549  1
  Pb  Pb19  1  0.999030  0.500550  0.249451  1
