# generated using pymatgen
data_Tm2Lu4Al24ZnRu7
_symmetry_space_group_name_H-M   'P 1'
_cell_length_a   8.80396008
_cell_length_b   8.77635841
_cell_length_c   9.51542683
_cell_angle_alpha   89.92796122
_cell_angle_beta   90.00612919
_cell_angle_gamma   119.93973405
_symmetry_Int_Tables_number   1
_chemical_formula_structural   Tm2Lu4Al24ZnRu7
_chemical_formula_sum   'Tm2 Lu4 Al24 Zn1 Ru7'
_cell_volume   637.10984726
_cell_formula_units_Z   1
loop_
 _symmetry_equiv_pos_site_id
 _symmetry_equiv_pos_as_xyz
  1  'x, y, z'
loop_
 _atom_site_type_symbol
 _atom_site_label
 _atom_site_symmetry_multiplicity
 _atom_site_fract_x
 _atom_site_fract_y
 _atom_site_fract_z
 _atom_site_occupancy
  Tm  Tm0  1  0.807010  0.612556  0.752484  1
  Tm  Tm1  1  0.192990  0.387444  0.247516  1
  Lu  Lu2  1  0.804044  0.195965  0.746547  1
  Lu  Lu3  1  0.195956  0.804035  0.253453  1
  Lu  Lu4  1  0.387807  0.192683  0.752319  1
  Lu  Lu5  1  0.612193  0.807317  0.247681  1
  Al  Al6  1  0.670658  0.329121  0.976287  1
  Al  Al7  1  0.329342  0.670879  0.023713  1
  Al  Al8  1  0.333934  0.666306  0.479373  1
  Al  Al9  1  0.666066  0.333694  0.520627  1
  Al  Al10  1  0.837054  0.162511  0.421087  1
  Al  Al11  1  0.162946  0.837489  0.578913  1
  Al  Al12  1  0.324517  0.162424  0.423642  1
  Al  Al13  1  0.163309  0.837488  0.920744  1
  Al  Al14  1  0.675483  0.837576  0.576358  1
  Al  Al15  1  0.836691  0.162512  0.079256  1
  Al  Al16  1  0.837246  0.675466  0.423603  1
  Al  Al17  1  0.677827  0.849142  0.918213  1
  Al  Al18  1  0.162754  0.324534  0.576397  1
  Al  Al19  1  0.322173  0.150858  0.081787  1
  Al  Al20  1  0.151310  0.322189  0.917979  1
  Al  Al21  1  0.848690  0.677811  0.082021  1
  Al  Al22  1  0.436789  0.562838  0.745514  1
  Al  Al23  1  0.563211  0.437162  0.254486  1
  Al  Al24  1  0.121304  0.561027  0.751064  1
  Al  Al25  1  0.878696  0.438973  0.248936  1
  Al  Al26  1  0.439022  0.879046  0.751131  1
  Al  Al27  1  0.560978  0.120954  0.248869  1
  Al  Al28  1  0.000944  0.999806  0.749586  1
  Al  Al29  1  0.999056  0.000194  0.250414  1
  Zn  Zn30  1  0.500000  0.500000  0.000000  1
  Ru  Ru31  1  0.000000  0.500000  0.000000  1
  Ru  Ru32  1  0.500000  0.500000  0.500000  1
  Ru  Ru33  1  0.500000  0.000000  0.000000  1
  Ru  Ru34  1  0.000000  0.500000  0.500000  1
  Ru  Ru35  1  0.500000  0.000000  0.500000  1
  Ru  Ru36  1  0.000000  0.000000  0.000000  1
  Ru  Ru37  1  0.000000  0.000000  0.500000  1
