# generated using pymatgen
data_Hf4ThInRh10
_symmetry_space_group_name_H-M   'P 1'
_cell_length_a   4.22067300
_cell_length_b   5.72731547
_cell_length_c   11.24217601
_cell_angle_alpha   89.09404398
_cell_angle_beta   90.00000000
_cell_angle_gamma   90.00000000
_symmetry_Int_Tables_number   1
_chemical_formula_structural   Hf4ThInRh10
_chemical_formula_sum   'Hf4 Th1 In1 Rh10'
_cell_volume   271.72456325
_cell_formula_units_Z   1
loop_
 _symmetry_equiv_pos_site_id
 _symmetry_equiv_pos_as_xyz
  1  'x, y, z'
loop_
 _atom_site_type_symbol
 _atom_site_label
 _atom_site_symmetry_multiplicity
 _atom_site_fract_x
 _atom_site_fract_y
 _atom_site_fract_z
 _atom_site_occupancy
  Hf  Hf0  1  0.500000  0.821392  0.353397  1
  Hf  Hf1  1  0.500000  0.666484  0.858993  1
  Hf  Hf2  1  0.500000  0.335250  0.143794  1
  Hf  Hf3  1  0.000000  0.998011  0.003626  1
  Th  Th4  1  0.500000  0.178704  0.641214  1
  In  In5  1  0.000000  0.506808  0.493217  1
  Rh  Rh6  1  0.500000  0.194458  0.900605  1
  Rh  Rh7  1  0.500000  0.805504  0.109546  1
  Rh  Rh8  1  0.500000  0.699481  0.615545  1
  Rh  Rh9  1  0.500000  0.292785  0.377070  1
  Rh  Rh10  1  0.000000  0.437153  0.754546  1
  Rh  Rh11  1  0.000000  0.573937  0.249809  1
  Rh  Rh12  1  0.000000  0.992201  0.490795  1
  Rh  Rh13  1  0.000000  0.502018  0.002975  1
  Rh  Rh14  1  0.000000  0.076953  0.240454  1
  Rh  Rh15  1  0.000000  0.918858  0.764412  1
