# generated using pymatgen
data_ScTa5NbH16
_symmetry_space_group_name_H-M   'P 1'
_cell_length_a   6.40451057
_cell_length_b   6.35761258
_cell_length_c   6.40451119
_cell_angle_alpha   60.24194218
_cell_angle_beta   59.21256510
_cell_angle_gamma   60.24193693
_symmetry_Int_Tables_number   1
_chemical_formula_structural   ScTa5NbH16
_chemical_formula_sum   'Sc1 Ta5 Nb1 H16'
_cell_volume   183.93305615
_cell_formula_units_Z   1
loop_
 _symmetry_equiv_pos_site_id
 _symmetry_equiv_pos_as_xyz
  1  'x, y, z'
loop_
 _atom_site_type_symbol
 _atom_site_label
 _atom_site_symmetry_multiplicity
 _atom_site_fract_x
 _atom_site_fract_y
 _atom_site_fract_z
 _atom_site_occupancy
  Sc  Sc0  1  0.000000  0.500000  0.000000  1
  Ta  Ta1  1  0.000000  0.000000  0.500000  1
  Ta  Ta2  1  0.500000  0.000000  0.500000  1
  Ta  Ta3  1  0.000000  0.500000  0.500000  1
  Ta  Ta4  1  0.500000  0.500000  0.000000  1
  Ta  Ta5  1  0.500000  0.000000  0.000000  1
  Nb  Nb6  1  0.000000  0.000000  0.000000  1
  H  H7  1  0.874316  0.874138  0.377406  1
  H  H8  1  0.871588  0.375507  0.871588  1
  H  H9  1  0.377406  0.874138  0.874316  1
  H  H10  1  0.871588  0.881316  0.871588  1
  H  H11  1  0.125684  0.125862  0.622594  1
  H  H12  1  0.128412  0.624493  0.128412  1
  H  H13  1  0.622594  0.125862  0.125684  1
  H  H14  1  0.128412  0.118684  0.128412  1
  H  H15  1  0.607156  0.628661  0.135521  1
  H  H16  1  0.620292  0.138525  0.620292  1
  H  H17  1  0.135521  0.628661  0.607156  1
  H  H18  1  0.620292  0.620891  0.620292  1
  H  H19  1  0.392844  0.371339  0.864479  1
  H  H20  1  0.379708  0.861475  0.379708  1
  H  H21  1  0.864479  0.371339  0.392844  1
  H  H22  1  0.379708  0.379109  0.379708  1
