# generated using pymatgen
data_PrTe28
_symmetry_space_group_name_H-M   'P 1'
_cell_length_a   9.19556804
_cell_length_b   12.25275962
_cell_length_c   12.34753508
_cell_angle_alpha   123.44203759
_cell_angle_beta   100.17923945
_cell_angle_gamma   96.30249881
_symmetry_Int_Tables_number   1
_chemical_formula_structural   PrTe28
_chemical_formula_sum   'Pr1 Te28'
_cell_volume   1105.66565088
_cell_formula_units_Z   1
loop_
 _symmetry_equiv_pos_site_id
 _symmetry_equiv_pos_as_xyz
  1  'x, y, z'
loop_
 _atom_site_type_symbol
 _atom_site_label
 _atom_site_symmetry_multiplicity
 _atom_site_fract_x
 _atom_site_fract_y
 _atom_site_fract_z
 _atom_site_occupancy
  Pr  Pr0  1  0.500000  0.000000  0.000000  1
  Te  Te1  1  0.175339  0.136596  0.396180  1
  Te  Te2  1  0.609962  0.089446  0.421484  1
  Te  Te3  1  0.245491  0.294442  0.858990  1
  Te  Te4  1  0.786784  0.317244  0.844252  1
  Te  Te5  1  0.171402  0.519933  0.699648  1
  Te  Te6  1  0.687859  0.531490  0.663420  1
  Te  Te7  1  0.390038  0.910554  0.578516  1
  Te  Te8  1  0.824661  0.863404  0.603820  1
  Te  Te9  1  0.213216  0.682756  0.155748  1
  Te  Te10  1  0.754509  0.705558  0.141010  1
  Te  Te11  1  0.312141  0.468510  0.336580  1
  Te  Te12  1  0.828598  0.480067  0.300352  1
  Te  Te13  1  0.727543  0.062473  0.846791  1
  Te  Te14  1  0.229293  0.029423  0.802798  1
  Te  Te15  1  0.877498  0.601799  0.911057  1
  Te  Te16  1  0.391923  0.705514  0.950635  1
  Te  Te17  1  0.673536  0.259364  0.327867  1
  Te  Te18  1  0.051418  0.324032  0.338225  1
  Te  Te19  1  0.770707  0.970577  0.197202  1
  Te  Te20  1  0.272457  0.937527  0.153209  1
  Te  Te21  1  0.608077  0.294486  0.049365  1
  Te  Te22  1  0.122502  0.398201  0.088943  1
  Te  Te23  1  0.948582  0.675968  0.661775  1
  Te  Te24  1  0.326464  0.740636  0.672133  1
  Te  Te25  1  0.909028  0.199376  0.623900  1
  Te  Te26  1  0.444006  0.253372  0.616673  1
  Te  Te27  1  0.555994  0.746628  0.383327  1
  Te  Te28  1  0.090972  0.800624  0.376100  1
