# generated using pymatgen
data_PrGd2Bi5O14
_symmetry_space_group_name_H-M   'P 1'
_cell_length_a   6.68413636
_cell_length_b   6.85356739
_cell_length_c   7.88514800
_cell_angle_alpha   106.52817063
_cell_angle_beta   89.55306493
_cell_angle_gamma   98.60211852
_symmetry_Int_Tables_number   1
_chemical_formula_structural   PrGd2Bi5O14
_chemical_formula_sum   'Pr1 Gd2 Bi5 O14'
_cell_volume   342.16872865
_cell_formula_units_Z   1
loop_
 _symmetry_equiv_pos_site_id
 _symmetry_equiv_pos_as_xyz
  1  'x, y, z'
loop_
 _atom_site_type_symbol
 _atom_site_label
 _atom_site_symmetry_multiplicity
 _atom_site_fract_x
 _atom_site_fract_y
 _atom_site_fract_z
 _atom_site_occupancy
  Pr  Pr0  1  0.260167  0.536625  0.883711  1
  Gd  Gd1  1  0.461279  0.004328  0.252328  1
  Gd  Gd2  1  0.541029  0.998354  0.750926  1
  Bi  Bi3  1  0.001113  0.002442  0.499975  1
  Bi  Bi4  1  0.998470  0.002357  0.001300  1
  Bi  Bi5  1  0.744916  0.482021  0.118936  1
  Bi  Bi6  1  0.723844  0.459618  0.609802  1
  Bi  Bi7  1  0.277164  0.536696  0.391576  1
  O  O8  1  0.454315  0.652509  0.174908  1
  O  O9  1  0.550777  0.347015  0.820968  1
  O  O10  1  0.296895  0.924634  0.948271  1
  O  O11  1  0.694751  0.052886  0.046039  1
  O  O12  1  0.296721  0.917805  0.512191  1
  O  O13  1  0.702861  0.083001  0.489201  1
  O  O14  1  0.533254  0.354842  0.352051  1
  O  O15  1  0.463675  0.645236  0.651560  1
  O  O16  1  0.924668  0.674877  0.962600  1
  O  O17  1  0.074666  0.324165  0.043030  1
  O  O18  1  0.091393  0.323709  0.618610  1
  O  O19  1  0.904753  0.680596  0.373977  1
  O  O20  1  0.883405  0.930683  0.732610  1
  O  O21  1  0.119881  0.065602  0.265430  1
