# generated using pymatgen
data_Ba3TbInO6
_symmetry_space_group_name_H-M   'P 1'
_cell_length_a   7.31627015
_cell_length_b   7.31626922
_cell_length_c   7.31627145
_cell_angle_alpha   92.96488966
_cell_angle_beta   92.96488237
_cell_angle_gamma   92.96489207
_symmetry_Int_Tables_number   1
_chemical_formula_structural   Ba3TbInO6
_chemical_formula_sum   'Ba6 Tb2 In2 O12'
_cell_volume   389.99474080
_cell_formula_units_Z   2
loop_
 _symmetry_equiv_pos_site_id
 _symmetry_equiv_pos_as_xyz
  1  'x, y, z'
loop_
 _atom_site_type_symbol
 _atom_site_label
 _atom_site_symmetry_multiplicity
 _atom_site_fract_x
 _atom_site_fract_y
 _atom_site_fract_z
 _atom_site_occupancy
  Ba  Ba0  1  0.250000  0.887755  0.612245  1
  Ba  Ba1  1  0.887755  0.612245  0.250000  1
  Ba  Ba2  1  0.750000  0.112245  0.387755  1
  Ba  Ba3  1  0.387755  0.750000  0.112245  1
  Ba  Ba4  1  0.112245  0.387755  0.750000  1
  Ba  Ba5  1  0.612245  0.250000  0.887755  1
  Tb  Tb6  1  0.750000  0.750000  0.750000  1
  Tb  Tb7  1  0.250000  0.250000  0.250000  1
  In  In8  1  0.500000  0.500000  0.500000  1
  In  In9  1  0.000000  0.000000  0.000000  1
  O  O10  1  0.598361  0.790186  0.467012  1
  O  O11  1  0.467012  0.598361  0.790186  1
  O  O12  1  0.790186  0.467012  0.598361  1
  O  O13  1  0.901639  0.032988  0.709814  1
  O  O14  1  0.709814  0.901639  0.032988  1
  O  O15  1  0.032988  0.709814  0.901639  1
  O  O16  1  0.401639  0.209814  0.532988  1
  O  O17  1  0.532988  0.401639  0.209814  1
  O  O18  1  0.209814  0.532988  0.401639  1
  O  O19  1  0.098361  0.967012  0.290186  1
  O  O20  1  0.967012  0.290186  0.098361  1
  O  O21  1  0.290186  0.098361  0.967012  1
