# generated using pymatgen
data_Hf4Zr2GePb2
_symmetry_space_group_name_H-M   'P 1'
_cell_length_a   3.87861600
_cell_length_b   7.72742231
_cell_length_c   7.72968600
_cell_angle_alpha   120.00968239
_cell_angle_beta   90.00000000
_cell_angle_gamma   90.00000000
_symmetry_Int_Tables_number   1
_chemical_formula_structural   Hf4Zr2GePb2
_chemical_formula_sum   'Hf4 Zr2 Ge1 Pb2'
_cell_volume   200.61413749
_cell_formula_units_Z   1
loop_
 _symmetry_equiv_pos_site_id
 _symmetry_equiv_pos_as_xyz
  1  'x, y, z'
loop_
 _atom_site_type_symbol
 _atom_site_label
 _atom_site_symmetry_multiplicity
 _atom_site_fract_x
 _atom_site_fract_y
 _atom_site_fract_z
 _atom_site_occupancy
  Hf  Hf0  1  0.500000  0.241941  0.998766  1
  Hf  Hf1  1  0.500000  0.000000  0.242584  1
  Hf  Hf2  1  0.000000  0.000000  0.613841  1
  Hf  Hf3  1  0.500000  0.758059  0.756825  1
  Zr  Zr4  1  0.000000  0.612420  0.000149  1
  Zr  Zr5  1  0.000000  0.387581  0.387730  1
  Ge  Ge6  1  0.000000  0.000000  0.999727  1
  Pb  Pb7  1  0.500000  0.667631  0.334005  1
  Pb  Pb8  1  0.500000  0.332371  0.666375  1
