# generated using pymatgen
data_TbGd3SiTc7
_symmetry_space_group_name_H-M   'P 1'
_cell_length_a   5.33138800
_cell_length_b   5.33138935
_cell_length_c   8.92061300
_cell_angle_alpha   90.00000000
_cell_angle_beta   90.00000000
_cell_angle_gamma   119.99999165
_symmetry_Int_Tables_number   1
_chemical_formula_structural   TbGd3SiTc7
_chemical_formula_sum   'Tb1 Gd3 Si1 Tc7'
_cell_volume   219.58671265
_cell_formula_units_Z   1
loop_
 _symmetry_equiv_pos_site_id
 _symmetry_equiv_pos_as_xyz
  1  'x, y, z'
loop_
 _atom_site_type_symbol
 _atom_site_label
 _atom_site_symmetry_multiplicity
 _atom_site_fract_x
 _atom_site_fract_y
 _atom_site_fract_z
 _atom_site_occupancy
  Tb  Tb0  1  0.333333  0.666667  0.435496  1
  Gd  Gd1  1  0.666667  0.333333  0.563896  1
  Gd  Gd2  1  0.666667  0.333333  0.934621  1
  Gd  Gd3  1  0.333333  0.666667  0.065229  1
  Si  Si4  1  0.000000  0.000000  0.499738  1
  Tc  Tc5  1  0.000000  0.000000  0.000711  1
  Tc  Tc6  1  0.830328  0.169672  0.255357  1
  Tc  Tc7  1  0.830328  0.660655  0.255357  1
  Tc  Tc8  1  0.339345  0.169672  0.255357  1
  Tc  Tc9  1  0.169676  0.830324  0.744746  1
  Tc  Tc10  1  0.169676  0.339352  0.744746  1
  Tc  Tc11  1  0.660648  0.830324  0.744746  1
