# generated using pymatgen
data_LuPa(SnRu2)2
_symmetry_space_group_name_H-M   'P 1'
_cell_length_a   4.68528700
_cell_length_b   6.62793830
_cell_length_c   14.04746400
_cell_angle_alpha   89.98305661
_cell_angle_beta   90.00051361
_cell_angle_gamma   89.99763154
_symmetry_Int_Tables_number   1
_chemical_formula_structural   LuPa(SnRu2)2
_chemical_formula_sum   'Lu3 Pa3 Sn6 Ru12'
_cell_volume   436.22702165
_cell_formula_units_Z   3
loop_
 _symmetry_equiv_pos_site_id
 _symmetry_equiv_pos_as_xyz
  1  'x, y, z'
loop_
 _atom_site_type_symbol
 _atom_site_label
 _atom_site_symmetry_multiplicity
 _atom_site_fract_x
 _atom_site_fract_y
 _atom_site_fract_z
 _atom_site_occupancy
  Lu  Lu0  1  0.999937  0.999927  0.003562  1
  Lu  Lu1  1  0.500027  0.500114  0.166668  1
  Lu  Lu2  1  0.000005  0.999843  0.329776  1
  Pa  Pa3  1  0.500066  0.500377  0.493282  1
  Pa  Pa4  1  0.000046  0.999654  0.666667  1
  Pa  Pa5  1  0.499995  0.500421  0.840028  1
  Sn  Sn6  1  0.000009  0.499858  0.008966  1
  Sn  Sn7  1  0.499742  0.000467  0.166663  1
  Sn  Sn8  1  0.000037  0.499722  0.324372  1
  Sn  Sn9  1  0.500045  0.000039  0.493609  1
  Sn  Sn10  1  0.000017  0.499749  0.666665  1
  Sn  Sn11  1  0.499967  0.000165  0.839729  1
  Ru  Ru12  1  0.499979  0.253302  0.996994  1
  Ru  Ru13  1  0.499980  0.746762  0.997066  1
  Ru  Ru14  1  0.999954  0.249193  0.166661  1
  Ru  Ru15  1  0.999954  0.750790  0.166674  1
  Ru  Ru16  1  0.500049  0.253177  0.336326  1
  Ru  Ru17  1  0.500049  0.746655  0.336296  1
  Ru  Ru18  1  0.000067  0.248554  0.501924  1
  Ru  Ru19  1  0.000070  0.751242  0.501856  1
  Ru  Ru20  1  0.500047  0.253672  0.666651  1
  Ru  Ru21  1  0.500028  0.746284  0.666682  1
  Ru  Ru22  1  0.999979  0.248676  0.831411  1
  Ru  Ru23  1  0.999954  0.751363  0.831475  1
