# generated using pymatgen
data_Ho12In2Tc3
_symmetry_space_group_name_H-M   'P 1'
_cell_length_a   8.43800562
_cell_length_b   8.43800558
_cell_length_c   8.43800619
_cell_angle_alpha   108.87214789
_cell_angle_beta   108.87215268
_cell_angle_gamma   110.67612312
_symmetry_Int_Tables_number   1
_chemical_formula_structural   Ho12In2Tc3
_chemical_formula_sum   'Ho12 In2 Tc3'
_cell_volume   462.33113787
_cell_formula_units_Z   1
loop_
 _symmetry_equiv_pos_site_id
 _symmetry_equiv_pos_as_xyz
  1  'x, y, z'
loop_
 _atom_site_type_symbol
 _atom_site_label
 _atom_site_symmetry_multiplicity
 _atom_site_fract_x
 _atom_site_fract_y
 _atom_site_fract_z
 _atom_site_occupancy
  Ho  Ho0  1  0.189968  0.429696  0.239729  1
  Ho  Ho1  1  0.810032  0.570304  0.760271  1
  Ho  Ho2  1  0.189968  0.950240  0.760271  1
  Ho  Ho3  1  0.950240  0.189968  0.760271  1
  Ho  Ho4  1  0.810032  0.049760  0.239729  1
  Ho  Ho5  1  0.049760  0.810032  0.239729  1
  Ho  Ho6  1  0.429696  0.189968  0.239729  1
  Ho  Ho7  1  0.570304  0.810032  0.760271  1
  Ho  Ho8  1  0.305643  0.305643  0.611287  1
  Ho  Ho9  1  0.694357  0.694357  0.388713  1
  Ho  Ho10  1  0.694357  0.305643  0.000000  1
  Ho  Ho11  1  0.305643  0.694357  0.000000  1
  In  In12  1  0.000000  0.500000  0.500000  1
  In  In13  1  0.500000  0.000000  0.500000  1
  Tc  Tc14  1  0.371640  0.371640  0.000000  1
  Tc  Tc15  1  0.628360  0.628360  0.000000  1
  Tc  Tc16  1  0.000000  0.000000  0.000000  1
