# generated using pymatgen
data_Pr3Th(GaRh)4
_symmetry_space_group_name_H-M   'P 1'
_cell_length_a   4.32987300
_cell_length_b   7.06637059
_cell_length_c   8.10349856
_cell_angle_alpha   90.22977107
_cell_angle_beta   90.00000000
_cell_angle_gamma   90.00000000
_symmetry_Int_Tables_number   1
_chemical_formula_structural   Pr3Th(GaRh)4
_chemical_formula_sum   'Pr3 Th1 Ga4 Rh4'
_cell_volume   247.93659672
_cell_formula_units_Z   1
loop_
 _symmetry_equiv_pos_site_id
 _symmetry_equiv_pos_as_xyz
  1  'x, y, z'
loop_
 _atom_site_type_symbol
 _atom_site_label
 _atom_site_symmetry_multiplicity
 _atom_site_fract_x
 _atom_site_fract_y
 _atom_site_fract_z
 _atom_site_occupancy
  Pr  Pr0  1  0.750000  0.460920  0.812754  1
  Pr  Pr1  1  0.750000  0.959796  0.683207  1
  Pr  Pr2  1  0.250000  0.038795  0.317685  1
  Th  Th3  1  0.250000  0.539753  0.179608  1
  Ga  Ga4  1  0.250000  0.636215  0.564039  1
  Ga  Ga5  1  0.750000  0.358179  0.438086  1
  Ga  Ga6  1  0.750000  0.870190  0.063608  1
  Ga  Ga7  1  0.250000  0.138201  0.935152  1
  Rh  Rh8  1  0.250000  0.761334  0.892796  1
  Rh  Rh9  1  0.750000  0.247937  0.122157  1
  Rh  Rh10  1  0.750000  0.724702  0.371858  1
  Rh  Rh11  1  0.250000  0.263979  0.619049  1
