# generated using pymatgen
data_LaNd3Ho4(CdIr)2
_symmetry_space_group_name_H-M   'P 1'
_cell_length_a   9.79477676
_cell_length_b   9.79477725
_cell_length_c   9.76880300
_cell_angle_alpha   60.08768030
_cell_angle_beta   60.08767867
_cell_angle_gamma   60.30293579
_symmetry_Int_Tables_number   1
_chemical_formula_structural   LaNd3Ho4(CdIr)2
_chemical_formula_sum   'La2 Nd6 Ho8 Cd4 Ir4'
_cell_volume   665.08449986
_cell_formula_units_Z   2
loop_
 _symmetry_equiv_pos_site_id
 _symmetry_equiv_pos_as_xyz
  1  'x, y, z'
loop_
 _atom_site_type_symbol
 _atom_site_label
 _atom_site_symmetry_multiplicity
 _atom_site_fract_x
 _atom_site_fract_y
 _atom_site_fract_z
 _atom_site_occupancy
  La  La0  1  0.348171  0.348171  0.349327  1
  La  La1  1  0.348171  0.348171  0.954330  1
  Nd  Nd2  1  0.940793  0.559882  0.559370  1
  Nd  Nd3  1  0.559882  0.940793  0.939955  1
  Nd  Nd4  1  0.559882  0.940793  0.559370  1
  Nd  Nd5  1  0.940793  0.559882  0.939955  1
  Nd  Nd6  1  0.562830  0.562830  0.937170  1
  Nd  Nd7  1  0.943366  0.943366  0.556634  1
  Ho  Ho8  1  0.348826  0.951487  0.349843  1
  Ho  Ho9  1  0.951487  0.348826  0.349843  1
  Ho  Ho10  1  0.814260  0.185872  0.187178  1
  Ho  Ho11  1  0.185872  0.814260  0.812690  1
  Ho  Ho12  1  0.185872  0.814260  0.187178  1
  Ho  Ho13  1  0.814260  0.185872  0.812690  1
  Ho  Ho14  1  0.184367  0.184367  0.815633  1
  Ho  Ho15  1  0.812013  0.812013  0.187987  1
  Cd  Cd16  1  0.582111  0.582111  0.575484  1
  Cd  Cd17  1  0.582111  0.582111  0.260294  1
  Cd  Cd18  1  0.584644  0.259377  0.577989  1
  Cd  Cd19  1  0.259377  0.584644  0.577989  1
  Ir  Ir20  1  0.137901  0.137901  0.146834  1
  Ir  Ir21  1  0.137901  0.137901  0.577363  1
  Ir  Ir22  1  0.135097  0.580010  0.142446  1
  Ir  Ir23  1  0.580010  0.135097  0.142446  1
