# generated using pymatgen
data_OsI16
_symmetry_space_group_name_H-M   'P 1'
_cell_length_a   9.93799639
_cell_length_b   9.18860536
_cell_length_c   11.22435408
_cell_angle_alpha   91.80238713
_cell_angle_beta   113.62951027
_cell_angle_gamma   104.33735075
_symmetry_Int_Tables_number   1
_chemical_formula_structural   OsI16
_chemical_formula_sum   'Os1 I16'
_cell_volume   899.86522051
_cell_formula_units_Z   1
loop_
 _symmetry_equiv_pos_site_id
 _symmetry_equiv_pos_as_xyz
  1  'x, y, z'
loop_
 _atom_site_type_symbol
 _atom_site_label
 _atom_site_symmetry_multiplicity
 _atom_site_fract_x
 _atom_site_fract_y
 _atom_site_fract_z
 _atom_site_occupancy
  Os  Os0  1  0.000000  0.000000  0.000000  1
  I  I1  1  0.044309  0.006225  0.774665  1
  I  I2  1  0.955691  0.993775  0.225335  1
  I  I3  1  0.949704  0.269703  0.979532  1
  I  I4  1  0.050296  0.730297  0.020468  1
  I  I5  1  0.305450  0.120979  0.136842  1
  I  I6  1  0.694550  0.879021  0.863158  1
  I  I7  1  0.395876  0.448784  0.202887  1
  I  I8  1  0.604124  0.551216  0.797113  1
  I  I9  1  0.255394  0.110962  0.489795  1
  I  I10  1  0.744606  0.889038  0.510205  1
  I  I11  1  0.071620  0.354775  0.722961  1
  I  I12  1  0.928380  0.645225  0.277039  1
  I  I13  1  0.479058  0.791768  0.265982  1
  I  I14  1  0.520942  0.208232  0.734018  1
  I  I15  1  0.921859  0.339448  0.281225  1
  I  I16  1  0.078141  0.660552  0.718775  1
