# generated using pymatgen
data_Dy8Ho12Si13Ir3
_symmetry_space_group_name_H-M   'P 1'
_cell_length_a   7.23182028
_cell_length_b   7.82864418
_cell_length_c   14.58685500
_cell_angle_alpha   90.00000000
_cell_angle_beta   90.00000000
_cell_angle_gamma   90.18530117
_symmetry_Int_Tables_number   1
_chemical_formula_structural   Dy8Ho12Si13Ir3
_chemical_formula_sum   'Dy8 Ho12 Si13 Ir3'
_cell_volume   825.83554914
_cell_formula_units_Z   1
loop_
 _symmetry_equiv_pos_site_id
 _symmetry_equiv_pos_as_xyz
  1  'x, y, z'
loop_
 _atom_site_type_symbol
 _atom_site_label
 _atom_site_symmetry_multiplicity
 _atom_site_fract_x
 _atom_site_fract_y
 _atom_site_fract_z
 _atom_site_occupancy
  Dy  Dy0  1  0.007957  0.180679  0.095432  1
  Dy  Dy1  1  0.990503  0.821059  0.909643  1
  Dy  Dy2  1  0.488381  0.682482  0.907389  1
  Dy  Dy3  1  0.990503  0.821059  0.590357  1
  Dy  Dy4  1  0.509137  0.321919  0.095880  1
  Dy  Dy5  1  0.007957  0.180679  0.404568  1
  Dy  Dy6  1  0.509137  0.321919  0.404120  1
  Dy  Dy7  1  0.488381  0.682482  0.592611  1
  Ho  Ho8  1  0.157028  0.518935  0.750000  1
  Ho  Ho9  1  0.829687  0.490608  0.250000  1
  Ho  Ho10  1  0.327114  0.012761  0.250000  1
  Ho  Ho11  1  0.673110  0.984491  0.750000  1
  Ho  Ho12  1  0.318099  0.176072  0.626748  1
  Ho  Ho13  1  0.681647  0.827429  0.371864  1
  Ho  Ho14  1  0.183188  0.673190  0.371427  1
  Ho  Ho15  1  0.681647  0.827429  0.128136  1
  Ho  Ho16  1  0.831409  0.316678  0.625053  1
  Ho  Ho17  1  0.318099  0.176072  0.873252  1
  Ho  Ho18  1  0.831409  0.316678  0.874947  1
  Ho  Ho19  1  0.183188  0.673190  0.128573  1
  Si  Si20  1  0.530866  0.399851  0.750000  1
  Si  Si21  1  0.275632  0.865263  0.750000  1
  Si  Si22  1  0.724532  0.135556  0.250000  1
  Si  Si23  1  0.221342  0.367302  0.250000  1
  Si  Si24  1  0.768798  0.622526  0.750000  1
  Si  Si25  1  0.158497  0.472631  0.538063  1
  Si  Si26  1  0.844178  0.530829  0.464048  1
  Si  Si27  1  0.343546  0.971870  0.462812  1
  Si  Si28  1  0.844178  0.530829  0.035952  1
  Si  Si29  1  0.650744  0.029982  0.538091  1
  Si  Si30  1  0.158497  0.472631  0.961937  1
  Si  Si31  1  0.650744  0.029982  0.961909  1
  Si  Si32  1  0.343546  0.971870  0.037188  1
  Ir  Ir33  1  0.027331  0.093933  0.750000  1
  Ir  Ir34  1  0.973765  0.906360  0.250000  1
  Ir  Ir35  1  0.476223  0.592775  0.250000  1
