# generated using pymatgen
data_TbThMgNi2
_symmetry_space_group_name_H-M   'P 1'
_cell_length_a   7.57166892
_cell_length_b   7.57166892
_cell_length_c   3.68483200
_cell_angle_alpha   90.00000000
_cell_angle_beta   90.00000000
_cell_angle_gamma   92.89064635
_symmetry_Int_Tables_number   1
_chemical_formula_structural   TbThMgNi2
_chemical_formula_sum   'Tb2 Th2 Mg2 Ni4'
_cell_volume   210.98324971
_cell_formula_units_Z   2
loop_
 _symmetry_equiv_pos_site_id
 _symmetry_equiv_pos_as_xyz
  1  'x, y, z'
loop_
 _atom_site_type_symbol
 _atom_site_label
 _atom_site_symmetry_multiplicity
 _atom_site_fract_x
 _atom_site_fract_y
 _atom_site_fract_z
 _atom_site_occupancy
  Tb  Tb0  1  0.169790  0.330210  0.500000  1
  Tb  Tb1  1  0.830210  0.669790  0.500000  1
  Th  Th2  1  0.673760  0.173760  0.500000  1
  Th  Th3  1  0.326240  0.826240  0.500000  1
  Mg  Mg4  1  0.000000  0.000000  0.000000  1
  Mg  Mg5  1  0.500000  0.500000  0.000000  1
  Ni  Ni6  1  0.124189  0.624189  0.000000  1
  Ni  Ni7  1  0.875811  0.375811  0.000000  1
  Ni  Ni8  1  0.618914  0.881086  0.000000  1
  Ni  Ni9  1  0.381086  0.118914  0.000000  1
