# generated using pymatgen
data_RbPr5Gd(CBr6)2
_symmetry_space_group_name_H-M   'P 1'
_cell_length_a   9.19670716
_cell_length_b   9.20564958
_cell_length_c   9.68789600
_cell_angle_alpha   71.99916995
_cell_angle_beta   70.68910853
_cell_angle_gamma   72.61199324
_symmetry_Int_Tables_number   1
_chemical_formula_structural   RbPr5Gd(CBr6)2
_chemical_formula_sum   'Rb1 Pr5 Gd1 C2 Br12'
_cell_volume   718.27378793
_cell_formula_units_Z   1
loop_
 _symmetry_equiv_pos_site_id
 _symmetry_equiv_pos_as_xyz
  1  'x, y, z'
loop_
 _atom_site_type_symbol
 _atom_site_label
 _atom_site_symmetry_multiplicity
 _atom_site_fract_x
 _atom_site_fract_y
 _atom_site_fract_z
 _atom_site_occupancy
  Rb  Rb0  1  0.996062  0.501402  0.000710  1
  Pr  Pr1  1  0.477112  0.117699  0.178667  1
  Pr  Pr2  1  0.785370  0.032468  0.405632  1
  Pr  Pr3  1  0.595789  0.717893  0.472659  1
  Pr  Pr4  1  0.403278  0.281817  0.525474  1
  Pr  Pr5  1  0.214959  0.966213  0.597416  1
  Gd  Gd6  1  0.525484  0.883189  0.814882  1
  C  C7  1  0.494161  0.024859  0.426570  1
  C  C8  1  0.506710  0.972743  0.576214  1
  Br  Br9  1  0.801831  0.165786  0.079801  1
  Br  Br10  1  0.586264  0.784223  0.135866  1
  Br  Br11  1  0.348049  0.435705  0.222284  1
  Br  Br12  1  0.136250  0.074602  0.292817  1
  Br  Br13  1  0.928461  0.720693  0.350213  1
  Br  Br14  1  0.718475  0.367439  0.427906  1
  Br  Br15  1  0.280352  0.631848  0.575018  1
  Br  Br16  1  0.070393  0.278676  0.650036  1
  Br  Br17  1  0.858261  0.924793  0.712919  1
  Br  Br18  1  0.648424  0.571999  0.778492  1
  Br  Br19  1  0.414853  0.208992  0.855753  1
  Br  Br20  1  0.209464  0.836956  0.920672  1
