# generated using pymatgen
data_PrCu4(AgO4)3
_symmetry_space_group_name_H-M   'P 1'
_cell_length_a   6.54423612
_cell_length_b   6.54423553
_cell_length_c   6.54423600
_cell_angle_alpha   109.47122208
_cell_angle_beta   109.47122026
_cell_angle_gamma   109.47121845
_symmetry_Int_Tables_number   1
_chemical_formula_structural   PrCu4(AgO4)3
_chemical_formula_sum   'Pr1 Cu4 Ag3 O12'
_cell_volume   215.75205957
_cell_formula_units_Z   1
loop_
 _symmetry_equiv_pos_site_id
 _symmetry_equiv_pos_as_xyz
  1  'x, y, z'
loop_
 _atom_site_type_symbol
 _atom_site_label
 _atom_site_symmetry_multiplicity
 _atom_site_fract_x
 _atom_site_fract_y
 _atom_site_fract_z
 _atom_site_occupancy
  Pr  Pr0  1  0.000000  0.000000  0.000000  1
  Cu  Cu1  1  0.500000  0.000000  0.000000  1
  Cu  Cu2  1  0.000000  0.500000  0.000000  1
  Cu  Cu3  1  0.000000  0.000000  0.500000  1
  Cu  Cu4  1  0.500000  0.500000  0.500000  1
  Ag  Ag5  1  0.500000  0.500000  0.000000  1
  Ag  Ag6  1  0.500000  0.000000  0.500000  1
  Ag  Ag7  1  0.000000  0.500000  0.500000  1
  O  O8  1  0.295576  0.819018  0.114594  1
  O  O9  1  0.476559  0.295576  0.180983  1
  O  O10  1  0.885406  0.704424  0.180983  1
  O  O11  1  0.180983  0.476559  0.295576  1
  O  O12  1  0.819018  0.114594  0.295576  1
  O  O13  1  0.295576  0.180983  0.476559  1
  O  O14  1  0.704424  0.819018  0.523441  1
  O  O15  1  0.819018  0.523441  0.704424  1
  O  O16  1  0.180983  0.885406  0.704424  1
  O  O17  1  0.114594  0.295576  0.819018  1
  O  O18  1  0.523441  0.704424  0.819018  1
  O  O19  1  0.704424  0.180983  0.885406  1
