# generated using pymatgen
data_ZrZn4Ru
_symmetry_space_group_name_H-M   'P 1'
_cell_length_a   5.02309896
_cell_length_b   5.02310000
_cell_length_c   5.02309900
_cell_angle_alpha   60.00000000
_cell_angle_beta   59.99999312
_cell_angle_gamma   59.99999849
_symmetry_Int_Tables_number   1
_chemical_formula_structural   ZrZn4Ru
_chemical_formula_sum   'Zr1 Zn4 Ru1'
_cell_volume   89.61903650
_cell_formula_units_Z   1
loop_
 _symmetry_equiv_pos_site_id
 _symmetry_equiv_pos_as_xyz
  1  'x, y, z'
loop_
 _atom_site_type_symbol
 _atom_site_label
 _atom_site_symmetry_multiplicity
 _atom_site_fract_x
 _atom_site_fract_y
 _atom_site_fract_z
 _atom_site_occupancy
  Zr  Zr0  1  0.250000  0.250000  0.250000  1
  Zn  Zn1  1  0.625489  0.625489  0.625489  1
  Zn  Zn2  1  0.123534  0.625489  0.625489  1
  Zn  Zn3  1  0.625489  0.123534  0.625489  1
  Zn  Zn4  1  0.625489  0.625489  0.123534  1
  Ru  Ru5  1  0.000000  0.000000  0.000000  1
