# generated using pymatgen
data_Mn21TcOsC6
_symmetry_space_group_name_H-M   'P 1'
_cell_length_a   7.37464892
_cell_length_b   7.37464874
_cell_length_c   7.37464800
_cell_angle_alpha   59.99999436
_cell_angle_beta   59.99999517
_cell_angle_gamma   59.99999338
_symmetry_Int_Tables_number   1
_chemical_formula_structural   Mn21TcOsC6
_chemical_formula_sum   'Mn21 Tc1 Os1 C6'
_cell_volume   283.60176645
_cell_formula_units_Z   1
loop_
 _symmetry_equiv_pos_site_id
 _symmetry_equiv_pos_as_xyz
  1  'x, y, z'
loop_
 _atom_site_type_symbol
 _atom_site_label
 _atom_site_symmetry_multiplicity
 _atom_site_fract_x
 _atom_site_fract_y
 _atom_site_fract_z
 _atom_site_occupancy
  Mn  Mn0  1  0.000000  0.000000  0.000000  1
  Mn  Mn1  1  0.383732  0.383732  0.383732  1
  Mn  Mn2  1  0.150678  0.616441  0.616441  1
  Mn  Mn3  1  0.616441  0.150678  0.616441  1
  Mn  Mn4  1  0.616441  0.616441  0.150678  1
  Mn  Mn5  1  0.383732  0.848803  0.383732  1
  Mn  Mn6  1  0.383732  0.383732  0.848803  1
  Mn  Mn7  1  0.848803  0.383732  0.383732  1
  Mn  Mn8  1  0.616441  0.616441  0.616441  1
  Mn  Mn9  1  0.999797  0.333870  0.999797  1
  Mn  Mn10  1  0.333870  0.999797  0.999797  1
  Mn  Mn11  1  0.999797  0.333870  0.666535  1
  Mn  Mn12  1  0.666535  0.999797  0.333870  1
  Mn  Mn13  1  0.333870  0.999797  0.666535  1
  Mn  Mn14  1  0.999797  0.999797  0.333870  1
  Mn  Mn15  1  0.666535  0.333870  0.999797  1
  Mn  Mn16  1  0.999797  0.666535  0.333870  1
  Mn  Mn17  1  0.999797  0.999797  0.666535  1
  Mn  Mn18  1  0.333870  0.666535  0.999797  1
  Mn  Mn19  1  0.666535  0.999797  0.999797  1
  Mn  Mn20  1  0.999797  0.666535  0.999797  1
  Tc  Tc21  1  0.250000  0.250000  0.250000  1
  Os  Os22  1  0.750000  0.750000  0.750000  1
  C  C23  1  0.275636  0.724364  0.275636  1
  C  C24  1  0.275636  0.724364  0.724364  1
  C  C25  1  0.724364  0.275636  0.275636  1
  C  C26  1  0.724364  0.724364  0.275636  1
  C  C27  1  0.275636  0.275636  0.724364  1
  C  C28  1  0.724364  0.275636  0.724364  1
