# generated using pymatgen
data_LaYb11(IrRu)2
_symmetry_space_group_name_H-M   'P 1'
_cell_length_a   6.28626785
_cell_length_b   7.65003305
_cell_length_c   9.26344000
_cell_angle_alpha   90.00000000
_cell_angle_beta   90.00000000
_cell_angle_gamma   89.14326097
_symmetry_Int_Tables_number   1
_chemical_formula_structural   LaYb11(IrRu)2
_chemical_formula_sum   'La1 Yb11 Ir2 Ru2'
_cell_volume   445.43048091
_cell_formula_units_Z   1
loop_
 _symmetry_equiv_pos_site_id
 _symmetry_equiv_pos_as_xyz
  1  'x, y, z'
loop_
 _atom_site_type_symbol
 _atom_site_label
 _atom_site_symmetry_multiplicity
 _atom_site_fract_x
 _atom_site_fract_y
 _atom_site_fract_z
 _atom_site_occupancy
  La  La0  1  0.359779  0.949731  0.750000  1
  Yb  Yb1  1  0.342433  0.665811  0.069426  1
  Yb  Yb2  1  0.157387  0.168938  0.431038  1
  Yb  Yb3  1  0.654879  0.333228  0.563366  1
  Yb  Yb4  1  0.844958  0.833634  0.936888  1
  Yb  Yb5  1  0.654879  0.333228  0.936634  1
  Yb  Yb6  1  0.844958  0.833634  0.563112  1
  Yb  Yb7  1  0.342433  0.665811  0.430574  1
  Yb  Yb8  1  0.157387  0.168938  0.068962  1
  Yb  Yb9  1  0.868829  0.539163  0.250000  1
  Yb  Yb10  1  0.631120  0.035118  0.250000  1
  Yb  Yb11  1  0.131027  0.459305  0.750000  1
  Ir  Ir12  1  0.048002  0.876043  0.250000  1
  Ir  Ir13  1  0.459230  0.374797  0.250000  1
  Ru  Ru14  1  0.982809  0.116770  0.750000  1
  Ru  Ru15  1  0.519888  0.645850  0.750000  1
