# generated using pymatgen
data_Pr4Sc6Ga7P
_symmetry_space_group_name_H-M   'P 1'
_cell_length_a   7.40692858
_cell_length_b   7.69445372
_cell_length_c   14.52625600
_cell_angle_alpha   90.00000000
_cell_angle_beta   90.00000000
_cell_angle_gamma   89.85983821
_symmetry_Int_Tables_number   1
_chemical_formula_structural   Pr4Sc6Ga7P
_chemical_formula_sum   'Pr8 Sc12 Ga14 P2'
_cell_volume   827.88181423
_cell_formula_units_Z   2
loop_
 _symmetry_equiv_pos_site_id
 _symmetry_equiv_pos_as_xyz
  1  'x, y, z'
loop_
 _atom_site_type_symbol
 _atom_site_label
 _atom_site_symmetry_multiplicity
 _atom_site_fract_x
 _atom_site_fract_y
 _atom_site_fract_z
 _atom_site_occupancy
  Pr  Pr0  1  0.012637  0.179804  0.405646  1
  Pr  Pr1  1  0.511271  0.319935  0.405505  1
  Pr  Pr2  1  0.488729  0.680065  0.905505  1
  Pr  Pr3  1  0.485175  0.669283  0.594226  1
  Pr  Pr4  1  0.988213  0.821831  0.594356  1
  Pr  Pr5  1  0.987363  0.820196  0.905646  1
  Pr  Pr6  1  0.514825  0.330717  0.094226  1
  Pr  Pr7  1  0.011787  0.178169  0.094356  1
  Sc  Sc8  1  0.321582  0.178124  0.622878  1
  Sc  Sc9  1  0.669552  0.831748  0.374886  1
  Sc  Sc10  1  0.662531  0.001865  0.749438  1
  Sc  Sc11  1  0.172028  0.669239  0.377772  1
  Sc  Sc12  1  0.827972  0.330761  0.877772  1
  Sc  Sc13  1  0.835904  0.328226  0.624254  1
  Sc  Sc14  1  0.837681  0.499767  0.248038  1
  Sc  Sc15  1  0.337469  0.998135  0.249438  1
  Sc  Sc16  1  0.330448  0.168252  0.874886  1
  Sc  Sc17  1  0.164096  0.671774  0.124254  1
  Sc  Sc18  1  0.678418  0.821876  0.122878  1
  Sc  Sc19  1  0.162319  0.500233  0.748038  1
  Ga  Ga20  1  0.285466  0.879004  0.749054  1
  Ga  Ga21  1  0.468873  0.623734  0.251008  1
  Ga  Ga22  1  0.030944  0.122798  0.749277  1
  Ga  Ga23  1  0.531127  0.376266  0.751008  1
  Ga  Ga24  1  0.969056  0.877202  0.249277  1
  Ga  Ga25  1  0.714534  0.120996  0.249054  1
  Ga  Ga26  1  0.345691  0.960425  0.043797  1
  Ga  Ga27  1  0.162695  0.460217  0.957066  1
  Ga  Ga28  1  0.654309  0.039575  0.543797  1
  Ga  Ga29  1  0.342932  0.961157  0.459150  1
  Ga  Ga30  1  0.837305  0.539783  0.457066  1
  Ga  Ga31  1  0.785902  0.619591  0.750024  1
  Ga  Ga32  1  0.214098  0.380409  0.250024  1
  Ga  Ga33  1  0.657068  0.038843  0.959150  1
  P  P34  1  0.153471  0.463203  0.543626  1
  P  P35  1  0.846529  0.536797  0.043626  1
