# generated using pymatgen
data_Li3Dy3Si2Bi
_symmetry_space_group_name_H-M   'P 1'
_cell_length_a   7.12840000
_cell_length_b   7.12839994
_cell_length_c   4.32820800
_cell_angle_alpha   90.00000000
_cell_angle_beta   90.00000000
_cell_angle_gamma   119.99999098
_symmetry_Int_Tables_number   1
_chemical_formula_structural   Li3Dy3Si2Bi
_chemical_formula_sum   'Li3 Dy3 Si2 Bi1'
_cell_volume   190.46839148
_cell_formula_units_Z   1
loop_
 _symmetry_equiv_pos_site_id
 _symmetry_equiv_pos_as_xyz
  1  'x, y, z'
loop_
 _atom_site_type_symbol
 _atom_site_label
 _atom_site_symmetry_multiplicity
 _atom_site_fract_x
 _atom_site_fract_y
 _atom_site_fract_z
 _atom_site_occupancy
  Li  Li0  1  0.246622  0.000000  0.500000  1
  Li  Li1  1  0.753378  0.753378  0.500000  1
  Li  Li2  1  0.000000  0.246622  0.500000  1
  Dy  Dy3  1  0.000000  0.549774  0.000000  1
  Dy  Dy4  1  0.549774  0.000000  0.000000  1
  Dy  Dy5  1  0.450226  0.450226  0.000000  1
  Si  Si6  1  0.333333  0.666667  0.500000  1
  Si  Si7  1  0.666667  0.333333  0.500000  1
  Bi  Bi8  1  0.000000  0.000000  0.000000  1
