# generated using pymatgen
data_Dy16In3HgIr3Ru
_symmetry_space_group_name_H-M   'P 1'
_cell_length_a   9.65126319
_cell_length_b   9.65126327
_cell_length_c   9.65126334
_cell_angle_alpha   59.93090174
_cell_angle_beta   59.93090172
_cell_angle_gamma   59.93090316
_symmetry_Int_Tables_number   1
_chemical_formula_structural   Dy16In3HgIr3Ru
_chemical_formula_sum   'Dy16 In3 Hg1 Ir3 Ru1'
_cell_volume   634.68215261
_cell_formula_units_Z   1
loop_
 _symmetry_equiv_pos_site_id
 _symmetry_equiv_pos_as_xyz
  1  'x, y, z'
loop_
 _atom_site_type_symbol
 _atom_site_label
 _atom_site_symmetry_multiplicity
 _atom_site_fract_x
 _atom_site_fract_y
 _atom_site_fract_z
 _atom_site_occupancy
  Dy  Dy0  1  0.598623  0.598623  0.598623  1
  Dy  Dy1  1  0.599979  0.599979  0.201706  1
  Dy  Dy2  1  0.599979  0.201706  0.599979  1
  Dy  Dy3  1  0.201706  0.599979  0.599979  1
  Dy  Dy4  1  0.059674  0.440794  0.440794  1
  Dy  Dy5  1  0.438385  0.058677  0.058677  1
  Dy  Dy6  1  0.440794  0.059674  0.440794  1
  Dy  Dy7  1  0.058677  0.438385  0.058677  1
  Dy  Dy8  1  0.440794  0.440794  0.059674  1
  Dy  Dy9  1  0.058677  0.058677  0.438385  1
  Dy  Dy10  1  0.186668  0.811668  0.811668  1
  Dy  Dy11  1  0.808609  0.190423  0.190423  1
  Dy  Dy12  1  0.811668  0.186668  0.811668  1
  Dy  Dy13  1  0.190423  0.808609  0.190423  1
  Dy  Dy14  1  0.811668  0.811668  0.186668  1
  Dy  Dy15  1  0.190423  0.190423  0.808609  1
  In  In16  1  0.831812  0.831812  0.502864  1
  In  In17  1  0.831812  0.502864  0.831812  1
  In  In18  1  0.502864  0.831812  0.831812  1
  Hg  Hg19  1  0.835345  0.835345  0.835345  1
  Ir  Ir20  1  0.391490  0.391490  0.826867  1
  Ir  Ir21  1  0.391490  0.826867  0.391490  1
  Ir  Ir22  1  0.826867  0.391490  0.391490  1
  Ru  Ru23  1  0.391573  0.391573  0.391573  1
