# generated using pymatgen
data_Zr16Co2CuIr5N4
_symmetry_space_group_name_H-M   'P 1'
_cell_length_a   8.73286117
_cell_length_b   8.78664023
_cell_length_c   8.78244900
_cell_angle_alpha   60.01577404
_cell_angle_beta   59.81198101
_cell_angle_gamma   59.68775428
_symmetry_Int_Tables_number   1
_chemical_formula_structural   Zr16Co2CuIr5N4
_chemical_formula_sum   'Zr16 Co2 Cu1 Ir5 N4'
_cell_volume   474.76426543
_cell_formula_units_Z   1
loop_
 _symmetry_equiv_pos_site_id
 _symmetry_equiv_pos_as_xyz
  1  'x, y, z'
loop_
 _atom_site_type_symbol
 _atom_site_label
 _atom_site_symmetry_multiplicity
 _atom_site_fract_x
 _atom_site_fract_y
 _atom_site_fract_z
 _atom_site_occupancy
  Zr  Zr0  1  0.074500  0.649295  0.638102  1
  Zr  Zr1  1  0.644465  0.094531  0.630502  1
  Zr  Zr2  1  0.635569  0.631742  0.107836  1
  Zr  Zr3  1  0.635569  0.631742  0.624853  1
  Zr  Zr4  1  0.816922  0.813996  0.184541  1
  Zr  Zr5  1  0.192264  0.186245  0.810746  1
  Zr  Zr6  1  0.816460  0.178579  0.814056  1
  Zr  Zr7  1  0.184661  0.812848  0.189718  1
  Zr  Zr8  1  0.184661  0.812848  0.812773  1
  Zr  Zr9  1  0.816460  0.178579  0.190904  1
  Zr  Zr10  1  0.435444  0.433488  0.065533  1
  Zr  Zr11  1  0.071313  0.068051  0.430319  1
  Zr  Zr12  1  0.437430  0.065562  0.432947  1
  Zr  Zr13  1  0.070451  0.433149  0.064253  1
  Zr  Zr14  1  0.070451  0.433149  0.432148  1
  Zr  Zr15  1  0.437430  0.065562  0.064060  1
  Co  Co16  1  0.840993  0.855333  0.445527  1
  Co  Co17  1  0.840993  0.855333  0.858147  1
  Cu  Cu18  1  0.837904  0.456073  0.853011  1
  Ir  Ir19  1  0.757181  0.412456  0.415181  1
  Ir  Ir20  1  0.407950  0.751996  0.420027  1
  Ir  Ir21  1  0.409109  0.418612  0.750337  1
  Ir  Ir22  1  0.409109  0.418612  0.421941  1
  Ir  Ir23  1  0.467821  0.841804  0.845188  1
  N  N24  1  0.623518  0.126261  0.125111  1
  N  N25  1  0.127152  0.623727  0.124560  1
  N  N26  1  0.127114  0.125210  0.624625  1
  N  N27  1  0.127114  0.125210  0.123050  1
