# generated using pymatgen
data_Er2Mn5(PIr)7
_symmetry_space_group_name_H-M   'P 1'
_cell_length_a   9.33803140
_cell_length_b   9.37980982
_cell_length_c   3.87940500
_cell_angle_alpha   90.00000000
_cell_angle_beta   90.00000000
_cell_angle_gamma   119.89167443
_symmetry_Int_Tables_number   1
_chemical_formula_structural   Er2Mn5(PIr)7
_chemical_formula_sum   'Er2 Mn5 P7 Ir7'
_cell_volume   294.59009489
_cell_formula_units_Z   1
loop_
 _symmetry_equiv_pos_site_id
 _symmetry_equiv_pos_as_xyz
  1  'x, y, z'
loop_
 _atom_site_type_symbol
 _atom_site_label
 _atom_site_symmetry_multiplicity
 _atom_site_fract_x
 _atom_site_fract_y
 _atom_site_fract_z
 _atom_site_occupancy
  Er  Er0  1  0.001311  0.000618  0.000000  1
  Er  Er1  1  0.667172  0.332313  0.500000  1
  Mn  Mn2  1  0.228008  0.401140  0.000000  1
  Mn  Mn3  1  0.603433  0.825868  0.000000  1
  Mn  Mn4  1  0.170465  0.775064  0.000000  1
  Mn  Mn5  1  0.428934  0.885824  0.500000  1
  Mn  Mn6  1  0.111692  0.540222  0.500000  1
  P  P7  1  0.442779  0.361165  0.000000  1
  P  P8  1  0.632554  0.075080  0.000000  1
  P  P9  1  0.922075  0.553354  0.000000  1
  P  P10  1  0.055719  0.273136  0.500000  1
  P  P11  1  0.734100  0.791705  0.500000  1
  P  P12  1  0.214775  0.942310  0.500000  1
  P  P13  1  0.333534  0.670113  0.000000  1
  Ir  Ir14  1  0.693333  0.597478  0.000000  1
  Ir  Ir15  1  0.397303  0.091736  0.000000  1
  Ir  Ir16  1  0.906734  0.303716  0.000000  1
  Ir  Ir17  1  0.275827  0.222088  0.500000  1
  Ir  Ir18  1  0.776848  0.055192  0.500000  1
  Ir  Ir19  1  0.943253  0.722209  0.500000  1
  Ir  Ir20  1  0.460146  0.579667  0.500000  1
