# generated using pymatgen
data_Ba2Na(AlAu)4
_symmetry_space_group_name_H-M   'P 1'
_cell_length_a   6.87988809
_cell_length_b   6.87988758
_cell_length_c   12.34289200
_cell_angle_alpha   90.00000000
_cell_angle_beta   90.00000000
_cell_angle_gamma   110.03605967
_symmetry_Int_Tables_number   1
_chemical_formula_structural   Ba2Na(AlAu)4
_chemical_formula_sum   'Ba4 Na2 Al8 Au8'
_cell_volume   548.86543348
_cell_formula_units_Z   2
loop_
 _symmetry_equiv_pos_site_id
 _symmetry_equiv_pos_as_xyz
  1  'x, y, z'
loop_
 _atom_site_type_symbol
 _atom_site_label
 _atom_site_symmetry_multiplicity
 _atom_site_fract_x
 _atom_site_fract_y
 _atom_site_fract_z
 _atom_site_occupancy
  Ba  Ba0  1  0.202609  0.797391  0.500000  1
  Ba  Ba1  1  0.202609  0.797391  0.000000  1
  Ba  Ba2  1  0.797391  0.202609  0.500000  1
  Ba  Ba3  1  0.797391  0.202609  0.000000  1
  Na  Na4  1  0.972597  0.972597  0.250000  1
  Na  Na5  1  0.027403  0.027403  0.750000  1
  Al  Al6  1  0.480500  0.737065  0.250000  1
  Al  Al7  1  0.262935  0.519500  0.750000  1
  Al  Al8  1  0.519500  0.262935  0.750000  1
  Al  Al9  1  0.737065  0.480500  0.250000  1
  Al  Al10  1  0.343907  0.343907  0.370170  1
  Al  Al11  1  0.656093  0.656093  0.629830  1
  Al  Al12  1  0.343907  0.343907  0.129830  1
  Al  Al13  1  0.656093  0.656093  0.870170  1
  Au  Au14  1  0.472559  0.099896  0.250000  1
  Au  Au15  1  0.900104  0.527441  0.750000  1
  Au  Au16  1  0.527441  0.900104  0.750000  1
  Au  Au17  1  0.099896  0.472559  0.250000  1
  Au  Au18  1  0.326481  0.326481  0.923680  1
  Au  Au19  1  0.673519  0.673519  0.076320  1
  Au  Au20  1  0.326481  0.326481  0.576320  1
  Au  Au21  1  0.673519  0.673519  0.423680  1
