# generated using pymatgen
data_Ca2Lu2As6Rh7
_symmetry_space_group_name_H-M   'P 1'
_cell_length_a   7.27489797
_cell_length_b   7.27489822
_cell_length_c   7.24342106
_cell_angle_alpha   109.47017728
_cell_angle_beta   109.47018579
_cell_angle_gamma   109.64867909
_symmetry_Int_Tables_number   1
_chemical_formula_structural   Ca2Lu2As6Rh7
_chemical_formula_sum   'Ca2 Lu2 As6 Rh7'
_cell_volume   294.46321098
_cell_formula_units_Z   1
loop_
 _symmetry_equiv_pos_site_id
 _symmetry_equiv_pos_as_xyz
  1  'x, y, z'
loop_
 _atom_site_type_symbol
 _atom_site_label
 _atom_site_symmetry_multiplicity
 _atom_site_fract_x
 _atom_site_fract_y
 _atom_site_fract_z
 _atom_site_occupancy
  Ca  Ca0  1  0.500000  0.500000  0.500000  1
  Ca  Ca1  1  0.000000  0.000000  0.500000  1
  Lu  Lu2  1  0.000000  0.500000  0.000000  1
  Lu  Lu3  1  0.500000  0.000000  0.000000  1
  As  As4  1  0.679688  0.999554  0.679242  1
  As  As5  1  0.679088  0.679088  0.000000  1
  As  As6  1  0.320912  0.320912  0.000000  1
  As  As7  1  0.999554  0.679688  0.679242  1
  As  As8  1  0.000446  0.320312  0.320758  1
  As  As9  1  0.320312  0.000446  0.320758  1
  Rh  Rh10  1  0.495016  0.750296  0.245311  1
  Rh  Rh11  1  0.750000  0.250000  0.500000  1
  Rh  Rh12  1  0.250000  0.750000  0.500000  1
  Rh  Rh13  1  0.249704  0.504984  0.754689  1
  Rh  Rh14  1  0.000000  0.000000  0.000000  1
  Rh  Rh15  1  0.504984  0.249704  0.754689  1
  Rh  Rh16  1  0.750296  0.495016  0.245311  1
