# generated using pymatgen
data_Tm2Ga10Re2Ir
_symmetry_space_group_name_H-M   'P 1'
_cell_length_a   9.04288100
_cell_length_b   9.04288100
_cell_length_c   6.27334500
_cell_angle_alpha   90.00000000
_cell_angle_beta   90.00000000
_cell_angle_gamma   90.00000000
_symmetry_Int_Tables_number   1
_chemical_formula_structural   Tm2Ga10Re2Ir
_chemical_formula_sum   'Tm4 Ga20 Re4 Ir2'
_cell_volume   512.99461183
_cell_formula_units_Z   2
loop_
 _symmetry_equiv_pos_site_id
 _symmetry_equiv_pos_as_xyz
  1  'x, y, z'
loop_
 _atom_site_type_symbol
 _atom_site_label
 _atom_site_symmetry_multiplicity
 _atom_site_fract_x
 _atom_site_fract_y
 _atom_site_fract_z
 _atom_site_occupancy
  Tm  Tm0  1  0.182744  0.317256  0.000000  1
  Tm  Tm1  1  0.682744  0.182744  0.000000  1
  Tm  Tm2  1  0.817256  0.682744  0.000000  1
  Tm  Tm3  1  0.317256  0.817256  0.000000  1
  Ga  Ga4  1  0.500000  0.000000  0.281824  1
  Ga  Ga5  1  0.500000  0.000000  0.718176  1
  Ga  Ga6  1  0.292754  0.560245  0.708033  1
  Ga  Ga7  1  0.000000  0.500000  0.281824  1
  Ga  Ga8  1  0.000000  0.500000  0.718176  1
  Ga  Ga9  1  0.060245  0.792754  0.708033  1
  Ga  Ga10  1  0.207246  0.060245  0.291967  1
  Ga  Ga11  1  0.060245  0.792754  0.291967  1
  Ga  Ga12  1  0.707246  0.439755  0.708033  1
  Ga  Ga13  1  0.207246  0.060245  0.708033  1
  Ga  Ga14  1  0.939755  0.207246  0.708033  1
  Ga  Ga15  1  0.707246  0.439755  0.291967  1
  Ga  Ga16  1  0.560245  0.707246  0.291967  1
  Ga  Ga17  1  0.939755  0.207246  0.291967  1
  Ga  Ga18  1  0.560245  0.707246  0.708033  1
  Ga  Ga19  1  0.792754  0.939755  0.291967  1
  Ga  Ga20  1  0.439755  0.292754  0.708033  1
  Ga  Ga21  1  0.792754  0.939755  0.708033  1
  Ga  Ga22  1  0.439755  0.292754  0.291967  1
  Ga  Ga23  1  0.292754  0.560245  0.291967  1
  Re  Re24  1  0.179281  0.320719  0.500000  1
  Re  Re25  1  0.320719  0.820719  0.500000  1
  Re  Re26  1  0.820719  0.679281  0.500000  1
  Re  Re27  1  0.679281  0.179281  0.500000  1
  Ir  Ir28  1  0.000000  0.000000  0.000000  1
  Ir  Ir29  1  0.500000  0.500000  0.000000  1
