# generated using pymatgen
data_Dy2ReTcRu2
_symmetry_space_group_name_H-M   'P 1'
_cell_length_a   5.35572799
_cell_length_b   5.12427528
_cell_length_c   9.12678700
_cell_angle_alpha   90.00000000
_cell_angle_beta   90.00000000
_cell_angle_gamma   118.18848864
_symmetry_Int_Tables_number   1
_chemical_formula_structural   Dy2ReTcRu2
_chemical_formula_sum   'Dy4 Re2 Tc2 Ru4'
_cell_volume   220.77054253
_cell_formula_units_Z   2
loop_
 _symmetry_equiv_pos_site_id
 _symmetry_equiv_pos_as_xyz
  1  'x, y, z'
loop_
 _atom_site_type_symbol
 _atom_site_label
 _atom_site_symmetry_multiplicity
 _atom_site_fract_x
 _atom_site_fract_y
 _atom_site_fract_z
 _atom_site_occupancy
  Dy  Dy0  1  0.672973  0.336011  0.565333  1
  Dy  Dy1  1  0.326980  0.663688  0.435151  1
  Dy  Dy2  1  0.326980  0.663688  0.064849  1
  Dy  Dy3  1  0.672973  0.336011  0.934667  1
  Re  Re4  1  0.834806  0.662625  0.250000  1
  Re  Re5  1  0.836284  0.171248  0.250000  1
  Tc  Tc6  1  0.166633  0.341055  0.750000  1
  Tc  Tc7  1  0.164121  0.827396  0.750000  1
  Ru  Ru8  1  0.997800  0.998584  0.499981  1
  Ru  Ru9  1  0.997800  0.998584  0.000019  1
  Ru  Ru10  1  0.651808  0.825322  0.750000  1
  Ru  Ru11  1  0.350840  0.175789  0.250000  1
