# generated using pymatgen
data_TbSm7AlPd24
_symmetry_space_group_name_H-M   'P 1'
_cell_length_a   8.42430701
_cell_length_b   8.42430701
_cell_length_c   8.42430700
_cell_angle_alpha   89.99782360
_cell_angle_beta   89.99782360
_cell_angle_gamma   89.99782352
_symmetry_Int_Tables_number   1
_chemical_formula_structural   TbSm7AlPd24
_chemical_formula_sum   'Tb1 Sm7 Al1 Pd24'
_cell_volume   597.86420904
_cell_formula_units_Z   1
loop_
 _symmetry_equiv_pos_site_id
 _symmetry_equiv_pos_as_xyz
  1  'x, y, z'
loop_
 _atom_site_type_symbol
 _atom_site_label
 _atom_site_symmetry_multiplicity
 _atom_site_fract_x
 _atom_site_fract_y
 _atom_site_fract_z
 _atom_site_occupancy
  Tb  Tb0  1  0.252097  0.252097  0.252097  1
  Sm  Sm1  1  0.252100  0.252100  0.748301  1
  Sm  Sm2  1  0.252100  0.748301  0.252100  1
  Sm  Sm3  1  0.748301  0.252100  0.252100  1
  Sm  Sm4  1  0.748161  0.748161  0.748161  1
  Sm  Sm5  1  0.747996  0.747996  0.251807  1
  Sm  Sm6  1  0.747996  0.251807  0.747996  1
  Sm  Sm7  1  0.251807  0.747996  0.747996  1
  Al  Al8  1  0.999819  0.999819  0.999819  1
  Pd  Pd9  1  0.500159  0.500159  0.746882  1
  Pd  Pd10  1  0.498288  0.253190  0.498288  1
  Pd  Pd11  1  0.253190  0.498288  0.498288  1
  Pd  Pd12  1  0.498288  0.498288  0.253190  1
  Pd  Pd13  1  0.500159  0.746882  0.500159  1
  Pd  Pd14  1  0.746882  0.500159  0.500159  1
  Pd  Pd15  1  0.999979  0.999979  0.710508  1
  Pd  Pd16  1  0.001347  0.288770  0.001347  1
  Pd  Pd17  1  0.288770  0.001347  0.001347  1
  Pd  Pd18  1  0.001347  0.001347  0.288770  1
  Pd  Pd19  1  0.999979  0.710508  0.999979  1
  Pd  Pd20  1  0.710508  0.999979  0.999979  1
  Pd  Pd21  1  0.999831  0.499798  0.740560  1
  Pd  Pd22  1  0.498893  0.259419  0.001860  1
  Pd  Pd23  1  0.259419  0.001860  0.498893  1
  Pd  Pd24  1  0.001860  0.259419  0.498893  1
  Pd  Pd25  1  0.499798  0.999831  0.740560  1
  Pd  Pd26  1  0.259419  0.498893  0.001860  1
  Pd  Pd27  1  0.001860  0.498893  0.259419  1
  Pd  Pd28  1  0.499798  0.740560  0.999831  1
  Pd  Pd29  1  0.999831  0.740560  0.499798  1
  Pd  Pd30  1  0.498893  0.001860  0.259419  1
  Pd  Pd31  1  0.740560  0.999831  0.499798  1
  Pd  Pd32  1  0.740560  0.499798  0.999831  1
