# generated using pymatgen
data_LiDy16Cd3Ir4
_symmetry_space_group_name_H-M   'P 1'
_cell_length_a   9.65356989
_cell_length_b   9.65357049
_cell_length_c   9.65357049
_cell_angle_alpha   59.76475328
_cell_angle_beta   59.76475009
_cell_angle_gamma   59.76475268
_symmetry_Int_Tables_number   1
_chemical_formula_structural   LiDy16Cd3Ir4
_chemical_formula_sum   'Li1 Dy16 Cd3 Ir4'
_cell_volume   632.73650509
_cell_formula_units_Z   1
loop_
 _symmetry_equiv_pos_site_id
 _symmetry_equiv_pos_as_xyz
  1  'x, y, z'
loop_
 _atom_site_type_symbol
 _atom_site_label
 _atom_site_symmetry_multiplicity
 _atom_site_fract_x
 _atom_site_fract_y
 _atom_site_fract_z
 _atom_site_occupancy
  Li  Li0  1  0.821985  0.821985  0.821985  1
  Dy  Dy1  1  0.599248  0.599248  0.599248  1
  Dy  Dy2  1  0.598188  0.598188  0.206185  1
  Dy  Dy3  1  0.598188  0.206185  0.598188  1
  Dy  Dy4  1  0.206185  0.598188  0.598188  1
  Dy  Dy5  1  0.060108  0.439665  0.439665  1
  Dy  Dy6  1  0.435697  0.062504  0.062504  1
  Dy  Dy7  1  0.439665  0.060108  0.439665  1
  Dy  Dy8  1  0.062504  0.435697  0.062504  1
  Dy  Dy9  1  0.439665  0.439665  0.060108  1
  Dy  Dy10  1  0.062504  0.062504  0.435697  1
  Dy  Dy11  1  0.189555  0.811780  0.811780  1
  Dy  Dy12  1  0.812943  0.186834  0.186834  1
  Dy  Dy13  1  0.811780  0.189555  0.811780  1
  Dy  Dy14  1  0.186834  0.812943  0.186834  1
  Dy  Dy15  1  0.811780  0.811780  0.189555  1
  Dy  Dy16  1  0.186834  0.186834  0.812943  1
  Cd  Cd17  1  0.832548  0.832548  0.506669  1
  Cd  Cd18  1  0.832548  0.506669  0.832548  1
  Cd  Cd19  1  0.506669  0.832548  0.832548  1
  Ir  Ir20  1  0.391708  0.391708  0.391708  1
  Ir  Ir21  1  0.393665  0.393665  0.825535  1
  Ir  Ir22  1  0.393665  0.825535  0.393665  1
  Ir  Ir23  1  0.825535  0.393665  0.393665  1
