# generated using pymatgen
data_Y16CdIn3Ir4
_symmetry_space_group_name_H-M   'P 1'
_cell_length_a   9.69207914
_cell_length_b   9.71288432
_cell_length_c   9.71288400
_cell_angle_alpha   60.00000108
_cell_angle_beta   59.92896614
_cell_angle_gamma   59.92896841
_symmetry_Int_Tables_number   1
_chemical_formula_structural   Y16CdIn3Ir4
_chemical_formula_sum   'Y16 Cd1 In3 Ir4'
_cell_volume   645.84939348
_cell_formula_units_Z   1
loop_
 _symmetry_equiv_pos_site_id
 _symmetry_equiv_pos_as_xyz
  1  'x, y, z'
loop_
 _atom_site_type_symbol
 _atom_site_label
 _atom_site_symmetry_multiplicity
 _atom_site_fract_x
 _atom_site_fract_y
 _atom_site_fract_z
 _atom_site_occupancy
  Y  Y0  1  0.349781  0.349625  0.349625  1
  Y  Y1  1  0.349781  0.349625  0.950969  1
  Y  Y2  1  0.349781  0.950969  0.349625  1
  Y  Y3  1  0.950775  0.349742  0.349742  1
  Y  Y4  1  0.809169  0.190686  0.190686  1
  Y  Y5  1  0.190025  0.810123  0.810123  1
  Y  Y6  1  0.190025  0.810123  0.189729  1
  Y  Y7  1  0.809169  0.190686  0.809459  1
  Y  Y8  1  0.190025  0.189729  0.810123  1
  Y  Y9  1  0.809169  0.809459  0.190686  1
  Y  Y10  1  0.939258  0.561842  0.561842  1
  Y  Y11  1  0.561925  0.938623  0.938623  1
  Y  Y12  1  0.561925  0.938623  0.560830  1
  Y  Y13  1  0.939258  0.561842  0.937058  1
  Y  Y14  1  0.561925  0.560830  0.938623  1
  Y  Y15  1  0.939258  0.937058  0.561842  1
  Cd  Cd16  1  0.252942  0.582353  0.582353  1
  In  In17  1  0.582212  0.583580  0.583580  1
  In  In18  1  0.582212  0.583580  0.250630  1
  In  In19  1  0.582212  0.250630  0.583580  1
  Ir  Ir20  1  0.141667  0.141382  0.141382  1
  Ir  Ir21  1  0.141667  0.141382  0.575570  1
  Ir  Ir22  1  0.141667  0.575570  0.141382  1
  Ir  Ir23  1  0.574175  0.141942  0.141942  1
