# generated using pymatgen
data_HoZrB6Os
_symmetry_space_group_name_H-M   'P 1'
_cell_length_a   3.57030700
_cell_length_b   9.04447300
_cell_length_c   11.40951400
_cell_angle_alpha   90.00000000
_cell_angle_beta   90.00000000
_cell_angle_gamma   90.00000000
_symmetry_Int_Tables_number   1
_chemical_formula_structural   HoZrB6Os
_chemical_formula_sum   'Ho4 Zr4 B24 Os4'
_cell_volume   368.43083776
_cell_formula_units_Z   4
loop_
 _symmetry_equiv_pos_site_id
 _symmetry_equiv_pos_as_xyz
  1  'x, y, z'
loop_
 _atom_site_type_symbol
 _atom_site_label
 _atom_site_symmetry_multiplicity
 _atom_site_fract_x
 _atom_site_fract_y
 _atom_site_fract_z
 _atom_site_occupancy
  Ho  Ho0  1  0.000000  0.321764  0.413586  1
  Ho  Ho1  1  0.000000  0.678236  0.586414  1
  Ho  Ho2  1  0.000000  0.821764  0.086414  1
  Ho  Ho3  1  0.000000  0.178236  0.913586  1
  Zr  Zr4  1  0.000000  0.944668  0.374203  1
  Zr  Zr5  1  0.000000  0.055332  0.625798  1
  Zr  Zr6  1  0.000000  0.444668  0.125797  1
  Zr  Zr7  1  0.000000  0.555332  0.874202  1
  B  B8  1  0.500000  0.554380  0.434090  1
  B  B9  1  0.500000  0.445620  0.565910  1
  B  B10  1  0.500000  0.054380  0.065910  1
  B  B11  1  0.500000  0.945620  0.934090  1
  B  B12  1  0.500000  0.751230  0.419182  1
  B  B13  1  0.500000  0.248770  0.580818  1
  B  B14  1  0.500000  0.251230  0.080818  1
  B  B15  1  0.500000  0.748770  0.919182  1
  B  B16  1  0.500000  0.794477  0.263681  1
  B  B17  1  0.500000  0.205523  0.736319  1
  B  B18  1  0.500000  0.294476  0.236319  1
  B  B19  1  0.500000  0.705523  0.763681  1
  B  B20  1  0.500000  0.630444  0.183004  1
  B  B21  1  0.500000  0.369556  0.816996  1
  B  B22  1  0.500000  0.130444  0.316996  1
  B  B23  1  0.500000  0.869556  0.683004  1
  B  B24  1  0.500000  0.981806  0.212911  1
  B  B25  1  0.500000  0.018194  0.787089  1
  B  B26  1  0.500000  0.481806  0.287089  1
  B  B27  1  0.500000  0.518194  0.712911  1
  B  B28  1  0.500000  0.602816  0.027821  1
  B  B29  1  0.500000  0.397184  0.972179  1
  B  B30  1  0.500000  0.102816  0.472179  1
  B  B31  1  0.500000  0.897184  0.527821  1
  Os  Os32  1  0.000000  0.640643  0.319701  1
  Os  Os33  1  0.000000  0.359357  0.680299  1
  Os  Os34  1  0.000000  0.140643  0.180299  1
  Os  Os35  1  0.000000  0.859357  0.819701  1
