# generated using pymatgen
data_Yb3HoSb6Rh7
_symmetry_space_group_name_H-M   'P 1'
_cell_length_a   7.61630502
_cell_length_b   7.58262560
_cell_length_c   7.58262536
_cell_angle_alpha   109.38107025
_cell_angle_beta   109.56122776
_cell_angle_gamma   109.56121635
_symmetry_Int_Tables_number   1
_chemical_formula_structural   Yb3HoSb6Rh7
_chemical_formula_sum   'Yb3 Ho1 Sb6 Rh7'
_cell_volume   336.72708527
_cell_formula_units_Z   1
loop_
 _symmetry_equiv_pos_site_id
 _symmetry_equiv_pos_as_xyz
  1  'x, y, z'
loop_
 _atom_site_type_symbol
 _atom_site_label
 _atom_site_symmetry_multiplicity
 _atom_site_fract_x
 _atom_site_fract_y
 _atom_site_fract_z
 _atom_site_occupancy
  Yb  Yb0  1  0.000000  0.500000  0.000000  1
  Yb  Yb1  1  0.000000  0.000000  0.500000  1
  Yb  Yb2  1  0.500000  0.500000  0.500000  1
  Ho  Ho3  1  0.500000  0.000000  0.000000  1
  Sb  Sb4  1  0.315591  0.000000  0.318808  1
  Sb  Sb5  1  0.996783  0.681192  0.681192  1
  Sb  Sb6  1  0.684409  0.681192  0.000000  1
  Sb  Sb7  1  0.684409  0.000000  0.681192  1
  Sb  Sb8  1  0.003217  0.318808  0.318808  1
  Sb  Sb9  1  0.315591  0.318808  0.000000  1
  Rh  Rh10  1  0.251357  0.502714  0.751357  1
  Rh  Rh11  1  0.500000  0.248643  0.751357  1
  Rh  Rh12  1  0.748643  0.248643  0.497286  1
  Rh  Rh13  1  0.500000  0.751357  0.248643  1
  Rh  Rh14  1  0.000000  0.000000  0.000000  1
  Rh  Rh15  1  0.251357  0.751357  0.502714  1
  Rh  Rh16  1  0.748643  0.497286  0.248643  1
