# generated using pymatgen
data_Tb(Yb4Pt3)2
_symmetry_space_group_name_H-M   'P 1'
_cell_length_a   7.48533648
_cell_length_b   7.49165262
_cell_length_c   7.54707457
_cell_angle_alpha   70.27637604
_cell_angle_beta   70.12880084
_cell_angle_gamma   70.28917790
_symmetry_Int_Tables_number   1
_chemical_formula_structural   Tb(Yb4Pt3)2
_chemical_formula_sum   'Tb1 Yb8 Pt6'
_cell_volume   362.63782985
_cell_formula_units_Z   1
loop_
 _symmetry_equiv_pos_site_id
 _symmetry_equiv_pos_as_xyz
  1  'x, y, z'
loop_
 _atom_site_type_symbol
 _atom_site_label
 _atom_site_symmetry_multiplicity
 _atom_site_fract_x
 _atom_site_fract_y
 _atom_site_fract_z
 _atom_site_occupancy
  Tb  Tb0  1  0.598489  0.328062  0.854968  1
  Yb  Yb1  1  0.003834  0.995934  0.001504  1
  Yb  Yb2  1  0.401764  0.669423  0.151520  1
  Yb  Yb3  1  0.193608  0.195157  0.199201  1
  Yb  Yb4  1  0.850349  0.598142  0.331552  1
  Yb  Yb5  1  0.668489  0.149786  0.400914  1
  Yb  Yb6  1  0.331294  0.849673  0.597789  1
  Yb  Yb7  1  0.147912  0.403266  0.669624  1
  Yb  Yb8  1  0.802045  0.803201  0.802434  1
  Pt  Pt9  1  0.829583  0.411641  0.043680  1
  Pt  Pt10  1  0.592033  0.957596  0.161778  1
  Pt  Pt11  1  0.047750  0.834288  0.411868  1
  Pt  Pt12  1  0.944680  0.169912  0.591712  1
  Pt  Pt13  1  0.410525  0.051878  0.830994  1
  Pt  Pt14  1  0.177646  0.582040  0.950462  1
