# generated using pymatgen
data_Yb2Er2PtRh3O14
_symmetry_space_group_name_H-M   'P 1'
_cell_length_a   7.18167007
_cell_length_b   7.20844497
_cell_length_c   7.19340025
_cell_angle_alpha   60.09197816
_cell_angle_beta   60.05393870
_cell_angle_gamma   60.12279792
_symmetry_Int_Tables_number   1
_chemical_formula_structural   Yb2Er2PtRh3O14
_chemical_formula_sum   'Yb2 Er2 Pt1 Rh3 O14'
_cell_volume   263.85572922
_cell_formula_units_Z   1
loop_
 _symmetry_equiv_pos_site_id
 _symmetry_equiv_pos_as_xyz
  1  'x, y, z'
loop_
 _atom_site_type_symbol
 _atom_site_label
 _atom_site_symmetry_multiplicity
 _atom_site_fract_x
 _atom_site_fract_y
 _atom_site_fract_z
 _atom_site_occupancy
  Yb  Yb0  1  0.625000  0.625000  0.125000  1
  Yb  Yb1  1  0.625000  0.125000  0.625000  1
  Er  Er2  1  0.625000  0.625000  0.625000  1
  Er  Er3  1  0.125000  0.625000  0.625000  1
  Pt  Pt4  1  0.125000  0.125000  0.625000  1
  Rh  Rh5  1  0.625000  0.125000  0.125000  1
  Rh  Rh6  1  0.125000  0.125000  0.125000  1
  Rh  Rh7  1  0.125000  0.625000  0.125000  1
  O  O8  1  0.038640  0.461520  0.461200  1
  O  O9  1  0.794192  0.793029  0.212261  1
  O  O10  1  0.795799  0.205511  0.202890  1
  O  O11  1  0.755684  0.744170  0.744462  1
  O  O12  1  0.049483  0.456971  0.037739  1
  O  O13  1  0.459912  0.033291  0.459578  1
  O  O14  1  0.047220  0.033291  0.459578  1
  O  O15  1  0.494316  0.505830  0.505538  1
  O  O16  1  0.202780  0.216709  0.790422  1
  O  O17  1  0.200517  0.793029  0.212261  1
  O  O18  1  0.790088  0.216709  0.790422  1
  O  O19  1  0.454201  0.044489  0.047110  1
  O  O20  1  0.455808  0.456971  0.037739  1
  O  O21  1  0.211360  0.788480  0.788800  1
