# generated using pymatgen
data_HfIr6W
_symmetry_space_group_name_H-M   'P 1'
_cell_length_a   5.59093800
_cell_length_b   5.59093907
_cell_length_c   4.49351200
_cell_angle_alpha   90.00000000
_cell_angle_beta   90.00000000
_cell_angle_gamma   120.00000549
_symmetry_Int_Tables_number   1
_chemical_formula_structural   HfIr6W
_chemical_formula_sum   'Hf1 Ir6 W1'
_cell_volume   121.64267144
_cell_formula_units_Z   1
loop_
 _symmetry_equiv_pos_site_id
 _symmetry_equiv_pos_as_xyz
  1  'x, y, z'
loop_
 _atom_site_type_symbol
 _atom_site_label
 _atom_site_symmetry_multiplicity
 _atom_site_fract_x
 _atom_site_fract_y
 _atom_site_fract_z
 _atom_site_occupancy
  Hf  Hf0  1  0.666667  0.333333  0.750000  1
  Ir  Ir1  1  0.666645  0.833322  0.750000  1
  Ir  Ir2  1  0.322951  0.161476  0.250000  1
  Ir  Ir3  1  0.838524  0.161476  0.250000  1
  Ir  Ir4  1  0.166678  0.333355  0.750000  1
  Ir  Ir5  1  0.166678  0.833322  0.750000  1
  Ir  Ir6  1  0.838524  0.677049  0.250000  1
  W  W7  1  0.333333  0.666667  0.250000  1
