# generated using pymatgen
data_K4Zr6CoBr18
_symmetry_space_group_name_H-M   'P 1'
_cell_length_a   10.57285513
_cell_length_b   10.74231239
_cell_length_c   10.86137213
_cell_angle_alpha   118.45368201
_cell_angle_beta   100.09349175
_cell_angle_gamma   103.67772506
_symmetry_Int_Tables_number   1
_chemical_formula_structural   K4Zr6CoBr18
_chemical_formula_sum   'K4 Zr6 Co1 Br18'
_cell_volume   992.17158342
_cell_formula_units_Z   1
loop_
 _symmetry_equiv_pos_site_id
 _symmetry_equiv_pos_as_xyz
  1  'x, y, z'
loop_
 _atom_site_type_symbol
 _atom_site_label
 _atom_site_symmetry_multiplicity
 _atom_site_fract_x
 _atom_site_fract_y
 _atom_site_fract_z
 _atom_site_occupancy
  K  K0  1  0.185529  0.724544  0.564012  1
  K  K1  1  0.848205  0.962038  0.773382  1
  K  K2  1  0.151795  0.037962  0.226618  1
  K  K3  1  0.814471  0.275456  0.435988  1
  Zr  Zr4  1  0.345827  0.441324  0.761963  1
  Zr  Zr5  1  0.358506  0.630624  0.137857  1
  Zr  Zr6  1  0.649815  0.746835  0.046911  1
  Zr  Zr7  1  0.654173  0.558676  0.238037  1
  Zr  Zr8  1  0.350185  0.253165  0.953089  1
  Zr  Zr9  1  0.641494  0.369376  0.862143  1
  Co  Co10  1  0.500000  0.500000  0.000000  1
  Br  Br11  1  0.820674  0.422279  0.109931  1
  Br  Br12  1  0.514839  0.705827  0.411342  1
  Br  Br13  1  0.174959  0.974276  0.898780  1
  Br  Br14  1  0.179326  0.577721  0.890069  1
  Br  Br15  1  0.830128  0.834467  0.311770  1
  Br  Br16  1  0.504148  0.295061  0.209851  1
  Br  Br17  1  0.798639  0.221811  0.708918  1
  Br  Br18  1  0.169872  0.165533  0.688230  1
  Br  Br19  1  0.508024  0.912040  0.197758  1
  Br  Br20  1  0.818032  0.628420  0.903002  1
  Br  Br21  1  0.201361  0.778189  0.291082  1
  Br  Br22  1  0.164357  0.378279  0.494906  1
  Br  Br23  1  0.495852  0.704939  0.790149  1
  Br  Br24  1  0.825041  0.025724  0.101220  1
  Br  Br25  1  0.485161  0.294173  0.588658  1
  Br  Br26  1  0.181968  0.371580  0.096998  1
  Br  Br27  1  0.835643  0.621721  0.505094  1
  Br  Br28  1  0.491976  0.087960  0.802242  1
