# generated using pymatgen
data_MgBeB14
_symmetry_space_group_name_H-M   'P 1'
_cell_length_a   7.11923493
_cell_length_b   7.11923558
_cell_length_c   8.10447100
_cell_angle_alpha   124.69412641
_cell_angle_beta   124.69413000
_cell_angle_gamma   47.88981543
_symmetry_Int_Tables_number   1
_chemical_formula_structural   MgBeB14
_chemical_formula_sum   'Mg2 Be2 B28'
_cell_volume   238.41397638
_cell_formula_units_Z   2
loop_
 _symmetry_equiv_pos_site_id
 _symmetry_equiv_pos_as_xyz
  1  'x, y, z'
loop_
 _atom_site_type_symbol
 _atom_site_label
 _atom_site_symmetry_multiplicity
 _atom_site_fract_x
 _atom_site_fract_y
 _atom_site_fract_z
 _atom_site_occupancy
  Mg  Mg0  1  0.750000  0.750000  0.387592  1
  Mg  Mg1  1  0.250000  0.250000  0.612407  1
  Be  Be2  1  0.500001  0.000000  0.000000  1
  Be  Be3  1  0.000000  0.500001  0.000000  1
  B  B4  1  0.911445  0.911445  0.083762  1
  B  B5  1  0.828816  0.333771  0.034541  1
  B  B6  1  0.333771  0.828816  0.034541  1
  B  B7  1  0.656212  0.656212  0.027683  1
  B  B8  1  0.902970  0.222717  0.224899  1
  B  B9  1  0.222717  0.902970  0.224899  1
  B  B10  1  0.166440  0.166440  0.194275  1
  B  B11  1  0.411445  0.411445  0.239128  1
  B  B12  1  0.843788  0.843788  0.215259  1
  B  B13  1  0.722716  0.402971  0.400789  1
  B  B14  1  0.402971  0.722716  0.400789  1
  B  B15  1  0.671184  0.166227  0.371953  1
  B  B16  1  0.166227  0.671184  0.371953  1
  B  B17  1  0.333560  0.333560  0.361395  1
  B  B18  1  0.666440  0.666440  0.638605  1
  B  B19  1  0.833772  0.328815  0.628047  1
  B  B20  1  0.328815  0.833772  0.628047  1
  B  B21  1  0.597030  0.277282  0.599210  1
  B  B22  1  0.277282  0.597030  0.599210  1
  B  B23  1  0.156213  0.156213  0.784741  1
  B  B24  1  0.588555  0.588555  0.760872  1
  B  B25  1  0.833561  0.833561  0.805725  1
  B  B26  1  0.777284  0.097031  0.775101  1
  B  B27  1  0.097031  0.777284  0.775101  1
  B  B28  1  0.343788  0.343788  0.972316  1
  B  B29  1  0.666229  0.171184  0.965459  1
  B  B30  1  0.171184  0.666229  0.965459  1
  B  B31  1  0.088555  0.088555  0.916239  1
