# generated using pymatgen
data_MnSb12OsPd2
_symmetry_space_group_name_H-M   'P 1'
_cell_length_a   8.15641583
_cell_length_b   8.16163050
_cell_length_c   9.41398996
_cell_angle_alpha   54.75526082
_cell_angle_beta   54.82400969
_cell_angle_gamma   70.51004849
_symmetry_Int_Tables_number   1
_chemical_formula_structural   MnSb12OsPd2
_chemical_formula_sum   'Mn1 Sb12 Os1 Pd2'
_cell_volume   418.34672317
_cell_formula_units_Z   1
loop_
 _symmetry_equiv_pos_site_id
 _symmetry_equiv_pos_as_xyz
  1  'x, y, z'
loop_
 _atom_site_type_symbol
 _atom_site_label
 _atom_site_symmetry_multiplicity
 _atom_site_fract_x
 _atom_site_fract_y
 _atom_site_fract_z
 _atom_site_occupancy
  Mn  Mn0  1  0.000000  0.500000  0.500000  1
  Sb  Sb1  1  0.670922  0.666176  0.488605  1
  Sb  Sb2  1  0.329078  0.333824  0.511395  1
  Sb  Sb3  1  0.650781  0.651355  0.195958  1
  Sb  Sb4  1  0.349219  0.348645  0.804042  1
  Sb  Sb5  1  0.158126  0.849946  0.654959  1
  Sb  Sb6  1  0.841874  0.150054  0.345041  1
  Sb  Sb7  1  0.850869  0.164649  0.652223  1
  Sb  Sb8  1  0.149131  0.835351  0.347777  1
  Sb  Sb9  1  0.816133  0.495535  0.836651  1
  Sb  Sb10  1  0.183867  0.504465  0.163349  1
  Sb  Sb11  1  0.505777  0.187437  0.157273  1
  Sb  Sb12  1  0.494223  0.812563  0.842727  1
  Os  Os13  1  0.500000  0.000000  0.500000  1
  Pd  Pd14  1  0.000000  0.500000  0.000000  1
  Pd  Pd15  1  0.500000  0.000000  0.000000  1
