# generated using pymatgen
data_TbDy2Y2Sn3
_symmetry_space_group_name_H-M   'P 1'
_cell_length_a   8.98847835
_cell_length_b   8.98413376
_cell_length_c   6.56238600
_cell_angle_alpha   90.00000000
_cell_angle_beta   90.00000000
_cell_angle_gamma   119.98402036
_symmetry_Int_Tables_number   1
_chemical_formula_structural   TbDy2Y2Sn3
_chemical_formula_sum   'Tb2 Dy4 Y4 Sn6'
_cell_volume   459.01269597
_cell_formula_units_Z   2
loop_
 _symmetry_equiv_pos_site_id
 _symmetry_equiv_pos_as_xyz
  1  'x, y, z'
loop_
 _atom_site_type_symbol
 _atom_site_label
 _atom_site_symmetry_multiplicity
 _atom_site_fract_x
 _atom_site_fract_y
 _atom_site_fract_z
 _atom_site_occupancy
  Tb  Tb0  1  0.000000  0.760200  0.750000  1
  Tb  Tb1  1  0.000000  0.239800  0.250000  1
  Dy  Dy2  1  0.333406  0.666704  0.500000  1
  Dy  Dy3  1  0.666594  0.333296  0.000000  1
  Dy  Dy4  1  0.666594  0.333296  0.500000  1
  Dy  Dy5  1  0.333406  0.666704  0.000000  1
  Y  Y6  1  0.760080  0.760079  0.250000  1
  Y  Y7  1  0.760080  0.000002  0.750000  1
  Y  Y8  1  0.239920  0.239921  0.750000  1
  Y  Y9  1  0.239920  0.999998  0.250000  1
  Sn  Sn10  1  0.395202  0.000067  0.750000  1
  Sn  Sn11  1  0.395202  0.395135  0.250000  1
  Sn  Sn12  1  0.000000  0.605126  0.250000  1
  Sn  Sn13  1  0.000000  0.394874  0.750000  1
  Sn  Sn14  1  0.604798  0.604865  0.750000  1
  Sn  Sn15  1  0.604798  0.999933  0.250000  1
