# generated using pymatgen
data_Tb2Al9Co2Pt
_symmetry_space_group_name_H-M   'P 1'
_cell_length_a   7.46391807
_cell_length_b   7.46391768
_cell_length_c   9.35077300
_cell_angle_alpha   90.00000000
_cell_angle_beta   90.00000000
_cell_angle_gamma   119.53083897
_symmetry_Int_Tables_number   1
_chemical_formula_structural   Tb2Al9Co2Pt
_chemical_formula_sum   'Tb4 Al18 Co4 Pt2'
_cell_volume   453.25818832
_cell_formula_units_Z   2
loop_
 _symmetry_equiv_pos_site_id
 _symmetry_equiv_pos_as_xyz
  1  'x, y, z'
loop_
 _atom_site_type_symbol
 _atom_site_label
 _atom_site_symmetry_multiplicity
 _atom_site_fract_x
 _atom_site_fract_y
 _atom_site_fract_z
 _atom_site_occupancy
  Tb  Tb0  1  0.993420  0.669447  0.250377  1
  Tb  Tb1  1  0.006580  0.330553  0.750377  1
  Tb  Tb2  1  0.669447  0.993420  0.249623  1
  Tb  Tb3  1  0.330553  0.006580  0.749623  1
  Al  Al4  1  0.121755  0.121755  0.250000  1
  Al  Al5  1  0.878245  0.878245  0.750000  1
  Al  Al6  1  0.331173  0.325192  0.545945  1
  Al  Al7  1  0.668827  0.674808  0.045945  1
  Al  Al8  1  0.325192  0.331173  0.954055  1
  Al  Al9  1  0.674808  0.668827  0.454055  1
  Al  Al10  1  0.341082  0.549390  0.241801  1
  Al  Al11  1  0.658918  0.450610  0.741801  1
  Al  Al12  1  0.549390  0.341082  0.258199  1
  Al  Al13  1  0.450610  0.658918  0.758199  1
  Al  Al14  1  0.006343  0.334292  0.073256  1
  Al  Al15  1  0.993657  0.665708  0.573256  1
  Al  Al16  1  0.334292  0.006343  0.426744  1
  Al  Al17  1  0.665708  0.993657  0.926744  1
  Al  Al18  1  0.009716  0.673673  0.926824  1
  Al  Al19  1  0.990284  0.326327  0.426824  1
  Al  Al20  1  0.673673  0.009716  0.573176  1
  Al  Al21  1  0.326327  0.990284  0.073176  1
  Co  Co22  1  0.000134  0.999866  0.000000  1
  Co  Co23  1  0.999866  0.000134  0.500000  1
  Co  Co24  1  0.329184  0.670816  0.000000  1
  Co  Co25  1  0.670816  0.329184  0.500000  1
  Pt  Pt26  1  0.672030  0.327970  0.000000  1
  Pt  Pt27  1  0.327970  0.672030  0.500000  1
