# generated using pymatgen
data_Li2Er8Sc9Si16Tc
_symmetry_space_group_name_H-M   'P 1'
_cell_length_a   6.89797004
_cell_length_b   7.29586063
_cell_length_c   13.88998700
_cell_angle_alpha   90.00000000
_cell_angle_beta   90.00000000
_cell_angle_gamma   90.12334524
_symmetry_Int_Tables_number   1
_chemical_formula_structural   Li2Er8Sc9Si16Tc
_chemical_formula_sum   'Li2 Er8 Sc9 Si16 Tc1'
_cell_volume   699.03458945
_cell_formula_units_Z   1
loop_
 _symmetry_equiv_pos_site_id
 _symmetry_equiv_pos_as_xyz
  1  'x, y, z'
loop_
 _atom_site_type_symbol
 _atom_site_label
 _atom_site_symmetry_multiplicity
 _atom_site_fract_x
 _atom_site_fract_y
 _atom_site_fract_z
 _atom_site_occupancy
  Li  Li0  1  0.844194  0.494194  0.250000  1
  Li  Li1  1  0.343083  0.006953  0.250000  1
  Er  Er2  1  0.015775  0.183266  0.095800  1
  Er  Er3  1  0.991723  0.818451  0.900831  1
  Er  Er4  1  0.487012  0.673361  0.903048  1
  Er  Er5  1  0.991723  0.818451  0.599169  1
  Er  Er6  1  0.516071  0.318392  0.098111  1
  Er  Er7  1  0.015775  0.183266  0.404200  1
  Er  Er8  1  0.516071  0.318392  0.401889  1
  Er  Er9  1  0.487012  0.673361  0.596952  1
  Sc  Sc10  1  0.656116  0.995286  0.750000  1
  Sc  Sc11  1  0.324057  0.177789  0.627122  1
  Sc  Sc12  1  0.671180  0.823912  0.373288  1
  Sc  Sc13  1  0.172016  0.676218  0.375070  1
  Sc  Sc14  1  0.671180  0.823912  0.126712  1
  Sc  Sc15  1  0.825759  0.330038  0.628407  1
  Sc  Sc16  1  0.324057  0.177789  0.872878  1
  Sc  Sc17  1  0.825759  0.330038  0.871593  1
  Sc  Sc18  1  0.172016  0.676218  0.124930  1
  Si  Si19  1  0.027706  0.118009  0.750000  1
  Si  Si20  1  0.973830  0.896765  0.250000  1
  Si  Si21  1  0.472208  0.601588  0.250000  1
  Si  Si22  1  0.515628  0.397667  0.750000  1
  Si  Si23  1  0.283896  0.859956  0.750000  1
  Si  Si24  1  0.723992  0.124270  0.250000  1
  Si  Si25  1  0.219730  0.377061  0.250000  1
  Si  Si26  1  0.792341  0.629884  0.750000  1
  Si  Si27  1  0.152746  0.465923  0.546384  1
  Si  Si28  1  0.840458  0.538011  0.465478  1
  Si  Si29  1  0.343405  0.962313  0.465522  1
  Si  Si30  1  0.840458  0.538011  0.034522  1
  Si  Si31  1  0.657989  0.033693  0.539156  1
  Si  Si32  1  0.152746  0.465923  0.953616  1
  Si  Si33  1  0.657989  0.033693  0.960844  1
  Si  Si34  1  0.343405  0.962313  0.034478  1
  Tc  Tc35  1  0.150894  0.495637  0.750000  1
