# generated using pymatgen
data_AcPrP7Ru12
_symmetry_space_group_name_H-M   'P 1'
_cell_length_a   9.55638800
_cell_length_b   9.55638719
_cell_length_c   3.99977700
_cell_angle_alpha   90.00000000
_cell_angle_beta   90.00000000
_cell_angle_gamma   119.99999494
_symmetry_Int_Tables_number   1
_chemical_formula_structural   AcPrP7Ru12
_chemical_formula_sum   'Ac1 Pr1 P7 Ru12'
_cell_volume   316.33987922
_cell_formula_units_Z   1
loop_
 _symmetry_equiv_pos_site_id
 _symmetry_equiv_pos_as_xyz
  1  'x, y, z'
loop_
 _atom_site_type_symbol
 _atom_site_label
 _atom_site_symmetry_multiplicity
 _atom_site_fract_x
 _atom_site_fract_y
 _atom_site_fract_z
 _atom_site_occupancy
  Ac  Ac0  1  0.333333  0.666667  0.000000  1
  Pr  Pr1  1  0.666667  0.333333  0.500000  1
  P  P2  1  0.611642  0.717040  0.500000  1
  P  P3  1  0.000000  0.000000  0.000000  1
  P  P4  1  0.282960  0.894602  0.500000  1
  P  P5  1  0.105398  0.388358  0.500000  1
  P  P6  1  0.892338  0.574352  0.000000  1
  P  P7  1  0.425648  0.317986  0.000000  1
  P  P8  1  0.682014  0.107662  0.000000  1
  Ru  Ru9  1  0.561450  0.956903  0.500000  1
  Ru  Ru10  1  0.395455  0.438550  0.500000  1
  Ru  Ru11  1  0.914500  0.117204  0.500000  1
  Ru  Ru12  1  0.202704  0.085500  0.500000  1
  Ru  Ru13  1  0.882796  0.797296  0.500000  1
  Ru  Ru14  1  0.731263  0.893292  0.000000  1
  Ru  Ru15  1  0.106708  0.837971  0.000000  1
  Ru  Ru16  1  0.162029  0.268737  0.000000  1
  Ru  Ru17  1  0.418502  0.068420  0.000000  1
  Ru  Ru18  1  0.931580  0.350084  0.000000  1
  Ru  Ru19  1  0.649916  0.581498  0.000000  1
  Ru  Ru20  1  0.043097  0.604545  0.500000  1
