# generated using pymatgen
data_LaNdCdAgPd
_symmetry_space_group_name_H-M   'P 1'
_cell_length_a   8.06421709
_cell_length_b   8.06421738
_cell_length_c   3.97491000
_cell_angle_alpha   90.00000000
_cell_angle_beta   90.00000000
_cell_angle_gamma   89.06565304
_symmetry_Int_Tables_number   1
_chemical_formula_structural   LaNdCdAgPd
_chemical_formula_sum   'La2 Nd2 Cd2 Ag2 Pd2'
_cell_volume   258.46038535
_cell_formula_units_Z   2
loop_
 _symmetry_equiv_pos_site_id
 _symmetry_equiv_pos_as_xyz
  1  'x, y, z'
loop_
 _atom_site_type_symbol
 _atom_site_label
 _atom_site_symmetry_multiplicity
 _atom_site_fract_x
 _atom_site_fract_y
 _atom_site_fract_z
 _atom_site_occupancy
  La  La0  1  0.185215  0.314785  0.500000  1
  La  La1  1  0.814785  0.685215  0.500000  1
  Nd  Nd2  1  0.664395  0.164395  0.500000  1
  Nd  Nd3  1  0.335605  0.835605  0.500000  1
  Cd  Cd4  1  0.000000  0.000000  0.000000  1
  Cd  Cd5  1  0.500000  0.500000  0.000000  1
  Ag  Ag6  1  0.127159  0.627159  0.000000  1
  Ag  Ag7  1  0.872841  0.372841  0.000000  1
  Pd  Pd8  1  0.625762  0.874238  0.000000  1
  Pd  Pd9  1  0.374238  0.125762  0.000000  1
