# generated using pymatgen
data_Pa4MnCoO12
_symmetry_space_group_name_H-M   'P 1'
_cell_length_a   5.36656700
_cell_length_b   5.39577800
_cell_length_c   15.86965200
_cell_angle_alpha   90.00000000
_cell_angle_beta   90.00000000
_cell_angle_gamma   90.00000000
_symmetry_Int_Tables_number   1
_chemical_formula_structural   Pa4MnCoO12
_chemical_formula_sum   'Pa8 Mn2 Co2 O24'
_cell_volume   459.53440496
_cell_formula_units_Z   2
loop_
 _symmetry_equiv_pos_site_id
 _symmetry_equiv_pos_as_xyz
  1  'x, y, z'
loop_
 _atom_site_type_symbol
 _atom_site_label
 _atom_site_symmetry_multiplicity
 _atom_site_fract_x
 _atom_site_fract_y
 _atom_site_fract_z
 _atom_site_occupancy
  Pa  Pa0  1  0.962843  0.493661  0.658125  1
  Pa  Pa1  1  0.462843  0.506339  0.841875  1
  Pa  Pa2  1  0.537157  0.506339  0.158125  1
  Pa  Pa3  1  0.037157  0.493661  0.341875  1
  Pa  Pa4  1  0.535418  0.004478  0.341831  1
  Pa  Pa5  1  0.035418  0.995522  0.158169  1
  Pa  Pa6  1  0.964582  0.995522  0.841831  1
  Pa  Pa7  1  0.464582  0.004478  0.658169  1
  Mn  Mn8  1  0.500000  0.043505  0.000000  1
  Mn  Mn9  1  0.000000  0.956495  0.500000  1
  Co  Co10  1  0.000000  0.456040  0.000000  1
  Co  Co11  1  0.500000  0.543960  0.500000  1
  O  O12  1  0.248025  0.698980  0.585393  1
  O  O13  1  0.748025  0.301020  0.914607  1
  O  O14  1  0.251975  0.301020  0.085393  1
  O  O15  1  0.751975  0.698980  0.414607  1
  O  O16  1  0.257663  0.791733  0.413058  1
  O  O17  1  0.757663  0.208267  0.086942  1
  O  O18  1  0.242337  0.208267  0.913058  1
  O  O19  1  0.742337  0.791733  0.586942  1
  O  O20  1  0.276204  0.725569  0.250416  1
  O  O21  1  0.776204  0.274431  0.249584  1
  O  O22  1  0.223796  0.274431  0.750416  1
  O  O23  1  0.723796  0.725569  0.749584  1
  O  O24  1  0.223266  0.774258  0.750055  1
  O  O25  1  0.723266  0.225742  0.749945  1
  O  O26  1  0.276734  0.225742  0.250055  1
  O  O27  1  0.776734  0.774258  0.249945  1
  O  O28  1  0.153696  0.695459  0.910789  1
  O  O29  1  0.653696  0.304541  0.589211  1
  O  O30  1  0.346304  0.304541  0.410789  1
  O  O31  1  0.846304  0.695459  0.089211  1
  O  O32  1  0.345142  0.806916  0.092477  1
  O  O33  1  0.845142  0.193084  0.407523  1
  O  O34  1  0.154858  0.193084  0.592477  1
  O  O35  1  0.654858  0.806916  0.907523  1
