# generated using pymatgen
data_Tb6Dy2Y12FeCo3Bi8
_symmetry_space_group_name_H-M   'P 1'
_cell_length_a   8.06366838
_cell_length_b   8.85341767
_cell_length_c   12.43175400
_cell_angle_alpha   89.97380943
_cell_angle_beta   90.03353760
_cell_angle_gamma   89.97652343
_symmetry_Int_Tables_number   1
_chemical_formula_structural   Tb6Dy2Y12FeCo3Bi8
_chemical_formula_sum   'Tb6 Dy2 Y12 Fe1 Co3 Bi8'
_cell_volume   887.51533038
_cell_formula_units_Z   1
loop_
 _symmetry_equiv_pos_site_id
 _symmetry_equiv_pos_as_xyz
  1  'x, y, z'
loop_
 _atom_site_type_symbol
 _atom_site_label
 _atom_site_symmetry_multiplicity
 _atom_site_fract_x
 _atom_site_fract_y
 _atom_site_fract_z
 _atom_site_occupancy
  Tb  Tb0  1  0.176685  0.966383  0.937093  1
  Tb  Tb1  1  0.323549  0.533639  0.437626  1
  Tb  Tb2  1  0.823543  0.034192  0.062887  1
  Tb  Tb3  1  0.675227  0.468560  0.562038  1
  Tb  Tb4  1  0.823482  0.466046  0.062786  1
  Tb  Tb5  1  0.176754  0.533459  0.937278  1
  Dy  Dy6  1  0.674512  0.032715  0.561976  1
  Dy  Dy7  1  0.324301  0.965013  0.437567  1
  Y  Y8  1  0.847492  0.750058  0.800367  1
  Y  Y9  1  0.152023  0.249995  0.198767  1
  Y  Y10  1  0.348117  0.249651  0.699351  1
  Y  Y11  1  0.650712  0.750337  0.301627  1
  Y  Y12  1  0.380354  0.750577  0.690709  1
  Y  Y13  1  0.620959  0.249438  0.308431  1
  Y  Y14  1  0.879554  0.249963  0.808762  1
  Y  Y15  1  0.120222  0.749964  0.190920  1
  Y  Y16  1  0.953058  0.750251  0.502799  1
  Y  Y17  1  0.045693  0.249842  0.497470  1
  Y  Y18  1  0.455277  0.249954  0.997690  1
  Y  Y19  1  0.544753  0.750074  0.002522  1
  Fe  Fe20  1  0.562514  0.750078  0.509476  1
  Co  Co21  1  0.440160  0.249751  0.491276  1
  Co  Co22  1  0.058983  0.250010  0.991144  1
  Co  Co23  1  0.940921  0.749981  0.008502  1
  Bi  Bi24  1  0.571806  0.492212  0.825973  1
  Bi  Bi25  1  0.428123  0.507781  0.174262  1
  Bi  Bi26  1  0.072129  0.507960  0.674145  1
  Bi  Bi27  1  0.427891  0.992047  0.174311  1
  Bi  Bi28  1  0.928509  0.492081  0.326043  1
  Bi  Bi29  1  0.572043  0.007970  0.825948  1
  Bi  Bi30  1  0.929238  0.008030  0.326018  1
  Bi  Bi31  1  0.071415  0.991992  0.674234  1
