# generated using pymatgen
data_Ca12Cu12Si11Ni
_symmetry_space_group_name_H-M   'P 1'
_cell_length_a   4.29119300
_cell_length_b   7.34345567
_cell_length_c   20.96419617
_cell_angle_alpha   89.93166018
_cell_angle_beta   90.00000000
_cell_angle_gamma   90.00000000
_symmetry_Int_Tables_number   1
_chemical_formula_structural   Ca12Cu12Si11Ni
_chemical_formula_sum   'Ca12 Cu12 Si11 Ni1'
_cell_volume   660.62716955
_cell_formula_units_Z   1
loop_
 _symmetry_equiv_pos_site_id
 _symmetry_equiv_pos_as_xyz
  1  'x, y, z'
loop_
 _atom_site_type_symbol
 _atom_site_label
 _atom_site_symmetry_multiplicity
 _atom_site_fract_x
 _atom_site_fract_y
 _atom_site_fract_z
 _atom_site_occupancy
  Ca  Ca0  1  0.250000  0.695517  0.001103  1
  Ca  Ca1  1  0.750000  0.298735  0.996711  1
  Ca  Ca2  1  0.750000  0.205916  0.498206  1
  Ca  Ca3  1  0.250000  0.793213  0.502324  1
  Ca  Ca4  1  0.250000  0.798642  0.165920  1
  Ca  Ca5  1  0.750000  0.203712  0.836164  1
  Ca  Ca6  1  0.750000  0.298363  0.333933  1
  Ca  Ca7  1  0.250000  0.698684  0.666757  1
  Ca  Ca8  1  0.250000  0.700347  0.333188  1
  Ca  Ca9  1  0.750000  0.301538  0.667195  1
  Ca  Ca10  1  0.750000  0.200530  0.166808  1
  Ca  Ca11  1  0.250000  0.803451  0.833181  1
  Cu  Cu12  1  0.250000  0.413130  0.098737  1
  Cu  Cu13  1  0.750000  0.593822  0.898728  1
  Cu  Cu14  1  0.750000  0.913308  0.401724  1
  Cu  Cu15  1  0.250000  0.085325  0.598821  1
  Cu  Cu16  1  0.250000  0.413271  0.234745  1
  Cu  Cu17  1  0.750000  0.582560  0.768496  1
  Cu  Cu18  1  0.750000  0.912951  0.265393  1
  Cu  Cu19  1  0.250000  0.089509  0.735518  1
  Cu  Cu20  1  0.250000  0.420284  0.438558  1
  Cu  Cu21  1  0.750000  0.577870  0.560068  1
  Cu  Cu22  1  0.750000  0.921130  0.059902  1
  Cu  Cu23  1  0.250000  0.069814  0.944517  1
  Si  Si24  1  0.250000  0.090781  0.067102  1
  Si  Si25  1  0.750000  0.910827  0.936256  1
  Si  Si26  1  0.750000  0.590765  0.433062  1
  Si  Si27  1  0.250000  0.409027  0.566178  1
  Si  Si28  1  0.250000  0.080679  0.273264  1
  Si  Si29  1  0.750000  0.918989  0.727246  1
  Si  Si30  1  0.750000  0.580495  0.226696  1
  Si  Si31  1  0.250000  0.418378  0.772672  1
  Si  Si32  1  0.250000  0.083328  0.394942  1
  Si  Si33  1  0.750000  0.916776  0.606009  1
  Si  Si34  1  0.750000  0.582479  0.105131  1
  Ni  Ni35  1  0.250000  0.425856  0.884747  1
