# generated using pymatgen
data_Dy6Y14Co3Bi8Os
_symmetry_space_group_name_H-M   'P 1'
_cell_length_a   8.04298165
_cell_length_b   8.92227807
_cell_length_c   12.48131145
_cell_angle_alpha   89.98551401
_cell_angle_beta   90.29800796
_cell_angle_gamma   90.00307734
_symmetry_Int_Tables_number   1
_chemical_formula_structural   Dy6Y14Co3Bi8Os
_chemical_formula_sum   'Dy6 Y14 Co3 Bi8 Os1'
_cell_volume   895.66821853
_cell_formula_units_Z   1
loop_
 _symmetry_equiv_pos_site_id
 _symmetry_equiv_pos_as_xyz
  1  'x, y, z'
loop_
 _atom_site_type_symbol
 _atom_site_label
 _atom_site_symmetry_multiplicity
 _atom_site_fract_x
 _atom_site_fract_y
 _atom_site_fract_z
 _atom_site_occupancy
  Dy  Dy0  1  0.174688  0.966003  0.936915  1
  Dy  Dy1  1  0.325419  0.534691  0.436445  1
  Dy  Dy2  1  0.824689  0.035388  0.063054  1
  Dy  Dy3  1  0.675877  0.459230  0.565017  1
  Dy  Dy4  1  0.824645  0.464628  0.063049  1
  Dy  Dy5  1  0.174741  0.533991  0.936929  1
  Y  Y6  1  0.846237  0.749898  0.799816  1
  Y  Y7  1  0.153153  0.250093  0.198938  1
  Y  Y8  1  0.346942  0.250307  0.699940  1
  Y  Y9  1  0.655082  0.749673  0.294254  1
  Y  Y10  1  0.376298  0.749824  0.694553  1
  Y  Y11  1  0.620663  0.250223  0.309758  1
  Y  Y12  1  0.878952  0.250119  0.810654  1
  Y  Y13  1  0.120627  0.749887  0.187935  1
  Y  Y14  1  0.946156  0.749161  0.503558  1
  Y  Y15  1  0.049870  0.250887  0.496879  1
  Y  Y16  1  0.453024  0.250008  0.997400  1
  Y  Y17  1  0.546869  0.749995  0.002262  1
  Y  Y18  1  0.676706  0.041121  0.565499  1
  Y  Y19  1  0.324612  0.964757  0.435849  1
  Co  Co20  1  0.433892  0.251448  0.490747  1
  Co  Co21  1  0.059402  0.250029  0.992093  1
  Co  Co22  1  0.939217  0.749968  0.007394  1
  Bi  Bi23  1  0.570328  0.491921  0.827307  1
  Bi  Bi24  1  0.429451  0.507147  0.173114  1
  Bi  Bi25  1  0.069871  0.507350  0.674442  1
  Bi  Bi26  1  0.429623  0.992824  0.173179  1
  Bi  Bi27  1  0.931739  0.492258  0.325645  1
  Bi  Bi28  1  0.570156  0.008103  0.827229  1
  Bi  Bi29  1  0.931754  0.007684  0.326122  1
  Bi  Bi30  1  0.069800  0.992726  0.673981  1
  Os  Os31  1  0.569516  0.748655  0.510039  1
