# generated using pymatgen
data_La10CoTcGe4
_symmetry_space_group_name_H-M   'P 1'
_cell_length_a   8.20661900
_cell_length_b   8.95397200
_cell_length_c   12.51060700
_cell_angle_alpha   90.00000000
_cell_angle_beta   90.00000000
_cell_angle_gamma   90.00000000
_symmetry_Int_Tables_number   1
_chemical_formula_structural   La10CoTcGe4
_chemical_formula_sum   'La20 Co2 Tc2 Ge8'
_cell_volume   919.30238110
_cell_formula_units_Z   2
loop_
 _symmetry_equiv_pos_site_id
 _symmetry_equiv_pos_as_xyz
  1  'x, y, z'
loop_
 _atom_site_type_symbol
 _atom_site_label
 _atom_site_symmetry_multiplicity
 _atom_site_fract_x
 _atom_site_fract_y
 _atom_site_fract_z
 _atom_site_occupancy
  La  La0  1  0.316904  0.525785  0.430777  1
  La  La1  1  0.863874  0.250000  0.795264  1
  La  La2  1  0.183096  0.525785  0.930777  1
  La  La3  1  0.316904  0.974215  0.430777  1
  La  La4  1  0.130815  0.750000  0.202500  1
  La  La5  1  0.839493  0.750000  0.789292  1
  La  La6  1  0.369185  0.750000  0.702500  1
  La  La7  1  0.962592  0.750000  0.500819  1
  La  La8  1  0.456355  0.250000  0.998688  1
  La  La9  1  0.681549  0.466423  0.569967  1
  La  La10  1  0.818451  0.033577  0.069967  1
  La  La11  1  0.660507  0.750000  0.289292  1
  La  La12  1  0.537408  0.750000  0.000819  1
  La  La13  1  0.043645  0.250000  0.498688  1
  La  La14  1  0.681549  0.033577  0.569967  1
  La  La15  1  0.183096  0.974215  0.930777  1
  La  La16  1  0.636126  0.250000  0.295264  1
  La  La17  1  0.338696  0.250000  0.708894  1
  La  La18  1  0.818451  0.466423  0.069967  1
  La  La19  1  0.161304  0.250000  0.208894  1
  Co  Co20  1  0.081450  0.250000  0.979248  1
  Co  Co21  1  0.418550  0.250000  0.479248  1
  Tc  Tc22  1  0.916377  0.750000  0.023111  1
  Tc  Tc23  1  0.583623  0.750000  0.523111  1
  Ge  Ge24  1  0.931177  0.492599  0.329035  1
  Ge  Ge25  1  0.430031  0.505688  0.171314  1
  Ge  Ge26  1  0.430031  0.994312  0.171314  1
  Ge  Ge27  1  0.568823  0.492599  0.829035  1
  Ge  Ge28  1  0.069969  0.505688  0.671314  1
  Ge  Ge29  1  0.568823  0.007401  0.829035  1
  Ge  Ge30  1  0.931177  0.007401  0.329035  1
  Ge  Ge31  1  0.069969  0.994312  0.671314  1
