# generated using pymatgen
data_Zr4Ga2Rh9Au
_symmetry_space_group_name_H-M   'P 1'
_cell_length_a   5.61018661
_cell_length_b   5.61018667
_cell_length_c   8.22889100
_cell_angle_alpha   90.00000000
_cell_angle_beta   90.00000000
_cell_angle_gamma   97.96545108
_symmetry_Int_Tables_number   1
_chemical_formula_structural   Zr4Ga2Rh9Au
_chemical_formula_sum   'Zr4 Ga2 Rh9 Au1'
_cell_volume   256.49885364
_cell_formula_units_Z   1
loop_
 _symmetry_equiv_pos_site_id
 _symmetry_equiv_pos_as_xyz
  1  'x, y, z'
loop_
 _atom_site_type_symbol
 _atom_site_label
 _atom_site_symmetry_multiplicity
 _atom_site_fract_x
 _atom_site_fract_y
 _atom_site_fract_z
 _atom_site_occupancy
  Zr  Zr0  1  0.771693  0.228253  0.506441  1
  Zr  Zr1  1  0.228253  0.771693  0.993559  1
  Zr  Zr2  1  0.228253  0.771693  0.506441  1
  Zr  Zr3  1  0.771693  0.228253  0.993559  1
  Ga  Ga4  1  0.501634  0.501634  0.750000  1
  Ga  Ga5  1  0.498460  0.498460  0.250000  1
  Rh  Rh6  1  0.720916  0.720916  0.998379  1
  Rh  Rh7  1  0.720916  0.720916  0.501621  1
  Rh  Rh8  1  0.279053  0.279053  0.997017  1
  Rh  Rh9  1  0.279053  0.279053  0.502983  1
  Rh  Rh10  1  0.500011  0.000154  0.750000  1
  Rh  Rh11  1  0.499972  0.999839  0.250000  1
  Rh  Rh12  1  0.999849  0.999849  0.750000  1
  Rh  Rh13  1  0.000154  0.500011  0.750000  1
  Rh  Rh14  1  0.999839  0.499972  0.250000  1
  Au  Au15  1  0.000250  0.000250  0.250000  1
