# generated using pymatgen
data_Zr4Ti5AlPd2
_symmetry_space_group_name_H-M   'P 1'
_cell_length_a   5.55449000
_cell_length_b   5.55898526
_cell_length_c   8.36190900
_cell_angle_alpha   90.00000000
_cell_angle_beta   90.00000000
_cell_angle_gamma   119.97324187
_symmetry_Int_Tables_number   1
_chemical_formula_structural   Zr4Ti5AlPd2
_chemical_formula_sum   'Zr4 Ti5 Al1 Pd2'
_cell_volume   223.66231571
_cell_formula_units_Z   1
loop_
 _symmetry_equiv_pos_site_id
 _symmetry_equiv_pos_as_xyz
  1  'x, y, z'
loop_
 _atom_site_type_symbol
 _atom_site_label
 _atom_site_symmetry_multiplicity
 _atom_site_fract_x
 _atom_site_fract_y
 _atom_site_fract_z
 _atom_site_occupancy
  Zr  Zr0  1  0.667830  0.335661  0.065538  1
  Zr  Zr1  1  0.667830  0.335661  0.434462  1
  Zr  Zr2  1  0.339482  0.678964  0.564108  1
  Zr  Zr3  1  0.339482  0.678964  0.935891  1
  Ti  Ti4  1  0.172091  0.344182  0.250000  1
  Ti  Ti5  1  0.178019  0.833514  0.250000  1
  Ti  Ti6  1  0.655495  0.833514  0.250000  1
  Ti  Ti7  1  0.337535  0.156515  0.750001  1
  Ti  Ti8  1  0.818981  0.156515  0.750001  1
  Al  Al9  1  0.824237  0.648475  0.750001  1
  Pd  Pd10  1  0.999509  0.999019  0.998830  1
  Pd  Pd11  1  0.999509  0.999019  0.501170  1
