# generated using pymatgen
data_Tm3(In2Ir)2
_symmetry_space_group_name_H-M   'P 1'
_cell_length_a   7.86629700
_cell_length_b   7.86629722
_cell_length_c   3.75717300
_cell_angle_alpha   90.00000000
_cell_angle_beta   90.00000000
_cell_angle_gamma   120.00000328
_symmetry_Int_Tables_number   1
_chemical_formula_structural   Tm3(In2Ir)2
_chemical_formula_sum   'Tm3 In4 Ir2'
_cell_volume   201.34112984
_cell_formula_units_Z   1
loop_
 _symmetry_equiv_pos_site_id
 _symmetry_equiv_pos_as_xyz
  1  'x, y, z'
loop_
 _atom_site_type_symbol
 _atom_site_label
 _atom_site_symmetry_multiplicity
 _atom_site_fract_x
 _atom_site_fract_y
 _atom_site_fract_z
 _atom_site_occupancy
  Tm  Tm0  1  0.295643  0.256848  0.500000  1
  Tm  Tm1  1  0.743152  0.038795  0.500000  1
  Tm  Tm2  1  0.961205  0.704357  0.500000  1
  In  In3  1  0.071890  0.408933  0.000000  1
  In  In4  1  0.591067  0.662957  0.000000  1
  In  In5  1  0.337043  0.928110  0.000000  1
  In  In6  1  0.666667  0.333333  0.000000  1
  Ir  Ir7  1  0.333333  0.666667  0.500000  1
  Ir  Ir8  1  0.000000  0.000000  0.000000  1
