# generated using pymatgen
data_DyTm3Al15(GaIr2)3
_symmetry_space_group_name_H-M   'P 1'
_cell_length_a   7.51558405
_cell_length_b   7.51712295
_cell_length_c   9.49013100
_cell_angle_alpha   90.00000000
_cell_angle_beta   90.00000000
_cell_angle_gamma   119.45152494
_symmetry_Int_Tables_number   1
_chemical_formula_structural   DyTm3Al15(GaIr2)3
_chemical_formula_sum   'Dy1 Tm3 Al15 Ga3 Ir6'
_cell_volume   466.86471590
_cell_formula_units_Z   1
loop_
 _symmetry_equiv_pos_site_id
 _symmetry_equiv_pos_as_xyz
  1  'x, y, z'
loop_
 _atom_site_type_symbol
 _atom_site_label
 _atom_site_symmetry_multiplicity
 _atom_site_fract_x
 _atom_site_fract_y
 _atom_site_fract_z
 _atom_site_occupancy
  Dy  Dy0  1  0.997699  0.674709  0.250000  1
  Tm  Tm1  1  0.005678  0.325924  0.750000  1
  Tm  Tm2  1  0.670529  0.991443  0.250000  1
  Tm  Tm3  1  0.325023  0.003640  0.750000  1
  Al  Al4  1  0.001102  0.334867  0.072773  1
  Al  Al5  1  0.998727  0.664284  0.925570  1
  Al  Al6  1  0.998727  0.664284  0.574430  1
  Al  Al7  1  0.336426  0.002982  0.427001  1
  Al  Al8  1  0.001102  0.334867  0.427227  1
  Al  Al9  1  0.664491  0.999548  0.573769  1
  Al  Al10  1  0.664491  0.999548  0.926231  1
  Al  Al11  1  0.336426  0.002982  0.072999  1
  Al  Al12  1  0.333865  0.333829  0.557575  1
  Al  Al13  1  0.665914  0.666056  0.447113  1
  Al  Al14  1  0.665914  0.666056  0.052887  1
  Al  Al15  1  0.333865  0.333829  0.942425  1
  Al  Al16  1  0.662503  0.449859  0.750000  1
  Al  Al17  1  0.550002  0.338774  0.250000  1
  Al  Al18  1  0.450703  0.662598  0.750000  1
  Ga  Ga19  1  0.131448  0.132394  0.250000  1
  Ga  Ga20  1  0.865851  0.865780  0.750000  1
  Ga  Ga21  1  0.339573  0.546747  0.250000  1
  Ir  Ir22  1  0.671495  0.328674  0.000051  1
  Ir  Ir23  1  0.328255  0.672931  0.997607  1
  Ir  Ir24  1  0.328255  0.672931  0.502393  1
  Ir  Ir25  1  0.671495  0.328674  0.499949  1
  Ir  Ir26  1  0.000222  0.000895  0.999642  1
  Ir  Ir27  1  0.000222  0.000895  0.500358  1
