# generated using pymatgen
data_TbPr2Dy3(RuO7)2
_symmetry_space_group_name_H-M   'P 1'
_cell_length_a   6.47039288
_cell_length_b   6.46881936
_cell_length_c   7.52635100
_cell_angle_alpha   90.00000000
_cell_angle_beta   90.00000000
_cell_angle_gamma   110.18506199
_symmetry_Int_Tables_number   1
_chemical_formula_structural   TbPr2Dy3(RuO7)2
_chemical_formula_sum   'Tb1 Pr2 Dy3 Ru2 O14'
_cell_volume   295.67379460
_cell_formula_units_Z   1
loop_
 _symmetry_equiv_pos_site_id
 _symmetry_equiv_pos_as_xyz
  1  'x, y, z'
loop_
 _atom_site_type_symbol
 _atom_site_label
 _atom_site_symmetry_multiplicity
 _atom_site_fract_x
 _atom_site_fract_y
 _atom_site_fract_z
 _atom_site_occupancy
  Tb  Tb0  1  0.480788  0.927846  0.750000  1
  Pr  Pr1  1  0.999987  0.000063  0.499890  1
  Pr  Pr2  1  0.999987  0.000063  0.000110  1
  Dy  Dy3  1  0.518849  0.071220  0.250000  1
  Dy  Dy4  1  0.928740  0.481174  0.750000  1
  Dy  Dy5  1  0.071151  0.518752  0.250000  1
  Ru  Ru6  1  0.500071  0.500034  0.499819  1
  Ru  Ru7  1  0.500071  0.500034  0.000181  1
  O  O8  1  0.589165  0.588617  0.750000  1
  O  O9  1  0.410938  0.410977  0.250000  1
  O  O10  1  0.837679  0.117969  0.750000  1
  O  O11  1  0.163708  0.882731  0.250000  1
  O  O12  1  0.115809  0.836269  0.750000  1
  O  O13  1  0.882616  0.163605  0.250000  1
  O  O14  1  0.440891  0.182762  0.963371  1
  O  O15  1  0.559257  0.817440  0.462322  1
  O  O16  1  0.182624  0.441167  0.962982  1
  O  O17  1  0.817448  0.558955  0.462965  1
  O  O18  1  0.440891  0.182762  0.536629  1
  O  O19  1  0.559257  0.817440  0.037678  1
  O  O20  1  0.817448  0.558955  0.037035  1
  O  O21  1  0.182624  0.441167  0.537018  1
