# generated using pymatgen
data_CsK7Nb4V4(PO5)8
_symmetry_space_group_name_H-M   'P 1'
_cell_length_a   6.55366600
_cell_length_b   10.94595500
_cell_length_c   13.15462500
_cell_angle_alpha   90.00000000
_cell_angle_beta   90.00000000
_cell_angle_gamma   90.00000000
_symmetry_Int_Tables_number   1
_chemical_formula_structural   CsK7Nb4V4(PO5)8
_chemical_formula_sum   'Cs1 K7 Nb4 V4 P8 O40'
_cell_volume   943.66193016
_cell_formula_units_Z   1
loop_
 _symmetry_equiv_pos_site_id
 _symmetry_equiv_pos_as_xyz
  1  'x, y, z'
loop_
 _atom_site_type_symbol
 _atom_site_label
 _atom_site_symmetry_multiplicity
 _atom_site_fract_x
 _atom_site_fract_y
 _atom_site_fract_z
 _atom_site_occupancy
  Cs  Cs0  1  0.708410  0.324097  0.887622  1
  K  K1  1  0.278342  0.802368  0.126323  1
  K  K2  1  0.221187  0.803069  0.625482  1
  K  K3  1  0.779354  0.301832  0.374570  1
  K  K4  1  0.801650  0.064050  0.605787  1
  K  K5  1  0.195793  0.564721  0.394916  1
  K  K6  1  0.295477  0.568483  0.893378  1
  K  K7  1  0.695802  0.060004  0.105192  1
  Nb  Nb8  1  0.004371  0.001513  0.869760  1
  Nb  Nb9  1  0.997923  0.503450  0.133021  1
  Nb  Nb10  1  0.504292  0.504091  0.627546  1
  Nb  Nb11  1  0.494900  0.002851  0.369531  1
  V  V12  1  0.243536  0.250030  0.743724  1
  V  V13  1  0.753684  0.752290  0.254095  1
  V  V14  1  0.746689  0.750738  0.753619  1
  V  V15  1  0.255068  0.251254  0.246001  1
  P  P16  1  0.002426  0.506683  0.680094  1
  P  P17  1  0.999032  0.005587  0.316341  1
  P  P18  1  0.500152  0.003198  0.816281  1
  P  P19  1  0.500989  0.505384  0.184542  1
  P  P20  1  0.166055  0.251189  0.000348  1
  P  P21  1  0.835505  0.753661  0.001680  1
  P  P22  1  0.665082  0.756055  0.501301  1
  P  P23  1  0.335673  0.254355  0.497450  1
  O  O24  1  0.448094  0.379766  0.718094  1
  O  O25  1  0.540392  0.880481  0.274965  1
  O  O26  1  0.959833  0.879040  0.775444  1
  O  O27  1  0.043709  0.381911  0.228086  1
  O  O28  1  0.042244  0.372116  0.017497  1
  O  O29  1  0.970592  0.871298  0.990363  1
  O  O30  1  0.531578  0.874528  0.490499  1
  O  O31  1  0.467802  0.373434  0.507744  1
  O  O32  1  0.310321  0.229307  0.091425  1
  O  O33  1  0.699194  0.732248  0.907615  1
  O  O34  1  0.802044  0.735383  0.407464  1
  O  O35  1  0.198331  0.232440  0.591150  1
  O  O36  1  0.041703  0.393721  0.746455  1
  O  O37  1  0.962726  0.893161  0.248194  1
  O  O38  1  0.536206  0.890058  0.748549  1
  O  O39  1  0.464250  0.391815  0.251251  1
  O  O40  1  0.532769  0.625394  0.726357  1
  O  O41  1  0.469847  0.127801  0.274033  1
  O  O42  1  0.033977  0.125186  0.773518  1
  O  O43  1  0.971162  0.629578  0.227421  1
  O  O44  1  0.969001  0.617977  0.750626  1
  O  O45  1  0.032544  0.118548  0.248049  1
  O  O46  1  0.466201  0.115457  0.747669  1
  O  O47  1  0.534372  0.617538  0.253571  1
  O  O48  1  0.812385  0.482841  0.610520  1
  O  O49  1  0.187468  0.981587  0.387010  1
  O  O50  1  0.312662  0.979543  0.887617  1
  O  O51  1  0.690084  0.481749  0.114101  1
  O  O52  1  0.285227  0.269203  0.900166  1
  O  O53  1  0.700505  0.771005  0.097497  1
  O  O54  1  0.799519  0.771694  0.597328  1
  O  O55  1  0.200062  0.270030  0.401905  1
  O  O56  1  0.185974  0.535389  0.607790  1
  O  O57  1  0.813164  0.030818  0.387963  1
  O  O58  1  0.687129  0.027561  0.887702  1
  O  O59  1  0.315587  0.532317  0.112982  1
  O  O60  1  0.012982  0.142514  0.989072  1
  O  O61  1  0.986105  0.643639  0.015112  1
  O  O62  1  0.512311  0.647044  0.513498  1
  O  O63  1  0.488551  0.145532  0.485095  1
