# generated using pymatgen
data_TaNi6IO12
_symmetry_space_group_name_H-M   'P 1'
_cell_length_a   5.17472774
_cell_length_b   5.55421353
_cell_length_c   8.96038829
_cell_angle_alpha   105.52262144
_cell_angle_beta   90.03477892
_cell_angle_gamma   117.79134425
_symmetry_Int_Tables_number   1
_chemical_formula_structural   TaNi6IO12
_chemical_formula_sum   'Ta1 Ni6 I1 O12'
_cell_volume   217.13096089
_cell_formula_units_Z   1
loop_
 _symmetry_equiv_pos_site_id
 _symmetry_equiv_pos_as_xyz
  1  'x, y, z'
loop_
 _atom_site_type_symbol
 _atom_site_label
 _atom_site_symmetry_multiplicity
 _atom_site_fract_x
 _atom_site_fract_y
 _atom_site_fract_z
 _atom_site_occupancy
  Ta  Ta0  1  0.569474  0.142213  0.856547  1
  Ni  Ni1  1  0.267926  0.543820  0.758221  1
  Ni  Ni2  1  0.759150  0.508778  0.251602  1
  Ni  Ni3  1  0.839892  0.658126  0.618035  1
  Ni  Ni4  1  0.307067  0.641480  0.099271  1
  Ni  Ni5  1  0.016932  0.034037  0.997812  1
  Ni  Ni6  1  0.521671  0.041584  0.513598  1
  I  I7  1  0.057038  0.111700  0.351847  1
  O  O8  1  0.721286  0.850756  0.801511  1
  O  O9  1  0.218269  0.850117  0.309216  1
  O  O10  1  0.272889  0.853993  0.660646  1
  O  O11  1  0.777057  0.846656  0.163983  1
  O  O12  1  0.282211  0.855514  0.960049  1
  O  O13  1  0.781290  0.847121  0.454413  1
  O  O14  1  0.346605  0.351027  0.909321  1
  O  O15  1  0.842356  0.317985  0.398792  1
  O  O16  1  0.340092  0.325843  0.536697  1
  O  O17  1  0.859574  0.339014  0.049792  1
  O  O18  1  0.812014  0.345896  0.716110  1
  O  O19  1  0.301887  0.323702  0.224097  1
