# generated using pymatgen
data_Dy2HoCd3AgSn2
_symmetry_space_group_name_H-M   'P 1'
_cell_length_a   7.47584703
_cell_length_b   7.47584693
_cell_length_c   4.53502200
_cell_angle_alpha   90.00000000
_cell_angle_beta   90.00000000
_cell_angle_gamma   119.92690777
_symmetry_Int_Tables_number   1
_chemical_formula_structural   Dy2HoCd3AgSn2
_chemical_formula_sum   'Dy2 Ho1 Cd3 Ag1 Sn2'
_cell_volume   219.65962350
_cell_formula_units_Z   1
loop_
 _symmetry_equiv_pos_site_id
 _symmetry_equiv_pos_as_xyz
  1  'x, y, z'
loop_
 _atom_site_type_symbol
 _atom_site_label
 _atom_site_symmetry_multiplicity
 _atom_site_fract_x
 _atom_site_fract_y
 _atom_site_fract_z
 _atom_site_occupancy
  Dy  Dy0  1  0.585480  0.999769  0.000000  1
  Dy  Dy1  1  0.999769  0.585480  0.000000  1
  Ho  Ho2  1  0.413953  0.413953  0.000000  1
  Cd  Cd3  1  0.239369  0.999835  0.500000  1
  Cd  Cd4  1  0.999835  0.239369  0.500000  1
  Cd  Cd5  1  0.761004  0.761004  0.500000  1
  Ag  Ag6  1  0.000918  0.000918  0.000000  1
  Sn  Sn7  1  0.333613  0.666060  0.500000  1
  Sn  Sn8  1  0.666060  0.333613  0.500000  1
