# generated using pymatgen
data_Sc4Ga4Tc3W
_symmetry_space_group_name_H-M   'P 1'
_cell_length_a   5.34998900
_cell_length_b   5.31521302
_cell_length_c   8.50203700
_cell_angle_alpha   90.00000000
_cell_angle_beta   90.00000000
_cell_angle_gamma   120.28489678
_symmetry_Int_Tables_number   1
_chemical_formula_structural   Sc4Ga4Tc3W
_chemical_formula_sum   'Sc4 Ga4 Tc3 W1'
_cell_volume   208.77247362
_cell_formula_units_Z   1
loop_
 _symmetry_equiv_pos_site_id
 _symmetry_equiv_pos_as_xyz
  1  'x, y, z'
loop_
 _atom_site_type_symbol
 _atom_site_label
 _atom_site_symmetry_multiplicity
 _atom_site_fract_x
 _atom_site_fract_y
 _atom_site_fract_z
 _atom_site_occupancy
  Sc  Sc0  1  0.325798  0.664760  0.440833  1
  Sc  Sc1  1  0.659456  0.332604  0.560943  1
  Sc  Sc2  1  0.659456  0.332604  0.939057  1
  Sc  Sc3  1  0.325798  0.664760  0.059167  1
  Ga  Ga4  1  0.840520  0.647494  0.250000  1
  Ga  Ga5  1  0.341856  0.154980  0.250000  1
  Ga  Ga6  1  0.184266  0.841697  0.750000  1
  Ga  Ga7  1  0.195660  0.355636  0.750000  1
  Tc  Tc8  1  0.978054  0.002103  0.500784  1
  Tc  Tc9  1  0.978054  0.002103  0.999216  1
  Tc  Tc10  1  0.679140  0.851893  0.750000  1
  W  W11  1  0.831939  0.149369  0.250000  1
