# generated using pymatgen
data_U4Zn2NiIr5
_symmetry_space_group_name_H-M   'P 1'
_cell_length_a   5.46979245
_cell_length_b   5.46978035
_cell_length_c   7.88448600
_cell_angle_alpha   90.00000000
_cell_angle_beta   90.00000000
_cell_angle_gamma   118.73692265
_symmetry_Int_Tables_number   1
_chemical_formula_structural   U4Zn2NiIr5
_chemical_formula_sum   'U4 Zn2 Ni1 Ir5'
_cell_volume   206.83915178
_cell_formula_units_Z   1
loop_
 _symmetry_equiv_pos_site_id
 _symmetry_equiv_pos_as_xyz
  1  'x, y, z'
loop_
 _atom_site_type_symbol
 _atom_site_label
 _atom_site_symmetry_multiplicity
 _atom_site_fract_x
 _atom_site_fract_y
 _atom_site_fract_z
 _atom_site_occupancy
  U  U0  1  0.661004  0.338970  0.574015  1
  U  U1  1  0.335495  0.664529  0.428994  1
  U  U2  1  0.335495  0.664529  0.071006  1
  U  U3  1  0.661004  0.338970  0.925985  1
  Zn  Zn4  1  0.993865  0.006140  0.007096  1
  Zn  Zn5  1  0.993865  0.006140  0.492904  1
  Ni  Ni6  1  0.833333  0.166693  0.250000  1
  Ir  Ir7  1  0.166325  0.338403  0.750000  1
  Ir  Ir8  1  0.661561  0.833640  0.750000  1
  Ir  Ir9  1  0.167546  0.832396  0.750000  1
  Ir  Ir10  1  0.837911  0.647436  0.250000  1
  Ir  Ir11  1  0.352599  0.162157  0.250000  1
