# generated using pymatgen
data_Y20CdFeNiHg5
_symmetry_space_group_name_H-M   'P 1'
_cell_length_a   9.67021357
_cell_length_b   9.66447264
_cell_length_c   9.62148000
_cell_angle_alpha   90.00000000
_cell_angle_beta   90.00000000
_cell_angle_gamma   119.98035653
_symmetry_Int_Tables_number   1
_chemical_formula_structural   Y20CdFeNiHg5
_chemical_formula_sum   'Y20 Cd1 Fe1 Ni1 Hg5'
_cell_volume   778.88379812
_cell_formula_units_Z   1
loop_
 _symmetry_equiv_pos_site_id
 _symmetry_equiv_pos_as_xyz
  1  'x, y, z'
loop_
 _atom_site_type_symbol
 _atom_site_label
 _atom_site_symmetry_multiplicity
 _atom_site_fract_x
 _atom_site_fract_y
 _atom_site_fract_z
 _atom_site_occupancy
  Y  Y0  1  0.002394  0.001197  0.496508  1
  Y  Y1  1  0.002394  0.001197  0.003492  1
  Y  Y2  1  0.541486  0.458609  0.250000  1
  Y  Y3  1  0.541486  0.082877  0.250000  1
  Y  Y4  1  0.917207  0.458604  0.250000  1
  Y  Y5  1  0.454019  0.540947  0.750000  1
  Y  Y6  1  0.454019  0.913072  0.750000  1
  Y  Y7  1  0.086413  0.543207  0.750000  1
  Y  Y8  1  0.211459  0.788417  0.435070  1
  Y  Y9  1  0.211459  0.423044  0.435070  1
  Y  Y10  1  0.576977  0.788490  0.435772  1
  Y  Y11  1  0.789841  0.209525  0.563187  1
  Y  Y12  1  0.789841  0.580315  0.563187  1
  Y  Y13  1  0.419787  0.209893  0.563269  1
  Y  Y14  1  0.789841  0.209525  0.936813  1
  Y  Y15  1  0.789841  0.580315  0.936813  1
  Y  Y16  1  0.419787  0.209893  0.936731  1
  Y  Y17  1  0.211459  0.788417  0.064930  1
  Y  Y18  1  0.211459  0.423044  0.064930  1
  Y  Y19  1  0.576977  0.788490  0.064228  1
  Cd  Cd20  1  0.766799  0.883399  0.750000  1
  Fe  Fe21  1  0.333368  0.666685  0.250000  1
  Ni  Ni22  1  0.666329  0.333164  0.750000  1
  Hg  Hg23  1  0.880742  0.120222  0.250000  1
  Hg  Hg24  1  0.880742  0.760520  0.250000  1
  Hg  Hg25  1  0.239966  0.119983  0.250000  1
  Hg  Hg26  1  0.116952  0.880830  0.750000  1
  Hg  Hg27  1  0.116952  0.236121  0.750000  1
