# generated using pymatgen
data_Hf4Zr6Ga2(SnBi)3
_symmetry_space_group_name_H-M   'P 1'
_cell_length_a   8.79397311
_cell_length_b   8.76978529
_cell_length_c   5.89235400
_cell_angle_alpha   90.00000000
_cell_angle_beta   90.00000000
_cell_angle_gamma   119.97185679
_symmetry_Int_Tables_number   1
_chemical_formula_structural   Hf4Zr6Ga2(SnBi)3
_chemical_formula_sum   'Hf4 Zr6 Ga2 Sn3 Bi3'
_cell_volume   393.65579368
_cell_formula_units_Z   1
loop_
 _symmetry_equiv_pos_site_id
 _symmetry_equiv_pos_as_xyz
  1  'x, y, z'
loop_
 _atom_site_type_symbol
 _atom_site_label
 _atom_site_symmetry_multiplicity
 _atom_site_fract_x
 _atom_site_fract_y
 _atom_site_fract_z
 _atom_site_occupancy
  Hf  Hf0  1  0.672185  0.338692  0.502023  1
  Hf  Hf1  1  0.329897  0.663370  0.998086  1
  Hf  Hf2  1  0.672185  0.338692  0.997977  1
  Hf  Hf3  1  0.329897  0.663370  0.501914  1
  Zr  Zr4  1  0.000837  0.267850  0.250000  1
  Zr  Zr5  1  0.735872  0.000190  0.750000  1
  Zr  Zr6  1  0.738982  0.732693  0.250000  1
  Zr  Zr7  1  0.993600  0.728270  0.750000  1
  Zr  Zr8  1  0.264273  0.270566  0.750000  1
  Zr  Zr9  1  0.261165  0.995189  0.250000  1
  Ga  Ga10  1  0.000182  0.000231  0.998023  1
  Ga  Ga11  1  0.000182  0.000231  0.501977  1
  Sn  Sn12  1  0.001140  0.608900  0.250000  1
  Sn  Sn13  1  0.999327  0.389892  0.750000  1
  Sn  Sn14  1  0.610714  0.611971  0.750000  1
  Bi  Bi15  1  0.610978  0.999316  0.250000  1
  Bi  Bi16  1  0.387711  0.000954  0.750000  1
  Bi  Bi17  1  0.390876  0.389621  0.250000  1
