# generated using pymatgen
data_Bi3Sb9O26
_symmetry_space_group_name_H-M   'P 1'
_cell_length_a   7.46103600
_cell_length_b   7.41500675
_cell_length_c   10.37494826
_cell_angle_alpha   88.97935938
_cell_angle_beta   90.00000000
_cell_angle_gamma   90.00000000
_symmetry_Int_Tables_number   1
_chemical_formula_structural   Bi3Sb9O26
_chemical_formula_sum   'Bi3 Sb9 O26'
_cell_volume   573.88875690
_cell_formula_units_Z   1
loop_
 _symmetry_equiv_pos_site_id
 _symmetry_equiv_pos_as_xyz
  1  'x, y, z'
loop_
 _atom_site_type_symbol
 _atom_site_label
 _atom_site_symmetry_multiplicity
 _atom_site_fract_x
 _atom_site_fract_y
 _atom_site_fract_z
 _atom_site_occupancy
  Bi  Bi0  1  0.250000  0.756587  0.740601  1
  Bi  Bi1  1  0.500486  0.492744  0.004038  1
  Bi  Bi2  1  0.999514  0.492744  0.004038  1
  Sb  Sb3  1  0.750000  0.265023  0.287404  1
  Sb  Sb4  1  0.501332  0.998656  0.998305  1
  Sb  Sb5  1  0.750000  0.760168  0.742531  1
  Sb  Sb6  1  0.250000  0.750778  0.253966  1
  Sb  Sb7  1  0.496176  0.502860  0.500913  1
  Sb  Sb8  1  0.003824  0.502860  0.500913  1
  Sb  Sb9  1  0.750000  0.253499  0.744197  1
  Sb  Sb10  1  0.250000  0.239335  0.253838  1
  Sb  Sb11  1  0.998668  0.998656  0.998305  1
  O  O12  1  0.449857  0.688755  0.369457  1
  O  O13  1  0.750000  0.443855  0.145948  1
  O  O14  1  0.250000  0.492302  0.167528  1
  O  O15  1  0.454960  0.309186  0.366538  1
  O  O16  1  0.558360  0.211587  0.882369  1
  O  O17  1  0.941640  0.211587  0.882369  1
  O  O18  1  0.442963  0.198236  0.120807  1
  O  O19  1  0.750000  0.989527  0.067385  1
  O  O20  1  0.250000  0.991525  0.921033  1
  O  O21  1  0.750000  0.007152  0.680626  1
  O  O22  1  0.546684  0.801895  0.868965  1
  O  O23  1  0.953316  0.801895  0.868965  1
  O  O24  1  0.440841  0.790983  0.116382  1
  O  O25  1  0.050143  0.688755  0.369457  1
  O  O26  1  0.547949  0.697933  0.627563  1
  O  O27  1  0.952051  0.697933  0.627563  1
  O  O28  1  0.250000  0.517820  0.577127  1
  O  O29  1  0.750000  0.508722  0.830514  1
  O  O30  1  0.750000  0.477830  0.424238  1
  O  O31  1  0.045040  0.309186  0.366538  1
  O  O32  1  0.550511  0.312148  0.627289  1
  O  O33  1  0.949489  0.312148  0.627289  1
  O  O34  1  0.057037  0.198236  0.120807  1
  O  O35  1  0.250000  0.995918  0.321402  1
  O  O36  1  0.059159  0.790983  0.116382  1
  O  O37  1  0.250000  0.539996  0.876408  1
