# generated using pymatgen
data_Hf3UN4
_symmetry_space_group_name_H-M   'P 1'
_cell_length_a   11.05922427
_cell_length_b   11.05922361
_cell_length_c   11.05922378
_cell_angle_alpha   16.73014881
_cell_angle_beta   16.73014345
_cell_angle_gamma   16.73013644
_symmetry_Int_Tables_number   1
_chemical_formula_structural   Hf3UN4
_chemical_formula_sum   'Hf3 U1 N4'
_cell_volume   97.75857305
_cell_formula_units_Z   1
loop_
 _symmetry_equiv_pos_site_id
 _symmetry_equiv_pos_as_xyz
  1  'x, y, z'
loop_
 _atom_site_type_symbol
 _atom_site_label
 _atom_site_symmetry_multiplicity
 _atom_site_fract_x
 _atom_site_fract_y
 _atom_site_fract_z
 _atom_site_occupancy
  Hf  Hf0  1  0.122804  0.122804  0.122804  1
  Hf  Hf1  1  0.375036  0.375036  0.375036  1
  Hf  Hf2  1  0.627172  0.627172  0.627172  1
  U  U3  1  0.874952  0.874952  0.874952  1
  N  N4  1  0.002417  0.002417  0.002417  1
  N  N5  1  0.256918  0.256918  0.256918  1
  N  N6  1  0.493054  0.493054  0.493054  1
  N  N7  1  0.747646  0.747646  0.747646  1
