# generated using pymatgen
data_Lu4AlGa5Ru2
_symmetry_space_group_name_H-M   'P 1'
_cell_length_a   5.40432700
_cell_length_b   5.37780363
_cell_length_c   8.69107000
_cell_angle_alpha   90.00000000
_cell_angle_beta   90.00000000
_cell_angle_gamma   120.16327788
_symmetry_Int_Tables_number   1
_chemical_formula_structural   Lu4AlGa5Ru2
_chemical_formula_sum   'Lu4 Al1 Ga5 Ru2'
_cell_volume   218.39039904
_cell_formula_units_Z   1
loop_
 _symmetry_equiv_pos_site_id
 _symmetry_equiv_pos_as_xyz
  1  'x, y, z'
loop_
 _atom_site_type_symbol
 _atom_site_label
 _atom_site_symmetry_multiplicity
 _atom_site_fract_x
 _atom_site_fract_y
 _atom_site_fract_z
 _atom_site_occupancy
  Lu  Lu0  1  0.667031  0.334061  0.053148  1
  Lu  Lu1  1  0.667031  0.334061  0.446852  1
  Lu  Lu2  1  0.334094  0.668187  0.554015  1
  Lu  Lu3  1  0.334094  0.668187  0.945986  1
  Al  Al4  1  0.160323  0.320645  0.250000  1
  Ga  Ga5  1  0.161836  0.826447  0.250000  1
  Ga  Ga6  1  0.664611  0.826447  0.250000  1
  Ga  Ga7  1  0.332810  0.167396  0.750000  1
  Ga  Ga8  1  0.834585  0.167396  0.750000  1
  Ga  Ga9  1  0.835176  0.670351  0.750000  1
  Ru  Ru10  1  0.004205  0.008411  0.000366  1
  Ru  Ru11  1  0.004205  0.008411  0.499634  1
