# generated using pymatgen
data_Yb3Eu3Ag2Ru
_symmetry_space_group_name_H-M   'P 1'
_cell_length_a   8.22729200
_cell_length_b   8.22729174
_cell_length_c   4.39342300
_cell_angle_alpha   90.00000000
_cell_angle_beta   90.00000000
_cell_angle_gamma   120.00000908
_symmetry_Int_Tables_number   1
_chemical_formula_structural   Yb3Eu3Ag2Ru
_chemical_formula_sum   'Yb3 Eu3 Ag2 Ru1'
_cell_volume   257.54161832
_cell_formula_units_Z   1
loop_
 _symmetry_equiv_pos_site_id
 _symmetry_equiv_pos_as_xyz
  1  'x, y, z'
loop_
 _atom_site_type_symbol
 _atom_site_label
 _atom_site_symmetry_multiplicity
 _atom_site_fract_x
 _atom_site_fract_y
 _atom_site_fract_z
 _atom_site_occupancy
  Yb  Yb0  1  0.762783  0.000000  0.000000  1
  Yb  Yb1  1  0.237218  0.237217  0.000000  1
  Yb  Yb2  1  0.000000  0.762783  0.000000  1
  Eu  Eu3  1  0.395234  0.000000  0.500001  1
  Eu  Eu4  1  0.000000  0.395234  0.500001  1
  Eu  Eu5  1  0.604766  0.604766  0.500001  1
  Ag  Ag6  1  0.666667  0.333333  0.000000  1
  Ag  Ag7  1  0.333333  0.666666  0.000000  1
  Ru  Ru8  1  0.000000  0.000000  0.500001  1
