# generated using pymatgen
data_Hf4Ta3Si4Tc
_symmetry_space_group_name_H-M   'P 1'
_cell_length_a   3.56144100
_cell_length_b   6.97938950
_cell_length_c   8.34745640
_cell_angle_alpha   90.02862670
_cell_angle_beta   90.00000000
_cell_angle_gamma   90.00000000
_symmetry_Int_Tables_number   1
_chemical_formula_structural   Hf4Ta3Si4Tc
_chemical_formula_sum   'Hf4 Ta3 Si4 Tc1'
_cell_volume   207.49005922
_cell_formula_units_Z   1
loop_
 _symmetry_equiv_pos_site_id
 _symmetry_equiv_pos_as_xyz
  1  'x, y, z'
loop_
 _atom_site_type_symbol
 _atom_site_label
 _atom_site_symmetry_multiplicity
 _atom_site_fract_x
 _atom_site_fract_y
 _atom_site_fract_z
 _atom_site_occupancy
  Hf  Hf0  1  0.250000  0.540038  0.169868  1
  Hf  Hf1  1  0.250000  0.040918  0.333174  1
  Hf  Hf2  1  0.750000  0.459712  0.832389  1
  Hf  Hf3  1  0.750000  0.957789  0.664947  1
  Ta  Ta4  1  0.250000  0.132629  0.937143  1
  Ta  Ta5  1  0.750000  0.370287  0.439934  1
  Ta  Ta6  1  0.750000  0.861688  0.061218  1
  Si  Si7  1  0.250000  0.754491  0.854220  1
  Si  Si8  1  0.250000  0.259451  0.640912  1
  Si  Si9  1  0.750000  0.243470  0.140861  1
  Si  Si10  1  0.750000  0.743522  0.365420  1
  Tc  Tc11  1  0.250000  0.636007  0.559915  1
