# generated using pymatgen
data_Tb11In9Co3Ir
_symmetry_space_group_name_H-M   'P 1'
_cell_length_a   3.70104000
_cell_length_b   13.01654206
_cell_length_c   13.05245100
_cell_angle_alpha   111.76125369
_cell_angle_beta   90.00000000
_cell_angle_gamma   90.00000000
_symmetry_Int_Tables_number   1
_chemical_formula_structural   Tb11In9Co3Ir
_chemical_formula_sum   'Tb11 In9 Co3 Ir1'
_cell_volume   583.98824909
_cell_formula_units_Z   1
loop_
 _symmetry_equiv_pos_site_id
 _symmetry_equiv_pos_as_xyz
  1  'x, y, z'
loop_
 _atom_site_type_symbol
 _atom_site_label
 _atom_site_symmetry_multiplicity
 _atom_site_fract_x
 _atom_site_fract_y
 _atom_site_fract_z
 _atom_site_occupancy
  Tb  Tb0  1  0.000000  0.916280  0.579719  1
  Tb  Tb1  1  0.000000  0.083235  0.420556  1
  Tb  Tb2  1  0.000000  0.579733  0.915098  1
  Tb  Tb3  1  0.000000  0.419461  0.079987  1
  Tb  Tb4  1  0.000000  0.161477  0.838304  1
  Tb  Tb5  1  0.000000  0.839264  0.161147  1
  Tb  Tb6  1  0.000000  0.374113  0.625426  1
  Tb  Tb7  1  0.000000  0.626919  0.377064  1
  Tb  Tb8  1  0.000000  0.685429  0.685279  1
  Tb  Tb9  1  0.000000  0.313710  0.316707  1
  Tb  Tb10  1  0.000000  0.999629  0.000161  1
  In  In11  1  0.500000  0.159776  0.630654  1
  In  In12  1  0.500000  0.840783  0.369254  1
  In  In13  1  0.500000  0.633096  0.158270  1
  In  In14  1  0.500000  0.369306  0.837537  1
  In  In15  1  0.500000  0.921374  0.778698  1
  In  In16  1  0.500000  0.078168  0.221252  1
  In  In17  1  0.500000  0.778504  0.919689  1
  In  In18  1  0.500000  0.218374  0.076946  1
  In  In19  1  0.500000  0.500300  0.503410  1
  Co  Co20  1  0.500000  0.754453  0.549945  1
  Co  Co21  1  0.500000  0.244642  0.450753  1
  Co  Co22  1  0.500000  0.550125  0.753947  1
  Ir  Ir23  1  0.500000  0.451848  0.250197  1
