# generated using pymatgen
data_Th2CdAg3
_symmetry_space_group_name_H-M   'P 1'
_cell_length_a   4.97884900
_cell_length_b   4.97884900
_cell_length_c   6.67836800
_cell_angle_alpha   90.00000000
_cell_angle_beta   90.00000000
_cell_angle_gamma   119.99999338
_symmetry_Int_Tables_number   1
_chemical_formula_structural   Th2CdAg3
_chemical_formula_sum   'Th2 Cd1 Ag3'
_cell_volume   143.37020852
_cell_formula_units_Z   1
loop_
 _symmetry_equiv_pos_site_id
 _symmetry_equiv_pos_as_xyz
  1  'x, y, z'
loop_
 _atom_site_type_symbol
 _atom_site_label
 _atom_site_symmetry_multiplicity
 _atom_site_fract_x
 _atom_site_fract_y
 _atom_site_fract_z
 _atom_site_occupancy
  Th  Th0  1  0.000000  0.000000  0.242966  1
  Th  Th1  1  0.000000  0.000000  0.756673  1
  Cd  Cd2  1  0.333333  0.666667  0.497924  1
  Ag  Ag3  1  0.333333  0.666667  0.999921  1
  Ag  Ag4  1  0.666667  0.333333  0.504442  1
  Ag  Ag5  1  0.666667  0.333333  0.998074  1
