# generated using pymatgen
data_PrGd5RhBr10
_symmetry_space_group_name_H-M   'P 1'
_cell_length_a   7.57743390
_cell_length_b   9.42547818
_cell_length_c   9.52719900
_cell_angle_alpha   108.63184114
_cell_angle_beta   96.80111755
_cell_angle_gamma   105.84037826
_symmetry_Int_Tables_number   1
_chemical_formula_structural   PrGd5RhBr10
_chemical_formula_sum   'Pr1 Gd5 Rh1 Br10'
_cell_volume   604.30861372
_cell_formula_units_Z   1
loop_
 _symmetry_equiv_pos_site_id
 _symmetry_equiv_pos_as_xyz
  1  'x, y, z'
loop_
 _atom_site_type_symbol
 _atom_site_label
 _atom_site_symmetry_multiplicity
 _atom_site_fract_x
 _atom_site_fract_y
 _atom_site_fract_z
 _atom_site_occupancy
  Pr  Pr0  1  0.970898  0.296738  0.093552  1
  Gd  Gd1  1  0.128428  0.048988  0.752129  1
  Gd  Gd2  1  0.634827  0.859456  0.815759  1
  Gd  Gd3  1  0.870507  0.949744  0.247642  1
  Gd  Gd4  1  0.029442  0.707943  0.906832  1
  Gd  Gd5  1  0.365345  0.138015  0.184379  1
  Rh  Rh6  1  0.999020  0.999505  0.999330  1
  Br  Br7  1  0.212728  0.747124  0.655865  1
  Br  Br8  1  0.650335  0.546823  0.728546  1
  Br  Br9  1  0.244325  0.081412  0.455021  1
  Br  Br10  1  0.781785  0.248579  0.348917  1
  Br  Br11  1  0.544409  0.171001  0.916385  1
  Br  Br12  1  0.753580  0.918099  0.546532  1
  Br  Br13  1  0.911224  0.635387  0.168007  1
  Br  Br14  1  0.363638  0.454201  0.274597  1
  Br  Br15  1  0.090589  0.371683  0.827054  1
  Br  Br16  1  0.448920  0.825302  0.079453  1
