# generated using pymatgen
data_Gd5YOsO12
_symmetry_space_group_name_H-M   'P 1'
_cell_length_a   6.53449739
_cell_length_b   6.55028340
_cell_length_c   6.58918400
_cell_angle_alpha   98.82708954
_cell_angle_beta   98.56321495
_cell_angle_gamma   98.54297198
_symmetry_Int_Tables_number   1
_chemical_formula_structural   Gd5YOsO12
_chemical_formula_sum   'Gd5 Y1 Os1 O12'
_cell_volume   271.31542210
_cell_formula_units_Z   1
loop_
 _symmetry_equiv_pos_site_id
 _symmetry_equiv_pos_as_xyz
  1  'x, y, z'
loop_
 _atom_site_type_symbol
 _atom_site_label
 _atom_site_symmetry_multiplicity
 _atom_site_fract_x
 _atom_site_fract_y
 _atom_site_fract_z
 _atom_site_occupancy
  Gd  Gd0  1  0.611467  0.311950  0.143102  1
  Gd  Gd1  1  0.307117  0.141703  0.607059  1
  Gd  Gd2  1  0.694130  0.859009  0.394138  1
  Gd  Gd3  1  0.389539  0.686902  0.857123  1
  Gd  Gd4  1  0.145351  0.611324  0.315315  1
  Y  Y5  1  0.853614  0.387719  0.684150  1
  Os  Os6  1  0.999618  0.999747  0.998867  1
  O  O7  1  0.929343  0.041945  0.702582  1
  O  O8  1  0.968858  0.292267  0.070428  1
  O  O9  1  0.591080  0.177868  0.433554  1
  O  O10  1  0.822165  0.561920  0.409023  1
  O  O11  1  0.290940  0.072158  0.966735  1
  O  O12  1  0.567328  0.408622  0.822806  1
  O  O13  1  0.435579  0.591448  0.176985  1
  O  O14  1  0.708671  0.928118  0.033121  1
  O  O15  1  0.175561  0.436917  0.595968  1
  O  O16  1  0.410928  0.822481  0.568150  1
  O  O17  1  0.027898  0.707392  0.924876  1
  O  O18  1  0.070812  0.960507  0.296020  1
