# generated using pymatgen
data_Nd9Er3Cr8(GaO4)12
_symmetry_space_group_name_H-M   'P 1'
_cell_length_a   10.89639078
_cell_length_b   10.89888384
_cell_length_c   10.89638600
_cell_angle_alpha   109.47596984
_cell_angle_beta   109.46675191
_cell_angle_gamma   109.47585666
_symmetry_Int_Tables_number   1
_chemical_formula_structural   Nd9Er3Cr8(GaO4)12
_chemical_formula_sum   'Nd9 Er3 Cr8 Ga12 O48'
_cell_volume   996.09079249
_cell_formula_units_Z   1
loop_
 _symmetry_equiv_pos_site_id
 _symmetry_equiv_pos_as_xyz
  1  'x, y, z'
loop_
 _atom_site_type_symbol
 _atom_site_label
 _atom_site_symmetry_multiplicity
 _atom_site_fract_x
 _atom_site_fract_y
 _atom_site_fract_z
 _atom_site_occupancy
  Nd  Nd0  1  0.874956  0.624951  0.249902  1
  Nd  Nd1  1  0.126401  0.249983  0.373580  1
  Nd  Nd2  1  0.747162  0.123567  0.373586  1
  Nd  Nd3  1  0.874930  0.749976  0.625025  1
  Nd  Nd4  1  0.250094  0.875028  0.625040  1
  Nd  Nd5  1  0.624877  0.874864  0.749755  1
  Nd  Nd6  1  0.126410  0.376414  0.752829  1
  Nd  Nd7  1  0.624876  0.250017  0.875139  1
  Nd  Nd8  1  0.750234  0.625129  0.875124  1
  Er  Er9  1  0.250370  0.375181  0.125207  1
  Er  Er10  1  0.374849  0.750028  0.125179  1
  Er  Er11  1  0.374826  0.124783  0.249634  1
  Cr  Cr12  1  0.003912  0.002986  0.002036  1
  Cr  Cr13  1  0.498174  0.999096  0.002060  1
  Cr  Cr14  1  0.003869  0.500910  0.001822  1
  Cr  Cr15  1  0.497951  0.500936  0.001869  1
  Cr  Cr16  1  0.000010  0.000554  0.500012  1
  Cr  Cr17  1  0.497936  0.497020  0.496110  1
  Cr  Cr18  1  0.498181  0.999088  0.496117  1
  Cr  Cr19  1  0.999975  0.499430  0.499977  1
  Ga  Ga20  1  0.876808  0.250458  0.124447  1
  Ga  Ga21  1  0.747667  0.874026  0.124465  1
  Ga  Ga22  1  0.621211  0.372965  0.249327  1
  Ga  Ga23  1  0.128109  0.876357  0.249324  1
  Ga  Ga24  1  0.250669  0.623653  0.371887  1
  Ga  Ga25  1  0.621233  0.748271  0.371920  1
  Ga  Ga26  1  0.375560  0.249558  0.623205  1
  Ga  Ga27  1  0.747640  0.373645  0.623184  1
  Ga  Ga28  1  0.876810  0.126362  0.752346  1
  Ga  Ga29  1  0.375537  0.625997  0.752351  1
  Ga  Ga30  1  0.250692  0.127039  0.878778  1
  Ga  Ga31  1  0.128110  0.751749  0.878768  1
  O  O32  1  0.323196  0.904654  0.032091  1
  O  O33  1  0.208917  0.127449  0.032097  1
  O  O34  1  0.702198  0.678555  0.083760  1
  O  O35  1  0.881551  0.405205  0.083752  1
  O  O36  1  0.618179  0.416310  0.096159  1
  O  O37  1  0.977969  0.679862  0.096166  1
  O  O38  1  0.590400  0.911208  0.118976  1
  O  O39  1  0.028593  0.207781  0.118978  1
  O  O40  1  0.467906  0.595345  0.176815  1
  O  O41  1  0.208883  0.581443  0.176782  1
  O  O42  1  0.575144  0.176236  0.204298  1
  O  O43  1  0.129142  0.028057  0.204272  1
  O  O44  1  0.467901  0.372563  0.291105  1
  O  O45  1  0.323208  0.918547  0.291113  1
  O  O46  1  0.915131  0.295786  0.319640  1
  O  O47  1  0.904518  0.023838  0.319665  1
  O  O48  1  0.575135  0.898910  0.370850  1
  O  O49  1  0.295709  0.471941  0.370844  1
  O  O50  1  0.084762  0.881495  0.403723  1
  O  O51  1  0.818948  0.522211  0.403699  1
  O  O52  1  0.096287  0.618485  0.415237  1
  O  O53  1  0.818967  0.796739  0.415256  1
  O  O54  1  0.590398  0.179188  0.471419  1
  O  O55  1  0.381007  0.292211  0.471407  1
  O  O56  1  0.403831  0.820132  0.522027  1
  O  O57  1  0.618170  0.701867  0.522025  1
  O  O58  1  0.904514  0.380673  0.584867  1
  O  O59  1  0.180359  0.204193  0.584861  1
  O  O60  1  0.915135  0.119322  0.595479  1
  O  O61  1  0.180343  0.476148  0.595483  1
  O  O62  1  0.416255  0.094806  0.618459  1
  O  O63  1  0.702176  0.523638  0.618445  1
  O  O64  1  0.084735  0.703243  0.681020  1
  O  O65  1  0.096303  0.977794  0.681053  1
  O  O66  1  0.679421  0.083601  0.701501  1
  O  O67  1  0.522054  0.617871  0.701479  1
  O  O68  1  0.416250  0.821448  0.797800  1
  O  O69  1  0.881563  0.976358  0.797779  1
  O  O70  1  0.522067  0.404196  0.820615  1
  O  O71  1  0.798503  0.416403  0.820589  1
  O  O72  1  0.403832  0.083694  0.881812  1
  O  O73  1  0.977991  0.798130  0.881807  1
  O  O74  1  0.381026  0.588801  0.909626  1
  O  O75  1  0.028573  0.320811  0.909594  1
  O  O76  1  0.295723  0.323794  0.924881  1
  O  O77  1  0.129141  0.601090  0.924852  1
  O  O78  1  0.679417  0.095826  0.977927  1
  O  O79  1  0.798524  0.882116  0.977907  1
