# generated using pymatgen
data_SmP2Ru2Pt
_symmetry_space_group_name_H-M   'P 1'
_cell_length_a   3.99638000
_cell_length_b   11.29837100
_cell_length_c   12.64213200
_cell_angle_alpha   90.00000000
_cell_angle_beta   90.00000000
_cell_angle_gamma   90.00000000
_symmetry_Int_Tables_number   1
_chemical_formula_structural   SmP2Ru2Pt
_chemical_formula_sum   'Sm6 P12 Ru12 Pt6'
_cell_volume   570.82492577
_cell_formula_units_Z   6
loop_
 _symmetry_equiv_pos_site_id
 _symmetry_equiv_pos_as_xyz
  1  'x, y, z'
loop_
 _atom_site_type_symbol
 _atom_site_label
 _atom_site_symmetry_multiplicity
 _atom_site_fract_x
 _atom_site_fract_y
 _atom_site_fract_z
 _atom_site_occupancy
  Sm  Sm0  1  0.000000  0.500000  0.518467  1
  Sm  Sm1  1  0.500000  0.000000  0.481533  1
  Sm  Sm2  1  0.500000  0.819294  0.201510  1
  Sm  Sm3  1  0.500000  0.180706  0.201510  1
  Sm  Sm4  1  0.000000  0.680706  0.798490  1
  Sm  Sm5  1  0.000000  0.319294  0.798490  1
  P  P6  1  0.500000  0.500000  0.888822  1
  P  P7  1  0.000000  0.000000  0.111178  1
  P  P8  1  0.500000  0.500000  0.350883  1
  P  P9  1  0.000000  0.000000  0.649117  1
  P  P10  1  0.500000  0.311747  0.611060  1
  P  P11  1  0.500000  0.688253  0.611060  1
  P  P12  1  0.000000  0.188253  0.388940  1
  P  P13  1  0.000000  0.811747  0.388940  1
  P  P14  1  0.500000  0.839991  0.902059  1
  P  P15  1  0.500000  0.160009  0.902059  1
  P  P16  1  0.000000  0.660009  0.097941  1
  P  P17  1  0.000000  0.339991  0.097941  1
  Ru  Ru18  1  0.500000  0.500000  0.164970  1
  Ru  Ru19  1  0.000000  0.000000  0.835030  1
  Ru  Ru20  1  0.000000  0.500000  0.991313  1
  Ru  Ru21  1  0.500000  0.000000  0.008687  1
  Ru  Ru22  1  0.500000  0.334673  0.995239  1
  Ru  Ru23  1  0.500000  0.665327  0.995239  1
  Ru  Ru24  1  0.000000  0.165327  0.004761  1
  Ru  Ru25  1  0.000000  0.834673  0.004761  1
  Ru  Ru26  1  0.500000  0.294450  0.426334  1
  Ru  Ru27  1  0.500000  0.705550  0.426334  1
  Ru  Ru28  1  0.000000  0.205550  0.573666  1
  Ru  Ru29  1  0.000000  0.794450  0.573666  1
  Pt  Pt30  1  0.500000  0.500000  0.700438  1
  Pt  Pt31  1  0.000000  0.000000  0.299562  1
  Pt  Pt32  1  0.500000  0.871403  0.717708  1
  Pt  Pt33  1  0.500000  0.128597  0.717708  1
  Pt  Pt34  1  0.000000  0.628597  0.282292  1
  Pt  Pt35  1  0.000000  0.371403  0.282292  1
