# generated using pymatgen
data_Tm5Lu7Tc3Os
_symmetry_space_group_name_H-M   'P 1'
_cell_length_a   7.35632419
_cell_length_b   8.87780048
_cell_length_c   6.15378493
_cell_angle_alpha   89.96558009
_cell_angle_beta   89.95249156
_cell_angle_gamma   90.01541219
_symmetry_Int_Tables_number   1
_chemical_formula_structural   Tm5Lu7Tc3Os
_chemical_formula_sum   'Tm5 Lu7 Tc3 Os1'
_cell_volume   401.89102807
_cell_formula_units_Z   1
loop_
 _symmetry_equiv_pos_site_id
 _symmetry_equiv_pos_as_xyz
  1  'x, y, z'
loop_
 _atom_site_type_symbol
 _atom_site_label
 _atom_site_symmetry_multiplicity
 _atom_site_fract_x
 _atom_site_fract_y
 _atom_site_fract_z
 _atom_site_occupancy
  Tm  Tm0  1  0.041997  0.249831  0.627554  1
  Tm  Tm1  1  0.959000  0.750153  0.375465  1
  Tm  Tm2  1  0.461227  0.750182  0.125693  1
  Tm  Tm3  1  0.539558  0.249801  0.875626  1
  Tm  Tm4  1  0.324563  0.562103  0.656345  1
  Lu  Lu5  1  0.173296  0.062693  0.158590  1
  Lu  Lu6  1  0.825825  0.939031  0.840629  1
  Lu  Lu7  1  0.324832  0.938165  0.656429  1
  Lu  Lu8  1  0.825803  0.560976  0.840700  1
  Lu  Lu9  1  0.676259  0.063065  0.341224  1
  Lu  Lu10  1  0.173156  0.437172  0.158750  1
  Lu  Lu11  1  0.676521  0.436852  0.340935  1
  Tc  Tc12  1  0.383018  0.249541  0.457448  1
  Tc  Tc13  1  0.617420  0.750171  0.543430  1
  Tc  Tc14  1  0.115902  0.750284  0.959817  1
  Os  Os15  1  0.881624  0.249980  0.041364  1
