# generated using pymatgen
data_PrDy(PPt)2
_symmetry_space_group_name_H-M   'P 1'
_cell_length_a   4.15098600
_cell_length_b   4.15098608
_cell_length_c   16.20109800
_cell_angle_alpha   90.00000000
_cell_angle_beta   90.00000000
_cell_angle_gamma   119.99998340
_symmetry_Int_Tables_number   1
_chemical_formula_structural   PrDy(PPt)2
_chemical_formula_sum   'Pr2 Dy2 P4 Pt4'
_cell_volume   241.75624381
_cell_formula_units_Z   2
loop_
 _symmetry_equiv_pos_site_id
 _symmetry_equiv_pos_as_xyz
  1  'x, y, z'
loop_
 _atom_site_type_symbol
 _atom_site_label
 _atom_site_symmetry_multiplicity
 _atom_site_fract_x
 _atom_site_fract_y
 _atom_site_fract_z
 _atom_site_occupancy
  Pr  Pr0  1  0.000000  0.000000  0.500000  1
  Pr  Pr1  1  0.000000  0.000000  0.000000  1
  Dy  Dy2  1  0.000000  0.000000  0.250000  1
  Dy  Dy3  1  0.000000  0.000000  0.750000  1
  P  P4  1  0.333333  0.666667  0.876531  1
  P  P5  1  0.666667  0.333333  0.123469  1
  P  P6  1  0.666667  0.333333  0.376531  1
  P  P7  1  0.333333  0.666667  0.623469  1
  Pt  Pt8  1  0.333333  0.666667  0.363548  1
  Pt  Pt9  1  0.666667  0.333333  0.636452  1
  Pt  Pt10  1  0.666667  0.333333  0.863548  1
  Pt  Pt11  1  0.333333  0.666667  0.136452  1
