# generated using pymatgen
data_Tm3NbIn2Ir3
_symmetry_space_group_name_H-M   'P 1'
_cell_length_a   7.28824909
_cell_length_b   7.01914073
_cell_length_c   4.23148900
_cell_angle_alpha   90.00000000
_cell_angle_beta   90.00000000
_cell_angle_gamma   118.79761579
_symmetry_Int_Tables_number   1
_chemical_formula_structural   Tm3NbIn2Ir3
_chemical_formula_sum   'Tm3 Nb1 In2 Ir3'
_cell_volume   189.69960665
_cell_formula_units_Z   1
loop_
 _symmetry_equiv_pos_site_id
 _symmetry_equiv_pos_as_xyz
  1  'x, y, z'
loop_
 _atom_site_type_symbol
 _atom_site_label
 _atom_site_symmetry_multiplicity
 _atom_site_fract_x
 _atom_site_fract_y
 _atom_site_fract_z
 _atom_site_occupancy
  Tm  Tm0  1  0.411669  0.413932  0.000000  1
  Tm  Tm1  1  0.588330  0.002204  0.000000  1
  Tm  Tm2  1  0.999983  0.595886  0.000000  1
  Nb  Nb3  1  0.000025  0.248033  0.500000  1
  In  In4  1  0.749996  0.748293  0.500000  1
  In  In5  1  0.249933  0.998404  0.500000  1
  Ir  Ir6  1  0.000000  0.035714  0.000000  1
  Ir  Ir7  1  0.316035  0.636832  0.500000  1
  Ir  Ir8  1  0.684028  0.320702  0.500000  1
