# generated using pymatgen
data_Na(V3S4)4
_symmetry_space_group_name_H-M   'P 1'
_cell_length_a   9.69558887
_cell_length_b   9.69558887
_cell_length_c   9.14633619
_cell_angle_alpha   61.76567201
_cell_angle_beta   61.76567223
_cell_angle_gamma   38.94098740
_symmetry_Int_Tables_number   1
_chemical_formula_structural   Na(V3S4)4
_chemical_formula_sum   'Na1 V12 S16'
_cell_volume   467.44446425
_cell_formula_units_Z   1
loop_
 _symmetry_equiv_pos_site_id
 _symmetry_equiv_pos_as_xyz
  1  'x, y, z'
loop_
 _atom_site_type_symbol
 _atom_site_label
 _atom_site_symmetry_multiplicity
 _atom_site_fract_x
 _atom_site_fract_y
 _atom_site_fract_z
 _atom_site_occupancy
  Na  Na0  1  0.374788  0.374788  0.999569  1
  V  V1  1  0.933123  0.933123  0.511800  1
  V  V2  1  0.432369  0.432369  0.511645  1
  V  V3  1  0.131107  0.131107  0.373515  1
  V  V4  1  0.631129  0.631129  0.372350  1
  V  V5  1  0.060896  0.060896  0.116277  1
  V  V6  1  0.561661  0.561661  0.114361  1
  V  V7  1  0.067103  0.567648  0.490918  1
  V  V8  1  0.567648  0.067103  0.490918  1
  V  V9  1  0.874494  0.366029  0.624193  1
  V  V10  1  0.366029  0.874494  0.624193  1
  V  V11  1  0.933474  0.441052  0.884989  1
  V  V12  1  0.441052  0.933474  0.884989  1
  S  S13  1  0.522550  0.522550  0.653719  1
  S  S14  1  0.021507  0.021507  0.652815  1
  S  S15  1  0.701168  0.701168  0.054496  1
  S  S16  1  0.201653  0.201653  0.051524  1
  S  S17  1  0.401039  0.401039  0.294219  1
  S  S18  1  0.901749  0.901749  0.294901  1
  S  S19  1  0.480294  0.979088  0.343564  1
  S  S20  1  0.979088  0.480294  0.343564  1
  S  S21  1  0.295795  0.798276  0.946893  1
  S  S22  1  0.798276  0.295795  0.946893  1
  S  S23  1  0.599525  0.097513  0.708766  1
  S  S24  1  0.097513  0.599525  0.708766  1
  S  S25  1  0.707967  0.707967  0.666198  1
  S  S26  1  0.208497  0.208497  0.667230  1
  S  S27  1  0.292224  0.791281  0.333368  1
  S  S28  1  0.791281  0.292224  0.333368  1
