# generated using pymatgen
data_Cs3KRb8(AlTe3)4
_symmetry_space_group_name_H-M   'P 1'
_cell_length_a   14.84585557
_cell_length_b   9.07423783
_cell_length_c   11.59981252
_cell_angle_alpha   53.18046802
_cell_angle_beta   89.60858494
_cell_angle_gamma   89.41539564
_symmetry_Int_Tables_number   1
_chemical_formula_structural   Cs3KRb8(AlTe3)4
_chemical_formula_sum   'Cs3 K1 Rb8 Al4 Te12'
_cell_volume   1250.89145789
_cell_formula_units_Z   1
loop_
 _symmetry_equiv_pos_site_id
 _symmetry_equiv_pos_as_xyz
  1  'x, y, z'
loop_
 _atom_site_type_symbol
 _atom_site_label
 _atom_site_symmetry_multiplicity
 _atom_site_fract_x
 _atom_site_fract_y
 _atom_site_fract_z
 _atom_site_occupancy
  Cs  Cs0  1  0.311756  0.156158  0.065581  1
  Cs  Cs1  1  0.686573  0.845614  0.934241  1
  Cs  Cs2  1  0.814622  0.845766  0.435753  1
  K  K3  1  0.189256  0.149265  0.573537  1
  Rb  Rb4  1  0.896906  0.317960  0.401964  1
  Rb  Rb5  1  0.611625  0.360973  0.475842  1
  Rb  Rb6  1  0.112224  0.638129  0.025095  1
  Rb  Rb7  1  0.386494  0.640038  0.524857  1
  Rb  Rb8  1  0.889362  0.361275  0.974993  1
  Rb  Rb9  1  0.606020  0.315835  0.903070  1
  Rb  Rb10  1  0.106287  0.682522  0.597673  1
  Rb  Rb11  1  0.393505  0.684551  0.096334  1
  Al  Al12  1  0.067105  0.943268  0.157062  1
  Al  Al13  1  0.563278  0.051486  0.343935  1
  Al  Al14  1  0.432567  0.954609  0.654391  1
  Al  Al15  1  0.936320  0.051149  0.842571  1
  Te  Te16  1  0.404802  0.181302  0.366591  1
  Te  Te17  1  0.908174  0.824211  0.131619  1
  Te  Te18  1  0.590278  0.822018  0.633063  1
  Te  Te19  1  0.095689  0.170384  0.865747  1
  Te  Te20  1  0.685752  0.312515  0.204366  1
  Te  Te21  1  0.186600  0.671902  0.302531  1
  Te  Te22  1  0.306907  0.701339  0.789693  1
  Te  Te23  1  0.813062  0.313622  0.704283  1
  Te  Te24  1  0.552742  0.866156  0.238270  1
  Te  Te25  1  0.057171  0.133061  0.259588  1
  Te  Te26  1  0.445587  0.137028  0.762034  1
  Te  Te27  1  0.949336  0.867862  0.735316  1
