# generated using pymatgen
data_Tm2Zn14Co2Cu
_symmetry_space_group_name_H-M   'P 1'
_cell_length_a   6.66434680
_cell_length_b   6.66929545
_cell_length_c   6.66959803
_cell_angle_alpha   82.50711463
_cell_angle_beta   97.15408144
_cell_angle_gamma   97.15470313
_symmetry_Int_Tables_number   1
_chemical_formula_structural   Tm2Zn14Co2Cu
_chemical_formula_sum   'Tm2 Zn14 Co2 Cu1'
_cell_volume   289.84799650
_cell_formula_units_Z   1
loop_
 _symmetry_equiv_pos_site_id
 _symmetry_equiv_pos_as_xyz
  1  'x, y, z'
loop_
 _atom_site_type_symbol
 _atom_site_label
 _atom_site_symmetry_multiplicity
 _atom_site_fract_x
 _atom_site_fract_y
 _atom_site_fract_z
 _atom_site_occupancy
  Tm  Tm0  1  0.669898  0.337377  0.337353  1
  Tm  Tm1  1  0.330103  0.662622  0.662648  1
  Zn  Zn2  1  0.295151  0.299413  0.000104  1
  Zn  Zn3  1  0.704847  0.700591  0.999896  1
  Zn  Zn4  1  0.902031  0.109895  0.109895  1
  Zn  Zn5  1  0.346954  0.648551  0.151177  1
  Zn  Zn6  1  0.000011  0.708626  0.291352  1
  Zn  Zn7  1  0.295147  0.000090  0.299385  1
  Zn  Zn8  1  0.653033  0.848811  0.351448  1
  Zn  Zn9  1  0.145845  0.347079  0.347064  1
  Zn  Zn10  1  0.854155  0.652920  0.652936  1
  Zn  Zn11  1  0.346966  0.151189  0.648548  1
  Zn  Zn12  1  0.999990  0.291373  0.708647  1
  Zn  Zn13  1  0.704852  0.999908  0.700619  1
  Zn  Zn14  1  0.653047  0.351449  0.848823  1
  Zn  Zn15  1  0.097966  0.890103  0.890103  1
  Co  Co16  1  0.000000  0.499999  0.000000  1
  Co  Co17  1  0.000000  0.999999  0.499999  1
  Cu  Cu18  1  0.499999  0.999999  0.000000  1
