# generated using pymatgen
data_Lu2B4Ir3Rh2
_symmetry_space_group_name_H-M   'P 1'
_cell_length_a   7.47969815
_cell_length_b   6.30860171
_cell_length_c   5.56170751
_cell_angle_alpha   77.83690199
_cell_angle_beta   55.53747104
_cell_angle_gamma   46.62562513
_symmetry_Int_Tables_number   1
_chemical_formula_structural   Lu2B4Ir3Rh2
_chemical_formula_sum   'Lu2 B4 Ir3 Rh2'
_cell_volume   150.19074693
_cell_formula_units_Z   1
loop_
 _symmetry_equiv_pos_site_id
 _symmetry_equiv_pos_as_xyz
  1  'x, y, z'
loop_
 _atom_site_type_symbol
 _atom_site_label
 _atom_site_symmetry_multiplicity
 _atom_site_fract_x
 _atom_site_fract_y
 _atom_site_fract_z
 _atom_site_occupancy
  Lu  Lu0  1  0.857974  0.857974  0.142026  1
  Lu  Lu1  1  0.142026  0.142026  0.857974  1
  B  B2  1  0.786460  0.484595  0.515405  1
  B  B3  1  0.213540  0.515405  0.484595  1
  B  B4  1  0.515405  0.213540  0.786460  1
  B  B5  1  0.484595  0.786460  0.213540  1
  Ir  Ir6  1  0.750000  0.750000  0.750000  1
  Ir  Ir7  1  0.500000  0.500000  0.500000  1
  Ir  Ir8  1  0.250000  0.250000  0.250000  1
  Rh  Rh9  1  0.500000  0.500000  0.000000  1
  Rh  Rh10  1  0.000000  0.000000  0.500000  1
