# generated using pymatgen
data_K6MnAsO8
_symmetry_space_group_name_H-M   'P 1'
_cell_length_a   8.38495300
_cell_length_b   8.37595292
_cell_length_c   8.37578800
_cell_angle_alpha   90.00000000
_cell_angle_beta   90.00000000
_cell_angle_gamma   89.87194557
_symmetry_Int_Tables_number   1
_chemical_formula_structural   K6MnAsO8
_chemical_formula_sum   'K12 Mn2 As2 O16'
_cell_volume   588.24663542
_cell_formula_units_Z   2
loop_
 _symmetry_equiv_pos_site_id
 _symmetry_equiv_pos_as_xyz
  1  'x, y, z'
loop_
 _atom_site_type_symbol
 _atom_site_label
 _atom_site_symmetry_multiplicity
 _atom_site_fract_x
 _atom_site_fract_y
 _atom_site_fract_z
 _atom_site_occupancy
  K  K0  1  0.469421  0.533573  0.034143  1
  K  K1  1  0.515757  0.985947  0.014216  1
  K  K2  1  0.491689  0.488949  0.489665  1
  K  K3  1  0.964598  0.967696  0.968248  1
  K  K4  1  0.535402  0.032304  0.468248  1
  K  K5  1  0.030579  0.466427  0.534143  1
  K  K6  1  0.221238  0.781325  0.279000  1
  K  K7  1  0.278762  0.218675  0.779000  1
  K  K8  1  0.008311  0.511051  0.989665  1
  K  K9  1  0.984243  0.014053  0.514216  1
  K  K10  1  0.779088  0.276746  0.220906  1
  K  K11  1  0.720912  0.723254  0.720906  1
  Mn  Mn12  1  0.735778  0.762773  0.236186  1
  Mn  Mn13  1  0.764222  0.237227  0.736186  1
  As  As14  1  0.262909  0.264615  0.263433  1
  As  As15  1  0.237091  0.735385  0.763433  1
  O  O16  1  0.537154  0.745966  0.287766  1
  O  O17  1  0.355545  0.852252  0.644338  1
  O  O18  1  0.852114  0.643997  0.352476  1
  O  O19  1  0.747176  0.287539  0.536443  1
  O  O20  1  0.037523  0.755102  0.711576  1
  O  O21  1  0.243744  0.211141  0.462521  1
  O  O22  1  0.211379  0.464469  0.244892  1
  O  O23  1  0.962846  0.254034  0.787766  1
  O  O24  1  0.288621  0.535531  0.744892  1
  O  O25  1  0.462477  0.244898  0.211576  1
  O  O26  1  0.787590  0.961632  0.254191  1
  O  O27  1  0.647886  0.356003  0.852476  1
  O  O28  1  0.752824  0.712461  0.036443  1
  O  O29  1  0.712410  0.038368  0.754191  1
  O  O30  1  0.144455  0.147748  0.144338  1
  O  O31  1  0.256256  0.788859  0.962521  1
