# generated using pymatgen
data_Li2NdHo(SiO4)2
_symmetry_space_group_name_H-M   'P 1'
_cell_length_a   6.30858779
_cell_length_b   5.49587710
_cell_length_c   11.06589607
_cell_angle_alpha   66.57228541
_cell_angle_beta   90.45301100
_cell_angle_gamma   90.59105783
_symmetry_Int_Tables_number   1
_chemical_formula_structural   Li2NdHo(SiO4)2
_chemical_formula_sum   'Li4 Nd2 Ho2 Si4 O16'
_cell_volume   352.01771681
_cell_formula_units_Z   2
loop_
 _symmetry_equiv_pos_site_id
 _symmetry_equiv_pos_as_xyz
  1  'x, y, z'
loop_
 _atom_site_type_symbol
 _atom_site_label
 _atom_site_symmetry_multiplicity
 _atom_site_fract_x
 _atom_site_fract_y
 _atom_site_fract_z
 _atom_site_occupancy
  Li  Li0  1  0.134344  0.918571  0.430515  1
  Li  Li1  1  0.633528  0.075672  0.071910  1
  Li  Li2  1  0.865656  0.081429  0.569485  1
  Li  Li3  1  0.366472  0.924328  0.928090  1
  Nd  Nd4  1  0.117830  0.444376  0.846107  1
  Nd  Nd5  1  0.882170  0.555624  0.153893  1
  Ho  Ho6  1  0.615479  0.556026  0.649450  1
  Ho  Ho7  1  0.384521  0.443974  0.350550  1
  Si  Si8  1  0.645728  0.903009  0.362694  1
  Si  Si9  1  0.354272  0.096991  0.637306  1
  Si  Si10  1  0.158692  0.090399  0.145375  1
  Si  Si11  1  0.841308  0.909601  0.854625  1
  O  O12  1  0.849013  0.233053  0.771189  1
  O  O13  1  0.633575  0.226260  0.282731  1
  O  O14  1  0.167203  0.183881  0.523815  1
  O  O15  1  0.828857  0.762719  0.750048  1
  O  O16  1  0.150987  0.766947  0.228811  1
  O  O17  1  0.572073  0.232800  0.551499  1
  O  O18  1  0.653506  0.761453  0.255612  1
  O  O19  1  0.427927  0.767200  0.448501  1
  O  O20  1  0.066241  0.790624  0.937605  1
  O  O21  1  0.659649  0.822089  0.970113  1
  O  O22  1  0.171143  0.237281  0.249952  1
  O  O23  1  0.933759  0.209376  0.062395  1
  O  O24  1  0.340351  0.177911  0.029887  1
  O  O25  1  0.346494  0.238547  0.744388  1
  O  O26  1  0.366425  0.773740  0.717269  1
  O  O27  1  0.832797  0.816119  0.476185  1
