# generated using pymatgen
data_Na12Li8Si3SnAs12
_symmetry_space_group_name_H-M   'P 1'
_cell_length_a   9.66474924
_cell_length_b   9.66474864
_cell_length_c   13.97673717
_cell_angle_alpha   89.93515902
_cell_angle_beta   89.93515979
_cell_angle_gamma   143.91353201
_symmetry_Int_Tables_number   1
_chemical_formula_structural   Na12Li8Si3SnAs12
_chemical_formula_sum   'Na12 Li8 Si3 Sn1 As12'
_cell_volume   768.95940272
_cell_formula_units_Z   1
loop_
 _symmetry_equiv_pos_site_id
 _symmetry_equiv_pos_as_xyz
  1  'x, y, z'
loop_
 _atom_site_type_symbol
 _atom_site_label
 _atom_site_symmetry_multiplicity
 _atom_site_fract_x
 _atom_site_fract_y
 _atom_site_fract_z
 _atom_site_occupancy
  Na  Na0  1  0.596499  0.933969  0.822870  1
  Na  Na1  1  0.265479  0.266174  0.324468  1
  Na  Na2  1  0.233062  0.235345  0.819908  1
  Na  Na3  1  0.733826  0.734521  0.675532  1
  Na  Na4  1  0.434270  0.095874  0.671636  1
  Na  Na5  1  0.904126  0.565730  0.328364  1
  Na  Na6  1  0.066031  0.403501  0.177130  1
  Na  Na7  1  0.406866  0.065640  0.180320  1
  Na  Na8  1  0.565640  0.903307  0.324931  1
  Na  Na9  1  0.096693  0.434360  0.675069  1
  Na  Na10  1  0.934360  0.593134  0.819680  1
  Na  Na11  1  0.764655  0.766938  0.180092  1
  Li  Li12  1  0.081810  0.918190  0.000000  1
  Li  Li13  1  0.581667  0.418333  0.500000  1
  Li  Li14  1  0.916028  0.083972  0.000000  1
  Li  Li15  1  0.756764  0.243236  0.000000  1
  Li  Li16  1  0.746110  0.253890  0.500000  1
  Li  Li17  1  0.247585  0.752415  0.000000  1
  Li  Li18  1  0.254247  0.745753  0.500000  1
  Li  Li19  1  0.418101  0.581899  0.500000  1
  Si  Si20  1  0.088658  0.911342  0.500000  1
  Si  Si21  1  0.408567  0.591433  0.000000  1
  Si  Si22  1  0.911008  0.088992  0.500000  1
  Sn  Sn23  1  0.591030  0.408970  0.000000  1
  As  As24  1  0.066342  0.386890  0.394371  1
  As  As25  1  0.915667  0.580827  0.116428  1
  As  As26  1  0.419173  0.084333  0.883572  1
  As  As27  1  0.613110  0.933658  0.605629  1
  As  As28  1  0.932454  0.612177  0.604990  1
  As  As29  1  0.112415  0.434085  0.893143  1
  As  As30  1  0.565915  0.887585  0.106857  1
  As  As31  1  0.387823  0.067546  0.395010  1
  As  As32  1  0.209424  0.209619  0.595525  1
  As  As33  1  0.715271  0.731056  0.897811  1
  As  As34  1  0.268944  0.284729  0.102189  1
  As  As35  1  0.790381  0.790576  0.404475  1
