# generated using pymatgen
data_CaMg2Zn8Ni
_symmetry_space_group_name_H-M   'P 1'
_cell_length_a   9.04869362
_cell_length_b   9.04869414
_cell_length_c   9.04869424
_cell_angle_alpha   33.44392892
_cell_angle_beta   33.44392367
_cell_angle_gamma   33.44391841
_symmetry_Int_Tables_number   1
_chemical_formula_structural   CaMg2Zn8Ni
_chemical_formula_sum   'Ca1 Mg2 Zn8 Ni1'
_cell_volume   200.40707293
_cell_formula_units_Z   1
loop_
 _symmetry_equiv_pos_site_id
 _symmetry_equiv_pos_as_xyz
  1  'x, y, z'
loop_
 _atom_site_type_symbol
 _atom_site_label
 _atom_site_symmetry_multiplicity
 _atom_site_fract_x
 _atom_site_fract_y
 _atom_site_fract_z
 _atom_site_occupancy
  Ca  Ca0  1  0.000000  0.000000  0.000000  1
  Mg  Mg1  1  0.855106  0.855106  0.855106  1
  Mg  Mg2  1  0.144894  0.144894  0.144894  1
  Zn  Zn3  1  0.668209  0.668209  0.668209  1
  Zn  Zn4  1  0.331790  0.331790  0.331790  1
  Zn  Zn5  1  0.412118  0.911104  0.412119  1
  Zn  Zn6  1  0.412119  0.412119  0.911103  1
  Zn  Zn7  1  0.911104  0.412118  0.412119  1
  Zn  Zn8  1  0.088896  0.587881  0.587880  1
  Zn  Zn9  1  0.587880  0.587880  0.088896  1
  Zn  Zn10  1  0.587881  0.088896  0.587880  1
  Ni  Ni11  1  0.500000  0.500000  0.500000  1
