# generated using pymatgen
data_Ta6VRe4Si6W
_symmetry_space_group_name_H-M   'P 1'
_cell_length_a   7.61797313
_cell_length_b   7.62333722
_cell_length_c   7.62333687
_cell_angle_alpha   126.43154745
_cell_angle_beta   128.28976482
_cell_angle_gamma   77.68917303
_symmetry_Int_Tables_number   1
_chemical_formula_structural   Ta6VRe4Si6W
_chemical_formula_sum   'Ta6 V1 Re4 Si6 W1'
_cell_volume   271.04938670
_cell_formula_units_Z   1
loop_
 _symmetry_equiv_pos_site_id
 _symmetry_equiv_pos_as_xyz
  1  'x, y, z'
loop_
 _atom_site_type_symbol
 _atom_site_label
 _atom_site_symmetry_multiplicity
 _atom_site_fract_x
 _atom_site_fract_y
 _atom_site_fract_z
 _atom_site_occupancy
  Ta  Ta0  1  0.556078  0.095696  0.041820  1
  Ta  Ta1  1  0.443922  0.485742  0.539620  1
  Ta  Ta2  1  0.946178  0.485830  0.041732  1
  Ta  Ta3  1  0.053822  0.095555  0.539652  1
  Ta  Ta4  1  0.751492  0.907561  0.659030  1
  Ta  Ta5  1  0.248508  0.907537  0.156068  1
  V  V6  1  0.000000  0.241012  0.241012  1
  Re  Re7  1  0.130275  0.757334  0.627624  1
  Re  Re8  1  0.869725  0.497349  0.627058  1
  Re  Re9  1  0.628180  0.754729  0.126176  1
  Re  Re10  1  0.371820  0.497996  0.126549  1
  Si  Si11  1  0.754913  0.499607  0.254207  1
  Si  Si12  1  0.245087  0.499293  0.744694  1
  Si  Si13  1  0.331659  0.823893  0.492369  1
  Si  Si14  1  0.668341  0.160710  0.492234  1
  Si  Si15  1  0.832498  0.827604  0.995008  1
  Si  Si16  1  0.167502  0.162511  0.995106  1
  W  W17  1  0.500000  0.242236  0.742236  1
