# generated using pymatgen
data_Tb3Ga4S
_symmetry_space_group_name_H-M   'P 1'
_cell_length_a   7.76612189
_cell_length_b   7.76612226
_cell_length_c   7.76612275
_cell_angle_alpha   119.03295451
_cell_angle_beta   119.03295896
_cell_angle_gamma   91.68329517
_symmetry_Int_Tables_number   1
_chemical_formula_structural   Tb3Ga4S
_chemical_formula_sum   'Tb6 Ga8 S2'
_cell_volume   335.88991743
_cell_formula_units_Z   2
loop_
 _symmetry_equiv_pos_site_id
 _symmetry_equiv_pos_as_xyz
  1  'x, y, z'
loop_
 _atom_site_type_symbol
 _atom_site_label
 _atom_site_symmetry_multiplicity
 _atom_site_fract_x
 _atom_site_fract_y
 _atom_site_fract_z
 _atom_site_occupancy
  Tb  Tb0  1  0.835289  0.664711  0.500000  1
  Tb  Tb1  1  0.664711  0.164711  0.829422  1
  Tb  Tb2  1  0.335289  0.835289  0.170578  1
  Tb  Tb3  1  0.164711  0.335289  0.500000  1
  Tb  Tb4  1  0.250000  0.250000  0.000000  1
  Tb  Tb5  1  0.750000  0.750000  0.000000  1
  Ga  Ga6  1  0.162082  0.949037  0.500000  1
  Ga  Ga7  1  0.449037  0.662082  0.500000  1
  Ga  Ga8  1  0.550963  0.337918  0.500000  1
  Ga  Ga9  1  0.662082  0.162082  0.213045  1
  Ga  Ga10  1  0.837918  0.050963  0.500000  1
  Ga  Ga11  1  0.050963  0.550963  0.213045  1
  Ga  Ga12  1  0.337918  0.837918  0.786955  1
  Ga  Ga13  1  0.949037  0.449037  0.786955  1
  S  S14  1  0.000000  0.000000  0.000000  1
  S  S15  1  0.500000  0.500000  0.000000  1
