# generated using pymatgen
data_TbPr9(CoAu2)2
_symmetry_space_group_name_H-M   'P 1'
_cell_length_a   8.88238400
_cell_length_b   8.33119171
_cell_length_c   12.05719505
_cell_angle_alpha   89.89900397
_cell_angle_beta   90.00000000
_cell_angle_gamma   90.00000000
_symmetry_Int_Tables_number   1
_chemical_formula_structural   TbPr9(CoAu2)2
_chemical_formula_sum   'Tb2 Pr18 Co4 Au8'
_cell_volume   892.24122262
_cell_formula_units_Z   2
loop_
 _symmetry_equiv_pos_site_id
 _symmetry_equiv_pos_as_xyz
  1  'x, y, z'
loop_
 _atom_site_type_symbol
 _atom_site_label
 _atom_site_symmetry_multiplicity
 _atom_site_fract_x
 _atom_site_fract_y
 _atom_site_fract_z
 _atom_site_occupancy
  Tb  Tb0  1  0.829238  0.533655  0.073559  1
  Tb  Tb1  1  0.329238  0.466345  0.426441  1
  Pr  Pr2  1  0.153831  0.747969  0.205157  1
  Pr  Pr3  1  0.653831  0.252031  0.294843  1
  Pr  Pr4  1  0.845574  0.250594  0.796619  1
  Pr  Pr5  1  0.345574  0.749406  0.703381  1
  Pr  Pr6  1  0.465833  0.748153  0.005890  1
  Pr  Pr7  1  0.965833  0.251847  0.494110  1
  Pr  Pr8  1  0.538553  0.253354  0.995763  1
  Pr  Pr9  1  0.038553  0.746646  0.504237  1
  Pr  Pr10  1  0.611453  0.747385  0.298801  1
  Pr  Pr11  1  0.111453  0.252615  0.201199  1
  Pr  Pr12  1  0.386500  0.252039  0.698577  1
  Pr  Pr13  1  0.886500  0.747961  0.801423  1
  Pr  Pr14  1  0.823175  0.964840  0.075071  1
  Pr  Pr15  1  0.323175  0.035160  0.424929  1
  Pr  Pr16  1  0.176601  0.465995  0.926238  1
  Pr  Pr17  1  0.676601  0.534005  0.573762  1
  Pr  Pr18  1  0.177278  0.033588  0.925716  1
  Pr  Pr19  1  0.677278  0.966412  0.574284  1
  Co  Co20  1  0.445349  0.748737  0.490829  1
  Co  Co21  1  0.945349  0.251263  0.009171  1
  Co  Co22  1  0.551353  0.251971  0.507477  1
  Co  Co23  1  0.051353  0.748029  0.992523  1
  Au  Au24  1  0.913992  0.974345  0.327573  1
  Au  Au25  1  0.413992  0.025655  0.172427  1
  Au  Au26  1  0.085693  0.474330  0.673333  1
  Au  Au27  1  0.585693  0.525670  0.826667  1
  Au  Au28  1  0.082624  0.023575  0.672775  1
  Au  Au29  1  0.582624  0.976425  0.827225  1
  Au  Au30  1  0.912953  0.525873  0.323021  1
  Au  Au31  1  0.412953  0.474127  0.176979  1
