# generated using pymatgen
data_CaEu2(AsPd)4
_symmetry_space_group_name_H-M   'P 1'
_cell_length_a   4.14983300
_cell_length_b   4.37114100
_cell_length_c   12.75979000
_cell_angle_alpha   90.00000000
_cell_angle_beta   90.00000000
_cell_angle_gamma   90.00000000
_symmetry_Int_Tables_number   1
_chemical_formula_structural   CaEu2(AsPd)4
_chemical_formula_sum   'Ca1 Eu2 As4 Pd4'
_cell_volume   231.45627667
_cell_formula_units_Z   1
loop_
 _symmetry_equiv_pos_site_id
 _symmetry_equiv_pos_as_xyz
  1  'x, y, z'
loop_
 _atom_site_type_symbol
 _atom_site_label
 _atom_site_symmetry_multiplicity
 _atom_site_fract_x
 _atom_site_fract_y
 _atom_site_fract_z
 _atom_site_occupancy
  Ca  Ca0  1  0.500000  0.000000  0.000000  1
  Eu  Eu1  1  0.500000  0.500000  0.298467  1
  Eu  Eu2  1  0.500000  0.500000  0.701533  1
  As  As3  1  0.000000  0.000000  0.381402  1
  As  As4  1  0.000000  0.500000  0.099447  1
  As  As5  1  0.000000  0.000000  0.618598  1
  As  As6  1  0.000000  0.500000  0.900553  1
  Pd  Pd7  1  0.000000  0.000000  0.815063  1
  Pd  Pd8  1  0.000000  0.000000  0.184937  1
  Pd  Pd9  1  0.500000  0.000000  0.500000  1
  Pd  Pd10  1  0.000000  0.500000  0.500000  1
