# generated using pymatgen
data_Er10Hg7Pt4Pb
_symmetry_space_group_name_H-M   'P 1'
_cell_length_a   3.60808100
_cell_length_b   7.97053291
_cell_length_c   18.19010679
_cell_angle_alpha   90.26257831
_cell_angle_beta   90.00000000
_cell_angle_gamma   90.00000000
_symmetry_Int_Tables_number   1
_chemical_formula_structural   Er10Hg7Pt4Pb
_chemical_formula_sum   'Er10 Hg7 Pt4 Pb1'
_cell_volume   523.11157043
_cell_formula_units_Z   1
loop_
 _symmetry_equiv_pos_site_id
 _symmetry_equiv_pos_as_xyz
  1  'x, y, z'
loop_
 _atom_site_type_symbol
 _atom_site_label
 _atom_site_symmetry_multiplicity
 _atom_site_fract_x
 _atom_site_fract_y
 _atom_site_fract_z
 _atom_site_occupancy
  Er  Er0  1  0.000000  0.105298  0.415074  1
  Er  Er1  1  0.000000  0.886511  0.587941  1
  Er  Er2  1  0.000000  0.388659  0.913420  1
  Er  Er3  1  0.000000  0.611394  0.084952  1
  Er  Er4  1  0.000000  0.233545  0.213089  1
  Er  Er5  1  0.000000  0.764720  0.784552  1
  Er  Er6  1  0.000000  0.262319  0.717759  1
  Er  Er7  1  0.000000  0.747578  0.278830  1
  Er  Er8  1  0.000000  0.002253  0.000785  1
  Er  Er9  1  0.000000  0.496896  0.503988  1
  Hg  Hg10  1  0.500000  0.577931  0.645769  1
  Hg  Hg11  1  0.500000  0.078321  0.856293  1
  Hg  Hg12  1  0.500000  0.920214  0.143068  1
  Hg  Hg13  1  0.500000  0.289563  0.061372  1
  Hg  Hg14  1  0.500000  0.713367  0.938055  1
  Hg  Hg15  1  0.500000  0.207668  0.563062  1
  Hg  Hg16  1  0.500000  0.788184  0.438629  1
  Pt  Pt17  1  0.500000  0.026794  0.302019  1
  Pt  Pt18  1  0.500000  0.975951  0.698723  1
  Pt  Pt19  1  0.500000  0.476563  0.802912  1
  Pt  Pt20  1  0.500000  0.523787  0.195692  1
  Pb  Pb21  1  0.500000  0.422485  0.354014  1
