# generated using pymatgen
data_NaSc(NbSe2)6
_symmetry_space_group_name_H-M   'P 1'
_cell_length_a   6.06823000
_cell_length_b   6.06823008
_cell_length_c   14.44852600
_cell_angle_alpha   90.00000000
_cell_angle_beta   90.00000000
_cell_angle_gamma   119.99998869
_symmetry_Int_Tables_number   1
_chemical_formula_structural   NaSc(NbSe2)6
_chemical_formula_sum   'Na1 Sc1 Nb6 Se12'
_cell_volume   460.76374210
_cell_formula_units_Z   1
loop_
 _symmetry_equiv_pos_site_id
 _symmetry_equiv_pos_as_xyz
  1  'x, y, z'
loop_
 _atom_site_type_symbol
 _atom_site_label
 _atom_site_symmetry_multiplicity
 _atom_site_fract_x
 _atom_site_fract_y
 _atom_site_fract_z
 _atom_site_occupancy
  Na  Na0  1  0.333333  0.666667  0.250000  1
  Sc  Sc1  1  0.666667  0.333333  0.750000  1
  Nb  Nb2  1  0.000000  0.000000  0.512569  1
  Nb  Nb3  1  0.000000  0.000000  0.987431  1
  Nb  Nb4  1  0.333333  0.666667  0.987814  1
  Nb  Nb5  1  0.666667  0.333333  0.985998  1
  Nb  Nb6  1  0.666667  0.333333  0.514002  1
  Nb  Nb7  1  0.333333  0.666667  0.512186  1
  Se  Se8  1  0.334019  0.329558  0.397179  1
  Se  Se9  1  0.670442  0.004460  0.397179  1
  Se  Se10  1  0.995540  0.665981  0.397179  1
  Se  Se11  1  0.328287  0.333405  0.629397  1
  Se  Se12  1  0.005118  0.671713  0.629397  1
  Se  Se13  1  0.666595  0.994882  0.629397  1
  Se  Se14  1  0.666595  0.671713  0.870603  1
  Se  Se15  1  0.328287  0.994882  0.870603  1
  Se  Se16  1  0.005118  0.333405  0.870603  1
  Se  Se17  1  0.670442  0.665981  0.102821  1
  Se  Se18  1  0.995540  0.329558  0.102821  1
  Se  Se19  1  0.334019  0.004460  0.102821  1
