# generated using pymatgen
data_Ca7Nd(HoIr2)2
_symmetry_space_group_name_H-M   'P 1'
_cell_length_a   6.60231702
_cell_length_b   7.44782653
_cell_length_c   8.71776857
_cell_angle_alpha   97.01947961
_cell_angle_beta   112.89689234
_cell_angle_gamma   90.33368957
_symmetry_Int_Tables_number   1
_chemical_formula_structural   Ca7Nd(HoIr2)2
_chemical_formula_sum   'Ca7 Nd1 Ho2 Ir4'
_cell_volume   391.27276393
_cell_formula_units_Z   1
loop_
 _symmetry_equiv_pos_site_id
 _symmetry_equiv_pos_as_xyz
  1  'x, y, z'
loop_
 _atom_site_type_symbol
 _atom_site_label
 _atom_site_symmetry_multiplicity
 _atom_site_fract_x
 _atom_site_fract_y
 _atom_site_fract_z
 _atom_site_occupancy
  Ca  Ca0  1  0.799037  0.575975  0.822433  1
  Ca  Ca1  1  0.022081  0.081887  0.820370  1
  Ca  Ca2  1  0.196314  0.419643  0.173088  1
  Ca  Ca3  1  0.636396  0.818090  0.432806  1
  Ca  Ca4  1  0.203785  0.680091  0.566206  1
  Ca  Ca5  1  0.365219  0.181582  0.567662  1
  Ca  Ca6  1  0.799132  0.318512  0.433362  1
  Nd  Nd7  1  0.975126  0.919121  0.170194  1
  Ho  Ho8  1  0.430694  0.748073  0.999296  1
  Ho  Ho9  1  0.562404  0.251112  0.000592  1
  Ir  Ir10  1  0.809517  0.581318  0.207534  1
  Ir  Ir11  1  0.608316  0.927636  0.807102  1
  Ir  Ir12  1  0.196688  0.425368  0.791491  1
  Ir  Ir13  1  0.395292  0.071592  0.207864  1
