# generated using pymatgen
data_Ba2Sr(AlAs2)2
_symmetry_space_group_name_H-M   'P 1'
_cell_length_a   8.83196034
_cell_length_b   8.83196059
_cell_length_c   7.02260997
_cell_angle_alpha   88.24899474
_cell_angle_beta   88.24899463
_cell_angle_gamma   76.09839482
_symmetry_Int_Tables_number   1
_chemical_formula_structural   Ba2Sr(AlAs2)2
_chemical_formula_sum   'Ba4 Sr2 Al4 As8'
_cell_volume   531.34302974
_cell_formula_units_Z   2
loop_
 _symmetry_equiv_pos_site_id
 _symmetry_equiv_pos_as_xyz
  1  'x, y, z'
loop_
 _atom_site_type_symbol
 _atom_site_label
 _atom_site_symmetry_multiplicity
 _atom_site_fract_x
 _atom_site_fract_y
 _atom_site_fract_z
 _atom_site_occupancy
  Ba  Ba0  1  0.005117  0.744403  0.547207  1
  Ba  Ba1  1  0.255597  0.994883  0.952793  1
  Ba  Ba2  1  0.994883  0.255597  0.452793  1
  Ba  Ba3  1  0.744403  0.005117  0.047207  1
  Sr  Sr4  1  0.402942  0.597058  0.250000  1
  Sr  Sr5  1  0.597058  0.402942  0.750000  1
  Al  Al6  1  0.827317  0.579741  0.075655  1
  Al  Al7  1  0.420259  0.172683  0.424345  1
  Al  Al8  1  0.172683  0.420259  0.924345  1
  Al  Al9  1  0.579741  0.827317  0.575655  1
  As  As10  1  0.062213  0.697722  0.033370  1
  As  As11  1  0.302278  0.937787  0.466630  1
  As  As12  1  0.937787  0.302278  0.966630  1
  As  As13  1  0.697722  0.062213  0.533370  1
  As  As14  1  0.730881  0.582490  0.416054  1
  As  As15  1  0.417510  0.269119  0.083946  1
  As  As16  1  0.269119  0.417510  0.583946  1
  As  As17  1  0.582490  0.730881  0.916054  1
