# generated using pymatgen
data_Tb2YAl12CuRu3
_symmetry_space_group_name_H-M   'P 1'
_cell_length_a   8.82379002
_cell_length_b   8.82183795
_cell_length_c   9.46921100
_cell_angle_alpha   90.00000000
_cell_angle_beta   90.00000000
_cell_angle_gamma   119.52455368
_symmetry_Int_Tables_number   1
_chemical_formula_structural   Tb2YAl12CuRu3
_chemical_formula_sum   'Tb4 Y2 Al24 Cu2 Ru6'
_cell_volume   641.38597607
_cell_formula_units_Z   2
loop_
 _symmetry_equiv_pos_site_id
 _symmetry_equiv_pos_as_xyz
  1  'x, y, z'
loop_
 _atom_site_type_symbol
 _atom_site_label
 _atom_site_symmetry_multiplicity
 _atom_site_fract_x
 _atom_site_fract_y
 _atom_site_fract_z
 _atom_site_occupancy
  Tb  Tb0  1  0.811297  0.616522  0.250000  1
  Tb  Tb1  1  0.616751  0.811543  0.750000  1
  Tb  Tb2  1  0.193462  0.806513  0.750000  1
  Tb  Tb3  1  0.188481  0.383237  0.750000  1
  Y  Y4  1  0.383606  0.188801  0.250000  1
  Y  Y5  1  0.806296  0.193764  0.250000  1
  Al  Al6  1  0.439893  0.878284  0.250000  1
  Al  Al7  1  0.121816  0.560080  0.250000  1
  Al  Al8  1  0.439043  0.560870  0.250000  1
  Al  Al9  1  0.560285  0.121984  0.750000  1
  Al  Al10  1  0.878012  0.439738  0.750000  1
  Al  Al11  1  0.560984  0.439024  0.750000  1
  Al  Al12  1  0.163658  0.836402  0.423141  1
  Al  Al13  1  0.156991  0.323906  0.422061  1
  Al  Al14  1  0.676092  0.843005  0.422087  1
  Al  Al15  1  0.836338  0.163611  0.576892  1
  Al  Al16  1  0.842958  0.676050  0.577921  1
  Al  Al17  1  0.323935  0.156994  0.577918  1
  Al  Al18  1  0.836338  0.163611  0.923108  1
  Al  Al19  1  0.842958  0.676050  0.922079  1
  Al  Al20  1  0.323935  0.156994  0.922082  1
  Al  Al21  1  0.163658  0.836402  0.076859  1
  Al  Al22  1  0.156991  0.323906  0.077939  1
  Al  Al23  1  0.676092  0.843005  0.077913  1
  Al  Al24  1  0.331955  0.668058  0.518888  1
  Al  Al25  1  0.668031  0.331864  0.480989  1
  Al  Al26  1  0.668031  0.331864  0.019011  1
  Al  Al27  1  0.331955  0.668058  0.981112  1
  Al  Al28  1  0.001771  0.998095  0.250000  1
  Al  Al29  1  0.998141  0.001825  0.750000  1
  Cu  Cu30  1  0.500001  0.499991  0.500010  1
  Cu  Cu31  1  0.500001  0.499991  0.999990  1
  Ru  Ru32  1  0.000047  0.000095  0.499753  1
  Ru  Ru33  1  0.000047  0.000095  0.000247  1
  Ru  Ru34  1  0.500038  0.999953  0.499978  1
  Ru  Ru35  1  0.000037  0.499932  0.499934  1
  Ru  Ru36  1  0.500038  0.999953  0.000022  1
  Ru  Ru37  1  0.000037  0.499932  0.000066  1
