# generated using pymatgen
data_Ce2AgRhPb
_symmetry_space_group_name_H-M   'P 1'
_cell_length_a   8.02829434
_cell_length_b   8.02829425
_cell_length_c   3.77020600
_cell_angle_alpha   90.00000000
_cell_angle_beta   90.00000000
_cell_angle_gamma   88.91707113
_symmetry_Int_Tables_number   1
_chemical_formula_structural   Ce2AgRhPb
_chemical_formula_sum   'Ce4 Ag2 Rh2 Pb2'
_cell_volume   242.95960407
_cell_formula_units_Z   2
loop_
 _symmetry_equiv_pos_site_id
 _symmetry_equiv_pos_as_xyz
  1  'x, y, z'
loop_
 _atom_site_type_symbol
 _atom_site_label
 _atom_site_symmetry_multiplicity
 _atom_site_fract_x
 _atom_site_fract_y
 _atom_site_fract_z
 _atom_site_occupancy
  Ce  Ce0  1  0.658646  0.158646  0.500000  1
  Ce  Ce1  1  0.341354  0.841354  0.500000  1
  Ce  Ce2  1  0.191534  0.308466  0.500000  1
  Ce  Ce3  1  0.808466  0.691534  0.500000  1
  Ag  Ag4  1  0.123136  0.623136  0.000000  1
  Ag  Ag5  1  0.876864  0.376864  0.000000  1
  Rh  Rh6  1  0.630739  0.869261  0.000000  1
  Rh  Rh7  1  0.369261  0.130739  0.000000  1
  Pb  Pb8  1  0.000000  0.000000  0.000000  1
  Pb  Pb9  1  0.500000  0.500000  0.000000  1
