# generated using pymatgen
data_Yb12AlGa11(SbO6)8
_symmetry_space_group_name_H-M   'P 1'
_cell_length_a   10.93844992
_cell_length_b   10.93844693
_cell_length_c   10.93844502
_cell_angle_alpha   109.47846516
_cell_angle_beta   109.46762948
_cell_angle_gamma   109.46764532
_symmetry_Int_Tables_number   1
_chemical_formula_structural   Yb12AlGa11(SbO6)8
_chemical_formula_sum   'Yb12 Al1 Ga11 Sb8 O48'
_cell_volume   1007.49922755
_cell_formula_units_Z   1
loop_
 _symmetry_equiv_pos_site_id
 _symmetry_equiv_pos_as_xyz
  1  'x, y, z'
loop_
 _atom_site_type_symbol
 _atom_site_label
 _atom_site_symmetry_multiplicity
 _atom_site_fract_x
 _atom_site_fract_y
 _atom_site_fract_z
 _atom_site_occupancy
  Yb  Yb0  1  0.250000  0.374440  0.124440  1
  Yb  Yb1  1  0.375455  0.749818  0.124780  1
  Yb  Yb2  1  0.374562  0.124872  0.249367  1
  Yb  Yb3  1  0.874962  0.625637  0.250182  1
  Yb  Yb4  1  0.124545  0.249326  0.374363  1
  Yb  Yb5  1  0.750000  0.124431  0.374431  1
  Yb  Yb6  1  0.250000  0.875559  0.625560  1
  Yb  Yb7  1  0.875505  0.750633  0.625194  1
  Yb  Yb8  1  0.125437  0.374805  0.750309  1
  Yb  Yb9  1  0.625037  0.875219  0.750674  1
  Yb  Yb10  1  0.624496  0.249690  0.875128  1
  Yb  Yb11  1  0.750000  0.625569  0.875569  1
  Al  Al12  1  0.750000  0.874999  0.124999  1
  Ga  Ga13  1  0.875300  0.250504  0.125159  1
  Ga  Ga14  1  0.625201  0.374803  0.249958  1
  Ga  Ga15  1  0.125345  0.874840  0.250141  1
  Ga  Ga16  1  0.624699  0.749858  0.375203  1
  Ga  Ga17  1  0.250000  0.625000  0.375000  1
  Ga  Ga18  1  0.750000  0.375000  0.625000  1
  Ga  Ga19  1  0.375156  0.250399  0.625196  1
  Ga  Ga20  1  0.874799  0.124757  0.749601  1
  Ga  Ga21  1  0.374655  0.624796  0.749495  1
  Ga  Ga22  1  0.250001  0.125000  0.875000  1
  Ga  Ga23  1  0.124844  0.750041  0.875243  1
  Sb  Sb24  1  0.998820  0.999564  0.000887  1
  Sb  Sb25  1  0.501324  0.999257  0.000436  1
  Sb  Sb26  1  0.501179  0.502066  0.000743  1
  Sb  Sb27  1  0.999966  0.499983  0.999951  1
  Sb  Sb28  1  0.500032  0.000049  0.500015  1
  Sb  Sb29  1  0.999968  0.499983  0.500017  1
  Sb  Sb30  1  0.998677  0.999113  0.497933  1
  Sb  Sb31  1  0.500034  0.499984  0.500016  1
  O  O32  1  0.321013  0.903075  0.026904  1
  O  O33  1  0.205766  0.122187  0.026411  1
  O  O34  1  0.705351  0.687302  0.084888  1
  O  O35  1  0.878075  0.404473  0.083405  1
  O  O36  1  0.973756  0.679120  0.095809  1
  O  O37  1  0.623828  0.417938  0.096925  1
  O  O38  1  0.602413  0.915112  0.120463  1
  O  O39  1  0.026740  0.206807  0.123067  1
  O  O40  1  0.473260  0.596327  0.180067  1
  O  O41  1  0.205429  0.583523  0.179314  1
  O  O42  1  0.123433  0.026794  0.207269  1
  O  O43  1  0.584183  0.179331  0.206842  1
  O  O44  1  0.474288  0.378129  0.294750  1
  O  O45  1  0.321067  0.916594  0.294669  1
  O  O46  1  0.897587  0.018050  0.312699  1
  O  O47  1  0.916687  0.294635  0.320879  1
  O  O48  1  0.294571  0.473885  0.378094  1
  O  O49  1  0.583312  0.904191  0.377948  1
  O  O50  1  0.820999  0.526175  0.404228  1
  O  O51  1  0.083740  0.876931  0.403673  1
  O  O52  1  0.819525  0.792730  0.416163  1
  O  O53  1  0.095790  0.621905  0.416476  1
  O  O54  1  0.596018  0.179320  0.474049  1
  O  O55  1  0.378053  0.294824  0.473825  1
  O  O56  1  0.621925  0.705331  0.526398  1
  O  O57  1  0.404209  0.820686  0.526114  1
  O  O58  1  0.903981  0.378031  0.583302  1
  O  O59  1  0.178988  0.205892  0.582063  1
  O  O60  1  0.915816  0.122658  0.595147  1
  O  O61  1  0.178932  0.473601  0.595527  1
  O  O62  1  0.416621  0.096159  0.621870  1
  O  O63  1  0.705270  0.525950  0.621969  1
  O  O64  1  0.083379  0.705250  0.679538  1
  O  O65  1  0.095776  0.973588  0.679355  1
  O  O66  1  0.679000  0.083229  0.705176  1
  O  O67  1  0.526244  0.622052  0.705364  1
  O  O68  1  0.416260  0.819933  0.793193  1
  O  O69  1  0.876171  0.973096  0.794108  1
  O  O70  1  0.794729  0.416699  0.820680  1
  O  O71  1  0.527511  0.404853  0.820669  1
  O  O72  1  0.972489  0.793157  0.877342  1
  O  O73  1  0.404225  0.083580  0.877813  1
  O  O74  1  0.376567  0.583836  0.903362  1
  O  O75  1  0.025712  0.320463  0.903842  1
  O  O76  1  0.121947  0.595772  0.916771  1
  O  O77  1  0.294234  0.320645  0.916420  1
  O  O78  1  0.680474  0.096638  0.973205  1
  O  O79  1  0.794648  0.879537  0.981951  1
