# generated using pymatgen
data_Tm3Mn6Fe2CoP6
_symmetry_space_group_name_H-M   'P 1'
_cell_length_a   3.63892000
_cell_length_b   10.80740500
_cell_length_c   12.34443600
_cell_angle_alpha   90.00000000
_cell_angle_beta   90.00000000
_cell_angle_gamma   90.00000000
_symmetry_Int_Tables_number   1
_chemical_formula_structural   Tm3Mn6Fe2CoP6
_chemical_formula_sum   'Tm6 Mn12 Fe4 Co2 P12'
_cell_volume   485.47311820
_cell_formula_units_Z   2
loop_
 _symmetry_equiv_pos_site_id
 _symmetry_equiv_pos_as_xyz
  1  'x, y, z'
loop_
 _atom_site_type_symbol
 _atom_site_label
 _atom_site_symmetry_multiplicity
 _atom_site_fract_x
 _atom_site_fract_y
 _atom_site_fract_z
 _atom_site_occupancy
  Tm  Tm0  1  0.000000  0.500000  0.533614  1
  Tm  Tm1  1  0.500000  0.000000  0.466772  1
  Tm  Tm2  1  0.500000  0.822941  0.203572  1
  Tm  Tm3  1  0.500000  0.177059  0.203572  1
  Tm  Tm4  1  0.000000  0.674186  0.797974  1
  Tm  Tm5  1  0.000000  0.325814  0.797974  1
  Mn  Mn6  1  0.500000  0.500000  0.158009  1
  Mn  Mn7  1  0.000000  0.000000  0.836842  1
  Mn  Mn8  1  0.000000  0.169477  0.002989  1
  Mn  Mn9  1  0.000000  0.830523  0.002989  1
  Mn  Mn10  1  0.500000  0.297744  0.432058  1
  Mn  Mn11  1  0.500000  0.702256  0.432058  1
  Mn  Mn12  1  0.000000  0.203078  0.568270  1
  Mn  Mn13  1  0.000000  0.796922  0.568270  1
  Mn  Mn14  1  0.500000  0.881220  0.703050  1
  Mn  Mn15  1  0.500000  0.118780  0.703050  1
  Mn  Mn16  1  0.000000  0.618061  0.295829  1
  Mn  Mn17  1  0.000000  0.381939  0.295829  1
  Fe  Fe18  1  0.000000  0.500000  0.993129  1
  Fe  Fe19  1  0.500000  0.000000  0.006967  1
  Fe  Fe20  1  0.500000  0.328032  0.997376  1
  Fe  Fe21  1  0.500000  0.671968  0.997376  1
  Co  Co22  1  0.500000  0.500000  0.709556  1
  Co  Co23  1  0.000000  0.000000  0.293273  1
  P  P24  1  0.500000  0.500000  0.890721  1
  P  P25  1  0.000000  0.000000  0.115562  1
  P  P26  1  0.500000  0.500000  0.357909  1
  P  P27  1  0.000000  0.000000  0.641006  1
  P  P28  1  0.500000  0.318972  0.621462  1
  P  P29  1  0.500000  0.681028  0.621462  1
  P  P30  1  0.000000  0.181804  0.379560  1
  P  P31  1  0.000000  0.818196  0.379560  1
  P  P32  1  0.500000  0.845604  0.886753  1
  P  P33  1  0.500000  0.154396  0.886753  1
  P  P34  1  0.000000  0.652702  0.109426  1
  P  P35  1  0.000000  0.347298  0.109426  1
