# generated using pymatgen
data_Hf18Mo6IrW2S
_symmetry_space_group_name_H-M   'P 1'
_cell_length_a   8.70724200
_cell_length_b   8.70724083
_cell_length_c   8.57945400
_cell_angle_alpha   90.00000000
_cell_angle_beta   90.00000000
_cell_angle_gamma   119.99999683
_symmetry_Int_Tables_number   1
_chemical_formula_structural   Hf18Mo6IrW2S
_chemical_formula_sum   'Hf18 Mo6 Ir1 W2 S1'
_cell_volume   563.31519657
_cell_formula_units_Z   1
loop_
 _symmetry_equiv_pos_site_id
 _symmetry_equiv_pos_as_xyz
  1  'x, y, z'
loop_
 _atom_site_type_symbol
 _atom_site_label
 _atom_site_symmetry_multiplicity
 _atom_site_fract_x
 _atom_site_fract_y
 _atom_site_fract_z
 _atom_site_occupancy
  Hf  Hf0  1  0.197765  0.802235  0.447455  1
  Hf  Hf1  1  0.197765  0.395531  0.447455  1
  Hf  Hf2  1  0.604469  0.802235  0.447455  1
  Hf  Hf3  1  0.803269  0.196731  0.549945  1
  Hf  Hf4  1  0.803269  0.606538  0.549945  1
  Hf  Hf5  1  0.393462  0.196731  0.549945  1
  Hf  Hf6  1  0.803269  0.196731  0.950055  1
  Hf  Hf7  1  0.803269  0.606538  0.950055  1
  Hf  Hf8  1  0.393462  0.196731  0.950055  1
  Hf  Hf9  1  0.197765  0.802235  0.052545  1
  Hf  Hf10  1  0.197765  0.395531  0.052545  1
  Hf  Hf11  1  0.604469  0.802235  0.052545  1
  Hf  Hf12  1  0.542482  0.457518  0.250000  1
  Hf  Hf13  1  0.542482  0.084963  0.250000  1
  Hf  Hf14  1  0.915037  0.457518  0.250000  1
  Hf  Hf15  1  0.455354  0.544646  0.750000  1
  Hf  Hf16  1  0.455354  0.910708  0.750000  1
  Hf  Hf17  1  0.089292  0.544646  0.750000  1
  Mo  Mo18  1  0.887521  0.112479  0.250000  1
  Mo  Mo19  1  0.887521  0.775041  0.250000  1
  Mo  Mo20  1  0.224959  0.112479  0.250000  1
  Mo  Mo21  1  0.110891  0.889109  0.750000  1
  Mo  Mo22  1  0.110891  0.221781  0.750000  1
  Mo  Mo23  1  0.778219  0.889109  0.750000  1
  Ir  Ir24  1  0.333333  0.666667  0.250000  1
  W  W25  1  0.000000  0.000000  0.498508  1
  W  W26  1  0.000000  0.000000  0.001492  1
  S  S27  1  0.666667  0.333333  0.750000  1
