# generated using pymatgen
data_Sc12Co(RhBr8)2
_symmetry_space_group_name_H-M   'P 1'
_cell_length_a   8.89761614
_cell_length_b   11.60213489
_cell_length_c   12.34585437
_cell_angle_alpha   117.07938534
_cell_angle_beta   101.09314688
_cell_angle_gamma   100.76466670
_symmetry_Int_Tables_number   1
_chemical_formula_structural   Sc12Co(RhBr8)2
_chemical_formula_sum   'Sc12 Co1 Rh2 Br16'
_cell_volume   1057.23987301
_cell_formula_units_Z   1
loop_
 _symmetry_equiv_pos_site_id
 _symmetry_equiv_pos_as_xyz
  1  'x, y, z'
loop_
 _atom_site_type_symbol
 _atom_site_label
 _atom_site_symmetry_multiplicity
 _atom_site_fract_x
 _atom_site_fract_y
 _atom_site_fract_z
 _atom_site_occupancy
  Sc  Sc0  1  0.093033  0.272587  0.360852  1
  Sc  Sc1  1  0.916399  0.731979  0.643581  1
  Sc  Sc2  1  0.781641  0.534920  0.327034  1
  Sc  Sc3  1  0.222622  0.463704  0.667465  1
  Sc  Sc4  1  0.278717  0.727407  0.639310  1
  Sc  Sc5  1  0.726004  0.268016  0.355997  1
  Sc  Sc6  1  0.148545  0.535825  0.333007  1
  Sc  Sc7  1  0.860140  0.465636  0.672245  1
  Sc  Sc8  1  0.402333  0.359553  0.275424  1
  Sc  Sc9  1  0.590551  0.640400  0.725034  1
  Sc  Sc10  1  0.456173  0.312324  0.520040  1
  Sc  Sc11  1  0.536989  0.687367  0.480199  1
  Co  Co12  1  0.342008  0.499844  0.499660  1
  Rh  Rh13  1  0.000749  0.500032  0.499950  1
  Rh  Rh14  1  0.658956  0.499999  0.500444  1
  Br  Br15  1  0.389140  0.729652  0.866706  1
  Br  Br16  1  0.607949  0.269141  0.131784  1
  Br  Br17  1  0.184564  0.945930  0.772502  1
  Br  Br18  1  0.821170  0.054197  0.226456  1
  Br  Br19  1  0.338674  0.111490  0.262871  1
  Br  Br20  1  0.649507  0.888310  0.737409  1
  Br  Br21  1  0.548566  0.438008  0.785260  1
  Br  Br22  1  0.440949  0.561804  0.214903  1
  Br  Br23  1  0.305238  0.814496  0.465033  1
  Br  Br24  1  0.695432  0.187403  0.534509  1
  Br  Br25  1  0.168514  0.183875  0.532104  1
  Br  Br26  1  0.830325  0.814298  0.468383  1
  Br  Br27  1  0.931740  0.569990  0.172322  1
  Br  Br28  1  0.074384  0.430378  0.827966  1
  Br  Br29  1  0.916106  0.730013  0.868279  1
  Br  Br30  1  0.082880  0.271423  0.133268  1
