# generated using pymatgen
data_Er2InAuO7
_symmetry_space_group_name_H-M   'P 1'
_cell_length_a   6.37945103
_cell_length_b   6.43219956
_cell_length_c   7.35658700
_cell_angle_alpha   89.99975398
_cell_angle_beta   90.00020058
_cell_angle_gamma   109.31169742
_symmetry_Int_Tables_number   1
_chemical_formula_structural   Er2InAuO7
_chemical_formula_sum   'Er4 In2 Au2 O14'
_cell_volume   284.88431823
_cell_formula_units_Z   2
loop_
 _symmetry_equiv_pos_site_id
 _symmetry_equiv_pos_as_xyz
  1  'x, y, z'
loop_
 _atom_site_type_symbol
 _atom_site_label
 _atom_site_symmetry_multiplicity
 _atom_site_fract_x
 _atom_site_fract_y
 _atom_site_fract_z
 _atom_site_occupancy
  Er  Er0  1  0.530105  0.999171  0.750092  1
  Er  Er1  1  0.469892  0.000827  0.250100  1
  Er  Er2  1  0.500371  0.500357  0.499982  1
  Er  Er3  1  0.499651  0.499654  0.999984  1
  In  In4  1  0.003538  0.477222  0.749888  1
  In  In5  1  0.996463  0.522774  0.249885  1
  Au  Au6  1  0.000106  0.000009  0.500005  1
  Au  Au7  1  0.999889  0.999996  0.000006  1
  O  O8  1  0.645501  0.365342  0.750007  1
  O  O9  1  0.354503  0.634658  0.250007  1
  O  O10  1  0.921282  0.082099  0.750011  1
  O  O11  1  0.078724  0.917922  0.250009  1
  O  O12  1  0.918041  0.665660  0.523181  1
  O  O13  1  0.081962  0.334331  0.023174  1
  O  O14  1  0.336252  0.089689  0.975379  1
  O  O15  1  0.663742  0.910291  0.475371  1
  O  O16  1  0.360478  0.629248  0.749984  1
  O  O17  1  0.639524  0.370749  0.249997  1
  O  O18  1  0.918146  0.665768  0.976719  1
  O  O19  1  0.081838  0.334225  0.476709  1
  O  O20  1  0.336135  0.089485  0.524758  1
  O  O21  1  0.663857  0.910524  0.024752  1
