# generated using pymatgen
data_InCuPd5O8
_symmetry_space_group_name_H-M   'P 1'
_cell_length_a   6.79389048
_cell_length_b   6.79389042
_cell_length_c   6.74592300
_cell_angle_alpha   60.23327697
_cell_angle_beta   60.23327724
_cell_angle_gamma   59.14527777
_symmetry_Int_Tables_number   1
_chemical_formula_structural   InCuPd5O8
_chemical_formula_sum   'In1 Cu1 Pd5 O8'
_cell_volume   219.47368304
_cell_formula_units_Z   1
loop_
 _symmetry_equiv_pos_site_id
 _symmetry_equiv_pos_as_xyz
  1  'x, y, z'
loop_
 _atom_site_type_symbol
 _atom_site_label
 _atom_site_symmetry_multiplicity
 _atom_site_fract_x
 _atom_site_fract_y
 _atom_site_fract_z
 _atom_site_occupancy
  In  In0  1  0.000000  0.000000  0.000000  1
  Cu  Cu1  1  0.000000  0.000000  0.500000  1
  Pd  Pd2  1  0.500000  0.000000  0.000000  1
  Pd  Pd3  1  0.000000  0.500000  0.000000  1
  Pd  Pd4  1  0.500000  0.500000  0.000000  1
  Pd  Pd5  1  0.000000  0.500000  0.500000  1
  Pd  Pd6  1  0.500000  0.000000  0.500000  1
  O  O7  1  0.134023  0.134023  0.574380  1
  O  O8  1  0.135963  0.588907  0.137565  1
  O  O9  1  0.588907  0.135963  0.137565  1
  O  O10  1  0.864037  0.411093  0.862435  1
  O  O11  1  0.134023  0.134023  0.157574  1
  O  O12  1  0.865977  0.865977  0.842426  1
  O  O13  1  0.865977  0.865977  0.425620  1
  O  O14  1  0.411093  0.864037  0.862435  1
