# generated using pymatgen
data_Tb12TaNb8P3(WN6)8
_symmetry_space_group_name_H-M   'P 1'
_cell_length_a   10.92641002
_cell_length_b   10.92235136
_cell_length_c   10.92147700
_cell_angle_alpha   109.53496935
_cell_angle_beta   109.55002562
_cell_angle_gamma   109.33953270
_symmetry_Int_Tables_number   1
_chemical_formula_structural   Tb12TaNb8P3(WN6)8
_chemical_formula_sum   'Tb12 Ta1 Nb8 P3 W8 N48'
_cell_volume   1003.21381170
_cell_formula_units_Z   1
loop_
 _symmetry_equiv_pos_site_id
 _symmetry_equiv_pos_as_xyz
  1  'x, y, z'
loop_
 _atom_site_type_symbol
 _atom_site_label
 _atom_site_symmetry_multiplicity
 _atom_site_fract_x
 _atom_site_fract_y
 _atom_site_fract_z
 _atom_site_occupancy
  Tb  Tb0  1  0.243796  0.373860  0.116049  1
  Tb  Tb1  1  0.376807  0.748544  0.119968  1
  Tb  Tb2  1  0.377993  0.128429  0.244107  1
  Tb  Tb3  1  0.872629  0.621280  0.256942  1
  Tb  Tb4  1  0.752023  0.120731  0.370123  1
  Tb  Tb5  1  0.123268  0.254931  0.369780  1
  Tb  Tb6  1  0.877097  0.754657  0.630848  1
  Tb  Tb7  1  0.247441  0.873622  0.628778  1
  Tb  Tb8  1  0.126832  0.376530  0.750945  1
  Tb  Tb9  1  0.627437  0.878092  0.757741  1
  Tb  Tb10  1  0.626434  0.243942  0.878460  1
  Tb  Tb11  1  0.749536  0.629868  0.878879  1
  Ta  Ta12  1  0.118803  0.873508  0.245959  1
  Nb  Nb13  1  0.995639  0.007949  0.014800  1
  Nb  Nb14  1  0.515774  0.011714  0.012219  1
  Nb  Nb15  1  0.986696  0.494524  0.006753  1
  Nb  Nb16  1  0.515923  0.508392  0.011143  1
  Nb  Nb17  1  0.994808  0.996288  0.486363  1
  Nb  Nb18  1  0.492614  0.994684  0.488847  1
  Nb  Nb19  1  0.987139  0.488072  0.484050  1
  Nb  Nb20  1  0.503662  0.494572  0.488226  1
  P  P21  1  0.871878  0.245367  0.123232  1
  P  P22  1  0.746422  0.875236  0.123362  1
  P  P23  1  0.628498  0.374968  0.249955  1
  W  W24  1  0.247858  0.622080  0.373895  1
  W  W25  1  0.624415  0.746948  0.373182  1
  W  W26  1  0.376803  0.254622  0.628110  1
  W  W27  1  0.753502  0.376380  0.623260  1
  W  W28  1  0.875241  0.122879  0.750837  1
  W  W29  1  0.375960  0.627162  0.751033  1
  W  W30  1  0.255110  0.128288  0.878525  1
  W  W31  1  0.126936  0.752978  0.877009  1
  N  N32  1  0.208054  0.127196  0.029028  1
  N  N33  1  0.324465  0.908230  0.027052  1
  N  N34  1  0.885251  0.386829  0.091009  1
  N  N35  1  0.696633  0.701579  0.091172  1
  N  N36  1  0.957141  0.669554  0.093325  1
  N  N37  1  0.616264  0.415203  0.114299  1
  N  N38  1  0.611327  0.914056  0.115450  1
  N  N39  1  0.002227  0.205303  0.113364  1
  N  N40  1  0.207119  0.592804  0.185045  1
  N  N41  1  0.467776  0.591210  0.183394  1
  N  N42  1  0.591322  0.201393  0.202203  1
  N  N43  1  0.127499  0.040191  0.216126  1
  N  N44  1  0.319130  0.913630  0.289263  1
  N  N45  1  0.505135  0.390296  0.301091  1
  N  N46  1  0.886399  0.997303  0.297782  1
  N  N47  1  0.908118  0.290773  0.297276  1
  N  N48  1  0.293058  0.469809  0.372063  1
  N  N49  1  0.589527  0.904265  0.377299  1
  N  N50  1  0.088423  0.876438  0.409136  1
  N  N51  1  0.799762  0.499640  0.389832  1
  N  N52  1  0.091847  0.618237  0.410011  1
  N  N53  1  0.817076  0.784939  0.413114  1
  N  N54  1  0.598375  0.184486  0.472842  1
  N  N55  1  0.387023  0.296669  0.479404  1
  N  N56  1  0.618740  0.712033  0.526698  1
  N  N57  1  0.403526  0.815561  0.521851  1
  N  N58  1  0.179312  0.205411  0.580632  1
  N  N59  1  0.906801  0.373867  0.584455  1
  N  N60  1  0.908890  0.114567  0.591771  1
  N  N61  1  0.183711  0.476162  0.591850  1
  N  N62  1  0.412546  0.098569  0.616917  1
  N  N63  1  0.713744  0.530870  0.625382  1
  N  N64  1  0.080053  0.702480  0.678618  1
  N  N65  1  0.097261  0.979884  0.687775  1
  N  N66  1  0.683037  0.086243  0.707773  1
  N  N67  1  0.525245  0.621323  0.708431  1
  N  N68  1  0.415481  0.821421  0.793710  1
  N  N69  1  0.878471  0.971986  0.794246  1
  N  N70  1  0.530702  0.406452  0.824431  1
  N  N71  1  0.790059  0.405746  0.812544  1
  N  N72  1  0.410074  0.088869  0.877299  1
  N  N73  1  0.979319  0.796206  0.889772  1
  N  N74  1  0.025643  0.316999  0.904172  1
  N  N75  1  0.377915  0.586473  0.904607  1
  N  N76  1  0.291922  0.316748  0.908398  1
  N  N77  1  0.116688  0.597658  0.913576  1
  N  N78  1  0.701565  0.108397  0.992694  1
  N  N79  1  0.795372  0.884939  0.998439  1
