# generated using pymatgen
data_In2Sb16Pb
_symmetry_space_group_name_H-M   'P 1'
_cell_length_a   4.42589406
_cell_length_b   4.42391319
_cell_length_c   34.26088600
_cell_angle_alpha   86.18613710
_cell_angle_beta   93.70337081
_cell_angle_gamma   120.01480505
_symmetry_Int_Tables_number   1
_chemical_formula_structural   In2Sb16Pb
_chemical_formula_sum   'In2 Sb16 Pb1'
_cell_volume   579.19346066
_cell_formula_units_Z   1
loop_
 _symmetry_equiv_pos_site_id
 _symmetry_equiv_pos_as_xyz
  1  'x, y, z'
loop_
 _atom_site_type_symbol
 _atom_site_label
 _atom_site_symmetry_multiplicity
 _atom_site_fract_x
 _atom_site_fract_y
 _atom_site_fract_z
 _atom_site_occupancy
  In  In0  1  0.000203  0.996871  0.005366  1
  In  In1  1  0.365584  0.634609  0.098387  1
  Sb  Sb2  1  0.683509  0.316944  0.054163  1
  Sb  Sb3  1  0.054588  0.949699  0.159086  1
  Sb  Sb4  1  0.733523  0.266282  0.201129  1
  Sb  Sb5  1  0.423980  0.579606  0.267058  1
  Sb  Sb6  1  0.101751  0.895142  0.308392  1
  Sb  Sb7  1  0.794629  0.212169  0.373571  1
  Sb  Sb8  1  0.469208  0.523995  0.414596  1
  Sb  Sb9  1  0.162800  0.843556  0.479328  1
  Sb  Sb10  1  0.837469  0.155504  0.520242  1
  Sb  Sb11  1  0.531062  0.475815  0.584648  1
  Sb  Sb12  1  0.206041  0.787678  0.625541  1
  Sb  Sb13  1  0.898898  0.106371  0.690121  1
  Sb  Sb14  1  0.575817  0.421467  0.731147  1
  Sb  Sb15  1  0.265991  0.735783  0.795421  1
  Sb  Sb16  1  0.945096  0.053263  0.836579  1
  Sb  Sb17  1  0.315945  0.680976  0.951140  1
  Pb  Pb18  1  0.633894  0.364266  0.904086  1
