# generated using pymatgen
data_LuTl2Bi5O14
_symmetry_space_group_name_H-M   'P 1'
_cell_length_a   6.60464768
_cell_length_b   6.72403395
_cell_length_c   7.77455300
_cell_angle_alpha   106.76515054
_cell_angle_beta   89.45145828
_cell_angle_gamma   98.99268989
_symmetry_Int_Tables_number   1
_chemical_formula_structural   LuTl2Bi5O14
_chemical_formula_sum   'Lu1 Tl2 Bi5 O14'
_cell_volume   326.29756520
_cell_formula_units_Z   1
loop_
 _symmetry_equiv_pos_site_id
 _symmetry_equiv_pos_as_xyz
  1  'x, y, z'
loop_
 _atom_site_type_symbol
 _atom_site_label
 _atom_site_symmetry_multiplicity
 _atom_site_fract_x
 _atom_site_fract_y
 _atom_site_fract_z
 _atom_site_occupancy
  Lu  Lu0  1  0.461707  0.003274  0.252536  1
  Tl  Tl1  1  0.529229  0.991919  0.749099  1
  Tl  Tl2  1  0.260078  0.534318  0.886924  1
  Bi  Bi3  1  0.001895  0.005385  0.500319  1
  Bi  Bi4  1  0.001304  0.000182  0.002015  1
  Bi  Bi5  1  0.737180  0.469529  0.114499  1
  Bi  Bi6  1  0.729591  0.463514  0.609862  1
  Bi  Bi7  1  0.262172  0.525081  0.383338  1
  O  O8  1  0.448531  0.654342  0.164127  1
  O  O9  1  0.551369  0.333368  0.817702  1
  O  O10  1  0.306335  0.932251  0.963248  1
  O  O11  1  0.702850  0.062428  0.065971  1
  O  O12  1  0.301839  0.917385  0.500961  1
  O  O13  1  0.706905  0.086358  0.475625  1
  O  O14  1  0.525955  0.351163  0.350221  1
  O  O15  1  0.456232  0.645191  0.665426  1
  O  O16  1  0.927124  0.667051  0.954888  1
  O  O17  1  0.078695  0.334490  0.047063  1
  O  O18  1  0.091986  0.339552  0.621986  1
  O  O19  1  0.903744  0.677942  0.372729  1
  O  O20  1  0.883203  0.925247  0.731420  1
  O  O21  1  0.132073  0.080031  0.270039  1
