# generated using pymatgen
data_Lu12TcOs2Se
_symmetry_space_group_name_H-M   'P 1'
_cell_length_a   7.33861831
_cell_length_b   8.89051600
_cell_length_c   6.20387008
_cell_angle_alpha   90.00000000
_cell_angle_beta   90.83564487
_cell_angle_gamma   90.00000000
_symmetry_Int_Tables_number   1
_chemical_formula_structural   Lu12TcOs2Se
_chemical_formula_sum   'Lu12 Tc1 Os2 Se1'
_cell_volume   404.72289269
_cell_formula_units_Z   1
loop_
 _symmetry_equiv_pos_site_id
 _symmetry_equiv_pos_as_xyz
  1  'x, y, z'
loop_
 _atom_site_type_symbol
 _atom_site_label
 _atom_site_symmetry_multiplicity
 _atom_site_fract_x
 _atom_site_fract_y
 _atom_site_fract_z
 _atom_site_occupancy
  Lu  Lu0  1  0.664480  0.054120  0.350925  1
  Lu  Lu1  1  0.191424  0.442862  0.160601  1
  Lu  Lu2  1  0.323191  0.562911  0.664441  1
  Lu  Lu3  1  0.822193  0.932547  0.825288  1
  Lu  Lu4  1  0.323191  0.937089  0.664441  1
  Lu  Lu5  1  0.822193  0.567453  0.825288  1
  Lu  Lu6  1  0.664480  0.445880  0.350925  1
  Lu  Lu7  1  0.191424  0.057138  0.160601  1
  Lu  Lu8  1  0.520113  0.250000  0.870254  1
  Lu  Lu9  1  0.052216  0.250000  0.629084  1
  Lu  Lu10  1  0.468411  0.750000  0.116116  1
  Lu  Lu11  1  0.960979  0.750000  0.366790  1
  Tc  Tc12  1  0.118125  0.750000  0.960464  1
  Os  Os13  1  0.382223  0.250000  0.455493  1
  Os  Os14  1  0.618424  0.750000  0.532293  1
  Se  Se15  1  0.876933  0.250000  0.066999  1
