# generated using pymatgen
data_DyAlGa5Cu6
_symmetry_space_group_name_H-M   'P 1'
_cell_length_a   5.23857816
_cell_length_b   6.59926548
_cell_length_c   6.59926544
_cell_angle_alpha   99.77655542
_cell_angle_beta   113.38491094
_cell_angle_gamma   66.61508838
_symmetry_Int_Tables_number   1
_chemical_formula_structural   DyAlGa5Cu6
_chemical_formula_sum   'Dy1 Al1 Ga5 Cu6'
_cell_volume   192.18109293
_cell_formula_units_Z   1
loop_
 _symmetry_equiv_pos_site_id
 _symmetry_equiv_pos_as_xyz
  1  'x, y, z'
loop_
 _atom_site_type_symbol
 _atom_site_label
 _atom_site_symmetry_multiplicity
 _atom_site_fract_x
 _atom_site_fract_y
 _atom_site_fract_z
 _atom_site_occupancy
  Dy  Dy0  1  0.001002  0.998998  0.001002  1
  Al  Al1  1  0.296706  0.203294  0.796706  1
  Ga  Ga2  1  0.652727  0.347273  0.652727  1
  Ga  Ga3  1  0.350884  0.649116  0.350884  1
  Ga  Ga4  1  0.001099  0.345462  0.347660  1
  Ga  Ga5  1  0.001099  0.652340  0.654538  1
  Ga  Ga6  1  0.694202  0.805798  0.194202  1
  Cu  Cu7  1  0.501580  0.999115  0.501128  1
  Cu  Cu8  1  0.000434  0.999115  0.501128  1
  Cu  Cu9  1  0.501580  0.498872  0.000885  1
  Cu  Cu10  1  0.000434  0.498872  0.000885  1
  Cu  Cu11  1  0.499127  0.774373  0.772628  1
  Cu  Cu12  1  0.499127  0.227372  0.225627  1
