# generated using pymatgen
data_Hf12Zr5Si16Mo3
_symmetry_space_group_name_H-M   'P 1'
_cell_length_a   6.99629620
_cell_length_b   6.99527574
_cell_length_c   12.79403649
_cell_angle_alpha   90.10879598
_cell_angle_beta   89.84714635
_cell_angle_gamma   89.86546521
_symmetry_Int_Tables_number   1
_chemical_formula_structural   Hf12Zr5Si16Mo3
_chemical_formula_sum   'Hf12 Zr5 Si16 Mo3'
_cell_volume   626.14811818
_cell_formula_units_Z   1
loop_
 _symmetry_equiv_pos_site_id
 _symmetry_equiv_pos_as_xyz
  1  'x, y, z'
loop_
 _atom_site_type_symbol
 _atom_site_label
 _atom_site_symmetry_multiplicity
 _atom_site_fract_x
 _atom_site_fract_y
 _atom_site_fract_z
 _atom_site_occupancy
  Hf  Hf0  1  0.174655  0.174931  0.999929  1
  Hf  Hf1  1  0.155066  0.496683  0.471025  1
  Hf  Hf2  1  0.002197  0.653699  0.717110  1
  Hf  Hf3  1  0.996633  0.346445  0.219134  1
  Hf  Hf4  1  0.497655  0.355815  0.127514  1
  Hf  Hf5  1  0.502386  0.644331  0.625534  1
  Hf  Hf6  1  0.853781  0.001144  0.873124  1
  Hf  Hf7  1  0.144847  0.995027  0.377183  1
  Hf  Hf8  1  0.644698  0.502545  0.374091  1
  Hf  Hf9  1  0.355502  0.498091  0.872546  1
  Hf  Hf10  1  0.001225  0.854132  0.127101  1
  Hf  Hf11  1  0.995070  0.144946  0.622464  1
  Zr  Zr12  1  0.495512  0.155438  0.528979  1
  Zr  Zr13  1  0.503529  0.846971  0.031955  1
  Zr  Zr14  1  0.654145  0.003038  0.282987  1
  Zr  Zr15  1  0.346081  0.995747  0.780961  1
  Zr  Zr16  1  0.847357  0.503984  0.968520  1
  Si  Si17  1  0.795239  0.146331  0.071527  1
  Si  Si18  1  0.201742  0.852107  0.571794  1
  Si  Si19  1  0.646890  0.702488  0.821044  1
  Si  Si20  1  0.351730  0.297319  0.322970  1
  Si  Si21  1  0.854728  0.204095  0.428003  1
  Si  Si22  1  0.144840  0.794058  0.928903  1
  Si  Si23  1  0.704002  0.645337  0.178305  1
  Si  Si24  1  0.294590  0.354373  0.676973  1
  Si  Si25  1  0.552942  0.201328  0.933423  1
  Si  Si26  1  0.452842  0.799831  0.434693  1
  Si  Si27  1  0.698704  0.951788  0.683135  1
  Si  Si28  1  0.302952  0.045108  0.186290  1
  Si  Si29  1  0.802100  0.454610  0.565444  1
  Si  Si30  1  0.200415  0.551824  0.066889  1
  Si  Si31  1  0.953714  0.696306  0.317047  1
  Si  Si32  1  0.044112  0.304535  0.813339  1
  Mo  Mo33  1  0.676302  0.326861  0.747623  1
  Mo  Mo34  1  0.325369  0.674703  0.252229  1
  Mo  Mo35  1  0.826444  0.824028  0.500212  1
