# generated using pymatgen
data_U7PaCuS17
_symmetry_space_group_name_H-M   'P 1'
_cell_length_a   7.79485493
_cell_length_b   7.79112177
_cell_length_c   10.33548500
_cell_angle_alpha   80.25222812
_cell_angle_beta   79.61397874
_cell_angle_gamma   64.25735916
_symmetry_Int_Tables_number   1
_chemical_formula_structural   U7PaCuS17
_chemical_formula_sum   'U7 Pa1 Cu1 S17'
_cell_volume   553.18070542
_cell_formula_units_Z   1
loop_
 _symmetry_equiv_pos_site_id
 _symmetry_equiv_pos_as_xyz
  1  'x, y, z'
loop_
 _atom_site_type_symbol
 _atom_site_label
 _atom_site_symmetry_multiplicity
 _atom_site_fract_x
 _atom_site_fract_y
 _atom_site_fract_z
 _atom_site_occupancy
  U  U0  1  0.303223  0.818475  0.299031  1
  U  U1  1  0.182614  0.695820  0.701898  1
  U  U2  1  0.697607  0.180480  0.703431  1
  U  U3  1  0.800478  0.795026  0.455850  1
  U  U4  1  0.202879  0.200426  0.546772  1
  U  U5  1  0.316226  0.319754  0.014625  1
  U  U6  1  0.680555  0.686292  0.982729  1
  Pa  Pa7  1  0.817517  0.302543  0.295948  1
  Cu  Cu8  1  0.999119  0.001700  0.000454  1
  S  S9  1  0.182751  0.564503  0.465060  1
  S  S10  1  0.567486  0.179881  0.464444  1
  S  S11  1  0.820497  0.432657  0.533739  1
  S  S12  1  0.434472  0.819119  0.534526  1
  S  S13  1  0.942283  0.329226  0.034028  1
  S  S14  1  0.326518  0.944410  0.034648  1
  S  S15  1  0.055286  0.673096  0.965493  1
  S  S16  1  0.670965  0.058033  0.966860  1
  S  S17  1  0.943262  0.943983  0.227212  1
  S  S18  1  0.056003  0.055270  0.773198  1
  S  S19  1  0.786735  0.785348  0.720160  1
  S  S20  1  0.210704  0.216335  0.279598  1
  S  S21  1  0.702576  0.698887  0.243969  1
  S  S22  1  0.299213  0.298610  0.756405  1
  S  S23  1  0.481096  0.478366  0.170901  1
  S  S24  1  0.519687  0.521499  0.829352  1
  S  S25  1  0.000252  0.000262  0.499671  1
