# generated using pymatgen
data_Y4Er8Tc3Pd
_symmetry_space_group_name_H-M   'P 1'
_cell_length_a   6.29009700
_cell_length_b   7.40599381
_cell_length_c   9.11170900
_cell_angle_alpha   90.00000000
_cell_angle_beta   90.00000000
_cell_angle_gamma   90.13234259
_symmetry_Int_Tables_number   1
_chemical_formula_structural   Y4Er8Tc3Pd
_chemical_formula_sum   'Y4 Er8 Tc3 Pd1'
_cell_volume   424.46254167
_cell_formula_units_Z   1
loop_
 _symmetry_equiv_pos_site_id
 _symmetry_equiv_pos_as_xyz
  1  'x, y, z'
loop_
 _atom_site_type_symbol
 _atom_site_label
 _atom_site_symmetry_multiplicity
 _atom_site_fract_x
 _atom_site_fract_y
 _atom_site_fract_z
 _atom_site_occupancy
  Y  Y0  1  0.626718  0.044953  0.250000  1
  Y  Y1  1  0.372588  0.957699  0.750000  1
  Y  Y2  1  0.123215  0.462047  0.750000  1
  Y  Y3  1  0.869720  0.534405  0.250000  1
  Er  Er4  1  0.164650  0.183823  0.058435  1
  Er  Er5  1  0.830324  0.823796  0.931455  1
  Er  Er6  1  0.663823  0.322333  0.935531  1
  Er  Er7  1  0.830324  0.823796  0.568545  1
  Er  Er8  1  0.341448  0.670387  0.058904  1
  Er  Er9  1  0.164650  0.183823  0.441565  1
  Er  Er10  1  0.341448  0.670387  0.441096  1
  Er  Er11  1  0.663823  0.322333  0.564469  1
  Tc  Tc12  1  0.452628  0.385108  0.250000  1
  Tc  Tc13  1  0.541542  0.614240  0.750000  1
  Tc  Tc14  1  0.960423  0.112837  0.750000  1
  Pd  Pd15  1  0.052675  0.888032  0.250000  1
