# generated using pymatgen
data_CaHf(PaH6)2
_symmetry_space_group_name_H-M   'P 1'
_cell_length_a   6.50086800
_cell_length_b   6.45163400
_cell_length_c   6.45163400
_cell_angle_alpha   90.00000000
_cell_angle_beta   90.00000000
_cell_angle_gamma   90.00000000
_symmetry_Int_Tables_number   1
_chemical_formula_structural   CaHf(PaH6)2
_chemical_formula_sum   'Ca2 Hf2 Pa4 H24'
_cell_volume   270.58940752
_cell_formula_units_Z   2
loop_
 _symmetry_equiv_pos_site_id
 _symmetry_equiv_pos_as_xyz
  1  'x, y, z'
loop_
 _atom_site_type_symbol
 _atom_site_label
 _atom_site_symmetry_multiplicity
 _atom_site_fract_x
 _atom_site_fract_y
 _atom_site_fract_z
 _atom_site_occupancy
  Ca  Ca0  1  0.250000  0.000000  0.500000  1
  Ca  Ca1  1  0.750000  0.000000  0.500000  1
  Hf  Hf2  1  0.000000  0.000000  0.000000  1
  Hf  Hf3  1  0.500000  0.500000  0.500000  1
  Pa  Pa4  1  0.000000  0.500000  0.250074  1
  Pa  Pa5  1  0.000000  0.500000  0.749926  1
  Pa  Pa6  1  0.500000  0.750074  0.000000  1
  Pa  Pa7  1  0.500000  0.249926  0.000000  1
  H  H8  1  0.000000  0.156139  0.279998  1
  H  H9  1  0.500000  0.220002  0.656139  1
  H  H10  1  0.500000  0.779998  0.343861  1
  H  H11  1  0.800208  0.645709  0.500000  1
  H  H12  1  0.199792  0.645709  0.500000  1
  H  H13  1  0.348496  0.500000  0.790812  1
  H  H14  1  0.651504  0.500000  0.790812  1
  H  H15  1  0.300208  0.000000  0.145709  1
  H  H16  1  0.151504  0.290812  0.000000  1
  H  H17  1  0.848496  0.709188  0.000000  1
  H  H18  1  0.300208  0.000000  0.854291  1
  H  H19  1  0.848496  0.290812  0.000000  1
  H  H20  1  0.699792  0.000000  0.145709  1
  H  H21  1  0.699792  0.000000  0.854291  1
  H  H22  1  0.151504  0.709188  0.000000  1
  H  H23  1  0.000000  0.843861  0.720002  1
  H  H24  1  0.000000  0.156139  0.720002  1
  H  H25  1  0.000000  0.843861  0.279998  1
  H  H26  1  0.651504  0.500000  0.209188  1
  H  H27  1  0.348496  0.500000  0.209188  1
  H  H28  1  0.800208  0.354291  0.500000  1
  H  H29  1  0.199792  0.354291  0.500000  1
  H  H30  1  0.500000  0.779998  0.656139  1
  H  H31  1  0.500000  0.220002  0.343861  1
