# generated using pymatgen
data_Nd6Ir17Rh
_symmetry_space_group_name_H-M   'P 1'
_cell_length_a   5.38345500
_cell_length_b   5.38345543
_cell_length_c   17.66249900
_cell_angle_alpha   90.00000000
_cell_angle_beta   90.00000000
_cell_angle_gamma   120.00000349
_symmetry_Int_Tables_number   1
_chemical_formula_structural   Nd6Ir17Rh
_chemical_formula_sum   'Nd6 Ir17 Rh1'
_cell_volume   443.30739482
_cell_formula_units_Z   1
loop_
 _symmetry_equiv_pos_site_id
 _symmetry_equiv_pos_as_xyz
  1  'x, y, z'
loop_
 _atom_site_type_symbol
 _atom_site_label
 _atom_site_symmetry_multiplicity
 _atom_site_fract_x
 _atom_site_fract_y
 _atom_site_fract_z
 _atom_site_occupancy
  Nd  Nd0  1  0.333333  0.666667  0.541075  1
  Nd  Nd1  1  0.666667  0.333333  0.041050  1
  Nd  Nd2  1  0.666667  0.333333  0.458950  1
  Nd  Nd3  1  0.333333  0.666667  0.958925  1
  Nd  Nd4  1  0.333333  0.666667  0.750000  1
  Nd  Nd5  1  0.666667  0.333333  0.250000  1
  Ir  Ir6  1  0.166456  0.332912  0.127964  1
  Ir  Ir7  1  0.833052  0.666104  0.627738  1
  Ir  Ir8  1  0.667088  0.833544  0.127964  1
  Ir  Ir9  1  0.166456  0.833544  0.127964  1
  Ir  Ir10  1  0.833052  0.166948  0.627738  1
  Ir  Ir11  1  0.333896  0.166948  0.627738  1
  Ir  Ir12  1  0.833052  0.666104  0.872262  1
  Ir  Ir13  1  0.833052  0.166948  0.872262  1
  Ir  Ir14  1  0.333896  0.166948  0.872262  1
  Ir  Ir15  1  0.667088  0.833544  0.372036  1
  Ir  Ir16  1  0.166456  0.833544  0.372036  1
  Ir  Ir17  1  0.166456  0.332912  0.372036  1
  Ir  Ir18  1  0.000000  0.000000  0.250000  1
  Ir  Ir19  1  0.000000  0.000000  0.750000  1
  Ir  Ir20  1  0.333333  0.666667  0.250000  1
  Ir  Ir21  1  0.000000  0.000000  0.999616  1
  Ir  Ir22  1  0.000000  0.000000  0.500384  1
  Rh  Rh23  1  0.666667  0.333333  0.750000  1
