# generated using pymatgen
data_KHBr2
_symmetry_space_group_name_H-M   'P 1'
_cell_length_a   6.75622457
_cell_length_b   6.75622531
_cell_length_c   6.75622497
_cell_angle_alpha   112.41045322
_cell_angle_beta   112.41046062
_cell_angle_gamma   103.74031819
_symmetry_Int_Tables_number   1
_chemical_formula_structural   KHBr2
_chemical_formula_sum   'K2 H2 Br4'
_cell_volume   235.64807059
_cell_formula_units_Z   2
loop_
 _symmetry_equiv_pos_site_id
 _symmetry_equiv_pos_as_xyz
  1  'x, y, z'
loop_
 _atom_site_type_symbol
 _atom_site_label
 _atom_site_symmetry_multiplicity
 _atom_site_fract_x
 _atom_site_fract_y
 _atom_site_fract_z
 _atom_site_occupancy
  K  K0  1  0.250000  0.250000  0.000000  1
  K  K1  1  0.750000  0.750000  0.000000  1
  H  H2  1  0.500000  0.000000  0.500000  1
  H  H3  1  0.000000  0.500000  0.500000  1
  Br  Br4  1  0.838507  0.338507  0.177014  1
  Br  Br5  1  0.338507  0.161493  0.500000  1
  Br  Br6  1  0.661494  0.838507  0.500000  1
  Br  Br7  1  0.161493  0.661492  0.822986  1
