# generated using pymatgen
data_YbLu3(Ga2Ag)4
_symmetry_space_group_name_H-M   'P 1'
_cell_length_a   4.32146300
_cell_length_b   6.90574818
_cell_length_c   10.22275409
_cell_angle_alpha   90.47168031
_cell_angle_beta   90.00000000
_cell_angle_gamma   90.00000000
_symmetry_Int_Tables_number   1
_chemical_formula_structural   YbLu3(Ga2Ag)4
_chemical_formula_sum   'Yb1 Lu3 Ga8 Ag4'
_cell_volume   305.06665027
_cell_formula_units_Z   1
loop_
 _symmetry_equiv_pos_site_id
 _symmetry_equiv_pos_as_xyz
  1  'x, y, z'
loop_
 _atom_site_type_symbol
 _atom_site_label
 _atom_site_symmetry_multiplicity
 _atom_site_fract_x
 _atom_site_fract_y
 _atom_site_fract_z
 _atom_site_occupancy
  Yb  Yb0  1  0.250000  0.275031  0.672547  1
  Lu  Lu1  1  0.250000  0.777651  0.827192  1
  Lu  Lu2  1  0.750000  0.225343  0.173296  1
  Lu  Lu3  1  0.750000  0.723520  0.327676  1
  Ga  Ga4  1  0.250000  0.705380  0.535992  1
  Ga  Ga5  1  0.750000  0.297872  0.463440  1
  Ga  Ga6  1  0.750000  0.794689  0.037292  1
  Ga  Ga7  1  0.250000  0.198806  0.965223  1
  Ga  Ga8  1  0.250000  0.928481  0.155952  1
  Ga  Ga9  1  0.750000  0.068561  0.847637  1
  Ga  Ga10  1  0.750000  0.572096  0.652084  1
  Ga  Ga11  1  0.250000  0.430715  0.344207  1
  Ag  Ag12  1  0.250000  0.543339  0.097230  1
  Ag  Ag13  1  0.750000  0.456312  0.901851  1
  Ag  Ag14  1  0.750000  0.957823  0.597169  1
  Ag  Ag15  1  0.250000  0.044380  0.401214  1
