# generated using pymatgen
data_RbSe27
_symmetry_space_group_name_H-M   'P 1'
_cell_length_a   14.68034899
_cell_length_b   14.68035014
_cell_length_c   14.68035078
_cell_angle_alpha   117.97354567
_cell_angle_beta   117.97354878
_cell_angle_gamma   117.97354155
_symmetry_Int_Tables_number   1
_chemical_formula_structural   RbSe27
_chemical_formula_sum   'Rb1 Se27'
_cell_volume   1156.10722325
_cell_formula_units_Z   1
loop_
 _symmetry_equiv_pos_site_id
 _symmetry_equiv_pos_as_xyz
  1  'x, y, z'
loop_
 _atom_site_type_symbol
 _atom_site_label
 _atom_site_symmetry_multiplicity
 _atom_site_fract_x
 _atom_site_fract_y
 _atom_site_fract_z
 _atom_site_occupancy
  Rb  Rb0  1  0.451469  0.451469  0.451469  1
  Se  Se1  1  0.010907  0.638331  0.638331  1
  Se  Se2  1  0.638331  0.638331  0.010907  1
  Se  Se3  1  0.638331  0.010907  0.638331  1
  Se  Se4  1  0.223238  0.864299  0.712679  1
  Se  Se5  1  0.864299  0.712679  0.223238  1
  Se  Se6  1  0.712679  0.223238  0.864299  1
  Se  Se7  1  0.864299  0.223238  0.712679  1
  Se  Se8  1  0.223238  0.712679  0.864299  1
  Se  Se9  1  0.712679  0.864299  0.223238  1
  Se  Se10  1  0.104781  0.650398  0.436830  1
  Se  Se11  1  0.650398  0.436830  0.104781  1
  Se  Se12  1  0.436830  0.104781  0.650398  1
  Se  Se13  1  0.650398  0.104781  0.436830  1
  Se  Se14  1  0.104781  0.436830  0.650398  1
  Se  Se15  1  0.436830  0.650398  0.104781  1
  Se  Se16  1  0.361779  0.739412  0.589864  1
  Se  Se17  1  0.739412  0.589864  0.361779  1
  Se  Se18  1  0.589864  0.361779  0.739412  1
  Se  Se19  1  0.739412  0.361779  0.589864  1
  Se  Se20  1  0.361779  0.589864  0.739412  1
  Se  Se21  1  0.589864  0.739412  0.361779  1
  Se  Se22  1  0.196109  0.448505  0.448505  1
  Se  Se23  1  0.448505  0.448505  0.196109  1
  Se  Se24  1  0.448505  0.196109  0.448505  1
  Se  Se25  1  0.015468  0.916459  0.916459  1
  Se  Se26  1  0.916459  0.916459  0.015468  1
  Se  Se27  1  0.916459  0.015468  0.916459  1
