# generated using pymatgen
data_Pa6SnSb7Pt6
_symmetry_space_group_name_H-M   'P 1'
_cell_length_a   8.46783157
_cell_length_b   8.47718548
_cell_length_c   8.47718665
_cell_angle_alpha   109.49356845
_cell_angle_beta   109.44887263
_cell_angle_gamma   109.44886278
_symmetry_Int_Tables_number   1
_chemical_formula_structural   Pa6SnSb7Pt6
_chemical_formula_sum   'Pa6 Sn1 Sb7 Pt6'
_cell_volume   468.56890121
_cell_formula_units_Z   1
loop_
 _symmetry_equiv_pos_site_id
 _symmetry_equiv_pos_as_xyz
  1  'x, y, z'
loop_
 _atom_site_type_symbol
 _atom_site_label
 _atom_site_symmetry_multiplicity
 _atom_site_fract_x
 _atom_site_fract_y
 _atom_site_fract_z
 _atom_site_occupancy
  Pa  Pa0  1  0.874763  0.251306  0.124913  1
  Pa  Pa1  1  0.625066  0.749148  0.374444  1
  Pa  Pa2  1  0.250622  0.125556  0.874704  1
  Pa  Pa3  1  0.749850  0.375087  0.626392  1
  Pa  Pa4  1  0.123458  0.873608  0.248694  1
  Pa  Pa5  1  0.375918  0.625296  0.750852  1
  Sn  Sn6  1  0.680259  0.500000  0.000000  1
  Sb  Sb7  1  0.499914  0.000817  0.679560  1
  Sb  Sb8  1  0.999097  0.678743  0.499183  1
  Sb  Sb9  1  0.820354  0.820440  0.821257  1
  Sb  Sb10  1  0.500392  0.000280  0.179454  1
  Sb  Sb11  1  0.179013  0.500000  0.000000  1
  Sb  Sb12  1  0.000111  0.179173  0.499720  1
  Sb  Sb13  1  0.320938  0.320546  0.320827  1
  Pt  Pt14  1  0.375708  0.251255  0.626035  1
  Pt  Pt15  1  0.125117  0.749982  0.874956  1
  Pt  Pt16  1  0.250161  0.625044  0.375026  1
  Pt  Pt17  1  0.749673  0.873965  0.125220  1
  Pt  Pt18  1  0.624453  0.374780  0.248745  1
  Pt  Pt19  1  0.875135  0.124974  0.750018  1
