# generated using pymatgen
data_Ti12Tc6Ru5Pt
_symmetry_space_group_name_H-M   'P 1'
_cell_length_a   4.35503700
_cell_length_b   6.21996300
_cell_length_c   13.18709100
_cell_angle_alpha   90.00000000
_cell_angle_beta   90.00024453
_cell_angle_gamma   90.00000000
_symmetry_Int_Tables_number   1
_chemical_formula_structural   Ti12Tc6Ru5Pt
_chemical_formula_sum   'Ti12 Tc6 Ru5 Pt1'
_cell_volume   357.21414967
_cell_formula_units_Z   1
loop_
 _symmetry_equiv_pos_site_id
 _symmetry_equiv_pos_as_xyz
  1  'x, y, z'
loop_
 _atom_site_type_symbol
 _atom_site_label
 _atom_site_symmetry_multiplicity
 _atom_site_fract_x
 _atom_site_fract_y
 _atom_site_fract_z
 _atom_site_occupancy
  Ti  Ti0  1  0.499990  0.243402  0.999996  1
  Ti  Ti1  1  0.499990  0.756597  0.999996  1
  Ti  Ti2  1  0.000039  0.246939  0.170395  1
  Ti  Ti3  1  0.000039  0.753060  0.170395  1
  Ti  Ti4  1  0.500042  0.250944  0.333681  1
  Ti  Ti5  1  0.500042  0.749056  0.333681  1
  Ti  Ti6  1  0.999997  0.250313  0.500005  1
  Ti  Ti7  1  0.999997  0.749688  0.500005  1
  Ti  Ti8  1  0.499944  0.250946  0.666323  1
  Ti  Ti9  1  0.499944  0.749054  0.666323  1
  Ti  Ti10  1  0.999935  0.246941  0.829601  1
  Ti  Ti11  1  0.999935  0.753058  0.829601  1
  Tc  Tc12  1  0.999990  0.000000  0.999991  1
  Tc  Tc13  1  0.500038  0.500000  0.164883  1
  Tc  Tc14  1  0.000040  0.000000  0.333334  1
  Tc  Tc15  1  0.499997  0.500000  0.500010  1
  Tc  Tc16  1  0.999946  0.000000  0.666675  1
  Tc  Tc17  1  0.499936  0.500000  0.835105  1
  Ru  Ru18  1  0.500023  0.000000  0.166282  1
  Ru  Ru19  1  0.000030  0.500000  0.332471  1
  Ru  Ru20  1  0.499997  0.000000  0.500010  1
  Ru  Ru21  1  0.999956  0.500000  0.667536  1
  Ru  Ru22  1  0.499961  0.000000  0.833715  1
  Pt  Pt23  1  0.999989  0.500000  0.999992  1
