# generated using pymatgen
data_Tb4GaTc6Os
_symmetry_space_group_name_H-M   'P 1'
_cell_length_a   5.30479800
_cell_length_b   5.30479765
_cell_length_c   9.12838800
_cell_angle_alpha   90.00000000
_cell_angle_beta   90.00000000
_cell_angle_gamma   119.99998973
_symmetry_Int_Tables_number   1
_chemical_formula_structural   Tb4GaTc6Os
_chemical_formula_sum   'Tb4 Ga1 Tc6 Os1'
_cell_volume   222.46538292
_cell_formula_units_Z   1
loop_
 _symmetry_equiv_pos_site_id
 _symmetry_equiv_pos_as_xyz
  1  'x, y, z'
loop_
 _atom_site_type_symbol
 _atom_site_label
 _atom_site_symmetry_multiplicity
 _atom_site_fract_x
 _atom_site_fract_y
 _atom_site_fract_z
 _atom_site_occupancy
  Tb  Tb0  1  0.333333  0.666667  0.432028  1
  Tb  Tb1  1  0.666667  0.333333  0.567972  1
  Tb  Tb2  1  0.666667  0.333333  0.935354  1
  Tb  Tb3  1  0.333333  0.666667  0.064646  1
  Ga  Ga4  1  0.000000  0.000000  0.500000  1
  Tc  Tc5  1  0.829727  0.170273  0.250739  1
  Tc  Tc6  1  0.829727  0.659454  0.250739  1
  Tc  Tc7  1  0.340546  0.170273  0.250739  1
  Tc  Tc8  1  0.170273  0.829727  0.749261  1
  Tc  Tc9  1  0.170273  0.340546  0.749261  1
  Tc  Tc10  1  0.659454  0.829727  0.749261  1
  Os  Os11  1  0.000000  0.000000  0.000000  1
