# generated using pymatgen
data_LiSc6Ir3Rh2
_symmetry_space_group_name_H-M   'P 1'
_cell_length_a   4.58796200
_cell_length_b   6.46232900
_cell_length_c   13.83703300
_cell_angle_alpha   90.00062087
_cell_angle_beta   90.00194302
_cell_angle_gamma   89.99964784
_symmetry_Int_Tables_number   1
_chemical_formula_structural   LiSc6Ir3Rh2
_chemical_formula_sum   'Li2 Sc12 Ir6 Rh4'
_cell_volume   410.25308271
_cell_formula_units_Z   2
loop_
 _symmetry_equiv_pos_site_id
 _symmetry_equiv_pos_as_xyz
  1  'x, y, z'
loop_
 _atom_site_type_symbol
 _atom_site_label
 _atom_site_symmetry_multiplicity
 _atom_site_fract_x
 _atom_site_fract_y
 _atom_site_fract_z
 _atom_site_occupancy
  Li  Li0  1  0.000000  0.500000  0.999991  1
  Li  Li1  1  0.499872  0.000000  0.166700  1
  Sc  Sc2  1  0.500005  0.248122  0.998108  1
  Sc  Sc3  1  0.500004  0.751876  0.998108  1
  Sc  Sc4  1  0.999908  0.251852  0.168549  1
  Sc  Sc5  1  0.999912  0.748149  0.168548  1
  Sc  Sc6  1  0.499920  0.251157  0.335136  1
  Sc  Sc7  1  0.499919  0.748840  0.335136  1
  Sc  Sc8  1  0.000002  0.250048  0.500082  1
  Sc  Sc9  1  0.999998  0.749951  0.500082  1
  Sc  Sc10  1  0.500077  0.249962  0.666609  1
  Sc  Sc11  1  0.500079  0.750039  0.666608  1
  Sc  Sc12  1  0.000097  0.248834  0.831511  1
  Sc  Sc13  1  0.000096  0.751166  0.831511  1
  Ir  Ir14  1  0.000005  0.000000  0.001546  1
  Ir  Ir15  1  0.499906  0.500000  0.165163  1
  Ir  Ir16  1  0.999910  0.000000  0.330777  1
  Ir  Ir17  1  0.500001  0.499999  0.499892  1
  Ir  Ir18  1  0.000090  0.000000  0.666734  1
  Ir  Ir19  1  0.500103  0.499999  0.835897  1
  Rh  Rh20  1  0.999934  0.499999  0.334249  1
  Rh  Rh21  1  0.500000  0.999999  0.500585  1
  Rh  Rh22  1  0.000069  0.500000  0.666070  1
  Rh  Rh23  1  0.500094  0.000001  0.832410  1
