# generated using pymatgen
data_Tb3Nd3(RuI3)2
_symmetry_space_group_name_H-M   'P 1'
_cell_length_a   4.29347500
_cell_length_b   9.05943445
_cell_length_c   12.45812708
_cell_angle_alpha   85.99751275
_cell_angle_beta   90.00000000
_cell_angle_gamma   90.00000000
_symmetry_Int_Tables_number   1
_chemical_formula_structural   Tb3Nd3(RuI3)2
_chemical_formula_sum   'Tb3 Nd3 Ru2 I6'
_cell_volume   483.39511065
_cell_formula_units_Z   1
loop_
 _symmetry_equiv_pos_site_id
 _symmetry_equiv_pos_as_xyz
  1  'x, y, z'
loop_
 _atom_site_type_symbol
 _atom_site_label
 _atom_site_symmetry_multiplicity
 _atom_site_fract_x
 _atom_site_fract_y
 _atom_site_fract_z
 _atom_site_occupancy
  Tb  Tb0  1  0.750000  0.120119  0.121244  1
  Tb  Tb1  1  0.250000  0.880084  0.877154  1
  Tb  Tb2  1  0.750000  0.096765  0.682650  1
  Nd  Nd3  1  0.250000  0.904625  0.321899  1
  Nd  Nd4  1  0.250000  0.275161  0.894984  1
  Nd  Nd5  1  0.750000  0.723956  0.102973  1
  Ru  Ru6  1  0.750000  0.061572  0.902570  1
  Ru  Ru7  1  0.250000  0.938720  0.095633  1
  I  I8  1  0.250000  0.415968  0.136991  1
  I  I9  1  0.750000  0.582864  0.861433  1
  I  I10  1  0.250000  0.343658  0.632542  1
  I  I11  1  0.750000  0.646256  0.366426  1
  I  I12  1  0.750000  0.151101  0.391410  1
  I  I13  1  0.250000  0.859152  0.612091  1
