# generated using pymatgen
data_Nb6ReSi6Mo5
_symmetry_space_group_name_H-M   'P 1'
_cell_length_a   7.70161899
_cell_length_b   7.70136888
_cell_length_c   7.70189381
_cell_angle_alpha   126.54652755
_cell_angle_beta   128.15500867
_cell_angle_gamma   77.69888467
_symmetry_Int_Tables_number   1
_chemical_formula_structural   Nb6ReSi6Mo5
_chemical_formula_sum   'Nb6 Re1 Si6 Mo5'
_cell_volume   279.78509369
_cell_formula_units_Z   1
loop_
 _symmetry_equiv_pos_site_id
 _symmetry_equiv_pos_as_xyz
  1  'x, y, z'
loop_
 _atom_site_type_symbol
 _atom_site_label
 _atom_site_symmetry_multiplicity
 _atom_site_fract_x
 _atom_site_fract_y
 _atom_site_fract_z
 _atom_site_occupancy
  Nb  Nb0  1  0.548240  0.090438  0.042308  1
  Nb  Nb1  1  0.451228  0.496091  0.546120  1
  Nb  Nb2  1  0.949987  0.496093  0.044890  1
  Nb  Nb3  1  0.048186  0.090436  0.542248  1
  Nb  Nb4  1  0.751614  0.903413  0.652566  1
  Nb  Nb5  1  0.250803  0.903414  0.151762  1
  Re  Re6  1  0.371301  0.496843  0.125540  1
  Si  Si7  1  0.748917  0.497334  0.248034  1
  Si  Si8  1  0.249263  0.497242  0.748365  1
  Si  Si9  1  0.333675  0.826562  0.492917  1
  Si  Si10  1  0.667077  0.164032  0.496964  1
  Si  Si11  1  0.833510  0.829651  0.996153  1
  Si  Si12  1  0.168756  0.166409  0.997651  1
  Mo  Mo13  1  0.499061  0.238539  0.739307  1
  Mo  Mo14  1  0.000483  0.239932  0.239296  1
  Mo  Mo15  1  0.129169  0.754883  0.625706  1
  Mo  Mo16  1  0.870297  0.496705  0.626533  1
  Mo  Mo17  1  0.628431  0.754183  0.125838  1
