# generated using pymatgen
data_Ca6Nd2Bi5Sb
_symmetry_space_group_name_H-M   'P 1'
_cell_length_a   8.38395447
_cell_length_b   8.43572453
_cell_length_c   8.37590528
_cell_angle_alpha   109.51313109
_cell_angle_beta   109.08405846
_cell_angle_gamma   109.47180684
_symmetry_Int_Tables_number   1
_chemical_formula_structural   Ca6Nd2Bi5Sb
_chemical_formula_sum   'Ca6 Nd2 Bi5 Sb1'
_cell_volume   457.94073659
_cell_formula_units_Z   1
loop_
 _symmetry_equiv_pos_site_id
 _symmetry_equiv_pos_as_xyz
  1  'x, y, z'
loop_
 _atom_site_type_symbol
 _atom_site_label
 _atom_site_symmetry_multiplicity
 _atom_site_fract_x
 _atom_site_fract_y
 _atom_site_fract_z
 _atom_site_occupancy
  Ca  Ca0  1  0.142452  0.499018  0.001362  1
  Ca  Ca1  1  0.500743  0.996368  0.638706  1
  Ca  Ca2  1  0.358042  0.360450  0.358146  1
  Ca  Ca3  1  0.999436  0.141114  0.500936  1
  Ca  Ca4  1  0.857049  0.857309  0.854198  1
  Ca  Ca5  1  0.000334  0.644377  0.501585  1
  Nd  Nd6  1  0.641207  0.502726  0.004110  1
  Nd  Nd7  1  0.501261  0.999187  0.142974  1
  Bi  Bi8  1  0.874006  0.251598  0.126216  1
  Bi  Bi9  1  0.123983  0.873256  0.247697  1
  Bi  Bi10  1  0.376045  0.625045  0.751226  1
  Bi  Bi11  1  0.251591  0.125167  0.876362  1
  Bi  Bi12  1  0.747844  0.373193  0.624212  1
  Sb  Sb13  1  0.626006  0.751191  0.372273  1
