# generated using pymatgen
data_Y4Ta(Pd3Pt2)3
_symmetry_space_group_name_H-M   'P 1'
_cell_length_a   4.10471100
_cell_length_b   4.10036200
_cell_length_c   20.55293200
_cell_angle_alpha   90.00000000
_cell_angle_beta   90.00000000
_cell_angle_gamma   90.00000000
_symmetry_Int_Tables_number   1
_chemical_formula_structural   Y4Ta(Pd3Pt2)3
_chemical_formula_sum   'Y4 Ta1 Pd9 Pt6'
_cell_volume   345.92230857
_cell_formula_units_Z   1
loop_
 _symmetry_equiv_pos_site_id
 _symmetry_equiv_pos_as_xyz
  1  'x, y, z'
loop_
 _atom_site_type_symbol
 _atom_site_label
 _atom_site_symmetry_multiplicity
 _atom_site_fract_x
 _atom_site_fract_y
 _atom_site_fract_z
 _atom_site_occupancy
  Y  Y0  1  0.000000  0.000000  0.198928  1
  Y  Y1  1  0.000000  0.000000  0.398516  1
  Y  Y2  1  0.000000  0.000000  0.601564  1
  Y  Y3  1  0.000000  0.000000  0.801290  1
  Ta  Ta4  1  0.000000  0.000000  0.000323  1
  Pd  Pd5  1  0.500000  0.500000  0.193571  1
  Pd  Pd6  1  0.500000  0.500000  0.397983  1
  Pd  Pd7  1  0.500000  0.500000  0.601988  1
  Pd  Pd8  1  0.500000  0.500000  0.806489  1
  Pd  Pd9  1  0.500000  0.000000  0.499990  1
  Pd  Pd10  1  0.000000  0.500000  0.296847  1
  Pd  Pd11  1  0.000000  0.500000  0.499981  1
  Pd  Pd12  1  0.000000  0.500000  0.703199  1
  Pd  Pd13  1  0.000000  0.500000  0.908228  1
  Pt  Pt14  1  0.500000  0.500000  0.999803  1
  Pt  Pt15  1  0.500000  0.000000  0.091211  1
  Pt  Pt16  1  0.500000  0.000000  0.297041  1
  Pt  Pt17  1  0.500000  0.000000  0.703112  1
  Pt  Pt18  1  0.500000  0.000000  0.908875  1
  Pt  Pt19  1  0.000000  0.500000  0.091061  1
