# generated using pymatgen
data_Rb2YNpO6
_symmetry_space_group_name_H-M   'P 1'
_cell_length_a   6.14591207
_cell_length_b   6.14591190
_cell_length_c   6.14591300
_cell_angle_alpha   59.99999945
_cell_angle_beta   60.00000037
_cell_angle_gamma   59.99999933
_symmetry_Int_Tables_number   1
_chemical_formula_structural   Rb2YNpO6
_chemical_formula_sum   'Rb2 Y1 Np1 O6'
_cell_volume   164.15120691
_cell_formula_units_Z   1
loop_
 _symmetry_equiv_pos_site_id
 _symmetry_equiv_pos_as_xyz
  1  'x, y, z'
loop_
 _atom_site_type_symbol
 _atom_site_label
 _atom_site_symmetry_multiplicity
 _atom_site_fract_x
 _atom_site_fract_y
 _atom_site_fract_z
 _atom_site_occupancy
  Rb  Rb0  1  0.750000  0.750000  0.750000  1
  Rb  Rb1  1  0.250000  0.250000  0.250000  1
  Y  Y2  1  0.000000  0.000000  0.000000  1
  Np  Np3  1  0.500000  0.500000  0.500000  1
  O  O4  1  0.735060  0.264940  0.264940  1
  O  O5  1  0.264940  0.264940  0.735060  1
  O  O6  1  0.264940  0.735060  0.735060  1
  O  O7  1  0.264940  0.735060  0.264940  1
  O  O8  1  0.735060  0.264940  0.735060  1
  O  O9  1  0.735060  0.735060  0.264940  1
