# generated using pymatgen
data_PH3Cl4
_symmetry_space_group_name_H-M   'P 1'
_cell_length_a   4.95565735
_cell_length_b   4.36368176
_cell_length_c   10.83604483
_cell_angle_alpha   95.40470826
_cell_angle_beta   99.10738611
_cell_angle_gamma   88.62657930
_symmetry_Int_Tables_number   1
_chemical_formula_structural   PH3Cl4
_chemical_formula_sum   'P1 H3 Cl4'
_cell_volume   230.33600708
_cell_formula_units_Z   1
loop_
 _symmetry_equiv_pos_site_id
 _symmetry_equiv_pos_as_xyz
  1  'x, y, z'
loop_
 _atom_site_type_symbol
 _atom_site_label
 _atom_site_symmetry_multiplicity
 _atom_site_fract_x
 _atom_site_fract_y
 _atom_site_fract_z
 _atom_site_occupancy
  P  P0  1  0.121428  0.699477  0.597512  1
  H  H1  1  0.821355  0.441012  0.039791  1
  H  H2  1  0.340016  0.519920  0.086640  1
  H  H3  1  0.034178  0.435276  0.649229  1
  Cl  Cl4  1  0.435086  0.806685  0.745530  1
  Cl  Cl5  1  0.317505  0.446856  0.465586  1
  Cl  Cl6  1  0.991748  0.286832  0.974419  1
  Cl  Cl7  1  0.546961  0.675183  0.153057  1
