# generated using pymatgen
data_Tb7YSe12
_symmetry_space_group_name_H-M   'P 1'
_cell_length_a   13.66860189
_cell_length_b   13.04624932
_cell_length_c   7.14252635
_cell_angle_alpha   79.36644953
_cell_angle_beta   69.73120303
_cell_angle_gamma   30.88647697
_symmetry_Int_Tables_number   1
_chemical_formula_structural   Tb7YSe12
_chemical_formula_sum   'Tb7 Y1 Se12'
_cell_volume   596.28927859
_cell_formula_units_Z   1
loop_
 _symmetry_equiv_pos_site_id
 _symmetry_equiv_pos_as_xyz
  1  'x, y, z'
loop_
 _atom_site_type_symbol
 _atom_site_label
 _atom_site_symmetry_multiplicity
 _atom_site_fract_x
 _atom_site_fract_y
 _atom_site_fract_z
 _atom_site_occupancy
  Tb  Tb0  1  0.333912  0.333912  0.166088  1
  Tb  Tb1  1  0.166110  0.166110  0.333890  1
  Tb  Tb2  1  0.916003  0.916003  0.083997  1
  Tb  Tb3  1  0.083997  0.083997  0.916003  1
  Tb  Tb4  1  0.997390  0.997390  0.502610  1
  Tb  Tb5  1  0.502656  0.502656  0.997344  1
  Tb  Tb6  1  0.252605  0.252605  0.747395  1
  Y  Y7  1  0.747447  0.747447  0.252553  1
  Se  Se8  1  0.008425  0.491571  0.491403  1
  Se  Se9  1  0.491571  0.008425  0.008601  1
  Se  Se10  1  0.241479  0.758530  0.758422  1
  Se  Se11  1  0.758530  0.241479  0.241569  1
  Se  Se12  1  0.664104  0.174035  0.842304  1
  Se  Se13  1  0.842253  0.319626  0.664170  1
  Se  Se14  1  0.319626  0.842253  0.173950  1
  Se  Se15  1  0.174035  0.664104  0.319557  1
  Se  Se16  1  0.586115  0.075449  0.407519  1
  Se  Se17  1  0.408187  0.930105  0.585370  1
  Se  Se18  1  0.930105  0.408187  0.076339  1
  Se  Se19  1  0.075449  0.586115  0.930917  1
