# generated using pymatgen
data_Rb3Sc2I9
_symmetry_space_group_name_H-M   'P 1'
_cell_length_a   8.37992652
_cell_length_b   8.37992602
_cell_length_c   21.11640099
_cell_angle_alpha   88.85699300
_cell_angle_beta   88.85699395
_cell_angle_gamma   119.90788423
_symmetry_Int_Tables_number   1
_chemical_formula_structural   Rb3Sc2I9
_chemical_formula_sum   'Rb6 Sc4 I18'
_cell_volume   1284.36469287
_cell_formula_units_Z   2
loop_
 _symmetry_equiv_pos_site_id
 _symmetry_equiv_pos_as_xyz
  1  'x, y, z'
loop_
 _atom_site_type_symbol
 _atom_site_label
 _atom_site_symmetry_multiplicity
 _atom_site_fract_x
 _atom_site_fract_y
 _atom_site_fract_z
 _atom_site_occupancy
  Rb  Rb0  1  0.995674  0.004326  0.750000  1
  Rb  Rb1  1  0.667884  0.330710  0.068580  1
  Rb  Rb2  1  0.004326  0.995674  0.250000  1
  Rb  Rb3  1  0.330710  0.667884  0.568580  1
  Rb  Rb4  1  0.332116  0.669290  0.931420  1
  Rb  Rb5  1  0.669290  0.332116  0.431420  1
  Sc  Sc6  1  0.651513  0.320941  0.658698  1
  Sc  Sc7  1  0.348487  0.679059  0.341302  1
  Sc  Sc8  1  0.320941  0.651513  0.158698  1
  Sc  Sc9  1  0.679059  0.348487  0.841302  1
  I  I10  1  0.638385  0.806110  0.078764  1
  I  I11  1  0.361615  0.193890  0.921236  1
  I  I12  1  0.506813  0.017209  0.760041  1
  I  I13  1  0.197018  0.857487  0.410717  1
  I  I14  1  0.857487  0.197018  0.910717  1
  I  I15  1  0.806110  0.638385  0.578764  1
  I  I16  1  0.802982  0.142513  0.589283  1
  I  I17  1  0.311262  0.145145  0.598711  1
  I  I18  1  0.493187  0.982791  0.239959  1
  I  I19  1  0.982791  0.493187  0.739959  1
  I  I20  1  0.142513  0.802982  0.089283  1
  I  I21  1  0.017209  0.506813  0.260041  1
  I  I22  1  0.506430  0.493570  0.750000  1
  I  I23  1  0.854855  0.688738  0.901289  1
  I  I24  1  0.145145  0.311262  0.098711  1
  I  I25  1  0.688738  0.854855  0.401289  1
  I  I26  1  0.493570  0.506430  0.250000  1
  I  I27  1  0.193890  0.361615  0.421236  1
