# generated using pymatgen
data_SrMo2(PO4)3
_symmetry_space_group_name_H-M   'P 1'
_cell_length_a   8.81560816
_cell_length_b   8.81560792
_cell_length_c   9.29764489
_cell_angle_alpha   61.62793096
_cell_angle_beta   61.62793106
_cell_angle_gamma   60.35963074
_symmetry_Int_Tables_number   1
_chemical_formula_structural   SrMo2(PO4)3
_chemical_formula_sum   'Sr2 Mo4 P6 O24'
_cell_volume   524.61772608
_cell_formula_units_Z   2
loop_
 _symmetry_equiv_pos_site_id
 _symmetry_equiv_pos_as_xyz
  1  'x, y, z'
loop_
 _atom_site_type_symbol
 _atom_site_label
 _atom_site_symmetry_multiplicity
 _atom_site_fract_x
 _atom_site_fract_y
 _atom_site_fract_z
 _atom_site_occupancy
  Sr  Sr0  1  0.007579  0.490703  0.748625  1
  Sr  Sr1  1  0.509297  0.992421  0.251375  1
  Mo  Mo2  1  0.650968  0.142146  0.809167  1
  Mo  Mo3  1  0.857854  0.349032  0.190833  1
  Mo  Mo4  1  0.151938  0.643772  0.306011  1
  Mo  Mo5  1  0.356228  0.848062  0.693989  1
  P  P6  1  0.256232  0.455195  0.001498  1
  P  P7  1  0.460732  0.245357  0.502516  1
  P  P8  1  0.045946  0.954054  0.500000  1
  P  P9  1  0.964787  0.035213  0.000000  1
  P  P10  1  0.544805  0.743768  0.998502  1
  P  P11  1  0.754643  0.539268  0.497484  1
  O  O12  1  0.029373  0.117116  0.336473  1
  O  O13  1  0.778315  0.521725  0.331884  1
  O  O14  1  0.422097  0.274511  0.997959  1
  O  O15  1  0.304601  0.611887  0.835222  1
  O  O16  1  0.228657  0.918647  0.521697  1
  O  O17  1  0.624197  0.265637  0.339496  1
  O  O18  1  0.478275  0.221685  0.668116  1
  O  O19  1  0.087878  0.442351  0.001985  1
  O  O20  1  0.430236  0.074191  0.520464  1
  O  O21  1  0.279668  0.411629  0.483684  1
  O  O22  1  0.882884  0.970627  0.663527  1
  O  O23  1  0.081353  0.771343  0.478303  1
  O  O24  1  0.946315  0.216864  0.004743  1
  O  O25  1  0.122455  0.003543  0.834472  1
  O  O26  1  0.557649  0.912122  0.998015  1
  O  O27  1  0.725489  0.577903  0.002041  1
  O  O28  1  0.925809  0.569764  0.479536  1
  O  O29  1  0.512536  0.785959  0.831357  1
  O  O30  1  0.388113  0.695399  0.164778  1
  O  O31  1  0.783136  0.053685  0.995257  1
  O  O32  1  0.734363  0.375803  0.660504  1
  O  O33  1  0.588371  0.720332  0.516316  1
  O  O34  1  0.214041  0.487464  0.168643  1
  O  O35  1  0.996457  0.877545  0.165528  1
