# generated using pymatgen
data_CaPr4Nd3(ReC2)4
_symmetry_space_group_name_H-M   'P 1'
_cell_length_a   5.37278900
_cell_length_b   6.71030800
_cell_length_c   10.31681607
_cell_angle_alpha   90.33146097
_cell_angle_beta   90.00000000
_cell_angle_gamma   90.00000000
_symmetry_Int_Tables_number   1
_chemical_formula_structural   CaPr4Nd3(ReC2)4
_chemical_formula_sum   'Ca1 Pr4 Nd3 Re4 C8'
_cell_volume   371.94665788
_cell_formula_units_Z   1
loop_
 _symmetry_equiv_pos_site_id
 _symmetry_equiv_pos_as_xyz
  1  'x, y, z'
loop_
 _atom_site_type_symbol
 _atom_site_label
 _atom_site_symmetry_multiplicity
 _atom_site_fract_x
 _atom_site_fract_y
 _atom_site_fract_z
 _atom_site_occupancy
  Ca  Ca0  1  0.250000  0.470325  0.779345  1
  Pr  Pr1  1  0.750000  0.028583  0.286744  1
  Pr  Pr2  1  0.250000  0.973501  0.717040  1
  Pr  Pr3  1  0.750000  0.527796  0.216460  1
  Pr  Pr4  1  0.250000  0.808123  0.048660  1
  Nd  Nd5  1  0.750000  0.688552  0.552587  1
  Nd  Nd6  1  0.250000  0.313349  0.450238  1
  Nd  Nd7  1  0.750000  0.193586  0.947561  1
  Re  Re8  1  0.250000  0.268348  0.144135  1
  Re  Re9  1  0.750000  0.228621  0.642907  1
  Re  Re10  1  0.250000  0.770572  0.356127  1
  Re  Re11  1  0.750000  0.729500  0.856469  1
  C  C12  1  0.250000  0.691808  0.533558  1
  C  C13  1  0.750000  0.807987  0.034970  1
  C  C14  1  0.250000  0.187774  0.966012  1
  C  C15  1  0.750000  0.314706  0.465442  1
  C  C16  1  0.250000  0.034234  0.258730  1
  C  C17  1  0.750000  0.465233  0.758129  1
  C  C18  1  0.250000  0.532205  0.242312  1
  C  C19  1  0.750000  0.965196  0.742573  1
