# generated using pymatgen
data_La15YCdHg3Ru4
_symmetry_space_group_name_H-M   'P 1'
_cell_length_a   10.04451178
_cell_length_b   10.12202244
_cell_length_c   10.04451288
_cell_angle_alpha   59.44477076
_cell_angle_beta   59.89175316
_cell_angle_gamma   59.44477976
_symmetry_Int_Tables_number   1
_chemical_formula_structural   La15YCdHg3Ru4
_chemical_formula_sum   'La15 Y1 Cd1 Hg3 Ru4'
_cell_volume   715.42385094
_cell_formula_units_Z   1
loop_
 _symmetry_equiv_pos_site_id
 _symmetry_equiv_pos_as_xyz
  1  'x, y, z'
loop_
 _atom_site_type_symbol
 _atom_site_label
 _atom_site_symmetry_multiplicity
 _atom_site_fract_x
 _atom_site_fract_y
 _atom_site_fract_z
 _atom_site_occupancy
  La  La0  1  0.443517  0.439231  0.059346  1
  La  La1  1  0.060324  0.061118  0.441485  1
  La  La2  1  0.441485  0.061118  0.060324  1
  La  La3  1  0.844463  0.849009  0.844463  1
  La  La4  1  0.691130  0.310035  0.316227  1
  La  La5  1  0.059346  0.439231  0.443517  1
  La  La6  1  0.314659  0.685556  0.691357  1
  La  La7  1  0.316227  0.310035  0.691130  1
  La  La8  1  0.847740  0.846212  0.457159  1
  La  La9  1  0.691357  0.685556  0.314659  1
  La  La10  1  0.457159  0.846212  0.847740  1
  La  La11  1  0.058301  0.443688  0.058301  1
  La  La12  1  0.843722  0.461490  0.843722  1
  La  La13  1  0.444040  0.056764  0.444040  1
  La  La14  1  0.312127  0.688818  0.312127  1
  Y  Y15  1  0.692601  0.307735  0.692601  1
  Cd  Cd16  1  0.077588  0.079161  0.077588  1
  Hg  Hg17  1  0.082159  0.753321  0.082159  1
  Hg  Hg18  1  0.078287  0.085284  0.753352  1
  Hg  Hg19  1  0.753352  0.085284  0.078287  1
  Ru  Ru20  1  0.632325  0.088446  0.632325  1
  Ru  Ru21  1  0.632945  0.645574  0.632945  1
  Ru  Ru22  1  0.635406  0.635560  0.089741  1
  Ru  Ru23  1  0.089741  0.635560  0.635406  1
