# generated using pymatgen
data_Y6Al21Si3Os3Ru5
_symmetry_space_group_name_H-M   'P 1'
_cell_length_a   8.70809471
_cell_length_b   8.71242022
_cell_length_c   9.64536564
_cell_angle_alpha   90.07117081
_cell_angle_beta   89.99049050
_cell_angle_gamma   120.03872416
_symmetry_Int_Tables_number   1
_chemical_formula_structural   Y6Al21Si3Os3Ru5
_chemical_formula_sum   'Y6 Al21 Si3 Os3 Ru5'
_cell_volume   633.49222879
_cell_formula_units_Z   1
loop_
 _symmetry_equiv_pos_site_id
 _symmetry_equiv_pos_as_xyz
  1  'x, y, z'
loop_
 _atom_site_type_symbol
 _atom_site_label
 _atom_site_symmetry_multiplicity
 _atom_site_fract_x
 _atom_site_fract_y
 _atom_site_fract_z
 _atom_site_occupancy
  Y  Y0  1  0.196907  0.388387  0.247960  1
  Y  Y1  1  0.802680  0.609958  0.752341  1
  Y  Y2  1  0.611098  0.804169  0.248900  1
  Y  Y3  1  0.389805  0.196151  0.752212  1
  Y  Y4  1  0.195705  0.806979  0.248335  1
  Y  Y5  1  0.803711  0.194190  0.751868  1
  Al  Al6  1  0.332346  0.666323  0.479260  1
  Al  Al7  1  0.163387  0.327063  0.574723  1
  Al  Al8  1  0.836202  0.670606  0.423062  1
  Al  Al9  1  0.672334  0.836517  0.574437  1
  Al  Al10  1  0.835894  0.670270  0.076512  1
  Al  Al11  1  0.329400  0.164372  0.423325  1
  Al  Al12  1  0.164669  0.330851  0.923301  1
  Al  Al13  1  0.163693  0.836799  0.574736  1
  Al  Al14  1  0.330066  0.164608  0.076669  1
  Al  Al15  1  0.835957  0.164993  0.422950  1
  Al  Al16  1  0.668945  0.834954  0.923322  1
  Al  Al17  1  0.835602  0.165127  0.076789  1
  Al  Al18  1  0.165035  0.834317  0.922968  1
  Al  Al19  1  0.564286  0.126889  0.247995  1
  Al  Al20  1  0.436499  0.874095  0.748926  1
  Al  Al21  1  0.875137  0.437159  0.248351  1
  Al  Al22  1  0.124464  0.562593  0.748476  1
  Al  Al23  1  0.564842  0.436070  0.248555  1
  Al  Al24  1  0.436065  0.563525  0.748504  1
  Al  Al25  1  0.000295  0.999798  0.249019  1
  Al  Al26  1  0.999289  0.000005  0.749524  1
  Si  Si27  1  0.333195  0.666698  0.039160  1
  Si  Si28  1  0.666843  0.333448  0.961906  1
  Si  Si29  1  0.666409  0.333259  0.538197  1
  Os  Os30  1  0.504383  0.008693  0.500990  1
  Os  Os31  1  0.499750  0.500276  0.998846  1
  Os  Os32  1  0.504240  0.495788  0.500934  1
  Ru  Ru33  1  0.499770  0.999637  0.998793  1
  Ru  Ru34  1  0.000336  0.500202  0.998547  1
  Ru  Ru35  1  0.990794  0.495344  0.501415  1
  Ru  Ru36  1  0.000083  0.000034  0.998922  1
  Ru  Ru37  1  0.999882  0.999853  0.499269  1
