# generated using pymatgen
data_Ho8Ga12Ag3Pd
_symmetry_space_group_name_H-M   'P 1'
_cell_length_a   7.03038900
_cell_length_b   8.99848336
_cell_length_c   8.99848400
_cell_angle_alpha   120.00000235
_cell_angle_beta   90.00000000
_cell_angle_gamma   90.00000000
_symmetry_Int_Tables_number   1
_chemical_formula_structural   Ho8Ga12Ag3Pd
_chemical_formula_sum   'Ho8 Ga12 Ag3 Pd1'
_cell_volume   493.00195761
_cell_formula_units_Z   1
loop_
 _symmetry_equiv_pos_site_id
 _symmetry_equiv_pos_as_xyz
  1  'x, y, z'
loop_
 _atom_site_type_symbol
 _atom_site_label
 _atom_site_symmetry_multiplicity
 _atom_site_fract_x
 _atom_site_fract_y
 _atom_site_fract_z
 _atom_site_occupancy
  Ho  Ho0  1  0.746046  0.000000  0.000000  1
  Ho  Ho1  1  0.251154  0.000000  0.000000  1
  Ho  Ho2  1  0.749226  0.490725  0.509275  1
  Ho  Ho3  1  0.253492  0.512931  0.487069  1
  Ho  Ho4  1  0.749226  0.018549  0.509275  1
  Ho  Ho5  1  0.253492  0.974137  0.487069  1
  Ho  Ho6  1  0.749226  0.490725  0.981451  1
  Ho  Ho7  1  0.253492  0.512931  0.025863  1
  Ga  Ga8  1  0.965871  0.835901  0.164099  1
  Ga  Ga9  1  0.033448  0.165029  0.834971  1
  Ga  Ga10  1  0.965871  0.328199  0.164099  1
  Ga  Ga11  1  0.467781  0.164841  0.835159  1
  Ga  Ga12  1  0.033448  0.669942  0.834971  1
  Ga  Ga13  1  0.534567  0.831975  0.168025  1
  Ga  Ga14  1  0.965871  0.835901  0.671801  1
  Ga  Ga15  1  0.467781  0.670318  0.835159  1
  Ga  Ga16  1  0.033448  0.165029  0.330058  1
  Ga  Ga17  1  0.534567  0.336051  0.168025  1
  Ga  Ga18  1  0.467781  0.164841  0.329682  1
  Ga  Ga19  1  0.534567  0.831975  0.663949  1
  Ag  Ag20  1  0.969557  0.666667  0.333333  1
  Ag  Ag21  1  0.029822  0.333333  0.666667  1
  Ag  Ag22  1  0.474528  0.333333  0.666667  1
  Pd  Pd23  1  0.515743  0.666667  0.333333  1
