# generated using pymatgen
data_SmHf5Cr2(Co4P3)4
_symmetry_space_group_name_H-M   'P 1'
_cell_length_a   11.95231400
_cell_length_b   11.97896252
_cell_length_c   3.62198000
_cell_angle_alpha   90.00000000
_cell_angle_beta   90.00000000
_cell_angle_gamma   120.10259896
_symmetry_Int_Tables_number   1
_chemical_formula_structural   SmHf5Cr2(Co4P3)4
_chemical_formula_sum   'Sm1 Hf5 Cr2 Co16 P12'
_cell_volume   448.63996003
_cell_formula_units_Z   1
loop_
 _symmetry_equiv_pos_site_id
 _symmetry_equiv_pos_as_xyz
  1  'x, y, z'
loop_
 _atom_site_type_symbol
 _atom_site_label
 _atom_site_symmetry_multiplicity
 _atom_site_fract_x
 _atom_site_fract_y
 _atom_site_fract_z
 _atom_site_occupancy
  Sm  Sm0  1  0.335091  0.666130  0.000000  1
  Hf  Hf1  1  0.818753  0.819049  0.500000  1
  Hf  Hf2  1  0.001133  0.175962  0.500000  1
  Hf  Hf3  1  0.665282  0.332385  0.000000  1
  Hf  Hf4  1  0.997048  0.553895  0.000000  1
  Hf  Hf5  1  0.180209  0.998471  0.500000  1
  Cr  Cr6  1  0.446763  0.444964  0.000000  1
  Cr  Cr7  1  0.555472  0.003164  0.000000  1
  Co  Co8  1  0.630002  0.827045  0.000000  1
  Co  Co9  1  0.375775  0.196369  0.000000  1
  Co  Co10  1  0.995861  0.720822  0.500000  1
  Co  Co11  1  0.283222  0.277800  0.500000  1
  Co  Co12  1  0.867224  0.351602  0.500000  1
  Co  Co13  1  0.721456  0.004243  0.500000  1
  Co  Co14  1  0.815412  0.627396  0.000000  1
  Co  Co15  1  0.178109  0.811552  0.000000  1
  Co  Co16  1  0.357814  0.882399  0.500000  1
  Co  Co17  1  0.121176  0.469073  0.500000  1
  Co  Co18  1  0.640685  0.514832  0.500000  1
  Co  Co19  1  0.999909  0.000912  0.000000  1
  Co  Co20  1  0.523785  0.646349  0.500000  1
  Co  Co21  1  0.485876  0.131532  0.500000  1
  Co  Co22  1  0.198223  0.366649  0.000000  1
  Co  Co23  1  0.803717  0.176639  0.000000  1
  P  P24  1  0.002171  0.345184  0.000000  1
  P  P25  1  0.823127  0.515325  0.500000  1
  P  P26  1  0.683281  0.165823  0.500000  1
  P  P27  1  0.177525  0.172149  0.000000  1
  P  P28  1  0.639502  0.645282  0.000000  1
  P  P29  1  0.825128  0.000701  0.000000  1
  P  P30  1  0.523966  0.842075  0.500000  1
  P  P31  1  0.169702  0.693665  0.500000  1
  P  P32  1  0.359563  0.003724  0.000000  1
  P  P33  1  0.482739  0.316195  0.500000  1
  P  P34  1  0.996985  0.825301  0.000000  1
  P  P35  1  0.318311  0.475342  0.500000  1
