# generated using pymatgen
data_Ca3Tb2(YbSb2)3
_symmetry_space_group_name_H-M   'P 1'
_cell_length_a   8.13715774
_cell_length_b   8.14447919
_cell_length_c   8.19945403
_cell_angle_alpha   70.51331564
_cell_angle_beta   70.55069269
_cell_angle_gamma   109.08935595
_symmetry_Int_Tables_number   1
_chemical_formula_structural   Ca3Tb2(YbSb2)3
_chemical_formula_sum   'Ca3 Tb2 Yb3 Sb6'
_cell_volume   420.29891975
_cell_formula_units_Z   1
loop_
 _symmetry_equiv_pos_site_id
 _symmetry_equiv_pos_as_xyz
  1  'x, y, z'
loop_
 _atom_site_type_symbol
 _atom_site_label
 _atom_site_symmetry_multiplicity
 _atom_site_fract_x
 _atom_site_fract_y
 _atom_site_fract_z
 _atom_site_occupancy
  Ca  Ca0  1  0.001273  0.359772  0.495583  1
  Ca  Ca1  1  0.496199  0.496043  0.147400  1
  Ca  Ca2  1  0.644134  0.147409  0.357705  1
  Tb  Tb3  1  0.854569  0.000526  0.999440  1
  Tb  Tb4  1  0.000522  0.854824  0.499444  1
  Yb  Yb5  1  0.359619  0.001397  0.994896  1
  Yb  Yb6  1  0.495417  0.495840  0.648191  1
  Yb  Yb7  1  0.148184  0.644379  0.857408  1
  Sb  Sb8  1  0.633404  0.873133  0.750402  1
  Sb  Sb9  1  0.874259  0.634874  0.249736  1
  Sb  Sb10  1  0.238859  0.117291  0.630111  1
  Sb  Sb11  1  0.756912  0.378164  0.870480  1
  Sb  Sb12  1  0.378038  0.757244  0.371124  1
  Sb  Sb13  1  0.118612  0.239102  0.128076  1
