# generated using pymatgen
data_Ho20ZnIn5Ru2
_symmetry_space_group_name_H-M   'P 1'
_cell_length_a   9.63479117
_cell_length_b   9.72988324
_cell_length_c   9.62183400
_cell_angle_alpha   90.00000000
_cell_angle_beta   90.00000000
_cell_angle_gamma   120.32703116
_symmetry_Int_Tables_number   1
_chemical_formula_structural   Ho20ZnIn5Ru2
_chemical_formula_sum   'Ho20 Zn1 In5 Ru2'
_cell_volume   778.57025302
_cell_formula_units_Z   1
loop_
 _symmetry_equiv_pos_site_id
 _symmetry_equiv_pos_as_xyz
  1  'x, y, z'
loop_
 _atom_site_type_symbol
 _atom_site_label
 _atom_site_symmetry_multiplicity
 _atom_site_fract_x
 _atom_site_fract_y
 _atom_site_fract_z
 _atom_site_occupancy
  Ho  Ho0  1  0.989755  0.994877  0.507440  1
  Ho  Ho1  1  0.989755  0.994877  0.992560  1
  Ho  Ho2  1  0.210904  0.790904  0.440890  1
  Ho  Ho3  1  0.210904  0.420001  0.440890  1
  Ho  Ho4  1  0.579367  0.789684  0.439596  1
  Ho  Ho5  1  0.790240  0.211140  0.559685  1
  Ho  Ho6  1  0.790240  0.579099  0.559685  1
  Ho  Ho7  1  0.418967  0.209483  0.561792  1
  Ho  Ho8  1  0.790240  0.211140  0.940315  1
  Ho  Ho9  1  0.790240  0.579099  0.940315  1
  Ho  Ho10  1  0.418967  0.209483  0.938208  1
  Ho  Ho11  1  0.210904  0.790904  0.059110  1
  Ho  Ho12  1  0.210904  0.420001  0.059110  1
  Ho  Ho13  1  0.579367  0.789684  0.060404  1
  Ho  Ho14  1  0.541808  0.460288  0.250000  1
  Ho  Ho15  1  0.541808  0.081521  0.250000  1
  Ho  Ho16  1  0.923203  0.461601  0.250000  1
  Ho  Ho17  1  0.467328  0.548367  0.750000  1
  Ho  Ho18  1  0.467328  0.918960  0.750000  1
  Ho  Ho19  1  0.082147  0.541073  0.750000  1
  Zn  Zn20  1  0.763278  0.881639  0.750000  1
  In  In21  1  0.886237  0.118271  0.250000  1
  In  In22  1  0.886237  0.767966  0.250000  1
  In  In23  1  0.228427  0.114214  0.250000  1
  In  In24  1  0.116205  0.881245  0.750000  1
  In  In25  1  0.116205  0.234959  0.750000  1
  Ru  Ru26  1  0.330449  0.665225  0.250000  1
  Ru  Ru27  1  0.668589  0.334295  0.750000  1
