# generated using pymatgen
data_Lu10Bi5Rh
_symmetry_space_group_name_H-M   'P 1'
_cell_length_a   8.05378900
_cell_length_b   9.35968800
_cell_length_c   11.97992100
_cell_angle_alpha   90.00000000
_cell_angle_beta   90.00000000
_cell_angle_gamma   90.00000000
_symmetry_Int_Tables_number   1
_chemical_formula_structural   Lu10Bi5Rh
_chemical_formula_sum   'Lu20 Bi10 Rh2'
_cell_volume   903.05785295
_cell_formula_units_Z   2
loop_
 _symmetry_equiv_pos_site_id
 _symmetry_equiv_pos_as_xyz
  1  'x, y, z'
loop_
 _atom_site_type_symbol
 _atom_site_label
 _atom_site_symmetry_multiplicity
 _atom_site_fract_x
 _atom_site_fract_y
 _atom_site_fract_z
 _atom_site_occupancy
  Lu  Lu0  1  0.327090  0.925278  0.059716  1
  Lu  Lu1  1  0.827090  0.074722  0.440284  1
  Lu  Lu2  1  0.686458  0.471138  0.935486  1
  Lu  Lu3  1  0.186458  0.528862  0.564514  1
  Lu  Lu4  1  0.686458  0.028862  0.935486  1
  Lu  Lu5  1  0.186458  0.971138  0.564514  1
  Lu  Lu6  1  0.327090  0.574722  0.059716  1
  Lu  Lu7  1  0.827090  0.425278  0.440284  1
  Lu  Lu8  1  0.653467  0.750000  0.200084  1
  Lu  Lu9  1  0.153467  0.250000  0.299916  1
  Lu  Lu10  1  0.304885  0.250000  0.761710  1
  Lu  Lu11  1  0.804885  0.750000  0.738290  1
  Lu  Lu12  1  0.156881  0.750000  0.287716  1
  Lu  Lu13  1  0.656881  0.250000  0.212284  1
  Lu  Lu14  1  0.875143  0.250000  0.702128  1
  Lu  Lu15  1  0.375143  0.750000  0.797872  1
  Lu  Lu16  1  0.515812  0.750000  0.504022  1
  Lu  Lu17  1  0.015812  0.250000  0.995978  1
  Lu  Lu18  1  0.455091  0.250000  0.493671  1
  Lu  Lu19  1  0.955091  0.750000  0.006329  1
  Bi  Bi20  1  0.937517  0.007448  0.176481  1
  Bi  Bi21  1  0.437517  0.992552  0.323519  1
  Bi  Bi22  1  0.071435  0.515031  0.829817  1
  Bi  Bi23  1  0.571435  0.484969  0.670183  1
  Bi  Bi24  1  0.071435  0.984969  0.829817  1
  Bi  Bi25  1  0.571435  0.015031  0.670183  1
  Bi  Bi26  1  0.937517  0.492552  0.176481  1
  Bi  Bi27  1  0.437517  0.507448  0.323519  1
  Bi  Bi28  1  0.402330  0.250000  0.019490  1
  Bi  Bi29  1  0.902330  0.750000  0.480510  1
  Rh  Rh30  1  0.591390  0.750000  0.975196  1
  Rh  Rh31  1  0.091390  0.250000  0.524804  1
