# generated using pymatgen
data_NaSrCrO4
_symmetry_space_group_name_H-M   'P 1'
_cell_length_a   5.25914500
_cell_length_b   6.87956900
_cell_length_c   11.72441500
_cell_angle_alpha   90.00000000
_cell_angle_beta   90.00000000
_cell_angle_gamma   90.00000000
_symmetry_Int_Tables_number   1
_chemical_formula_structural   NaSrCrO4
_chemical_formula_sum   'Na4 Sr4 Cr4 O16'
_cell_volume   424.19696622
_cell_formula_units_Z   4
loop_
 _symmetry_equiv_pos_site_id
 _symmetry_equiv_pos_as_xyz
  1  'x, y, z'
loop_
 _atom_site_type_symbol
 _atom_site_label
 _atom_site_symmetry_multiplicity
 _atom_site_fract_x
 _atom_site_fract_y
 _atom_site_fract_z
 _atom_site_occupancy
  Na  Na0  1  0.500000  0.500000  0.500000  1
  Na  Na1  1  0.000000  0.000000  0.000000  1
  Na  Na2  1  0.000000  0.500000  0.000000  1
  Na  Na3  1  0.500000  0.000000  0.500000  1
  Sr  Sr4  1  0.020062  0.750000  0.722592  1
  Sr  Sr5  1  0.979938  0.250000  0.277408  1
  Sr  Sr6  1  0.520062  0.250000  0.777408  1
  Sr  Sr7  1  0.479938  0.750000  0.222592  1
  Cr  Cr8  1  0.419412  0.250000  0.084180  1
  Cr  Cr9  1  0.919412  0.750000  0.415820  1
  Cr  Cr10  1  0.580588  0.750000  0.915820  1
  Cr  Cr11  1  0.080588  0.250000  0.584180  1
  O  O12  1  0.774665  0.750000  0.546185  1
  O  O13  1  0.787837  0.553158  0.342953  1
  O  O14  1  0.712163  0.553158  0.842953  1
  O  O15  1  0.757338  0.250000  0.590113  1
  O  O16  1  0.725335  0.750000  0.046185  1
  O  O17  1  0.287837  0.446842  0.157047  1
  O  O18  1  0.212163  0.446842  0.657047  1
  O  O19  1  0.242662  0.750000  0.409887  1
  O  O20  1  0.787837  0.946842  0.342953  1
  O  O21  1  0.257338  0.750000  0.909887  1
  O  O22  1  0.225335  0.250000  0.453815  1
  O  O23  1  0.712163  0.946842  0.842953  1
  O  O24  1  0.212163  0.053158  0.657047  1
  O  O25  1  0.274665  0.250000  0.953815  1
  O  O26  1  0.287837  0.053158  0.157047  1
  O  O27  1  0.742662  0.250000  0.090113  1
