# generated using pymatgen
data_Tb8Lu10Sc2Si15P
_symmetry_space_group_name_H-M   'P 1'
_cell_length_a   7.24532702
_cell_length_b   7.56942856
_cell_length_c   14.30813500
_cell_angle_alpha   90.00000000
_cell_angle_beta   90.00000000
_cell_angle_gamma   90.16966782
_symmetry_Int_Tables_number   1
_chemical_formula_structural   Tb8Lu10Sc2Si15P
_chemical_formula_sum   'Tb8 Lu10 Sc2 Si15 P1'
_cell_volume   784.69739650
_cell_formula_units_Z   1
loop_
 _symmetry_equiv_pos_site_id
 _symmetry_equiv_pos_as_xyz
  1  'x, y, z'
loop_
 _atom_site_type_symbol
 _atom_site_label
 _atom_site_symmetry_multiplicity
 _atom_site_fract_x
 _atom_site_fract_y
 _atom_site_fract_z
 _atom_site_occupancy
  Tb  Tb0  1  0.012956  0.176718  0.095513  1
  Tb  Tb1  1  0.989612  0.824397  0.897533  1
  Tb  Tb2  1  0.488342  0.677766  0.903218  1
  Tb  Tb3  1  0.989612  0.824397  0.602467  1
  Tb  Tb4  1  0.514980  0.321471  0.095232  1
  Tb  Tb5  1  0.012956  0.176718  0.404487  1
  Tb  Tb6  1  0.514980  0.321471  0.404768  1
  Tb  Tb7  1  0.488342  0.677766  0.596782  1
  Lu  Lu8  1  0.839488  0.490264  0.250000  1
  Lu  Lu9  1  0.338327  0.010307  0.250000  1
  Lu  Lu10  1  0.324009  0.171762  0.628374  1
  Lu  Lu11  1  0.670491  0.822356  0.377716  1
  Lu  Lu12  1  0.170922  0.678688  0.377402  1
  Lu  Lu13  1  0.670491  0.822356  0.122284  1
  Lu  Lu14  1  0.826959  0.324207  0.627066  1
  Lu  Lu15  1  0.324009  0.171762  0.871626  1
  Lu  Lu16  1  0.826959  0.324207  0.872934  1
  Lu  Lu17  1  0.170922  0.678688  0.122598  1
  Sc  Sc18  1  0.158776  0.509223  0.750000  1
  Sc  Sc19  1  0.662824  0.992097  0.750000  1
  Si  Si20  1  0.965041  0.888928  0.250000  1
  Si  Si21  1  0.467296  0.609209  0.250000  1
  Si  Si22  1  0.523212  0.392999  0.750000  1
  Si  Si23  1  0.300688  0.853978  0.750000  1
  Si  Si24  1  0.719453  0.125968  0.250000  1
  Si  Si25  1  0.220591  0.374089  0.250000  1
  Si  Si26  1  0.785549  0.634240  0.750000  1
  Si  Si27  1  0.155791  0.465881  0.541721  1
  Si  Si28  1  0.844382  0.533248  0.462945  1
  Si  Si29  1  0.340674  0.968528  0.462071  1
  Si  Si30  1  0.844382  0.533248  0.037055  1
  Si  Si31  1  0.660160  0.033803  0.542076  1
  Si  Si32  1  0.155791  0.465881  0.958279  1
  Si  Si33  1  0.660160  0.033803  0.957924  1
  Si  Si34  1  0.340674  0.968528  0.037929  1
  P  P35  1  0.020199  0.121047  0.750000  1
