# generated using pymatgen
data_Dy20Fe3Bi8Rh
_symmetry_space_group_name_H-M   'P 1'
_cell_length_a   7.99064448
_cell_length_b   8.95424400
_cell_length_c   12.41012740
_cell_angle_alpha   90.00000000
_cell_angle_beta   89.89304336
_cell_angle_gamma   90.00000000
_symmetry_Int_Tables_number   1
_chemical_formula_structural   Dy20Fe3Bi8Rh
_chemical_formula_sum   'Dy20 Fe3 Bi8 Rh1'
_cell_volume   887.94530750
_cell_formula_units_Z   1
loop_
 _symmetry_equiv_pos_site_id
 _symmetry_equiv_pos_as_xyz
  1  'x, y, z'
loop_
 _atom_site_type_symbol
 _atom_site_label
 _atom_site_symmetry_multiplicity
 _atom_site_fract_x
 _atom_site_fract_y
 _atom_site_fract_z
 _atom_site_occupancy
  Dy  Dy0  1  0.841140  0.750000  0.791366  1
  Dy  Dy1  1  0.154569  0.250000  0.199950  1
  Dy  Dy2  1  0.346041  0.250000  0.701598  1
  Dy  Dy3  1  0.651906  0.750000  0.301703  1
  Dy  Dy4  1  0.381502  0.750000  0.689298  1
  Dy  Dy5  1  0.617093  0.250000  0.310421  1
  Dy  Dy6  1  0.882117  0.250000  0.810602  1
  Dy  Dy7  1  0.123318  0.750000  0.193231  1
  Dy  Dy8  1  0.948298  0.750000  0.503319  1
  Dy  Dy9  1  0.057866  0.250000  0.495115  1
  Dy  Dy10  1  0.449223  0.250000  0.996340  1
  Dy  Dy11  1  0.552743  0.750000  0.003886  1
  Dy  Dy12  1  0.673158  0.035247  0.561644  1
  Dy  Dy13  1  0.324922  0.962116  0.437603  1
  Dy  Dy14  1  0.173108  0.970215  0.936830  1
  Dy  Dy15  1  0.324922  0.537884  0.437603  1
  Dy  Dy16  1  0.821761  0.049208  0.065749  1
  Dy  Dy17  1  0.673158  0.464753  0.561644  1
  Dy  Dy18  1  0.821761  0.450792  0.065749  1
  Dy  Dy19  1  0.173108  0.529785  0.936830  1
  Fe  Fe20  1  0.574988  0.750000  0.512959  1
  Fe  Fe21  1  0.430538  0.250000  0.491147  1
  Fe  Fe22  1  0.072891  0.250000  0.988663  1
  Bi  Bi23  1  0.570391  0.492461  0.826887  1
  Bi  Bi24  1  0.429667  0.508275  0.173349  1
  Bi  Bi25  1  0.070714  0.507042  0.672269  1
  Bi  Bi26  1  0.429667  0.991725  0.173349  1
  Bi  Bi27  1  0.929319  0.492177  0.326607  1
  Bi  Bi28  1  0.570391  0.007539  0.826887  1
  Bi  Bi29  1  0.929319  0.007823  0.326607  1
  Bi  Bi30  1  0.070714  0.992958  0.672269  1
  Rh  Rh31  1  0.929687  0.750000  0.008526  1
