# generated using pymatgen
data_Hf2MnBe8Ir
_symmetry_space_group_name_H-M   'P 1'
_cell_length_a   4.46127600
_cell_length_b   4.46127743
_cell_length_c   7.43324600
_cell_angle_alpha   90.00000000
_cell_angle_beta   90.00000000
_cell_angle_gamma   119.99998940
_symmetry_Int_Tables_number   1
_chemical_formula_structural   Hf2MnBe8Ir
_chemical_formula_sum   'Hf2 Mn1 Be8 Ir1'
_cell_volume   128.12312036
_cell_formula_units_Z   1
loop_
 _symmetry_equiv_pos_site_id
 _symmetry_equiv_pos_as_xyz
  1  'x, y, z'
loop_
 _atom_site_type_symbol
 _atom_site_label
 _atom_site_symmetry_multiplicity
 _atom_site_fract_x
 _atom_site_fract_y
 _atom_site_fract_z
 _atom_site_occupancy
  Hf  Hf0  1  0.333333  0.666667  0.068650  1
  Hf  Hf1  1  0.666667  0.333333  0.557017  1
  Mn  Mn2  1  0.333333  0.666667  0.428152  1
  Be  Be3  1  0.000000  0.000000  0.998671  1
  Be  Be4  1  0.000000  0.000000  0.501506  1
  Be  Be5  1  0.834522  0.669043  0.256576  1
  Be  Be6  1  0.168038  0.831962  0.749449  1
  Be  Be7  1  0.663923  0.831962  0.749449  1
  Be  Be8  1  0.330957  0.165478  0.256576  1
  Be  Be9  1  0.834522  0.165478  0.256576  1
  Be  Be10  1  0.168038  0.336077  0.749449  1
  Ir  Ir11  1  0.666667  0.333333  0.927925  1
