# generated using pymatgen
data_Y3Co8TcP6
_symmetry_space_group_name_H-M   'P 1'
_cell_length_a   3.72923700
_cell_length_b   10.54862600
_cell_length_c   12.25689300
_cell_angle_alpha   90.00000000
_cell_angle_beta   90.00000000
_cell_angle_gamma   90.00000000
_symmetry_Int_Tables_number   1
_chemical_formula_structural   Y3Co8TcP6
_chemical_formula_sum   'Y6 Co16 Tc2 P12'
_cell_volume   482.16565722
_cell_formula_units_Z   2
loop_
 _symmetry_equiv_pos_site_id
 _symmetry_equiv_pos_as_xyz
  1  'x, y, z'
loop_
 _atom_site_type_symbol
 _atom_site_label
 _atom_site_symmetry_multiplicity
 _atom_site_fract_x
 _atom_site_fract_y
 _atom_site_fract_z
 _atom_site_occupancy
  Y  Y0  1  0.000000  0.500000  0.523351  1
  Y  Y1  1  0.500000  0.000000  0.476649  1
  Y  Y2  1  0.500000  0.817744  0.206305  1
  Y  Y3  1  0.500000  0.182256  0.206305  1
  Y  Y4  1  0.000000  0.682256  0.793695  1
  Y  Y5  1  0.000000  0.317744  0.793695  1
  Co  Co6  1  0.500000  0.500000  0.702631  1
  Co  Co7  1  0.000000  0.000000  0.297369  1
  Co  Co8  1  0.000000  0.500000  0.987504  1
  Co  Co9  1  0.500000  0.000000  0.012496  1
  Co  Co10  1  0.500000  0.332226  0.990094  1
  Co  Co11  1  0.500000  0.667774  0.990094  1
  Co  Co12  1  0.000000  0.167774  0.009906  1
  Co  Co13  1  0.000000  0.832226  0.009906  1
  Co  Co14  1  0.500000  0.296642  0.431102  1
  Co  Co15  1  0.500000  0.703358  0.431102  1
  Co  Co16  1  0.000000  0.203358  0.568898  1
  Co  Co17  1  0.000000  0.796642  0.568898  1
  Co  Co18  1  0.500000  0.879228  0.707903  1
  Co  Co19  1  0.500000  0.120772  0.707903  1
  Co  Co20  1  0.000000  0.620772  0.292097  1
  Co  Co21  1  0.000000  0.379228  0.292097  1
  Tc  Tc22  1  0.500000  0.500000  0.156411  1
  Tc  Tc23  1  0.000000  0.000000  0.843589  1
  P  P24  1  0.500000  0.500000  0.881355  1
  P  P25  1  0.000000  0.000000  0.118645  1
  P  P26  1  0.500000  0.500000  0.347766  1
  P  P27  1  0.000000  0.000000  0.652234  1
  P  P28  1  0.500000  0.311388  0.615781  1
  P  P29  1  0.500000  0.688612  0.615781  1
  P  P30  1  0.000000  0.188612  0.384219  1
  P  P31  1  0.000000  0.811388  0.384219  1
  P  P32  1  0.500000  0.846378  0.892939  1
  P  P33  1  0.500000  0.153622  0.892939  1
  P  P34  1  0.000000  0.653622  0.107061  1
  P  P35  1  0.000000  0.346378  0.107061  1
