# generated using pymatgen
data_CeNd7(Se3N2)2
_symmetry_space_group_name_H-M   'P 1'
_cell_length_a   8.31263325
_cell_length_b   8.31486918
_cell_length_c   6.49256437
_cell_angle_alpha   90.01134008
_cell_angle_beta   89.82882670
_cell_angle_gamma   75.61727842
_symmetry_Int_Tables_number   1
_chemical_formula_structural   CeNd7(Se3N2)2
_chemical_formula_sum   'Ce1 Nd7 Se6 N4'
_cell_volume   434.68903241
_cell_formula_units_Z   1
loop_
 _symmetry_equiv_pos_site_id
 _symmetry_equiv_pos_as_xyz
  1  'x, y, z'
loop_
 _atom_site_type_symbol
 _atom_site_label
 _atom_site_symmetry_multiplicity
 _atom_site_fract_x
 _atom_site_fract_y
 _atom_site_fract_z
 _atom_site_occupancy
  Ce  Ce0  1  0.089984  0.240929  0.573290  1
  Nd  Nd1  1  0.809225  0.442835  0.026583  1
  Nd  Nd2  1  0.558040  0.191292  0.470622  1
  Nd  Nd3  1  0.190768  0.558143  0.966370  1
  Nd  Nd4  1  0.442294  0.810197  0.532116  1
  Nd  Nd5  1  0.243003  0.085866  0.072938  1
  Nd  Nd6  1  0.914413  0.756493  0.426326  1
  Nd  Nd7  1  0.756703  0.913374  0.927017  1
  Se  Se8  1  0.902858  0.098539  0.249806  1
  Se  Se9  1  0.097830  0.902039  0.750616  1
  Se  Se10  1  0.483484  0.747466  0.037947  1
  Se  Se11  1  0.254142  0.515747  0.466930  1
  Se  Se12  1  0.514978  0.252900  0.969918  1
  Se  Se13  1  0.747488  0.484052  0.539761  1
  N  N14  1  0.919508  0.668383  0.083106  1
  N  N15  1  0.323330  0.085844  0.421341  1
  N  N16  1  0.081844  0.326536  0.901343  1
  N  N17  1  0.670109  0.919365  0.583971  1
