# generated using pymatgen
data_Rb4Hf6FeI18
_symmetry_space_group_name_H-M   'P 1'
_cell_length_a   11.30804654
_cell_length_b   11.54148375
_cell_length_c   11.66286011
_cell_angle_alpha   118.52568398
_cell_angle_beta   100.17280377
_cell_angle_gamma   103.93990199
_symmetry_Int_Tables_number   1
_chemical_formula_structural   Rb4Hf6FeI18
_chemical_formula_sum   'Rb4 Hf6 Fe1 I18'
_cell_volume   1219.68571836
_cell_formula_units_Z   1
loop_
 _symmetry_equiv_pos_site_id
 _symmetry_equiv_pos_as_xyz
  1  'x, y, z'
loop_
 _atom_site_type_symbol
 _atom_site_label
 _atom_site_symmetry_multiplicity
 _atom_site_fract_x
 _atom_site_fract_y
 _atom_site_fract_z
 _atom_site_occupancy
  Rb  Rb0  1  0.652240  0.538237  0.226866  1
  Rb  Rb1  1  0.347760  0.461763  0.773134  1
  Rb  Rb2  1  0.686916  0.225483  0.565108  1
  Rb  Rb3  1  0.313084  0.774517  0.434892  1
  Hf  Hf4  1  0.143558  0.053188  0.218611  1
  Hf  Hf5  1  0.856442  0.946812  0.781389  1
  Hf  Hf6  1  0.867876  0.119802  0.125866  1
  Hf  Hf7  1  0.132124  0.880198  0.874134  1
  Hf  Hf8  1  0.139415  0.227435  0.043590  1
  Hf  Hf9  1  0.860585  0.772565  0.956410  1
  Fe  Fe10  1  0.000000  0.000000  0.000000  1
  I  I11  1  0.007376  0.406526  0.195137  1
  I  I12  1  0.992624  0.593474  0.804863  1
  I  I13  1  0.328859  0.332155  0.310519  1
  I  I14  1  0.671141  0.667845  0.689481  1
  I  I15  1  0.316738  0.515776  0.098484  1
  I  I16  1  0.683262  0.484224  0.901516  1
  I  I17  1  0.003558  0.796877  0.207348  1
  I  I18  1  0.996442  0.203123  0.792652  1
  I  I19  1  0.704296  0.269380  0.281899  1
  I  I20  1  0.295704  0.730620  0.718101  1
  I  I21  1  0.316554  0.127005  0.903853  1
  I  I22  1  0.683446  0.872995  0.096147  1
  I  I23  1  0.014749  0.203128  0.404846  1
  I  I24  1  0.985251  0.796872  0.595154  1
  I  I25  1  0.320570  0.923899  0.109637  1
  I  I26  1  0.679430  0.076101  0.890363  1
  I  I27  1  0.328525  0.119841  0.495369  1
  I  I28  1  0.671475  0.880159  0.504631  1
