# generated using pymatgen
data_SmY5CoCl10
_symmetry_space_group_name_H-M   'P 1'
_cell_length_a   7.10134419
_cell_length_b   8.85538302
_cell_length_c   8.81312700
_cell_angle_alpha   107.58387014
_cell_angle_beta   95.83560966
_cell_angle_gamma   105.59477291
_symmetry_Int_Tables_number   1
_chemical_formula_structural   SmY5CoCl10
_chemical_formula_sum   'Sm1 Y5 Co1 Cl10'
_cell_volume   498.67345538
_cell_formula_units_Z   1
loop_
 _symmetry_equiv_pos_site_id
 _symmetry_equiv_pos_as_xyz
  1  'x, y, z'
loop_
 _atom_site_type_symbol
 _atom_site_label
 _atom_site_symmetry_multiplicity
 _atom_site_fract_x
 _atom_site_fract_y
 _atom_site_fract_z
 _atom_site_occupancy
  Sm  Sm0  1  0.870004  0.948945  0.244829  1
  Y  Y1  1  0.128481  0.050074  0.758902  1
  Y  Y2  1  0.032687  0.696307  0.902218  1
  Y  Y3  1  0.967818  0.302806  0.094728  1
  Y  Y4  1  0.637954  0.862804  0.818440  1
  Y  Y5  1  0.361907  0.137275  0.182056  1
  Co  Co6  1  0.999570  0.999263  0.001026  1
  Cl  Cl7  1  0.658916  0.553846  0.731250  1
  Cl  Cl8  1  0.340760  0.446054  0.267323  1
  Cl  Cl9  1  0.759178  0.923290  0.553921  1
  Cl  Cl10  1  0.246628  0.080580  0.454386  1
  Cl  Cl11  1  0.915492  0.625592  0.167087  1
  Cl  Cl12  1  0.086903  0.369342  0.828425  1
  Cl  Cl13  1  0.543703  0.174241  0.915179  1
  Cl  Cl14  1  0.451237  0.823749  0.081903  1
  Cl  Cl15  1  0.224009  0.752973  0.659815  1
  Cl  Cl16  1  0.774753  0.252858  0.338511  1
