# generated using pymatgen
data_Dy4MoIrRu6
_symmetry_space_group_name_H-M   'P 1'
_cell_length_a   5.48366072
_cell_length_b   5.19261796
_cell_length_c   9.06447138
_cell_angle_alpha   89.86145431
_cell_angle_beta   89.99761198
_cell_angle_gamma   121.93974665
_symmetry_Int_Tables_number   1
_chemical_formula_structural   Dy4MoIrRu6
_chemical_formula_sum   'Dy4 Mo1 Ir1 Ru6'
_cell_volume   219.02978111
_cell_formula_units_Z   1
loop_
 _symmetry_equiv_pos_site_id
 _symmetry_equiv_pos_as_xyz
  1  'x, y, z'
loop_
 _atom_site_type_symbol
 _atom_site_label
 _atom_site_symmetry_multiplicity
 _atom_site_fract_x
 _atom_site_fract_y
 _atom_site_fract_z
 _atom_site_occupancy
  Dy  Dy0  1  0.672350  0.344718  0.563693  1
  Dy  Dy1  1  0.335278  0.670446  0.431380  1
  Dy  Dy2  1  0.335010  0.670265  0.069220  1
  Dy  Dy3  1  0.673070  0.346717  0.936311  1
  Mo  Mo4  1  0.158893  0.318007  0.752183  1
  Ir  Ir5  1  0.008464  0.015820  0.498085  1
  Ru  Ru6  1  0.010368  0.020666  0.001059  1
  Ru  Ru7  1  0.170244  0.820265  0.749279  1
  Ru  Ru8  1  0.649263  0.820612  0.749192  1
  Ru  Ru9  1  0.822853  0.645654  0.249306  1
  Ru  Ru10  1  0.831845  0.162514  0.249995  1
  Ru  Ru11  1  0.332361  0.164314  0.250298  1
