# generated using pymatgen
data_Lu6Ti4Al12Ir7
_symmetry_space_group_name_H-M   'P 1'
_cell_length_a   8.91132284
_cell_length_b   8.91208897
_cell_length_c   8.91125401
_cell_angle_alpha   59.99733424
_cell_angle_beta   59.99567988
_cell_angle_gamma   59.99776738
_symmetry_Int_Tables_number   1
_chemical_formula_structural   Lu6Ti4Al12Ir7
_chemical_formula_sum   'Lu6 Ti4 Al12 Ir7'
_cell_volume   500.39764569
_cell_formula_units_Z   1
loop_
 _symmetry_equiv_pos_site_id
 _symmetry_equiv_pos_as_xyz
  1  'x, y, z'
loop_
 _atom_site_type_symbol
 _atom_site_label
 _atom_site_symmetry_multiplicity
 _atom_site_fract_x
 _atom_site_fract_y
 _atom_site_fract_z
 _atom_site_occupancy
  Lu  Lu0  1  0.704007  0.704137  0.296295  1
  Lu  Lu1  1  0.295703  0.704249  0.295795  1
  Lu  Lu2  1  0.704010  0.295553  0.296293  1
  Lu  Lu3  1  0.296307  0.295637  0.703932  1
  Lu  Lu4  1  0.703727  0.296294  0.703676  1
  Lu  Lu5  1  0.296296  0.704123  0.703934  1
  Ti  Ti6  1  0.880399  0.880278  0.359085  1
  Ti  Ti7  1  0.880349  0.358928  0.880365  1
  Ti  Ti8  1  0.358971  0.880306  0.880421  1
  Ti  Ti9  1  0.880347  0.880362  0.880349  1
  Al  Al10  1  0.119372  0.119501  0.641594  1
  Al  Al11  1  0.119421  0.641621  0.119388  1
  Al  Al12  1  0.641602  0.119510  0.119344  1
  Al  Al13  1  0.119432  0.119552  0.119395  1
  Al  Al14  1  0.668589  0.668454  0.994538  1
  Al  Al15  1  0.668213  0.995459  0.668247  1
  Al  Al16  1  0.994639  0.668397  0.668597  1
  Al  Al17  1  0.668197  0.668092  0.668227  1
  Al  Al18  1  0.329733  0.329721  0.010828  1
  Al  Al19  1  0.329811  0.010634  0.329801  1
  Al  Al20  1  0.010776  0.329725  0.329776  1
  Al  Al21  1  0.329810  0.329754  0.329801  1
  Ir  Ir22  1  0.000011  0.999904  0.000151  1
  Ir  Ir23  1  0.998927  0.998577  0.501093  1
  Ir  Ir24  1  0.501375  0.998674  0.501276  1
  Ir  Ir25  1  0.998913  0.501422  0.501110  1
  Ir  Ir26  1  0.501145  0.501387  0.998917  1
  Ir  Ir27  1  0.998791  0.501179  0.998850  1
  Ir  Ir28  1  0.501128  0.998573  0.998924  1
