# generated using pymatgen
data_Ir5(RhS3)4
_symmetry_space_group_name_H-M   'P 1'
_cell_length_a   7.58139420
_cell_length_b   7.58139509
_cell_length_c   6.32591644
_cell_angle_alpha   77.64416969
_cell_angle_beta   77.64416337
_cell_angle_gamma   92.27700081
_symmetry_Int_Tables_number   1
_chemical_formula_structural   Ir5(RhS3)4
_chemical_formula_sum   'Ir5 Rh4 S12'
_cell_volume   345.55334123
_cell_formula_units_Z   1
loop_
 _symmetry_equiv_pos_site_id
 _symmetry_equiv_pos_as_xyz
  1  'x, y, z'
loop_
 _atom_site_type_symbol
 _atom_site_label
 _atom_site_symmetry_multiplicity
 _atom_site_fract_x
 _atom_site_fract_y
 _atom_site_fract_z
 _atom_site_occupancy
  Ir  Ir0  1  0.161985  0.838015  0.000000  1
  Ir  Ir1  1  0.838015  0.161985  0.000000  1
  Ir  Ir2  1  0.000000  0.000000  0.500000  1
  Ir  Ir3  1  0.348954  0.348954  0.945115  1
  Ir  Ir4  1  0.651046  0.651046  0.054885  1
  Rh  Rh5  1  0.783465  0.490345  0.452259  1
  Rh  Rh6  1  0.509655  0.216535  0.547741  1
  Rh  Rh7  1  0.216535  0.509655  0.547741  1
  Rh  Rh8  1  0.490345  0.783465  0.452259  1
  S  S9  1  0.855831  0.439274  0.102928  1
  S  S10  1  0.560726  0.144169  0.897072  1
  S  S11  1  0.144169  0.560726  0.897072  1
  S  S12  1  0.439274  0.855831  0.102928  1
  S  S13  1  0.116467  0.116467  0.111032  1
  S  S14  1  0.883533  0.883533  0.888968  1
  S  S15  1  0.033132  0.718318  0.384677  1
  S  S16  1  0.281682  0.966868  0.615323  1
  S  S17  1  0.966868  0.281682  0.615323  1
  S  S18  1  0.583814  0.583814  0.731479  1
  S  S19  1  0.416186  0.416186  0.268521  1
  S  S20  1  0.718318  0.033132  0.384677  1
