# generated using pymatgen
data_Zr6Ti4Ga5Te
_symmetry_space_group_name_H-M   'P 1'
_cell_length_a   8.01968900
_cell_length_b   8.01793873
_cell_length_c   5.47332700
_cell_angle_alpha   90.00000000
_cell_angle_beta   90.00000000
_cell_angle_gamma   120.00722552
_symmetry_Int_Tables_number   1
_chemical_formula_structural   Zr6Ti4Ga5Te
_chemical_formula_sum   'Zr6 Ti4 Ga5 Te1'
_cell_volume   304.76891006
_cell_formula_units_Z   1
loop_
 _symmetry_equiv_pos_site_id
 _symmetry_equiv_pos_as_xyz
  1  'x, y, z'
loop_
 _atom_site_type_symbol
 _atom_site_label
 _atom_site_symmetry_multiplicity
 _atom_site_fract_x
 _atom_site_fract_y
 _atom_site_fract_z
 _atom_site_occupancy
  Zr  Zr0  1  0.234275  0.000000  0.250000  1
  Zr  Zr1  1  0.758650  0.000000  0.750000  1
  Zr  Zr2  1  0.010519  0.251919  0.250000  1
  Zr  Zr3  1  0.997320  0.752601  0.750000  1
  Zr  Zr4  1  0.758599  0.748081  0.250000  1
  Zr  Zr5  1  0.244719  0.247399  0.750000  1
  Ti  Ti6  1  0.328685  0.658990  0.995534  1
  Ti  Ti7  1  0.669696  0.341010  0.995534  1
  Ti  Ti8  1  0.669696  0.341010  0.504466  1
  Ti  Ti9  1  0.328685  0.658990  0.504466  1
  Ga  Ga10  1  0.394822  0.000000  0.750000  1
  Ga  Ga11  1  0.002513  0.600046  0.250000  1
  Ga  Ga12  1  0.998748  0.398650  0.750000  1
  Ga  Ga13  1  0.402467  0.399954  0.250000  1
  Ga  Ga14  1  0.600097  0.601350  0.750000  1
  Te  Te15  1  0.600509  0.000000  0.250000  1
