# generated using pymatgen
data_SmY2Ga6Co5Ni4
_symmetry_space_group_name_H-M   'P 1'
_cell_length_a   8.75118256
_cell_length_b   8.74859606
_cell_length_c   4.08700900
_cell_angle_alpha   90.00000000
_cell_angle_beta   90.00000000
_cell_angle_gamma   119.84079605
_symmetry_Int_Tables_number   1
_chemical_formula_structural   SmY2Ga6Co5Ni4
_chemical_formula_sum   'Sm1 Y2 Ga6 Co5 Ni4'
_cell_volume   271.41623113
_cell_formula_units_Z   1
loop_
 _symmetry_equiv_pos_site_id
 _symmetry_equiv_pos_as_xyz
  1  'x, y, z'
loop_
 _atom_site_type_symbol
 _atom_site_label
 _atom_site_symmetry_multiplicity
 _atom_site_fract_x
 _atom_site_fract_y
 _atom_site_fract_z
 _atom_site_occupancy
  Sm  Sm0  1  0.334933  0.670698  0.500000  1
  Y  Y1  1  0.665503  0.333711  0.500000  1
  Y  Y2  1  0.998651  0.998175  0.000000  1
  Ga  Ga3  1  0.272432  0.271534  0.500000  1
  Ga  Ga4  1  0.725494  0.999983  0.500000  1
  Ga  Ga5  1  0.999224  0.724466  0.500000  1
  Ga  Ga6  1  0.514533  0.510450  0.000000  1
  Ga  Ga7  1  0.489736  0.001930  0.000000  1
  Ga  Ga8  1  0.998612  0.487991  0.000000  1
  Co  Co9  1  0.811318  0.176517  0.000000  1
  Co  Co10  1  0.825435  0.636747  0.000000  1
  Co  Co11  1  0.364070  0.188850  0.000000  1
  Co  Co12  1  0.175998  0.813336  0.000000  1
  Co  Co13  1  0.636260  0.823202  0.000000  1
  Ni  Ni14  1  0.190691  0.366727  0.000000  1
  Ni  Ni15  1  0.704885  0.704343  0.500000  1
  Ni  Ni16  1  0.294556  0.999863  0.500000  1
  Ni  Ni17  1  0.997667  0.291478  0.500000  1
