# generated using pymatgen
data_YCdCu3Pt
_symmetry_space_group_name_H-M   'P 1'
_cell_length_a   5.15313234
_cell_length_b   5.15313224
_cell_length_c   5.19214427
_cell_angle_alpha   60.24824242
_cell_angle_beta   60.24824571
_cell_angle_gamma   59.99998723
_symmetry_Int_Tables_number   1
_chemical_formula_structural   YCdCu3Pt
_chemical_formula_sum   'Y1 Cd1 Cu3 Pt1'
_cell_volume   97.85740789
_cell_formula_units_Z   1
loop_
 _symmetry_equiv_pos_site_id
 _symmetry_equiv_pos_as_xyz
  1  'x, y, z'
loop_
 _atom_site_type_symbol
 _atom_site_label
 _atom_site_symmetry_multiplicity
 _atom_site_fract_x
 _atom_site_fract_y
 _atom_site_fract_z
 _atom_site_occupancy
  Y  Y0  1  0.748577  0.748577  0.754269  1
  Cd  Cd1  1  0.999135  0.999135  0.002597  1
  Cu  Cu2  1  0.374992  0.877393  0.372621  1
  Cu  Cu3  1  0.374992  0.374992  0.372621  1
  Cu  Cu4  1  0.877393  0.374992  0.372621  1
  Pt  Pt5  1  0.374909  0.374909  0.875272  1
