# generated using pymatgen
data_DyTm(ScSb5)2
_symmetry_space_group_name_H-M   'P 1'
_cell_length_a   4.19846200
_cell_length_b   13.02651720
_cell_length_c   14.20321566
_cell_angle_alpha   78.86546715
_cell_angle_beta   90.00000000
_cell_angle_gamma   90.00000000
_symmetry_Int_Tables_number   1
_chemical_formula_structural   DyTm(ScSb5)2
_chemical_formula_sum   'Dy2 Tm2 Sc4 Sb20'
_cell_volume   762.17086165
_cell_formula_units_Z   2
loop_
 _symmetry_equiv_pos_site_id
 _symmetry_equiv_pos_as_xyz
  1  'x, y, z'
loop_
 _atom_site_type_symbol
 _atom_site_label
 _atom_site_symmetry_multiplicity
 _atom_site_fract_x
 _atom_site_fract_y
 _atom_site_fract_z
 _atom_site_occupancy
  Dy  Dy0  1  0.250000  0.953548  0.354593  1
  Dy  Dy1  1  0.750000  0.046452  0.645407  1
  Tm  Tm2  1  0.250000  0.669268  0.576364  1
  Tm  Tm3  1  0.750000  0.330732  0.423636  1
  Sc  Sc4  1  0.250000  0.396877  0.772778  1
  Sc  Sc5  1  0.750000  0.603123  0.227222  1
  Sc  Sc6  1  0.250000  0.657387  0.858604  1
  Sc  Sc7  1  0.750000  0.342613  0.141396  1
  Sb  Sb8  1  0.250000  0.148020  0.780604  1
  Sb  Sb9  1  0.750000  0.851980  0.219396  1
  Sb  Sb10  1  0.250000  0.143874  0.482716  1
  Sb  Sb11  1  0.750000  0.856126  0.517284  1
  Sb  Sb12  1  0.250000  0.163240  0.160564  1
  Sb  Sb13  1  0.750000  0.836760  0.839436  1
  Sb  Sb14  1  0.250000  0.422205  0.975163  1
  Sb  Sb15  1  0.750000  0.577795  0.024837  1
  Sb  Sb16  1  0.750000  0.028539  0.913638  1
  Sb  Sb17  1  0.250000  0.971461  0.086362  1
  Sb  Sb18  1  0.750000  0.143509  0.315760  1
  Sb  Sb19  1  0.250000  0.856491  0.684240  1
  Sb  Sb20  1  0.750000  0.279856  0.936523  1
  Sb  Sb21  1  0.250000  0.720144  0.063477  1
  Sb  Sb22  1  0.750000  0.289437  0.658873  1
  Sb  Sb23  1  0.250000  0.710563  0.341127  1
  Sb  Sb24  1  0.750000  0.573771  0.740567  1
  Sb  Sb25  1  0.250000  0.426229  0.259433  1
  Sb  Sb26  1  0.750000  0.570335  0.444149  1
  Sb  Sb27  1  0.250000  0.429665  0.555851  1
