# generated using pymatgen
data_Gd6Ti(TcC4)3
_symmetry_space_group_name_H-M   'P 1'
_cell_length_a   8.44708400
_cell_length_b   8.44708344
_cell_length_c   5.11024000
_cell_angle_alpha   90.00000000
_cell_angle_beta   90.00000000
_cell_angle_gamma   119.99998441
_symmetry_Int_Tables_number   1
_chemical_formula_structural   Gd6Ti(TcC4)3
_chemical_formula_sum   'Gd6 Ti1 Tc3 C12'
_cell_volume   315.78070813
_cell_formula_units_Z   1
loop_
 _symmetry_equiv_pos_site_id
 _symmetry_equiv_pos_as_xyz
  1  'x, y, z'
loop_
 _atom_site_type_symbol
 _atom_site_label
 _atom_site_symmetry_multiplicity
 _atom_site_fract_x
 _atom_site_fract_y
 _atom_site_fract_z
 _atom_site_occupancy
  Gd  Gd0  1  0.624455  0.689748  0.748566  1
  Gd  Gd1  1  0.934708  0.624455  0.251434  1
  Gd  Gd2  1  0.689748  0.065292  0.251434  1
  Gd  Gd3  1  0.310252  0.934708  0.748566  1
  Gd  Gd4  1  0.065292  0.375545  0.748566  1
  Gd  Gd5  1  0.375545  0.310252  0.251434  1
  Ti  Ti6  1  0.000000  0.000000  0.500000  1
  Tc  Tc7  1  0.000000  0.000000  0.000000  1
  Tc  Tc8  1  0.666667  0.333333  0.750627  1
  Tc  Tc9  1  0.333333  0.666667  0.249373  1
  C  C10  1  0.962765  0.768842  0.746427  1
  C  C11  1  0.193924  0.962765  0.253573  1
  C  C12  1  0.768842  0.806076  0.253573  1
  C  C13  1  0.231158  0.193924  0.746427  1
  C  C14  1  0.806076  0.037235  0.746427  1
  C  C15  1  0.037235  0.231158  0.253573  1
  C  C16  1  0.865982  0.582821  0.753255  1
  C  C17  1  0.283160  0.865982  0.246745  1
  C  C18  1  0.582821  0.716840  0.246745  1
  C  C19  1  0.417179  0.283160  0.753255  1
  C  C20  1  0.134018  0.417179  0.246745  1
  C  C21  1  0.716840  0.134018  0.753255  1
