# generated using pymatgen
data_V10Si3AsP2
_symmetry_space_group_name_H-M   'P 1'
_cell_length_a   9.31642737
_cell_length_b   7.02408264
_cell_length_c   6.98416664
_cell_angle_alpha   83.37443441
_cell_angle_beta   48.49611107
_cell_angle_gamma   48.12946527
_symmetry_Int_Tables_number   1
_chemical_formula_structural   V10Si3AsP2
_chemical_formula_sum   'V10 Si3 As1 P2'
_cell_volume   206.49428222
_cell_formula_units_Z   1
loop_
 _symmetry_equiv_pos_site_id
 _symmetry_equiv_pos_as_xyz
  1  'x, y, z'
loop_
 _atom_site_type_symbol
 _atom_site_label
 _atom_site_symmetry_multiplicity
 _atom_site_fract_x
 _atom_site_fract_y
 _atom_site_fract_z
 _atom_site_occupancy
  V  V0  1  0.777084  0.416257  0.583743  1
  V  V1  1  0.224330  0.582483  0.417517  1
  V  V2  1  0.725743  0.930609  0.069391  1
  V  V3  1  0.275900  0.069509  0.930491  1
  V  V4  1  0.930609  0.725743  0.274257  1
  V  V5  1  0.069509  0.275900  0.724100  1
  V  V6  1  0.416257  0.777084  0.222916  1
  V  V7  1  0.582483  0.224330  0.775670  1
  V  V8  1  0.749592  0.247618  0.250408  1
  V  V9  1  0.247618  0.749592  0.752382  1
  Si  Si10  1  0.250380  0.250380  0.249620  1
  Si  Si11  1  0.750380  0.750380  0.749620  1
  Si  Si12  1  0.333302  0.333302  0.666698  1
  As  As13  1  0.666863  0.666863  0.333137  1
  P  P14  1  0.162413  0.837538  0.162462  1
  P  P15  1  0.837538  0.162413  0.837587  1
