# generated using pymatgen
data_Pr3Er2P12Ru19
_symmetry_space_group_name_H-M   'P 1'
_cell_length_a   12.60759500
_cell_length_b   12.60759564
_cell_length_c   4.01282800
_cell_angle_alpha   90.00000000
_cell_angle_beta   90.00000000
_cell_angle_gamma   120.00000095
_symmetry_Int_Tables_number   1
_chemical_formula_structural   Pr3Er2P12Ru19
_chemical_formula_sum   'Pr3 Er2 P12 Ru19'
_cell_volume   552.38985435
_cell_formula_units_Z   1
loop_
 _symmetry_equiv_pos_site_id
 _symmetry_equiv_pos_as_xyz
  1  'x, y, z'
loop_
 _atom_site_type_symbol
 _atom_site_label
 _atom_site_symmetry_multiplicity
 _atom_site_fract_x
 _atom_site_fract_y
 _atom_site_fract_z
 _atom_site_occupancy
  Pr  Pr0  1  0.183962  0.183962  0.500000  1
  Pr  Pr1  1  0.816038  0.000000  0.500000  1
  Pr  Pr2  1  0.000000  0.816038  0.500000  1
  Er  Er3  1  0.333333  0.666667  0.000000  1
  Er  Er4  1  0.666667  0.333333  0.000000  1
  P  P5  1  0.811150  0.811150  0.000000  1
  P  P6  1  0.188850  0.000000  0.000000  1
  P  P7  1  0.000000  0.188850  0.000000  1
  P  P8  1  0.174300  0.479203  0.500000  1
  P  P9  1  0.520797  0.695097  0.500000  1
  P  P10  1  0.304903  0.825700  0.500000  1
  P  P11  1  0.695097  0.520797  0.500000  1
  P  P12  1  0.825700  0.304903  0.500000  1
  P  P13  1  0.479203  0.174300  0.500000  1
  P  P14  1  0.374204  0.374204  0.000000  1
  P  P15  1  0.625796  0.000000  0.000000  1
  P  P16  1  0.000000  0.625796  0.000000  1
  Ru  Ru17  1  0.553818  0.553818  0.000000  1
  Ru  Ru18  1  0.446182  0.000000  0.000000  1
  Ru  Ru19  1  0.000000  0.446182  0.000000  1
  Ru  Ru20  1  0.712440  0.712440  0.500000  1
  Ru  Ru21  1  0.287560  0.000000  0.500000  1
  Ru  Ru22  1  0.000000  0.287560  0.500000  1
  Ru  Ru23  1  0.185496  0.381833  0.000000  1
  Ru  Ru24  1  0.618167  0.803663  0.000000  1
  Ru  Ru25  1  0.196337  0.814504  0.000000  1
  Ru  Ru26  1  0.803663  0.618167  0.000000  1
  Ru  Ru27  1  0.814504  0.196337  0.000000  1
  Ru  Ru28  1  0.381833  0.185496  0.000000  1
  Ru  Ru29  1  0.367772  0.493833  0.500000  1
  Ru  Ru30  1  0.506167  0.873939  0.500000  1
  Ru  Ru31  1  0.126061  0.632228  0.500000  1
  Ru  Ru32  1  0.873939  0.506167  0.500000  1
  Ru  Ru33  1  0.632228  0.126061  0.500000  1
  Ru  Ru34  1  0.493833  0.367772  0.500000  1
  Ru  Ru35  1  0.000000  0.000000  0.000000  1
