# generated using pymatgen
data_Pr2Zn(Ga3Pt2)3
_symmetry_space_group_name_H-M   'P 1'
_cell_length_a   4.14741300
_cell_length_b   7.41154410
_cell_length_c   21.11085600
_cell_angle_alpha   90.06027560
_cell_angle_beta   90.00000000
_cell_angle_gamma   90.00000000
_symmetry_Int_Tables_number   1
_chemical_formula_structural   Pr2Zn(Ga3Pt2)3
_chemical_formula_sum   'Pr4 Zn2 Ga18 Pt12'
_cell_volume   648.92063552
_cell_formula_units_Z   2
loop_
 _symmetry_equiv_pos_site_id
 _symmetry_equiv_pos_as_xyz
  1  'x, y, z'
loop_
 _atom_site_type_symbol
 _atom_site_label
 _atom_site_symmetry_multiplicity
 _atom_site_fract_x
 _atom_site_fract_y
 _atom_site_fract_z
 _atom_site_occupancy
  Pr  Pr0  1  0.250000  0.115473  0.641399  1
  Pr  Pr1  1  0.750000  0.884098  0.358701  1
  Pr  Pr2  1  0.250000  0.383202  0.140726  1
  Pr  Pr3  1  0.750000  0.616628  0.859272  1
  Zn  Zn4  1  0.750000  0.352583  0.384165  1
  Zn  Zn5  1  0.750000  0.884617  0.983013  1
  Ga  Ga6  1  0.750000  0.684007  0.200572  1
  Ga  Ga7  1  0.250000  0.868847  0.490689  1
  Ga  Ga8  1  0.250000  0.635468  0.989765  1
  Ga  Ga9  1  0.250000  0.318563  0.800362  1
  Ga  Ga10  1  0.750000  0.077554  0.207346  1
  Ga  Ga11  1  0.250000  0.648504  0.616753  1
  Ga  Ga12  1  0.250000  0.577371  0.294235  1
  Ga  Ga13  1  0.250000  0.185756  0.301729  1
  Ga  Ga14  1  0.750000  0.145728  0.884319  1
  Ga  Ga15  1  0.250000  0.921114  0.792692  1
  Ga  Ga16  1  0.750000  0.370845  0.009228  1
  Ga  Ga17  1  0.750000  0.612335  0.482293  1
  Ga  Ga18  1  0.750000  0.130577  0.508709  1
  Ga  Ga19  1  0.250000  0.107707  0.016286  1
  Ga  Ga20  1  0.250000  0.853192  0.115707  1
  Ga  Ga21  1  0.250000  0.384345  0.515867  1
  Ga  Ga22  1  0.750000  0.421339  0.706552  1
  Ga  Ga23  1  0.750000  0.819351  0.699884  1
  Pt  Pt24  1  0.750000  0.383446  0.261595  1
  Pt  Pt25  1  0.250000  0.883423  0.237412  1
  Pt  Pt26  1  0.250000  0.617028  0.736939  1
  Pt  Pt27  1  0.750000  0.118124  0.763384  1
  Pt  Pt28  1  0.250000  0.159661  0.425893  1
  Pt  Pt29  1  0.750000  0.423825  0.585795  1
  Pt  Pt30  1  0.750000  0.080774  0.087094  1
  Pt  Pt31  1  0.250000  0.924027  0.912308  1
  Pt  Pt32  1  0.750000  0.834836  0.573585  1
  Pt  Pt33  1  0.250000  0.334709  0.926327  1
  Pt  Pt34  1  0.750000  0.662417  0.075544  1
  Pt  Pt35  1  0.250000  0.578529  0.413854  1
