# generated using pymatgen
data_Ho6Tm2Tc3OsC8
_symmetry_space_group_name_H-M   'P 1'
_cell_length_a   5.06358500
_cell_length_b   6.52422574
_cell_length_c   9.78070717
_cell_angle_alpha   89.81935954
_cell_angle_beta   90.00000000
_cell_angle_gamma   90.00000000
_symmetry_Int_Tables_number   1
_chemical_formula_structural   Ho6Tm2Tc3OsC8
_chemical_formula_sum   'Ho6 Tm2 Tc3 Os1 C8'
_cell_volume   323.11355808
_cell_formula_units_Z   1
loop_
 _symmetry_equiv_pos_site_id
 _symmetry_equiv_pos_as_xyz
  1  'x, y, z'
loop_
 _atom_site_type_symbol
 _atom_site_label
 _atom_site_symmetry_multiplicity
 _atom_site_fract_x
 _atom_site_fract_y
 _atom_site_fract_z
 _atom_site_occupancy
  Ho  Ho0  1  0.750000  0.321901  0.443410  1
  Ho  Ho1  1  0.750000  0.822855  0.056955  1
  Ho  Ho2  1  0.250000  0.531605  0.215797  1
  Ho  Ho3  1  0.750000  0.466655  0.784844  1
  Ho  Ho4  1  0.750000  0.968983  0.713162  1
  Ho  Ho5  1  0.250000  0.031368  0.284336  1
  Tm  Tm6  1  0.250000  0.675025  0.557838  1
  Tm  Tm7  1  0.250000  0.175009  0.942069  1
  Tc  Tc8  1  0.250000  0.719551  0.866152  1
  Tc  Tc9  1  0.750000  0.281336  0.132413  1
  Tc  Tc10  1  0.750000  0.780207  0.367522  1
  Os  Os11  1  0.250000  0.219763  0.634152  1
  C  C12  1  0.250000  0.452486  0.758733  1
  C  C13  1  0.750000  0.547949  0.241493  1
  C  C14  1  0.750000  0.047998  0.258993  1
  C  C15  1  0.250000  0.953508  0.741085  1
  C  C16  1  0.250000  0.825092  0.050507  1
  C  C17  1  0.750000  0.176667  0.947772  1
  C  C18  1  0.750000  0.676422  0.552930  1
  C  C19  1  0.250000  0.325621  0.449836  1
