# generated using pymatgen
data_Er8GaCuPd23
_symmetry_space_group_name_H-M   'P 1'
_cell_length_a   8.35681700
_cell_length_b   8.31702500
_cell_length_c   8.26843500
_cell_angle_alpha   90.00000000
_cell_angle_beta   90.00000000
_cell_angle_gamma   90.00000000
_symmetry_Int_Tables_number   1
_chemical_formula_structural   Er8GaCuPd23
_chemical_formula_sum   'Er8 Ga1 Cu1 Pd23'
_cell_volume   574.68811484
_cell_formula_units_Z   1
loop_
 _symmetry_equiv_pos_site_id
 _symmetry_equiv_pos_as_xyz
  1  'x, y, z'
loop_
 _atom_site_type_symbol
 _atom_site_label
 _atom_site_symmetry_multiplicity
 _atom_site_fract_x
 _atom_site_fract_y
 _atom_site_fract_z
 _atom_site_occupancy
  Er  Er0  1  0.255806  0.249467  0.748116  1
  Er  Er1  1  0.251164  0.747446  0.252191  1
  Er  Er2  1  0.748836  0.252554  0.252191  1
  Er  Er3  1  0.744194  0.750533  0.748116  1
  Er  Er4  1  0.748836  0.747446  0.252191  1
  Er  Er5  1  0.744194  0.249467  0.748116  1
  Er  Er6  1  0.255806  0.750533  0.748116  1
  Er  Er7  1  0.251164  0.252554  0.252191  1
  Ga  Ga8  1  0.000000  0.000000  0.002264  1
  Cu  Cu9  1  0.000000  0.500000  0.734365  1
  Pd  Pd10  1  0.500000  0.500000  0.746715  1
  Pd  Pd11  1  0.500000  0.253815  0.499252  1
  Pd  Pd12  1  0.250976  0.500000  0.504359  1
  Pd  Pd13  1  0.500000  0.500000  0.253763  1
  Pd  Pd14  1  0.500000  0.746185  0.499252  1
  Pd  Pd15  1  0.749024  0.500000  0.504359  1
  Pd  Pd16  1  0.000000  0.000000  0.709015  1
  Pd  Pd17  1  0.000000  0.295435  0.989122  1
  Pd  Pd18  1  0.290336  0.000000  0.001116  1
  Pd  Pd19  1  0.000000  0.000000  0.295660  1
  Pd  Pd20  1  0.000000  0.704565  0.989122  1
  Pd  Pd21  1  0.709664  0.000000  0.001116  1
  Pd  Pd22  1  0.500000  0.259830  0.001240  1
  Pd  Pd23  1  0.260550  0.000000  0.499840  1
  Pd  Pd24  1  0.000000  0.264711  0.506435  1
  Pd  Pd25  1  0.500000  0.000000  0.740302  1
  Pd  Pd26  1  0.260746  0.500000  0.997568  1
  Pd  Pd27  1  0.000000  0.500000  0.258370  1
  Pd  Pd28  1  0.500000  0.740170  0.001240  1
  Pd  Pd29  1  0.000000  0.735289  0.506435  1
  Pd  Pd30  1  0.500000  0.000000  0.260454  1
  Pd  Pd31  1  0.739450  0.000000  0.499840  1
  Pd  Pd32  1  0.739254  0.500000  0.997568  1
