# generated using pymatgen
data_Tb2TiMnFe10P7
_symmetry_space_group_name_H-M   'P 1'
_cell_length_a   9.02018461
_cell_length_b   9.11189256
_cell_length_c   3.63032800
_cell_angle_alpha   90.00000000
_cell_angle_beta   90.00000000
_cell_angle_gamma   119.05387709
_symmetry_Int_Tables_number   1
_chemical_formula_structural   Tb2TiMnFe10P7
_chemical_formula_sum   'Tb2 Ti1 Mn1 Fe10 P7'
_cell_volume   260.83299005
_cell_formula_units_Z   1
loop_
 _symmetry_equiv_pos_site_id
 _symmetry_equiv_pos_as_xyz
  1  'x, y, z'
loop_
 _atom_site_type_symbol
 _atom_site_label
 _atom_site_symmetry_multiplicity
 _atom_site_fract_x
 _atom_site_fract_y
 _atom_site_fract_z
 _atom_site_occupancy
  Tb  Tb0  1  0.672147  0.342667  0.000000  1
  Tb  Tb1  1  0.327956  0.661283  0.500000  1
  Ti  Ti2  1  0.779882  0.890222  0.500000  1
  Mn  Mn3  1  0.116532  0.214351  0.500000  1
  Fe  Fe4  1  0.054344  0.629115  0.000000  1
  Fe  Fe5  1  0.566054  0.951682  0.000000  1
  Fe  Fe6  1  0.366756  0.422217  0.000000  1
  Fe  Fe7  1  0.279229  0.119529  0.000000  1
  Fe  Fe8  1  0.848718  0.727860  0.000000  1
  Fe  Fe9  1  0.882901  0.157062  0.000000  1
  Fe  Fe10  1  0.436366  0.046118  0.500000  1
  Fe  Fe11  1  0.613609  0.563971  0.500000  1
  Fe  Fe12  1  0.955008  0.389984  0.500000  1
  Fe  Fe13  1  0.099309  0.878121  0.500000  1
  P  P14  1  0.280008  0.878011  0.000000  1
  P  P15  1  0.582187  0.687405  0.000000  1
  P  P16  1  0.109862  0.410797  0.000000  1
  P  P17  1  0.406115  0.292713  0.500000  1
  P  P18  1  0.889862  0.602492  0.500000  1
  P  P19  1  0.725726  0.134688  0.500000  1
  P  P20  1  0.007429  0.999712  0.000000  1
