# generated using pymatgen
data_Y12AlTl(CoSi)2
_symmetry_space_group_name_H-M   'P 1'
_cell_length_a   8.49042587
_cell_length_b   8.49042665
_cell_length_c   8.49042604
_cell_angle_alpha   113.07173077
_cell_angle_beta   110.47526267
_cell_angle_gamma   104.97002565
_symmetry_Int_Tables_number   1
_chemical_formula_structural   Y12AlTl(CoSi)2
_chemical_formula_sum   'Y12 Al1 Tl1 Co2 Si2'
_cell_volume   468.73738199
_cell_formula_units_Z   1
loop_
 _symmetry_equiv_pos_site_id
 _symmetry_equiv_pos_as_xyz
  1  'x, y, z'
loop_
 _atom_site_type_symbol
 _atom_site_label
 _atom_site_symmetry_multiplicity
 _atom_site_fract_x
 _atom_site_fract_y
 _atom_site_fract_z
 _atom_site_occupancy
  Y  Y0  1  0.433550  0.236381  0.197169  1
  Y  Y1  1  0.566450  0.763619  0.802831  1
  Y  Y2  1  0.039212  0.236381  0.802831  1
  Y  Y3  1  0.960788  0.763619  0.197169  1
  Y  Y4  1  0.184736  0.283954  0.468691  1
  Y  Y5  1  0.815264  0.716046  0.531309  1
  Y  Y6  1  0.184736  0.716046  0.900783  1
  Y  Y7  1  0.815264  0.283954  0.099217  1
  Y  Y8  1  0.305708  0.615959  0.310252  1
  Y  Y9  1  0.694292  0.384041  0.689748  1
  Y  Y10  1  0.305708  0.995456  0.689748  1
  Y  Y11  1  0.694292  0.004544  0.310252  1
  Al  Al12  1  0.000000  0.000000  0.000000  1
  Tl  Tl13  1  0.500000  0.500000  0.000000  1
  Co  Co14  1  0.106588  0.606588  0.500000  1
  Co  Co15  1  0.893412  0.393412  0.500000  1
  Si  Si16  1  0.363911  0.000000  0.363911  1
  Si  Si17  1  0.636089  0.000000  0.636089  1
