# generated using pymatgen
data_Tm10CdGa2Bi3
_symmetry_space_group_name_H-M   'P 1'
_cell_length_a   8.76378900
_cell_length_b   8.86035386
_cell_length_c   6.39874800
_cell_angle_alpha   90.00000000
_cell_angle_beta   90.00000000
_cell_angle_gamma   119.88628483
_symmetry_Int_Tables_number   1
_chemical_formula_structural   Tm10CdGa2Bi3
_chemical_formula_sum   'Tm10 Cd1 Ga2 Bi3'
_cell_volume   430.78951383
_cell_formula_units_Z   1
loop_
 _symmetry_equiv_pos_site_id
 _symmetry_equiv_pos_as_xyz
  1  'x, y, z'
loop_
 _atom_site_type_symbol
 _atom_site_label
 _atom_site_symmetry_multiplicity
 _atom_site_fract_x
 _atom_site_fract_y
 _atom_site_fract_z
 _atom_site_occupancy
  Tm  Tm0  1  0.342902  0.690870  0.996731  1
  Tm  Tm1  1  0.658175  0.303866  0.502970  1
  Tm  Tm2  1  0.658175  0.303866  0.997030  1
  Tm  Tm3  1  0.342902  0.690870  0.503269  1
  Tm  Tm4  1  0.243663  0.999111  0.250000  1
  Tm  Tm5  1  0.763870  0.010520  0.750000  1
  Tm  Tm6  1  0.978685  0.224027  0.250000  1
  Tm  Tm7  1  0.758057  0.776318  0.250000  1
  Tm  Tm8  1  0.235792  0.227590  0.750000  1
  Tm  Tm9  1  0.019599  0.773151  0.750000  1
  Cd  Cd10  1  0.009849  0.401764  0.750000  1
  Ga  Ga11  1  0.597402  0.995411  0.250000  1
  Ga  Ga12  1  0.396580  0.000231  0.750000  1
  Bi  Bi13  1  0.991609  0.601869  0.250000  1
  Bi  Bi14  1  0.389614  0.396049  0.250000  1
  Bi  Bi15  1  0.613127  0.604489  0.750000  1
