# generated using pymatgen
data_Ho6Al4IrPd12
_symmetry_space_group_name_H-M   'P 1'
_cell_length_a   8.21994434
_cell_length_b   8.21994421
_cell_length_c   8.21994400
_cell_angle_alpha   109.47121766
_cell_angle_beta   109.47121734
_cell_angle_gamma   109.47121728
_symmetry_Int_Tables_number   1
_chemical_formula_structural   Ho6Al4IrPd12
_chemical_formula_sum   'Ho6 Al4 Ir1 Pd12'
_cell_volume   427.54788855
_cell_formula_units_Z   1
loop_
 _symmetry_equiv_pos_site_id
 _symmetry_equiv_pos_as_xyz
  1  'x, y, z'
loop_
 _atom_site_type_symbol
 _atom_site_label
 _atom_site_symmetry_multiplicity
 _atom_site_fract_x
 _atom_site_fract_y
 _atom_site_fract_z
 _atom_site_occupancy
  Ho  Ho0  1  0.000000  0.295645  0.295645  1
  Ho  Ho1  1  0.000000  0.704355  0.704355  1
  Ho  Ho2  1  0.295645  0.000000  0.295645  1
  Ho  Ho3  1  0.704355  0.704355  0.000000  1
  Ho  Ho4  1  0.704355  0.000000  0.704355  1
  Ho  Ho5  1  0.295645  0.295645  0.000000  1
  Al  Al6  1  0.000000  0.000000  0.500000  1
  Al  Al7  1  0.500000  0.000000  0.000000  1
  Al  Al8  1  0.000000  0.500000  0.000000  1
  Al  Al9  1  0.500000  0.500000  0.500000  1
  Ir  Ir10  1  0.000000  0.000000  0.000000  1
  Pd  Pd11  1  0.325837  0.674163  0.000000  1
  Pd  Pd12  1  0.000000  0.325837  0.674163  1
  Pd  Pd13  1  0.674163  0.000000  0.325837  1
  Pd  Pd14  1  0.348325  0.674163  0.674163  1
  Pd  Pd15  1  0.674163  0.348325  0.674163  1
  Pd  Pd16  1  0.651675  0.325837  0.325837  1
  Pd  Pd17  1  0.325837  0.651675  0.325837  1
  Pd  Pd18  1  0.325837  0.325837  0.651675  1
  Pd  Pd19  1  0.000000  0.674163  0.325837  1
  Pd  Pd20  1  0.674163  0.674163  0.348325  1
  Pd  Pd21  1  0.325837  0.000000  0.674163  1
  Pd  Pd22  1  0.674163  0.325837  0.000000  1
