# generated using pymatgen
data_Sm2Tc2Br
_symmetry_space_group_name_H-M   'P 1'
_cell_length_a   4.11904800
_cell_length_b   4.11904732
_cell_length_c   17.45028800
_cell_angle_alpha   90.00000000
_cell_angle_beta   90.00000000
_cell_angle_gamma   119.99998940
_symmetry_Int_Tables_number   1
_chemical_formula_structural   Sm2Tc2Br
_chemical_formula_sum   'Sm4 Tc4 Br2'
_cell_volume   256.40524877
_cell_formula_units_Z   2
loop_
 _symmetry_equiv_pos_site_id
 _symmetry_equiv_pos_as_xyz
  1  'x, y, z'
loop_
 _atom_site_type_symbol
 _atom_site_label
 _atom_site_symmetry_multiplicity
 _atom_site_fract_x
 _atom_site_fract_y
 _atom_site_fract_z
 _atom_site_occupancy
  Sm  Sm0  1  0.000000  0.000000  0.118062  1
  Sm  Sm1  1  0.000000  0.000000  0.381938  1
  Sm  Sm2  1  0.000000  0.000000  0.618062  1
  Sm  Sm3  1  0.000000  0.000000  0.881938  1
  Tc  Tc4  1  0.333334  0.666668  0.016323  1
  Tc  Tc5  1  0.333334  0.666668  0.483677  1
  Tc  Tc6  1  0.666667  0.333332  0.516323  1
  Tc  Tc7  1  0.666667  0.333332  0.983677  1
  Br  Br8  1  0.666667  0.333332  0.250000  1
  Br  Br9  1  0.333334  0.666668  0.750000  1
