# generated using pymatgen
data_Y4Zn2ReRu5
_symmetry_space_group_name_H-M   'P 1'
_cell_length_a   5.26442437
_cell_length_b   5.50233032
_cell_length_c   8.88163400
_cell_angle_alpha   90.00000000
_cell_angle_beta   90.00000000
_cell_angle_gamma   121.50653216
_symmetry_Int_Tables_number   1
_chemical_formula_structural   Y4Zn2ReRu5
_chemical_formula_sum   'Y4 Zn2 Re1 Ru5'
_cell_volume   219.34405236
_cell_formula_units_Z   1
loop_
 _symmetry_equiv_pos_site_id
 _symmetry_equiv_pos_as_xyz
  1  'x, y, z'
loop_
 _atom_site_type_symbol
 _atom_site_label
 _atom_site_symmetry_multiplicity
 _atom_site_fract_x
 _atom_site_fract_y
 _atom_site_fract_z
 _atom_site_occupancy
  Y  Y0  1  0.329315  0.664658  0.432927  1
  Y  Y1  1  0.659403  0.329702  0.555946  1
  Y  Y2  1  0.659403  0.329702  0.944054  1
  Y  Y3  1  0.329315  0.664658  0.067073  1
  Zn  Zn4  1  0.183526  0.343637  0.750000  1
  Zn  Zn5  1  0.183526  0.839889  0.750000  1
  Re  Re6  1  0.337363  0.168681  0.250000  1
  Ru  Ru7  1  0.816037  0.659567  0.250000  1
  Ru  Ru8  1  0.680678  0.840339  0.750000  1
  Ru  Ru9  1  0.002698  0.001349  0.999903  1
  Ru  Ru10  1  0.816037  0.156470  0.250000  1
  Ru  Ru11  1  0.002698  0.001349  0.500097  1
