# generated using pymatgen
data_TbLuTaB2Ru5
_symmetry_space_group_name_H-M   'P 1'
_cell_length_a   9.65444122
_cell_length_b   9.65444122
_cell_length_c   3.12169800
_cell_angle_alpha   90.00000000
_cell_angle_beta   90.00000000
_cell_angle_gamma   90.51950962
_symmetry_Int_Tables_number   1
_chemical_formula_structural   TbLuTaB2Ru5
_chemical_formula_sum   'Tb2 Lu2 Ta2 B4 Ru10'
_cell_volume   290.95600071
_cell_formula_units_Z   2
loop_
 _symmetry_equiv_pos_site_id
 _symmetry_equiv_pos_as_xyz
  1  'x, y, z'
loop_
 _atom_site_type_symbol
 _atom_site_label
 _atom_site_symmetry_multiplicity
 _atom_site_fract_x
 _atom_site_fract_y
 _atom_site_fract_z
 _atom_site_occupancy
  Tb  Tb0  1  0.825001  0.674999  0.000000  1
  Tb  Tb1  1  0.174999  0.325001  0.000000  1
  Lu  Lu2  1  0.325839  0.825839  0.000000  1
  Lu  Lu3  1  0.674161  0.174161  0.000000  1
  Ta  Ta4  1  0.500000  0.500000  0.000000  1
  Ta  Ta5  1  0.000000  0.000000  0.000000  1
  B  B6  1  0.619260  0.880740  0.000000  1
  B  B7  1  0.380740  0.119260  0.000000  1
  B  B8  1  0.121290  0.621290  0.000000  1
  B  B9  1  0.878710  0.378710  0.000000  1
  Ru  Ru10  1  0.568525  0.719037  0.500000  1
  Ru  Ru11  1  0.431475  0.280963  0.500000  1
  Ru  Ru12  1  0.075081  0.783076  0.500000  1
  Ru  Ru13  1  0.924919  0.216924  0.500000  1
  Ru  Ru14  1  0.283076  0.575081  0.500000  1
  Ru  Ru15  1  0.716924  0.424919  0.500000  1
  Ru  Ru16  1  0.219037  0.068525  0.500000  1
  Ru  Ru17  1  0.780963  0.931475  0.500000  1
  Ru  Ru18  1  0.500000  0.000000  0.500000  1
  Ru  Ru19  1  0.000000  0.500000  0.500000  1
