# generated using pymatgen
data_La3TbSm3P12Pd17
_symmetry_space_group_name_H-M   'P 1'
_cell_length_a   12.44026513
_cell_length_b   12.44026437
_cell_length_c   13.68040247
_cell_angle_alpha   68.14169998
_cell_angle_beta   68.14170107
_cell_angle_gamma   18.91530155
_symmetry_Int_Tables_number   1
_chemical_formula_structural   La3TbSm3P12Pd17
_chemical_formula_sum   'La3 Tb1 Sm3 P12 Pd17'
_cell_volume   635.56129667
_cell_formula_units_Z   1
loop_
 _symmetry_equiv_pos_site_id
 _symmetry_equiv_pos_as_xyz
  1  'x, y, z'
loop_
 _atom_site_type_symbol
 _atom_site_label
 _atom_site_symmetry_multiplicity
 _atom_site_fract_x
 _atom_site_fract_y
 _atom_site_fract_z
 _atom_site_occupancy
  La  La0  1  0.500000  0.500000  0.500023  1
  La  La1  1  0.417449  0.417449  0.261342  1
  La  La2  1  0.582501  0.582501  0.738609  1
  Tb  Tb3  1  0.364758  0.364758  0.999599  1
  Sm  Sm4  1  0.635262  0.635262  0.000089  1
  Sm  Sm5  1  0.233249  0.233249  0.314272  1
  Sm  Sm6  1  0.766804  0.766804  0.685683  1
  P  P7  1  0.061428  0.061428  0.926925  1
  P  P8  1  0.938301  0.938301  0.072842  1
  P  P9  1  0.886444  0.886444  0.830269  1
  P  P10  1  0.113481  0.113481  0.170645  1
  P  P11  1  0.189245  0.189245  0.620130  1
  P  P12  1  0.810768  0.810768  0.379717  1
  P  P13  1  0.363322  0.363322  0.581149  1
  P  P14  1  0.636679  0.636679  0.418869  1
  P  P15  1  0.010555  0.010555  0.670744  1
  P  P16  1  0.989443  0.989443  0.329245  1
  P  P17  1  0.232274  0.232274  0.882811  1
  P  P18  1  0.768036  0.768036  0.116764  1
  Pd  Pd19  1  0.838279  0.838279  0.192166  1
  Pd  Pd20  1  0.161819  0.161819  0.807086  1
  Pd  Pd21  1  0.026884  0.026884  0.123485  1
  Pd  Pd22  1  0.972755  0.972755  0.876911  1
  Pd  Pd23  1  0.889285  0.889285  0.458988  1
  Pd  Pd24  1  0.110723  0.110723  0.541005  1
  Pd  Pd25  1  0.499840  0.499840  0.999952  1
  Pd  Pd26  1  0.547952  0.547952  0.251775  1
  Pd  Pd27  1  0.451991  0.451991  0.748520  1
  Pd  Pd28  1  0.295901  0.295901  0.488862  1
  Pd  Pd29  1  0.704111  0.704111  0.511129  1
  Pd  Pd30  1  0.667601  0.667601  0.222817  1
  Pd  Pd31  1  0.332507  0.332507  0.777148  1
  Pd  Pd32  1  0.906379  0.906379  0.645717  1
  Pd  Pd33  1  0.093600  0.093600  0.354407  1
  Pd  Pd34  1  0.217399  0.217399  0.069411  1
  Pd  Pd35  1  0.782973  0.782973  0.930893  1
