# generated using pymatgen
data_Ce12Nd8Si15Hg
_symmetry_space_group_name_H-M   'P 1'
_cell_length_a   7.64263665
_cell_length_b   7.90669304
_cell_length_c   15.05097800
_cell_angle_alpha   89.95693410
_cell_angle_beta   89.63786925
_cell_angle_gamma   90.19687954
_symmetry_Int_Tables_number   1
_chemical_formula_structural   Ce12Nd8Si15Hg
_chemical_formula_sum   'Ce12 Nd8 Si15 Hg1'
_cell_volume   909.47642099
_cell_formula_units_Z   1
loop_
 _symmetry_equiv_pos_site_id
 _symmetry_equiv_pos_as_xyz
  1  'x, y, z'
loop_
 _atom_site_type_symbol
 _atom_site_label
 _atom_site_symmetry_multiplicity
 _atom_site_fract_x
 _atom_site_fract_y
 _atom_site_fract_z
 _atom_site_occupancy
  Ce  Ce0  1  0.345099  0.156120  0.634569  1
  Ce  Ce1  1  0.667264  0.823363  0.369725  1
  Ce  Ce2  1  0.623227  0.027916  0.739441  1
  Ce  Ce3  1  0.161930  0.675953  0.368503  1
  Ce  Ce4  1  0.833915  0.330977  0.871747  1
  Ce  Ce5  1  0.817443  0.320230  0.624523  1
  Ce  Ce6  1  0.872790  0.520873  0.253194  1
  Ce  Ce7  1  0.366811  0.976449  0.255693  1
  Ce  Ce8  1  0.315433  0.189425  0.873540  1
  Ce  Ce9  1  0.182379  0.684753  0.125798  1
  Ce  Ce10  1  0.677001  0.819864  0.122118  1
  Ce  Ce11  1  0.124741  0.465005  0.768625  1
  Nd  Nd12  1  0.024061  0.179654  0.396984  1
  Nd  Nd13  1  0.529198  0.309849  0.396890  1
  Nd  Nd14  1  0.468625  0.692757  0.898509  1
  Nd  Nd15  1  0.478136  0.692880  0.602944  1
  Nd  Nd16  1  0.969587  0.816900  0.601594  1
  Nd  Nd17  1  0.963540  0.814672  0.900879  1
  Nd  Nd18  1  0.534166  0.313672  0.100285  1
  Nd  Nd19  1  0.035307  0.189726  0.101459  1
  Si  Si20  1  0.250682  0.863245  0.754631  1
  Si  Si21  1  0.477098  0.589463  0.247826  1
  Si  Si22  1  0.021042  0.087973  0.751705  1
  Si  Si23  1  0.525735  0.413316  0.750200  1
  Si  Si24  1  0.973493  0.909755  0.245869  1
  Si  Si25  1  0.743196  0.131159  0.246766  1
  Si  Si26  1  0.860003  0.527682  0.041806  1
  Si  Si27  1  0.359132  0.977627  0.037278  1
  Si  Si28  1  0.146079  0.477901  0.966899  1
  Si  Si29  1  0.651124  0.027423  0.533228  1
  Si  Si30  1  0.348072  0.967842  0.461701  1
  Si  Si31  1  0.835441  0.532763  0.460351  1
  Si  Si32  1  0.758156  0.634015  0.748828  1
  Si  Si33  1  0.246095  0.366545  0.248703  1
  Si  Si34  1  0.641884  0.035811  0.957463  1
  Hg  Hg35  1  0.172115  0.456436  0.539728  1
