# generated using pymatgen
data_La4Ga9GeRh6
_symmetry_space_group_name_H-M   'P 1'
_cell_length_a   8.75827764
_cell_length_b   8.71620154
_cell_length_c   8.71620005
_cell_angle_alpha   140.83326760
_cell_angle_beta   107.74991431
_cell_angle_gamma   85.33936537
_symmetry_Int_Tables_number   1
_chemical_formula_structural   La4Ga9GeRh6
_chemical_formula_sum   'La4 Ga9 Ge1 Rh6'
_cell_volume   386.70256129
_cell_formula_units_Z   1
loop_
 _symmetry_equiv_pos_site_id
 _symmetry_equiv_pos_as_xyz
  1  'x, y, z'
loop_
 _atom_site_type_symbol
 _atom_site_label
 _atom_site_symmetry_multiplicity
 _atom_site_fract_x
 _atom_site_fract_y
 _atom_site_fract_z
 _atom_site_occupancy
  La  La0  1  0.635060  0.864962  0.770099  1
  La  La1  1  0.363126  0.137273  0.225854  1
  La  La2  1  0.907588  0.635138  0.272450  1
  La  La3  1  0.091518  0.363528  0.727990  1
  Ga  Ga4  1  0.999608  0.248765  0.250282  1
  Ga  Ga5  1  0.999608  0.749326  0.750843  1
  Ga  Ga6  1  0.289020  0.539257  0.249862  1
  Ga  Ga7  1  0.709298  0.960681  0.249480  1
  Ga  Ga8  1  0.709298  0.459819  0.748617  1
  Ga  Ga9  1  0.289020  0.039157  0.749763  1
  Ga  Ga10  1  0.426213  0.591612  0.834601  1
  Ga  Ga11  1  0.761895  0.095286  0.666609  1
  Ga  Ga12  1  0.244863  0.908975  0.335888  1
  Ge  Ge13  1  0.570949  0.407232  0.163716  1
  Rh  Rh14  1  0.048565  0.144833  0.903731  1
  Rh  Rh15  1  0.503326  0.750047  0.252860  1
  Rh  Rh16  1  0.241426  0.644718  0.596709  1
  Rh  Rh17  1  0.754295  0.355215  0.399079  1
  Rh  Rh18  1  0.951997  0.853711  0.098287  1
  Rh  Rh19  1  0.503326  0.250466  0.753279  1
