# generated using pymatgen
data_Pr17Dy3(Bi3Pb5)2
_symmetry_space_group_name_H-M   'P 1'
_cell_length_a   8.48795425
_cell_length_b   16.29171622
_cell_length_c   8.56256900
_cell_angle_alpha   90.12848528
_cell_angle_beta   89.90264790
_cell_angle_gamma   90.01039259
_symmetry_Int_Tables_number   1
_chemical_formula_structural   Pr17Dy3(Bi3Pb5)2
_chemical_formula_sum   'Pr17 Dy3 Bi6 Pb10'
_cell_volume   1184.05595215
_cell_formula_units_Z   1
loop_
 _symmetry_equiv_pos_site_id
 _symmetry_equiv_pos_as_xyz
  1  'x, y, z'
loop_
 _atom_site_type_symbol
 _atom_site_label
 _atom_site_symmetry_multiplicity
 _atom_site_fract_x
 _atom_site_fract_y
 _atom_site_fract_z
 _atom_site_occupancy
  Pr  Pr0  1  0.622976  0.619568  0.159107  1
  Pr  Pr1  1  0.123168  0.879904  0.340858  1
  Pr  Pr2  1  0.379347  0.120095  0.843019  1
  Pr  Pr3  1  0.879487  0.378508  0.657573  1
  Pr  Pr4  1  0.374979  0.380074  0.838906  1
  Pr  Pr5  1  0.875449  0.121200  0.661314  1
  Pr  Pr6  1  0.624279  0.880923  0.157271  1
  Pr  Pr7  1  0.124492  0.619729  0.342432  1
  Pr  Pr8  1  0.458551  0.603399  0.672399  1
  Pr  Pr9  1  0.958174  0.896445  0.827400  1
  Pr  Pr10  1  0.539984  0.104704  0.324507  1
  Pr  Pr11  1  0.039725  0.396166  0.175940  1
  Pr  Pr12  1  0.537191  0.395764  0.327332  1
  Pr  Pr13  1  0.036991  0.103275  0.173175  1
  Pr  Pr14  1  0.463083  0.897438  0.676850  1
  Pr  Pr15  1  0.962782  0.602673  0.822731  1
  Pr  Pr16  1  0.792785  0.750306  0.503222  1
  Dy  Dy17  1  0.291547  0.749664  0.998520  1
  Dy  Dy18  1  0.208081  0.251583  0.498314  1
  Dy  Dy19  1  0.707676  0.248365  0.001663  1
  Bi  Bi20  1  0.722601  0.450816  0.974500  1
  Bi  Bi21  1  0.222366  0.048859  0.525580  1
  Bi  Bi22  1  0.277927  0.951287  0.025339  1
  Bi  Bi23  1  0.777733  0.545107  0.472506  1
  Bi  Bi24  1  0.278151  0.548849  0.025003  1
  Bi  Bi25  1  0.777615  0.954882  0.472552  1
  Pb  Pb26  1  0.722283  0.047868  0.973620  1
  Pb  Pb27  1  0.221660  0.452470  0.526203  1
  Pb  Pb28  1  0.426914  0.750919  0.371890  1
  Pb  Pb29  1  0.930857  0.749397  0.123816  1
  Pb  Pb30  1  0.569788  0.249788  0.626305  1
  Pb  Pb31  1  0.071144  0.249992  0.874612  1
  Pb  Pb32  1  0.650900  0.749433  0.855261  1
  Pb  Pb33  1  0.158157  0.750743  0.651311  1
  Pb  Pb34  1  0.345149  0.249901  0.149123  1
  Pb  Pb35  1  0.846014  0.249904  0.349846  1
