# generated using pymatgen
data_YSc3Al18(Pd2Rh)2
_symmetry_space_group_name_H-M   'P 1'
_cell_length_a   7.54827282
_cell_length_b   7.54174909
_cell_length_c   9.33782600
_cell_angle_alpha   90.00000000
_cell_angle_beta   90.00000000
_cell_angle_gamma   119.69767885
_symmetry_Int_Tables_number   1
_chemical_formula_structural   YSc3Al18(Pd2Rh)2
_chemical_formula_sum   'Y1 Sc3 Al18 Pd4 Rh2'
_cell_volume   461.75442100
_cell_formula_units_Z   1
loop_
 _symmetry_equiv_pos_site_id
 _symmetry_equiv_pos_as_xyz
  1  'x, y, z'
loop_
 _atom_site_type_symbol
 _atom_site_label
 _atom_site_symmetry_multiplicity
 _atom_site_fract_x
 _atom_site_fract_y
 _atom_site_fract_z
 _atom_site_occupancy
  Y  Y0  1  0.332261  0.005449  0.750000  1
  Sc  Sc1  1  0.993796  0.667590  0.250000  1
  Sc  Sc2  1  0.005238  0.331778  0.750000  1
  Sc  Sc3  1  0.669014  0.994831  0.250000  1
  Al  Al4  1  0.119761  0.121360  0.250000  1
  Al  Al5  1  0.875204  0.876485  0.750000  1
  Al  Al6  1  0.996008  0.331092  0.079695  1
  Al  Al7  1  0.999767  0.665675  0.925469  1
  Al  Al8  1  0.999767  0.665675  0.574531  1
  Al  Al9  1  0.330833  0.996060  0.416329  1
  Al  Al10  1  0.996008  0.331092  0.420305  1
  Al  Al11  1  0.672939  0.003175  0.574794  1
  Al  Al12  1  0.672939  0.003175  0.925206  1
  Al  Al13  1  0.330833  0.996060  0.083671  1
  Al  Al14  1  0.327265  0.330178  0.555719  1
  Al  Al15  1  0.673364  0.673405  0.436537  1
  Al  Al16  1  0.673364  0.673405  0.063463  1
  Al  Al17  1  0.327265  0.330178  0.944281  1
  Al  Al18  1  0.340425  0.551471  0.250000  1
  Al  Al19  1  0.662284  0.454043  0.750000  1
  Al  Al20  1  0.552138  0.341780  0.250000  1
  Al  Al21  1  0.450353  0.657351  0.750000  1
  Pd  Pd22  1  0.671217  0.326817  0.000459  1
  Pd  Pd23  1  0.328060  0.673044  0.000499  1
  Pd  Pd24  1  0.328060  0.673044  0.499501  1
  Pd  Pd25  1  0.671217  0.326817  0.499541  1
  Rh  Rh26  1  0.000310  0.999483  0.000676  1
  Rh  Rh27  1  0.000310  0.999483  0.499324  1
