# generated using pymatgen
data_Nd4TmLu3(ReB6)4
_symmetry_space_group_name_H-M   'P 1'
_cell_length_a   3.69970800
_cell_length_b   9.19730401
_cell_length_c   11.65831901
_cell_angle_alpha   90.00454927
_cell_angle_beta   90.00000000
_cell_angle_gamma   90.00000000
_symmetry_Int_Tables_number   1
_chemical_formula_structural   Nd4TmLu3(ReB6)4
_chemical_formula_sum   'Nd4 Tm1 Lu3 Re4 B24'
_cell_volume   396.70157434
_cell_formula_units_Z   1
loop_
 _symmetry_equiv_pos_site_id
 _symmetry_equiv_pos_as_xyz
  1  'x, y, z'
loop_
 _atom_site_type_symbol
 _atom_site_label
 _atom_site_symmetry_multiplicity
 _atom_site_fract_x
 _atom_site_fract_y
 _atom_site_fract_z
 _atom_site_occupancy
  Nd  Nd0  1  0.000000  0.322521  0.414588  1
  Nd  Nd1  1  0.000000  0.677391  0.585492  1
  Nd  Nd2  1  0.000000  0.822441  0.085317  1
  Nd  Nd3  1  0.000000  0.177570  0.914521  1
  Tm  Tm4  1  0.000000  0.943574  0.369979  1
  Lu  Lu5  1  0.000000  0.056640  0.630621  1
  Lu  Lu6  1  0.000000  0.443474  0.130079  1
  Lu  Lu7  1  0.000000  0.556532  0.869745  1
  Re  Re8  1  0.000000  0.639651  0.318098  1
  Re  Re9  1  0.000000  0.359855  0.681935  1
  Re  Re10  1  0.000000  0.140671  0.181337  1
  Re  Re11  1  0.000000  0.859645  0.818358  1
  B  B12  1  0.500000  0.555339  0.430021  1
  B  B13  1  0.500000  0.444312  0.570080  1
  B  B14  1  0.500000  0.055688  0.069811  1
  B  B15  1  0.500000  0.944387  0.929957  1
  B  B16  1  0.500000  0.750882  0.415557  1
  B  B17  1  0.500000  0.248435  0.584469  1
  B  B18  1  0.500000  0.251739  0.084252  1
  B  B19  1  0.500000  0.748398  0.915603  1
  B  B20  1  0.500000  0.792240  0.265645  1
  B  B21  1  0.500000  0.207305  0.734267  1
  B  B22  1  0.500000  0.293041  0.234122  1
  B  B23  1  0.500000  0.707208  0.765796  1
  B  B24  1  0.500000  0.629007  0.185207  1
  B  B25  1  0.500000  0.370829  0.814650  1
  B  B26  1  0.500000  0.129707  0.314288  1
  B  B27  1  0.500000  0.870786  0.685449  1
  B  B28  1  0.500000  0.983879  0.213567  1
  B  B29  1  0.500000  0.016420  0.786142  1
  B  B30  1  0.500000  0.483357  0.285994  1
  B  B31  1  0.500000  0.516483  0.713931  1
  B  B32  1  0.500000  0.595175  0.026008  1
  B  B33  1  0.500000  0.404831  0.973906  1
  B  B34  1  0.500000  0.095810  0.474498  1
  B  B35  1  0.500000  0.904775  0.526711  1
