# generated using pymatgen
data_Tb3Yb(W2O7)2
_symmetry_space_group_name_H-M   'P 1'
_cell_length_a   7.34177206
_cell_length_b   7.34177121
_cell_length_c   7.45533647
_cell_angle_alpha   60.51749668
_cell_angle_beta   60.51749869
_cell_angle_gamma   59.99574527
_symmetry_Int_Tables_number   1
_chemical_formula_structural   Tb3Yb(W2O7)2
_chemical_formula_sum   'Tb3 Yb1 W4 O14'
_cell_volume   286.34719436
_cell_formula_units_Z   1
loop_
 _symmetry_equiv_pos_site_id
 _symmetry_equiv_pos_as_xyz
  1  'x, y, z'
loop_
 _atom_site_type_symbol
 _atom_site_label
 _atom_site_symmetry_multiplicity
 _atom_site_fract_x
 _atom_site_fract_y
 _atom_site_fract_z
 _atom_site_occupancy
  Tb  Tb0  1  0.000000  0.500000  0.500000  1
  Tb  Tb1  1  0.500000  0.000000  0.500000  1
  Tb  Tb2  1  0.500000  0.500000  0.500000  1
  Yb  Yb3  1  0.500000  0.500000  0.000000  1
  W  W4  1  0.500000  0.000000  0.000000  1
  W  W5  1  0.000000  0.500000  0.000000  1
  W  W6  1  0.000000  0.000000  0.000000  1
  W  W7  1  0.000000  0.000000  0.500000  1
  O  O8  1  0.373074  0.373074  0.380849  1
  O  O9  1  0.626926  0.626926  0.619151  1
  O  O10  1  0.083678  0.672399  0.660266  1
  O  O11  1  0.337990  0.925058  0.899045  1
  O  O12  1  0.672399  0.083678  0.660266  1
  O  O13  1  0.084119  0.084119  0.659934  1
  O  O14  1  0.662310  0.662310  0.102173  1
  O  O15  1  0.074942  0.662010  0.100955  1
  O  O16  1  0.662010  0.074942  0.100955  1
  O  O17  1  0.337690  0.337690  0.897827  1
  O  O18  1  0.915881  0.915881  0.340066  1
  O  O19  1  0.916322  0.327601  0.339734  1
  O  O20  1  0.925058  0.337990  0.899045  1
  O  O21  1  0.327601  0.916322  0.339734  1
