# generated using pymatgen
data_Sm2Sc3Sn3Hg
_symmetry_space_group_name_H-M   'P 1'
_cell_length_a   7.68915800
_cell_length_b   8.10180400
_cell_length_c   14.90441700
_cell_angle_alpha   90.00000000
_cell_angle_beta   90.00000000
_cell_angle_gamma   90.00000000
_symmetry_Int_Tables_number   1
_chemical_formula_structural   Sm2Sc3Sn3Hg
_chemical_formula_sum   'Sm8 Sc12 Sn12 Hg4'
_cell_volume   928.48632217
_cell_formula_units_Z   4
loop_
 _symmetry_equiv_pos_site_id
 _symmetry_equiv_pos_as_xyz
  1  'x, y, z'
loop_
 _atom_site_type_symbol
 _atom_site_label
 _atom_site_symmetry_multiplicity
 _atom_site_fract_x
 _atom_site_fract_y
 _atom_site_fract_z
 _atom_site_occupancy
  Sm  Sm0  1  0.506687  0.318694  0.908286  1
  Sm  Sm1  1  0.006687  0.181306  0.591714  1
  Sm  Sm2  1  0.493313  0.681306  0.408286  1
  Sm  Sm3  1  0.993313  0.818694  0.091714  1
  Sm  Sm4  1  0.493313  0.681306  0.091714  1
  Sm  Sm5  1  0.993313  0.818694  0.408286  1
  Sm  Sm6  1  0.506687  0.318694  0.591714  1
  Sm  Sm7  1  0.006687  0.181306  0.908286  1
  Sc  Sc8  1  0.341530  0.834525  0.872151  1
  Sc  Sc9  1  0.841530  0.665475  0.627849  1
  Sc  Sc10  1  0.658470  0.165475  0.372151  1
  Sc  Sc11  1  0.158470  0.334525  0.127849  1
  Sc  Sc12  1  0.658470  0.165475  0.127849  1
  Sc  Sc13  1  0.158470  0.334525  0.372151  1
  Sc  Sc14  1  0.341530  0.834525  0.627849  1
  Sc  Sc15  1  0.841530  0.665475  0.872151  1
  Sc  Sc16  1  0.182588  0.500725  0.750000  1
  Sc  Sc17  1  0.682588  0.999275  0.750000  1
  Sc  Sc18  1  0.817412  0.499275  0.250000  1
  Sc  Sc19  1  0.317412  0.000725  0.250000  1
  Sn  Sn20  1  0.318086  0.041698  0.042671  1
  Sn  Sn21  1  0.818086  0.458302  0.457329  1
  Sn  Sn22  1  0.681914  0.958302  0.542671  1
  Sn  Sn23  1  0.181914  0.541698  0.957329  1
  Sn  Sn24  1  0.681914  0.958302  0.957329  1
  Sn  Sn25  1  0.181914  0.541698  0.542671  1
  Sn  Sn26  1  0.318086  0.041698  0.457329  1
  Sn  Sn27  1  0.818086  0.458302  0.042671  1
  Sn  Sn28  1  0.308396  0.137059  0.750000  1
  Sn  Sn29  1  0.808396  0.362941  0.750000  1
  Sn  Sn30  1  0.691604  0.862941  0.250000  1
  Sn  Sn31  1  0.191604  0.637059  0.250000  1
  Hg  Hg32  1  0.538373  0.625087  0.750000  1
  Hg  Hg33  1  0.038373  0.874913  0.750000  1
  Hg  Hg34  1  0.461627  0.374913  0.250000  1
  Hg  Hg35  1  0.961627  0.125087  0.250000  1
