# generated using pymatgen
data_Cs3RbOs2O9
_symmetry_space_group_name_H-M   'P 1'
_cell_length_a   6.67855000
_cell_length_b   6.67854903
_cell_length_c   15.80344900
_cell_angle_alpha   90.00000000
_cell_angle_beta   90.00000000
_cell_angle_gamma   119.99998497
_symmetry_Int_Tables_number   1
_chemical_formula_structural   Cs3RbOs2O9
_chemical_formula_sum   'Cs6 Rb2 Os4 O18'
_cell_volume   610.44547297
_cell_formula_units_Z   2
loop_
 _symmetry_equiv_pos_site_id
 _symmetry_equiv_pos_as_xyz
  1  'x, y, z'
loop_
 _atom_site_type_symbol
 _atom_site_label
 _atom_site_symmetry_multiplicity
 _atom_site_fract_x
 _atom_site_fract_y
 _atom_site_fract_z
 _atom_site_occupancy
  Cs  Cs0  1  0.000000  0.000000  0.250000  1
  Cs  Cs1  1  0.000000  0.000000  0.750000  1
  Cs  Cs2  1  0.333333  0.666667  0.393568  1
  Cs  Cs3  1  0.666667  0.333333  0.606432  1
  Cs  Cs4  1  0.666667  0.333333  0.893568  1
  Cs  Cs5  1  0.333333  0.666667  0.106432  1
  Rb  Rb6  1  0.000000  0.000000  0.500000  1
  Rb  Rb7  1  0.000000  0.000000  0.000000  1
  Os  Os8  1  0.666667  0.333333  0.341961  1
  Os  Os9  1  0.333333  0.666667  0.658039  1
  Os  Os10  1  0.333333  0.666667  0.841961  1
  Os  Os11  1  0.666667  0.333333  0.158039  1
  O  O12  1  0.543729  0.456271  0.250000  1
  O  O13  1  0.543729  0.087457  0.250000  1
  O  O14  1  0.912543  0.456271  0.250000  1
  O  O15  1  0.456271  0.543729  0.750000  1
  O  O16  1  0.456271  0.912543  0.750000  1
  O  O17  1  0.087457  0.543729  0.750000  1
  O  O18  1  0.391703  0.195852  0.397122  1
  O  O19  1  0.804148  0.195852  0.397122  1
  O  O20  1  0.804148  0.608297  0.397122  1
  O  O21  1  0.608297  0.804148  0.602878  1
  O  O22  1  0.195852  0.804148  0.602878  1
  O  O23  1  0.195852  0.391703  0.602878  1
  O  O24  1  0.608297  0.804148  0.897122  1
  O  O25  1  0.195852  0.804148  0.897122  1
  O  O26  1  0.195852  0.391703  0.897122  1
  O  O27  1  0.391703  0.195852  0.102878  1
  O  O28  1  0.804148  0.195852  0.102878  1
  O  O29  1  0.804148  0.608297  0.102878  1
