# generated using pymatgen
data_NbRe(PO4)3
_symmetry_space_group_name_H-M   'P 1'
_cell_length_a   8.73364293
_cell_length_b   8.73254589
_cell_length_c   9.05270904
_cell_angle_alpha   90.12876372
_cell_angle_beta   118.66528169
_cell_angle_gamma   119.99779533
_symmetry_Int_Tables_number   1
_chemical_formula_structural   NbRe(PO4)3
_chemical_formula_sum   'Nb2 Re2 P6 O24'
_cell_volume   497.31791236
_cell_formula_units_Z   2
loop_
 _symmetry_equiv_pos_site_id
 _symmetry_equiv_pos_as_xyz
  1  'x, y, z'
loop_
 _atom_site_type_symbol
 _atom_site_label
 _atom_site_symmetry_multiplicity
 _atom_site_fract_x
 _atom_site_fract_y
 _atom_site_fract_z
 _atom_site_occupancy
  Nb  Nb0  1  0.212256  0.357354  0.568699  1
  Nb  Nb1  1  0.786079  0.141759  0.928261  1
  Re  Re2  1  0.212984  0.858308  0.070631  1
  Re  Re3  1  0.788881  0.642745  0.432623  1
  P  P4  1  0.997186  0.960990  0.247895  1
  P  P5  1  0.286773  0.537045  0.250925  1
  P  P6  1  0.279356  0.751531  0.747236  1
  P  P7  1  0.712680  0.249064  0.252417  1
  P  P8  1  0.721807  0.470823  0.748840  1
  P  P9  1  0.001966  0.030446  0.752133  1
  O  O10  1  0.294543  0.712346  0.223287  1
  O  O11  1  0.862059  0.991141  0.077262  1
  O  O12  1  0.848374  0.853028  0.592857  1
  O  O13  1  0.842753  0.797346  0.276625  1
  O  O14  1  0.145751  0.928477  0.231670  1
  O  O15  1  0.480876  0.549150  0.281315  1
  O  O16  1  0.098590  0.739816  0.579821  1
  O  O17  1  0.906069  0.640545  0.914905  1
  O  O18  1  0.278439  0.776655  0.913418  1
  O  O19  1  0.489451  0.918125  0.777183  1
  O  O20  1  0.734926  0.483798  0.586163  1
  O  O21  1  0.723163  0.428929  0.271695  1
  O  O22  1  0.274872  0.573368  0.718947  1
  O  O23  1  0.269176  0.508040  0.412957  1
  O  O24  1  0.513898  0.081440  0.231436  1
  O  O25  1  0.719369  0.213730  0.087968  1
  O  O26  1  0.086844  0.363643  0.086175  1
  O  O27  1  0.908039  0.271175  0.418362  1
  O  O28  1  0.514349  0.442948  0.709729  1
  O  O29  1  0.863356  0.075222  0.777434  1
  O  O30  1  0.145788  0.198464  0.714710  1
  O  O31  1  0.139019  0.142070  0.406347  1
  O  O32  1  0.149556  0.017215  0.924823  1
  O  O33  1  0.710772  0.293265  0.785252  1
