# generated using pymatgen
data_Sc4FeCo3Os4
_symmetry_space_group_name_H-M   'P 1'
_cell_length_a   5.03754424
_cell_length_b   4.98142050
_cell_length_c   8.40624800
_cell_angle_alpha   90.00000000
_cell_angle_beta   90.00000000
_cell_angle_gamma   120.06548090
_symmetry_Int_Tables_number   1
_chemical_formula_structural   Sc4FeCo3Os4
_chemical_formula_sum   'Sc4 Fe1 Co3 Os4'
_cell_volume   182.56518796
_cell_formula_units_Z   1
loop_
 _symmetry_equiv_pos_site_id
 _symmetry_equiv_pos_as_xyz
  1  'x, y, z'
loop_
 _atom_site_type_symbol
 _atom_site_label
 _atom_site_symmetry_multiplicity
 _atom_site_fract_x
 _atom_site_fract_y
 _atom_site_fract_z
 _atom_site_occupancy
  Sc  Sc0  1  0.328985  0.666046  0.434122  1
  Sc  Sc1  1  0.664784  0.336404  0.564847  1
  Sc  Sc2  1  0.664784  0.336404  0.935153  1
  Sc  Sc3  1  0.328985  0.666046  0.065878  1
  Fe  Fe4  1  0.176422  0.338744  0.750000  1
  Co  Co5  1  0.177942  0.829396  0.750000  1
  Co  Co6  1  0.346700  0.165118  0.250000  1
  Co  Co7  1  0.834258  0.655161  0.250000  1
  Os  Os8  1  0.656160  0.826679  0.750000  1
  Os  Os9  1  0.996251  0.005286  0.000982  1
  Os  Os10  1  0.828476  0.169430  0.250000  1
  Os  Os11  1  0.996251  0.005286  0.499018  1
