# generated using pymatgen
data_Pr4Al18(OsPt)3
_symmetry_space_group_name_H-M   'P 1'
_cell_length_a   7.66997502
_cell_length_b   7.66997630
_cell_length_c   9.69500696
_cell_angle_alpha   89.93121723
_cell_angle_beta   89.93121941
_cell_angle_gamma   119.43119966
_symmetry_Int_Tables_number   1
_chemical_formula_structural   Pr4Al18(OsPt)3
_chemical_formula_sum   'Pr4 Al18 Os3 Pt3'
_cell_volume   496.73673427
_cell_formula_units_Z   1
loop_
 _symmetry_equiv_pos_site_id
 _symmetry_equiv_pos_as_xyz
  1  'x, y, z'
loop_
 _atom_site_type_symbol
 _atom_site_label
 _atom_site_symmetry_multiplicity
 _atom_site_fract_x
 _atom_site_fract_y
 _atom_site_fract_z
 _atom_site_occupancy
  Pr  Pr0  1  0.996866  0.671114  0.750821  1
  Pr  Pr1  1  0.003847  0.328946  0.249265  1
  Pr  Pr2  1  0.671054  0.996153  0.750735  1
  Pr  Pr3  1  0.328886  0.003134  0.249179  1
  Al  Al4  1  0.136037  0.134491  0.750260  1
  Al  Al5  1  0.865509  0.863963  0.249740  1
  Al  Al6  1  0.008498  0.340368  0.573706  1
  Al  Al7  1  0.000555  0.664981  0.426176  1
  Al  Al8  1  0.996760  0.659064  0.071276  1
  Al  Al9  1  0.340936  0.003240  0.928724  1
  Al  Al10  1  0.004317  0.340246  0.928317  1
  Al  Al11  1  0.659754  0.995683  0.071683  1
  Al  Al12  1  0.659632  0.991502  0.426294  1
  Al  Al13  1  0.335019  0.999445  0.573824  1
  Al  Al14  1  0.339217  0.338999  0.044427  1
  Al  Al15  1  0.661001  0.660783  0.955573  1
  Al  Al16  1  0.659569  0.664933  0.548863  1
  Al  Al17  1  0.335067  0.340431  0.451137  1
  Al  Al18  1  0.338733  0.548179  0.750597  1
  Al  Al19  1  0.662538  0.455769  0.245685  1
  Al  Al20  1  0.544231  0.337462  0.754315  1
  Al  Al21  1  0.451821  0.661267  0.249403  1
  Os  Os22  1  0.328434  0.671566  0.500000  1
  Os  Os23  1  0.328891  0.671109  0.000000  1
  Os  Os24  1  0.671654  0.328346  0.000000  1
  Pt  Pt25  1  0.671236  0.328764  0.500000  1
  Pt  Pt26  1  0.999788  0.000212  0.500000  1
  Pt  Pt27  1  0.000148  0.999852  0.000000  1
