# generated using pymatgen
data_TmThInNi2
_symmetry_space_group_name_H-M   'P 1'
_cell_length_a   7.51303018
_cell_length_b   7.51303017
_cell_length_c   3.64019400
_cell_angle_alpha   90.00000000
_cell_angle_beta   90.00000000
_cell_angle_gamma   93.31360315
_symmetry_Int_Tables_number   1
_chemical_formula_structural   TmThInNi2
_chemical_formula_sum   'Tm2 Th2 In2 Ni4'
_cell_volume   205.12948988
_cell_formula_units_Z   2
loop_
 _symmetry_equiv_pos_site_id
 _symmetry_equiv_pos_as_xyz
  1  'x, y, z'
loop_
 _atom_site_type_symbol
 _atom_site_label
 _atom_site_symmetry_multiplicity
 _atom_site_fract_x
 _atom_site_fract_y
 _atom_site_fract_z
 _atom_site_occupancy
  Tm  Tm0  1  0.171952  0.328048  0.500000  1
  Tm  Tm1  1  0.828048  0.671952  0.500000  1
  Th  Th2  1  0.675564  0.175564  0.500000  1
  Th  Th3  1  0.324436  0.824436  0.500000  1
  In  In4  1  0.500000  0.500000  0.000000  1
  In  In5  1  0.000000  0.000000  0.000000  1
  Ni  Ni6  1  0.121497  0.621497  0.000000  1
  Ni  Ni7  1  0.878503  0.378503  0.000000  1
  Ni  Ni8  1  0.621501  0.878499  0.000000  1
  Ni  Ni9  1  0.378499  0.121501  0.000000  1
