# generated using pymatgen
data_LaPr(Be2Ir3)2
_symmetry_space_group_name_H-M   'P 1'
_cell_length_a   6.51625238
_cell_length_b   6.51625202
_cell_length_c   6.51625252
_cell_angle_alpha   130.28037985
_cell_angle_beta   114.82573027
_cell_angle_gamma   86.19343340
_symmetry_Int_Tables_number   1
_chemical_formula_structural   LaPr(Be2Ir3)2
_chemical_formula_sum   'La1 Pr1 Be4 Ir6'
_cell_volume   182.98269552
_cell_formula_units_Z   1
loop_
 _symmetry_equiv_pos_site_id
 _symmetry_equiv_pos_as_xyz
  1  'x, y, z'
loop_
 _atom_site_type_symbol
 _atom_site_label
 _atom_site_symmetry_multiplicity
 _atom_site_fract_x
 _atom_site_fract_y
 _atom_site_fract_z
 _atom_site_occupancy
  La  La0  1  0.250000  0.991847  0.741847  1
  Pr  Pr1  1  0.750000  0.007752  0.257752  1
  Be  Be2  1  0.082475  0.312706  0.230231  1
  Be  Be3  1  0.916920  0.686842  0.769921  1
  Be  Be4  1  0.417525  0.647756  0.230231  1
  Be  Be5  1  0.583080  0.353001  0.769921  1
  Ir  Ir6  1  0.500402  0.500020  0.500422  1
  Ir  Ir7  1  0.999598  0.500020  0.999619  1
  Ir  Ir8  1  0.261083  0.999956  0.261155  1
  Ir  Ir9  1  0.738801  0.999956  0.738873  1
  Ir  Ir10  1  0.238917  0.500072  0.738873  1
  Ir  Ir11  1  0.761199  0.500072  0.261155  1
