# generated using pymatgen
data_Y2Tc5(PRh)7
_symmetry_space_group_name_H-M   'P 1'
_cell_length_a   3.94404901
_cell_length_b   9.46313044
_cell_length_c   9.48754849
_cell_angle_alpha   119.58379748
_cell_angle_beta   90.00073458
_cell_angle_gamma   89.99907806
_symmetry_Int_Tables_number   1
_chemical_formula_structural   Y2Tc5(PRh)7
_chemical_formula_sum   'Y2 Tc5 P7 Rh7'
_cell_volume   307.94129767
_cell_formula_units_Z   1
loop_
 _symmetry_equiv_pos_site_id
 _symmetry_equiv_pos_as_xyz
  1  'x, y, z'
loop_
 _atom_site_type_symbol
 _atom_site_label
 _atom_site_symmetry_multiplicity
 _atom_site_fract_x
 _atom_site_fract_y
 _atom_site_fract_z
 _atom_site_occupancy
  Y  Y0  1  0.262076  0.668781  0.333520  1
  Y  Y1  1  0.762227  0.333517  0.666637  1
  Tc  Tc2  1  0.761846  0.093446  0.870915  1
  Tc  Tc3  1  0.761770  0.127595  0.219211  1
  Tc  Tc4  1  0.761763  0.780114  0.906687  1
  Tc  Tc5  1  0.261799  0.886183  0.160331  1
  Tc  Tc6  1  0.261910  0.840950  0.726347  1
  P  P7  1  0.261229  0.996517  0.997729  1
  P  P8  1  0.761981  0.881432  0.599125  1
  P  P9  1  0.761892  0.402297  0.286853  1
  P  P10  1  0.761777  0.718574  0.120574  1
  P  P11  1  0.262232  0.115767  0.410310  1
  P  P12  1  0.262155  0.588210  0.704375  1
  P  P13  1  0.262069  0.294480  0.881523  1
  Rh  Rh14  1  0.261748  0.272142  0.112287  1
  Rh  Rh15  1  0.762014  0.608481  0.556681  1
  Rh  Rh16  1  0.761773  0.443263  0.055380  1
  Rh  Rh17  1  0.761980  0.947359  0.392097  1
  Rh  Rh18  1  0.261974  0.368588  0.435739  1
  Rh  Rh19  1  0.261778  0.562408  0.931959  1
  Rh  Rh20  1  0.262010  0.069895  0.631723  1
