# generated using pymatgen
data_Nd6Dy4Sn5Sb3
_symmetry_space_group_name_H-M   'P 1'
_cell_length_a   8.25943100
_cell_length_b   8.30125119
_cell_length_c   15.71802021
_cell_angle_alpha   89.80398440
_cell_angle_beta   90.00000000
_cell_angle_gamma   90.00000000
_symmetry_Int_Tables_number   1
_chemical_formula_structural   Nd6Dy4Sn5Sb3
_chemical_formula_sum   'Nd12 Dy8 Sn10 Sb6'
_cell_volume   1077.67792383
_cell_formula_units_Z   2
loop_
 _symmetry_equiv_pos_site_id
 _symmetry_equiv_pos_as_xyz
  1  'x, y, z'
loop_
 _atom_site_type_symbol
 _atom_site_label
 _atom_site_symmetry_multiplicity
 _atom_site_fract_x
 _atom_site_fract_y
 _atom_site_fract_z
 _atom_site_occupancy
  Nd  Nd0  1  0.463961  0.820723  0.896796  1
  Nd  Nd1  1  0.963961  0.679277  0.603204  1
  Nd  Nd2  1  0.536274  0.174236  0.395902  1
  Nd  Nd3  1  0.036274  0.325764  0.104098  1
  Nd  Nd4  1  0.541935  0.174722  0.104345  1
  Nd  Nd5  1  0.041935  0.325278  0.395655  1
  Nd  Nd6  1  0.456374  0.828693  0.604520  1
  Nd  Nd7  1  0.956374  0.671307  0.895480  1
  Nd  Nd8  1  0.617017  0.337191  0.880583  1
  Nd  Nd9  1  0.117017  0.162809  0.619417  1
  Nd  Nd10  1  0.383120  0.663763  0.381450  1
  Nd  Nd11  1  0.883120  0.836237  0.118550  1
  Dy  Dy12  1  0.380445  0.658902  0.120736  1
  Dy  Dy13  1  0.880445  0.841098  0.379264  1
  Dy  Dy14  1  0.620175  0.340380  0.620306  1
  Dy  Dy15  1  0.120175  0.159620  0.879694  1
  Dy  Dy16  1  0.287262  0.501269  0.751266  1
  Dy  Dy17  1  0.787262  0.998731  0.748734  1
  Dy  Dy18  1  0.712272  0.499452  0.249844  1
  Dy  Dy19  1  0.212272  0.000548  0.250156  1
  Sn  Sn20  1  0.216510  0.972928  0.452559  1
  Sn  Sn21  1  0.716510  0.527072  0.047441  1
  Sn  Sn22  1  0.654219  0.641407  0.748221  1
  Sn  Sn23  1  0.154219  0.858593  0.751779  1
  Sn  Sn24  1  0.345228  0.358603  0.249037  1
  Sn  Sn25  1  0.845228  0.141397  0.250963  1
  Sn  Sn26  1  0.421468  0.125802  0.749534  1
  Sn  Sn27  1  0.921468  0.374198  0.750466  1
  Sn  Sn28  1  0.579046  0.873531  0.248545  1
  Sn  Sn29  1  0.079046  0.626469  0.251455  1
  Sb  Sb30  1  0.228124  0.971988  0.045317  1
  Sb  Sb31  1  0.728124  0.528012  0.454683  1
  Sb  Sb32  1  0.773605  0.029248  0.545313  1
  Sb  Sb33  1  0.273605  0.470752  0.954687  1
  Sb  Sb34  1  0.782968  0.024817  0.950056  1
  Sb  Sb35  1  0.282968  0.475183  0.549944  1
