# generated using pymatgen
data_Ac3La(GaPd2)4
_symmetry_space_group_name_H-M   'P 1'
_cell_length_a   6.09693020
_cell_length_b   7.11003100
_cell_length_c   7.83299529
_cell_angle_alpha   90.00000000
_cell_angle_beta   89.96944738
_cell_angle_gamma   90.00000000
_symmetry_Int_Tables_number   1
_chemical_formula_structural   Ac3La(GaPd2)4
_chemical_formula_sum   'Ac3 La1 Ga4 Pd8'
_cell_volume   339.55530623
_cell_formula_units_Z   1
loop_
 _symmetry_equiv_pos_site_id
 _symmetry_equiv_pos_as_xyz
  1  'x, y, z'
loop_
 _atom_site_type_symbol
 _atom_site_label
 _atom_site_symmetry_multiplicity
 _atom_site_fract_x
 _atom_site_fract_y
 _atom_site_fract_z
 _atom_site_occupancy
  Ac  Ac0  1  0.343397  0.750000  0.034112  1
  Ac  Ac1  1  0.154292  0.750000  0.533590  1
  Ac  Ac2  1  0.653663  0.250000  0.966038  1
  La  La3  1  0.839970  0.250000  0.465911  1
  Ga  Ga4  1  0.657614  0.750000  0.378089  1
  Ga  Ga5  1  0.842460  0.750000  0.880035  1
  Ga  Ga6  1  0.341354  0.250000  0.618179  1
  Ga  Ga7  1  0.152487  0.250000  0.128828  1
  Pd  Pd8  1  0.909840  0.552477  0.175945  1
  Pd  Pd9  1  0.593688  0.947547  0.670555  1
  Pd  Pd10  1  0.085495  0.054637  0.824520  1
  Pd  Pd11  1  0.418359  0.445425  0.326589  1
  Pd  Pd12  1  0.085495  0.445363  0.824520  1
  Pd  Pd13  1  0.418359  0.054575  0.326589  1
  Pd  Pd14  1  0.909840  0.947523  0.175945  1
  Pd  Pd15  1  0.593688  0.552453  0.670555  1
