# generated using pymatgen
data_Dy16Cd4CoNi2Os
_symmetry_space_group_name_H-M   'P 1'
_cell_length_a   9.53094836
_cell_length_b   9.53022564
_cell_length_c   9.58555155
_cell_angle_alpha   60.05915804
_cell_angle_beta   60.06470497
_cell_angle_gamma   59.85699957
_symmetry_Int_Tables_number   1
_chemical_formula_structural   Dy16Cd4CoNi2Os
_chemical_formula_sum   'Dy16 Cd4 Co1 Ni2 Os1'
_cell_volume   615.56637359
_cell_formula_units_Z   1
loop_
 _symmetry_equiv_pos_site_id
 _symmetry_equiv_pos_as_xyz
  1  'x, y, z'
loop_
 _atom_site_type_symbol
 _atom_site_label
 _atom_site_symmetry_multiplicity
 _atom_site_fract_x
 _atom_site_fract_y
 _atom_site_fract_z
 _atom_site_occupancy
  Dy  Dy0  1  0.151626  0.543007  0.155793  1
  Dy  Dy1  1  0.689024  0.313734  0.688179  1
  Dy  Dy2  1  0.686675  0.311889  0.309560  1
  Dy  Dy3  1  0.939391  0.562944  0.563000  1
  Dy  Dy4  1  0.542973  0.151556  0.155830  1
  Dy  Dy5  1  0.152105  0.151992  0.543570  1
  Dy  Dy6  1  0.935794  0.935839  0.563134  1
  Dy  Dy7  1  0.311890  0.686724  0.309566  1
  Dy  Dy8  1  0.560142  0.944789  0.933506  1
  Dy  Dy9  1  0.562960  0.939396  0.563025  1
  Dy  Dy10  1  0.689605  0.689704  0.310709  1
  Dy  Dy11  1  0.560622  0.560623  0.936613  1
  Dy  Dy12  1  0.944781  0.560138  0.933526  1
  Dy  Dy13  1  0.313722  0.689063  0.688130  1
  Dy  Dy14  1  0.150434  0.150299  0.155961  1
  Dy  Dy15  1  0.311195  0.311215  0.685303  1
  Cd  Cd16  1  0.918804  0.244112  0.918184  1
  Cd  Cd17  1  0.920941  0.920953  0.918410  1
  Cd  Cd18  1  0.919655  0.919670  0.242874  1
  Cd  Cd19  1  0.244117  0.918813  0.918182  1
  Co  Co20  1  0.356320  0.356291  0.362137  1
  Ni  Ni21  1  0.357124  0.924335  0.359276  1
  Ni  Ni22  1  0.924270  0.357088  0.359376  1
  Os  Os23  1  0.355833  0.355826  0.926161  1
