# generated using pymatgen
data_Y4Ga18Ir3PdRh2
_symmetry_space_group_name_H-M   'P 1'
_cell_length_a   7.60977659
_cell_length_b   7.60977538
_cell_length_c   9.51585477
_cell_angle_alpha   90.02353253
_cell_angle_beta   90.02353071
_cell_angle_gamma   119.84546202
_symmetry_Int_Tables_number   1
_chemical_formula_structural   Y4Ga18Ir3PdRh2
_chemical_formula_sum   'Y4 Ga18 Ir3 Pd1 Rh2'
_cell_volume   477.96514438
_cell_formula_units_Z   1
loop_
 _symmetry_equiv_pos_site_id
 _symmetry_equiv_pos_as_xyz
  1  'x, y, z'
loop_
 _atom_site_type_symbol
 _atom_site_label
 _atom_site_symmetry_multiplicity
 _atom_site_fract_x
 _atom_site_fract_y
 _atom_site_fract_z
 _atom_site_occupancy
  Y  Y0  1  0.996654  0.668571  0.250969  1
  Y  Y1  1  0.003106  0.331403  0.748968  1
  Y  Y2  1  0.668597  0.996894  0.251032  1
  Y  Y3  1  0.331429  0.003346  0.749031  1
  Ga  Ga4  1  0.127096  0.127037  0.252010  1
  Ga  Ga5  1  0.872963  0.872904  0.747990  1
  Ga  Ga6  1  0.998732  0.336548  0.081784  1
  Ga  Ga7  1  0.999708  0.662755  0.918197  1
  Ga  Ga8  1  0.000853  0.666575  0.579558  1
  Ga  Ga9  1  0.333425  0.999147  0.420442  1
  Ga  Ga10  1  0.998995  0.333394  0.420451  1
  Ga  Ga11  1  0.666606  0.001005  0.579549  1
  Ga  Ga12  1  0.663452  0.001268  0.918216  1
  Ga  Ga13  1  0.337245  0.000292  0.081803  1
  Ga  Ga14  1  0.331741  0.331696  0.563703  1
  Ga  Ga15  1  0.668304  0.668259  0.436297  1
  Ga  Ga16  1  0.664614  0.663832  0.066168  1
  Ga  Ga17  1  0.336168  0.335386  0.933832  1
  Ga  Ga18  1  0.338592  0.546402  0.250335  1
  Ga  Ga19  1  0.661471  0.453071  0.750411  1
  Ga  Ga20  1  0.546929  0.338529  0.249589  1
  Ga  Ga21  1  0.453598  0.661408  0.749665  1
  Ir  Ir22  1  0.328344  0.671656  0.000000  1
  Ir  Ir23  1  0.328258  0.671742  0.500000  1
  Ir  Ir24  1  0.671602  0.328398  0.500000  1
  Pd  Pd25  1  0.000124  0.999876  0.000000  1
  Rh  Rh26  1  0.671428  0.328572  0.000000  1
  Rh  Rh27  1  0.999966  0.000034  0.500000  1
