# generated using pymatgen
data_YErFeB6
_symmetry_space_group_name_H-M   'P 1'
_cell_length_a   3.52601300
_cell_length_b   9.04448800
_cell_length_c   11.40396000
_cell_angle_alpha   90.00000000
_cell_angle_beta   90.00000000
_cell_angle_gamma   90.00000000
_symmetry_Int_Tables_number   1
_chemical_formula_structural   YErFeB6
_chemical_formula_sum   'Y4 Er4 Fe4 B24'
_cell_volume   363.68348613
_cell_formula_units_Z   4
loop_
 _symmetry_equiv_pos_site_id
 _symmetry_equiv_pos_as_xyz
  1  'x, y, z'
loop_
 _atom_site_type_symbol
 _atom_site_label
 _atom_site_symmetry_multiplicity
 _atom_site_fract_x
 _atom_site_fract_y
 _atom_site_fract_z
 _atom_site_occupancy
  Y  Y0  1  0.000000  0.824078  0.085660  1
  Y  Y1  1  0.000000  0.175922  0.914340  1
  Y  Y2  1  0.000000  0.324078  0.414340  1
  Y  Y3  1  0.000000  0.675922  0.585660  1
  Er  Er4  1  0.000000  0.443183  0.129395  1
  Er  Er5  1  0.000000  0.556817  0.870605  1
  Er  Er6  1  0.000000  0.943183  0.370605  1
  Er  Er7  1  0.000000  0.056817  0.629395  1
  Fe  Fe8  1  0.000000  0.138928  0.179874  1
  Fe  Fe9  1  0.000000  0.861072  0.820126  1
  Fe  Fe10  1  0.000000  0.638928  0.320126  1
  Fe  Fe11  1  0.000000  0.361072  0.679874  1
  B  B12  1  0.500000  0.054549  0.068419  1
  B  B13  1  0.500000  0.945451  0.931581  1
  B  B14  1  0.500000  0.554549  0.431581  1
  B  B15  1  0.500000  0.445451  0.568419  1
  B  B16  1  0.500000  0.246815  0.081916  1
  B  B17  1  0.500000  0.753185  0.918084  1
  B  B18  1  0.500000  0.746815  0.418084  1
  B  B19  1  0.500000  0.253185  0.581916  1
  B  B20  1  0.500000  0.289600  0.233382  1
  B  B21  1  0.500000  0.710400  0.766618  1
  B  B22  1  0.500000  0.789600  0.266618  1
  B  B23  1  0.500000  0.210400  0.733382  1
  B  B24  1  0.500000  0.131922  0.314191  1
  B  B25  1  0.500000  0.868078  0.685809  1
  B  B26  1  0.500000  0.631922  0.185809  1
  B  B27  1  0.500000  0.368078  0.814191  1
  B  B28  1  0.500000  0.486216  0.287857  1
  B  B29  1  0.500000  0.513784  0.712143  1
  B  B30  1  0.500000  0.986216  0.212143  1
  B  B31  1  0.500000  0.013784  0.787857  1
  B  B32  1  0.500000  0.108586  0.470345  1
  B  B33  1  0.500000  0.891414  0.529655  1
  B  B34  1  0.500000  0.608586  0.029655  1
  B  B35  1  0.500000  0.391414  0.970345  1
