# generated using pymatgen
data_SrSb4PbF24
_symmetry_space_group_name_H-M   'P 1'
_cell_length_a   10.38139032
_cell_length_b   10.38139042
_cell_length_c   10.38139000
_cell_angle_alpha   131.67727366
_cell_angle_beta   131.67727413
_cell_angle_gamma   70.73921965
_symmetry_Int_Tables_number   1
_chemical_formula_structural   SrSb4PbF24
_chemical_formula_sum   'Sr1 Sb4 Pb1 F24'
_cell_volume   611.38675408
_cell_formula_units_Z   1
loop_
 _symmetry_equiv_pos_site_id
 _symmetry_equiv_pos_as_xyz
  1  'x, y, z'
loop_
 _atom_site_type_symbol
 _atom_site_label
 _atom_site_symmetry_multiplicity
 _atom_site_fract_x
 _atom_site_fract_y
 _atom_site_fract_z
 _atom_site_occupancy
  Sr  Sr0  1  0.749932  0.250118  0.500056  1
  Sb  Sb1  1  0.775718  0.775854  0.000111  1
  Sb  Sb2  1  0.224167  0.224209  0.999831  1
  Sb  Sb3  1  0.970975  0.470963  0.499881  1
  Sb  Sb4  1  0.529092  0.029005  0.500162  1
  Pb  Pb5  1  0.000185  0.999969  0.000164  1
  F  F6  1  0.859872  0.742002  0.200147  1
  F  F7  1  0.541755  0.660074  0.800009  1
  F  F8  1  0.404542  0.797551  0.293313  1
  F  F9  1  0.339944  0.139979  0.881670  1
  F  F10  1  0.257952  0.458134  0.117848  1
  F  F11  1  0.202361  0.495387  0.606548  1
  F  F12  1  0.658178  0.259424  0.686240  1
  F  F13  1  0.740538  0.426674  0.398568  1
  F  F14  1  0.027915  0.341918  0.601242  1
  F  F15  1  0.101387  0.283558  0.109527  1
  F  F16  1  0.174012  0.991769  0.890326  1
  F  F17  1  0.573441  0.972044  0.314113  1
  F  F18  1  0.716468  0.826082  0.817917  1
  F  F19  1  0.008218  0.898639  0.182332  1
  F  F20  1  0.313588  0.098878  0.346538  1
  F  F21  1  0.900996  0.247309  0.214412  1
  F  F22  1  0.032869  0.686492  0.785280  1
  F  F23  1  0.442076  0.274664  0.276365  1
  F  F24  1  0.997996  0.165488  0.723305  1
  F  F25  1  0.752746  0.967138  0.653809  1
  F  F26  1  0.725332  0.002002  0.167530  1
  F  F27  1  0.834336  0.557954  0.832617  1
  F  F28  1  0.504678  0.111184  0.707122  1
  F  F29  1  0.888735  0.595536  0.393016  1
