# generated using pymatgen
data_Dy2Ho4Bi2Mo
_symmetry_space_group_name_H-M   'P 1'
_cell_length_a   8.28684400
_cell_length_b   8.28774518
_cell_length_c   4.35892000
_cell_angle_alpha   90.00000000
_cell_angle_beta   90.00000000
_cell_angle_gamma   119.99640308
_symmetry_Int_Tables_number   1
_chemical_formula_structural   Dy2Ho4Bi2Mo
_chemical_formula_sum   'Dy2 Ho4 Bi2 Mo1'
_cell_volume   259.26913755
_cell_formula_units_Z   1
loop_
 _symmetry_equiv_pos_site_id
 _symmetry_equiv_pos_as_xyz
  1  'x, y, z'
loop_
 _atom_site_type_symbol
 _atom_site_label
 _atom_site_symmetry_multiplicity
 _atom_site_fract_x
 _atom_site_fract_y
 _atom_site_fract_z
 _atom_site_occupancy
  Dy  Dy0  1  0.000025  0.608642  0.500000  1
  Dy  Dy1  1  0.391383  0.391358  0.500000  1
  Ho  Ho2  1  0.235229  0.000000  0.000000  1
  Ho  Ho3  1  0.764762  0.764845  0.000000  1
  Ho  Ho4  1  0.999917  0.235155  0.000000  1
  Ho  Ho5  1  0.608760  0.000000  0.500000  1
  Bi  Bi6  1  0.333409  0.666763  0.000000  1
  Bi  Bi7  1  0.666647  0.333237  0.000000  1
  Mo  Mo8  1  0.999868  0.000000  0.500000  1
