# generated using pymatgen
data_Ho2Er4CoP12Ir17
_symmetry_space_group_name_H-M   'P 1'
_cell_length_a   3.94705400
_cell_length_b   11.13228700
_cell_length_c   12.77272600
_cell_angle_alpha   90.00000000
_cell_angle_beta   90.00000000
_cell_angle_gamma   90.00000000
_symmetry_Int_Tables_number   1
_chemical_formula_structural   Ho2Er4CoP12Ir17
_chemical_formula_sum   'Ho2 Er4 Co1 P12 Ir17'
_cell_volume   561.23023312
_cell_formula_units_Z   1
loop_
 _symmetry_equiv_pos_site_id
 _symmetry_equiv_pos_as_xyz
  1  'x, y, z'
loop_
 _atom_site_type_symbol
 _atom_site_label
 _atom_site_symmetry_multiplicity
 _atom_site_fract_x
 _atom_site_fract_y
 _atom_site_fract_z
 _atom_site_occupancy
  Ho  Ho0  1  0.000000  0.500000  0.522424  1
  Ho  Ho1  1  0.500000  0.000000  0.477114  1
  Er  Er2  1  0.500000  0.819110  0.202316  1
  Er  Er3  1  0.500000  0.180890  0.202316  1
  Er  Er4  1  0.000000  0.688514  0.798055  1
  Er  Er5  1  0.000000  0.311486  0.798055  1
  Co  Co6  1  0.500000  0.000000  0.025367  1
  P  P7  1  0.500000  0.315275  0.618459  1
  P  P8  1  0.500000  0.684725  0.618459  1
  P  P9  1  0.000000  0.184437  0.381160  1
  P  P10  1  0.000000  0.815563  0.381160  1
  P  P11  1  0.500000  0.500000  0.876195  1
  P  P12  1  0.000000  0.000000  0.122136  1
  P  P13  1  0.500000  0.854416  0.896508  1
  P  P14  1  0.500000  0.145584  0.896508  1
  P  P15  1  0.000000  0.657671  0.106038  1
  P  P16  1  0.000000  0.342329  0.106038  1
  P  P17  1  0.500000  0.500000  0.358369  1
  P  P18  1  0.000000  0.000000  0.639719  1
  Ir  Ir19  1  0.000000  0.500000  0.971715  1
  Ir  Ir20  1  0.500000  0.294596  0.429704  1
  Ir  Ir21  1  0.500000  0.705404  0.429704  1
  Ir  Ir22  1  0.000000  0.207059  0.569904  1
  Ir  Ir23  1  0.000000  0.792941  0.569904  1
  Ir  Ir24  1  0.500000  0.869602  0.714177  1
  Ir  Ir25  1  0.500000  0.130398  0.714177  1
  Ir  Ir26  1  0.000000  0.631381  0.284836  1
  Ir  Ir27  1  0.000000  0.368619  0.284836  1
  Ir  Ir28  1  0.500000  0.333278  0.000889  1
  Ir  Ir29  1  0.500000  0.666722  0.000889  1
  Ir  Ir30  1  0.000000  0.157306  0.002014  1
  Ir  Ir31  1  0.000000  0.842694  0.002014  1
  Ir  Ir32  1  0.500000  0.500000  0.179241  1
  Ir  Ir33  1  0.000000  0.000000  0.819737  1
  Ir  Ir34  1  0.500000  0.500000  0.700255  1
  Ir  Ir35  1  0.000000  0.000000  0.299601  1
