# generated using pymatgen
data_Er2Tm2Ni13C4
_symmetry_space_group_name_H-M   'P 1'
_cell_length_a   3.84434900
_cell_length_b   8.37433519
_cell_length_c   8.37433469
_cell_angle_alpha   88.66696166
_cell_angle_beta   90.00000000
_cell_angle_gamma   90.00000000
_symmetry_Int_Tables_number   1
_chemical_formula_structural   Er2Tm2Ni13C4
_chemical_formula_sum   'Er2 Tm2 Ni13 C4'
_cell_volume   269.52925313
_cell_formula_units_Z   1
loop_
 _symmetry_equiv_pos_site_id
 _symmetry_equiv_pos_as_xyz
  1  'x, y, z'
loop_
 _atom_site_type_symbol
 _atom_site_label
 _atom_site_symmetry_multiplicity
 _atom_site_fract_x
 _atom_site_fract_y
 _atom_site_fract_z
 _atom_site_occupancy
  Er  Er0  1  0.500000  0.651811  0.348189  1
  Er  Er1  1  0.500000  0.348189  0.651811  1
  Tm  Tm2  1  0.500000  0.186664  0.186664  1
  Tm  Tm3  1  0.500000  0.813336  0.813336  1
  Ni  Ni4  1  0.000000  0.000000  0.000000  1
  Ni  Ni5  1  0.500000  0.499999  0.000000  1
  Ni  Ni6  1  0.000000  0.708433  0.074597  1
  Ni  Ni7  1  0.500000  0.876737  0.123263  1
  Ni  Ni8  1  0.000000  0.429798  0.216037  1
  Ni  Ni9  1  0.000000  0.925403  0.291566  1
  Ni  Ni10  1  0.000000  0.216037  0.429798  1
  Ni  Ni11  1  0.500000  0.000000  0.499999  1
  Ni  Ni12  1  0.000000  0.783964  0.570203  1
  Ni  Ni13  1  0.000000  0.074597  0.708433  1
  Ni  Ni14  1  0.000000  0.570203  0.783964  1
  Ni  Ni15  1  0.500000  0.123263  0.876737  1
  Ni  Ni16  1  0.000000  0.291566  0.925403  1
  C  C17  1  0.000000  0.499999  0.000000  1
  C  C18  1  0.000000  0.443216  0.443216  1
  C  C19  1  0.000000  0.000000  0.499999  1
  C  C20  1  0.000000  0.556784  0.556784  1
