# generated using pymatgen
data_HoEr11InCo4Ru
_symmetry_space_group_name_H-M   'P 1'
_cell_length_a   8.20980368
_cell_length_b   8.20980339
_cell_length_c   8.20947712
_cell_angle_alpha   111.26639161
_cell_angle_beta   110.84437460
_cell_angle_gamma   106.34932986
_symmetry_Int_Tables_number   1
_chemical_formula_structural   HoEr11InCo4Ru
_chemical_formula_sum   'Ho1 Er11 In1 Co4 Ru1'
_cell_volume   424.99308439
_cell_formula_units_Z   1
loop_
 _symmetry_equiv_pos_site_id
 _symmetry_equiv_pos_as_xyz
  1  'x, y, z'
loop_
 _atom_site_type_symbol
 _atom_site_label
 _atom_site_symmetry_multiplicity
 _atom_site_fract_x
 _atom_site_fract_y
 _atom_site_fract_z
 _atom_site_occupancy
  Ho  Ho0  1  0.183947  0.283550  0.467497  1
  Er  Er1  1  0.816199  0.716515  0.532714  1
  Er  Er2  1  0.183822  0.716572  0.900394  1
  Er  Er3  1  0.816039  0.283469  0.099507  1
  Er  Er4  1  0.314084  0.619553  0.305325  1
  Er  Er5  1  0.686031  0.380529  0.694636  1
  Er  Er6  1  0.314107  0.008605  0.694636  1
  Er  Er7  1  0.685772  0.991241  0.305325  1
  Er  Er8  1  0.413413  0.219413  0.193801  1
  Er  Er9  1  0.586759  0.780674  0.806222  1
  Er  Er10  1  0.025548  0.219463  0.806222  1
  Er  Er11  1  0.974388  0.780387  0.193801  1
  In  In12  1  0.500041  0.500046  0.000087  1
  Co  Co13  1  0.111982  0.612144  0.500031  1
  Co  Co14  1  0.887887  0.388050  0.500031  1
  Co  Co15  1  0.375841  0.999921  0.375762  1
  Co  Co16  1  0.624216  0.000011  0.624227  1
  Ru  Ru17  1  0.999924  0.999859  0.999783  1
