# generated using pymatgen
data_Ho8TmTh3Co4
_symmetry_space_group_name_H-M   'P 1'
_cell_length_a   6.25525320
_cell_length_b   6.85220493
_cell_length_c   9.47475523
_cell_angle_alpha   90.00130463
_cell_angle_beta   90.02502073
_cell_angle_gamma   88.95670947
_symmetry_Int_Tables_number   1
_chemical_formula_structural   Ho8TmTh3Co4
_chemical_formula_sum   'Ho8 Tm1 Th3 Co4'
_cell_volume   406.04221891
_cell_formula_units_Z   1
loop_
 _symmetry_equiv_pos_site_id
 _symmetry_equiv_pos_as_xyz
  1  'x, y, z'
loop_
 _atom_site_type_symbol
 _atom_site_label
 _atom_site_symmetry_multiplicity
 _atom_site_fract_x
 _atom_site_fract_y
 _atom_site_fract_z
 _atom_site_occupancy
  Ho  Ho0  1  0.829772  0.671610  0.431746  1
  Ho  Ho1  1  0.325247  0.828096  0.931119  1
  Ho  Ho2  1  0.175403  0.327676  0.571150  1
  Ho  Ho3  1  0.671567  0.173318  0.431679  1
  Ho  Ho4  1  0.175541  0.327470  0.929038  1
  Ho  Ho5  1  0.325113  0.827978  0.569005  1
  Ho  Ho6  1  0.643536  0.456744  0.750277  1
  Ho  Ho7  1  0.829626  0.671606  0.068320  1
  Tm  Tm8  1  0.671366  0.173318  0.068272  1
  Th  Th9  1  0.348426  0.552621  0.249812  1
  Th  Th10  1  0.154125  0.051474  0.249650  1
  Th  Th11  1  0.844148  0.950034  0.750212  1
  Co  Co12  1  0.964498  0.371847  0.249676  1
  Co  Co13  1  0.465988  0.111475  0.750300  1
  Co  Co14  1  0.536239  0.872613  0.249768  1
  Co  Co15  1  0.039404  0.632120  0.749976  1
