# generated using pymatgen
data_Ba4GaAu17
_symmetry_space_group_name_H-M   'P 1'
_cell_length_a   9.28730071
_cell_length_b   9.02790930
_cell_length_c   9.02791101
_cell_angle_alpha   58.85885635
_cell_angle_beta   59.26029148
_cell_angle_gamma   59.26029490
_symmetry_Int_Tables_number   1
_chemical_formula_structural   Ba4GaAu17
_chemical_formula_sum   'Ba4 Ga1 Au17'
_cell_volume   524.56595610
_cell_formula_units_Z   1
loop_
 _symmetry_equiv_pos_site_id
 _symmetry_equiv_pos_as_xyz
  1  'x, y, z'
loop_
 _atom_site_type_symbol
 _atom_site_label
 _atom_site_symmetry_multiplicity
 _atom_site_fract_x
 _atom_site_fract_y
 _atom_site_fract_z
 _atom_site_occupancy
  Ba  Ba0  1  0.373682  0.391995  0.423948  1
  Ba  Ba1  1  0.880762  0.923177  0.893215  1
  Ba  Ba2  1  0.619238  0.606785  0.576823  1
  Ba  Ba3  1  0.126318  0.076052  0.108005  1
  Ga  Ga4  1  0.750000  0.569857  0.930143  1
  Au  Au5  1  0.055099  0.245710  0.447071  1
  Au  Au6  1  0.444901  0.052929  0.254290  1
  Au  Au7  1  0.250000  0.431332  0.068668  1
  Au  Au8  1  0.932507  0.753024  0.563780  1
  Au  Au9  1  0.567493  0.936220  0.746976  1
  Au  Au10  1  0.970666  0.333989  0.749097  1
  Au  Au11  1  0.737803  0.997063  0.322309  1
  Au  Au12  1  0.368455  0.704196  0.978074  1
  Au  Au13  1  0.235543  0.825964  0.493145  1
  Au  Au14  1  0.478279  0.239169  0.830891  1
  Au  Au15  1  0.870855  0.476096  0.190040  1
  Au  Au16  1  0.021721  0.669109  0.260831  1
  Au  Au17  1  0.264457  0.006855  0.674036  1
  Au  Au18  1  0.629145  0.309960  0.023904  1
  Au  Au19  1  0.762197  0.177691  0.502937  1
  Au  Au20  1  0.529334  0.750903  0.166011  1
  Au  Au21  1  0.131545  0.521926  0.795804  1
