# generated using pymatgen
data_Ta(NbCo)6
_symmetry_space_group_name_H-M   'P 1'
_cell_length_a   4.98784090
_cell_length_b   4.98784085
_cell_length_c   9.19894647
_cell_angle_alpha   74.26970231
_cell_angle_beta   74.26970415
_cell_angle_gamma   59.99999021
_symmetry_Int_Tables_number   1
_chemical_formula_structural   Ta(NbCo)6
_chemical_formula_sum   'Ta1 Nb6 Co6'
_cell_volume   188.23354565
_cell_formula_units_Z   1
loop_
 _symmetry_equiv_pos_site_id
 _symmetry_equiv_pos_as_xyz
  1  'x, y, z'
loop_
 _atom_site_type_symbol
 _atom_site_label
 _atom_site_symmetry_multiplicity
 _atom_site_fract_x
 _atom_site_fract_y
 _atom_site_fract_z
 _atom_site_occupancy
  Ta  Ta0  1  0.000000  0.000000  0.000000  1
  Nb  Nb1  1  0.166508  0.166508  0.500474  1
  Nb  Nb2  1  0.833492  0.833492  0.499526  1
  Nb  Nb3  1  0.346412  0.346412  0.960764  1
  Nb  Nb4  1  0.653588  0.653588  0.039236  1
  Nb  Nb5  1  0.449936  0.449936  0.650192  1
  Nb  Nb6  1  0.550064  0.550064  0.349808  1
  Co  Co7  1  0.580435  0.092177  0.235211  1
  Co  Co8  1  0.092177  0.092177  0.235211  1
  Co  Co9  1  0.092177  0.580435  0.235211  1
  Co  Co10  1  0.419565  0.907823  0.764789  1
  Co  Co11  1  0.907823  0.907823  0.764789  1
  Co  Co12  1  0.907823  0.419565  0.764789  1
