# generated using pymatgen
data_Ti(NbCo)6
_symmetry_space_group_name_H-M   'P 1'
_cell_length_a   9.10446733
_cell_length_b   9.10446741
_cell_length_c   9.10446739
_cell_angle_alpha   31.69120600
_cell_angle_beta   31.69120550
_cell_angle_gamma   31.69120854
_symmetry_Int_Tables_number   1
_chemical_formula_structural   Ti(NbCo)6
_chemical_formula_sum   'Ti1 Nb6 Co6'
_cell_volume   184.96544080
_cell_formula_units_Z   1
loop_
 _symmetry_equiv_pos_site_id
 _symmetry_equiv_pos_as_xyz
  1  'x, y, z'
loop_
 _atom_site_type_symbol
 _atom_site_label
 _atom_site_symmetry_multiplicity
 _atom_site_fract_x
 _atom_site_fract_y
 _atom_site_fract_z
 _atom_site_occupancy
  Ti  Ti0  1  0.000000  0.000000  0.000000  1
  Nb  Nb1  1  0.832847  0.832847  0.832847  1
  Nb  Nb2  1  0.167153  0.167153  0.167153  1
  Nb  Nb3  1  0.654905  0.654905  0.654905  1
  Nb  Nb4  1  0.345095  0.345095  0.345095  1
  Nb  Nb5  1  0.550528  0.550528  0.550528  1
  Nb  Nb6  1  0.449472  0.449472  0.449472  1
  Co  Co7  1  0.908374  0.415584  0.908374  1
  Co  Co8  1  0.908374  0.908374  0.415584  1
  Co  Co9  1  0.415584  0.908374  0.908374  1
  Co  Co10  1  0.091626  0.584416  0.091626  1
  Co  Co11  1  0.091626  0.091626  0.584416  1
  Co  Co12  1  0.584416  0.091626  0.091626  1
