# generated using pymatgen
data_Tb2Pr8(IrRh)3
_symmetry_space_group_name_H-M   'P 1'
_cell_length_a   11.25313923
_cell_length_b   11.25154800
_cell_length_c   6.61464672
_cell_angle_alpha   90.00000000
_cell_angle_beta   90.05359633
_cell_angle_gamma   90.00000000
_symmetry_Int_Tables_number   1
_chemical_formula_structural   Tb2Pr8(IrRh)3
_chemical_formula_sum   'Tb4 Pr16 Ir6 Rh6'
_cell_volume   837.51469089
_cell_formula_units_Z   2
loop_
 _symmetry_equiv_pos_site_id
 _symmetry_equiv_pos_as_xyz
  1  'x, y, z'
loop_
 _atom_site_type_symbol
 _atom_site_label
 _atom_site_symmetry_multiplicity
 _atom_site_fract_x
 _atom_site_fract_y
 _atom_site_fract_z
 _atom_site_occupancy
  Tb  Tb0  1  0.000326  0.999779  0.500036  1
  Tb  Tb1  1  0.000326  0.000221  0.000036  1
  Tb  Tb2  1  0.499970  0.499761  0.000031  1
  Tb  Tb3  1  0.499970  0.500239  0.500031  1
  Pr  Pr4  1  0.289148  0.088588  0.383955  1
  Pr  Pr5  1  0.289148  0.911412  0.883955  1
  Pr  Pr6  1  0.709977  0.089674  0.883554  1
  Pr  Pr7  1  0.709977  0.910326  0.383554  1
  Pr  Pr8  1  0.587088  0.788226  0.884379  1
  Pr  Pr9  1  0.587088  0.211774  0.384379  1
  Pr  Pr10  1  0.410874  0.788791  0.384308  1
  Pr  Pr11  1  0.410874  0.211209  0.884308  1
  Pr  Pr12  1  0.211422  0.411123  0.615350  1
  Pr  Pr13  1  0.211422  0.588877  0.115350  1
  Pr  Pr14  1  0.788384  0.412720  0.115946  1
  Pr  Pr15  1  0.788384  0.587280  0.615946  1
  Pr  Pr16  1  0.911817  0.710618  0.116704  1
  Pr  Pr17  1  0.911817  0.289382  0.616704  1
  Pr  Pr18  1  0.090078  0.710027  0.615885  1
  Pr  Pr19  1  0.090078  0.289973  0.115885  1
  Ir  Ir20  1  0.148399  0.149037  0.749930  1
  Ir  Ir21  1  0.148399  0.850963  0.249930  1
  Ir  Ir22  1  0.649773  0.350435  0.749993  1
  Ir  Ir23  1  0.649773  0.649565  0.249993  1
  Ir  Ir24  1  0.350838  0.350634  0.250085  1
  Ir  Ir25  1  0.350838  0.649366  0.750085  1
  Rh  Rh26  1  0.851237  0.148195  0.249929  1
  Rh  Rh27  1  0.851237  0.851805  0.749929  1
  Rh  Rh28  1  0.501273  0.000134  0.117846  1
  Rh  Rh29  1  0.501273  0.999866  0.617846  1
  Rh  Rh30  1  0.999397  0.500565  0.882069  1
  Rh  Rh31  1  0.999397  0.499435  0.382069  1
