# generated using pymatgen
data_Yb4Mn3O7
_symmetry_space_group_name_H-M   'P 1'
_cell_length_a   4.66105586
_cell_length_b   9.86352547
_cell_length_c   8.62833650
_cell_angle_alpha   112.96007007
_cell_angle_beta   105.67041732
_cell_angle_gamma   76.33295894
_symmetry_Int_Tables_number   1
_chemical_formula_structural   Yb4Mn3O7
_chemical_formula_sum   'Yb8 Mn6 O14'
_cell_volume   347.82499443
_cell_formula_units_Z   2
loop_
 _symmetry_equiv_pos_site_id
 _symmetry_equiv_pos_as_xyz
  1  'x, y, z'
loop_
 _atom_site_type_symbol
 _atom_site_label
 _atom_site_symmetry_multiplicity
 _atom_site_fract_x
 _atom_site_fract_y
 _atom_site_fract_z
 _atom_site_occupancy
  Yb  Yb0  1  0.570291  0.141901  0.282498  1
  Yb  Yb1  1  0.070320  0.641902  0.782500  1
  Yb  Yb2  1  0.858252  0.715238  0.431777  1
  Yb  Yb3  1  0.358275  0.215260  0.931789  1
  Yb  Yb4  1  0.140615  0.286753  0.567948  1
  Yb  Yb5  1  0.640600  0.786752  0.067979  1
  Yb  Yb6  1  0.787983  0.070392  0.646359  1
  Yb  Yb7  1  0.288010  0.570367  0.146345  1
  Mn  Mn8  1  0.714301  0.428610  0.857088  1
  Mn  Mn9  1  0.001401  0.997931  0.000715  1
  Mn  Mn10  1  0.427224  0.859248  0.713591  1
  Mn  Mn11  1  0.214213  0.928568  0.357136  1
  Mn  Mn12  1  0.501363  0.497965  0.500694  1
  Mn  Mn13  1  0.927215  0.359218  0.213567  1
  O  O14  1  0.643316  0.290186  0.576823  1
  O  O15  1  0.143292  0.790170  0.076823  1
  O  O16  1  0.285224  0.066964  0.637472  1
  O  O17  1  0.785247  0.566967  0.137464  1
  O  O18  1  0.069542  0.136927  0.276044  1
  O  O19  1  0.569567  0.636947  0.776053  1
  O  O20  1  0.359031  0.720191  0.438277  1
  O  O21  1  0.859060  0.220172  0.938254  1
  O  O22  1  0.497338  0.995899  0.990631  1
  O  O23  1  0.997347  0.495910  0.490642  1
  O  O24  1  0.931152  0.861210  0.723624  1
  O  O25  1  0.431168  0.361208  0.223630  1
  O  O26  1  0.714324  0.928567  0.357150  1
  O  O27  1  0.214327  0.428576  0.857130  1
