# generated using pymatgen
data_Li12Zn4IrRh3
_symmetry_space_group_name_H-M   'P 1'
_cell_length_a   6.66971906
_cell_length_b   6.66971909
_cell_length_c   6.66972000
_cell_angle_alpha   89.90556532
_cell_angle_beta   89.90556532
_cell_angle_gamma   89.90557302
_symmetry_Int_Tables_number   1
_chemical_formula_structural   Li12Zn4IrRh3
_chemical_formula_sum   'Li12 Zn4 Ir1 Rh3'
_cell_volume   296.70230382
_cell_formula_units_Z   1
loop_
 _symmetry_equiv_pos_site_id
 _symmetry_equiv_pos_as_xyz
  1  'x, y, z'
loop_
 _atom_site_type_symbol
 _atom_site_label
 _atom_site_symmetry_multiplicity
 _atom_site_fract_x
 _atom_site_fract_y
 _atom_site_fract_z
 _atom_site_occupancy
  Li  Li0  1  0.126384  0.196357  0.456402  1
  Li  Li1  1  0.456402  0.126384  0.196357  1
  Li  Li2  1  0.196357  0.456402  0.126384  1
  Li  Li3  1  0.305471  0.544579  0.626295  1
  Li  Li4  1  0.955061  0.376290  0.803496  1
  Li  Li5  1  0.803496  0.955061  0.376290  1
  Li  Li6  1  0.041658  0.872897  0.696436  1
  Li  Li7  1  0.544579  0.626295  0.305471  1
  Li  Li8  1  0.696436  0.041658  0.872897  1
  Li  Li9  1  0.626295  0.305471  0.544579  1
  Li  Li10  1  0.872897  0.696436  0.041658  1
  Li  Li11  1  0.376290  0.803496  0.955061  1
  Zn  Zn12  1  0.934619  0.565176  0.434314  1
  Zn  Zn13  1  0.565176  0.434314  0.934619  1
  Zn  Zn14  1  0.434314  0.934619  0.565176  1
  Zn  Zn15  1  0.066124  0.066124  0.066124  1
  Ir  Ir16  1  0.687364  0.687364  0.687364  1
  Rh  Rh17  1  0.310781  0.187965  0.812332  1
  Rh  Rh18  1  0.187965  0.812332  0.310781  1
  Rh  Rh19  1  0.812332  0.310781  0.187965  1
