# generated using pymatgen
data_Cs2Ga2As2O9
_symmetry_space_group_name_H-M   'P 1'
_cell_length_a   5.14222866
_cell_length_b   7.54610892
_cell_length_c   8.41218617
_cell_angle_alpha   95.65273277
_cell_angle_beta   107.26620422
_cell_angle_gamma   108.62179383
_symmetry_Int_Tables_number   1
_chemical_formula_structural   Cs2Ga2As2O9
_chemical_formula_sum   'Cs2 Ga2 As2 O9'
_cell_volume   288.57970943
_cell_formula_units_Z   1
loop_
 _symmetry_equiv_pos_site_id
 _symmetry_equiv_pos_as_xyz
  1  'x, y, z'
loop_
 _atom_site_type_symbol
 _atom_site_label
 _atom_site_symmetry_multiplicity
 _atom_site_fract_x
 _atom_site_fract_y
 _atom_site_fract_z
 _atom_site_occupancy
  Cs  Cs0  1  0.771440  0.195846  0.346239  1
  Cs  Cs1  1  0.228560  0.804154  0.653761  1
  Ga  Ga2  1  0.157897  0.236582  0.972470  1
  Ga  Ga3  1  0.842103  0.763418  0.027530  1
  As  As4  1  0.616472  0.351293  0.770966  1
  As  As5  1  0.383528  0.648707  0.229034  1
  O  O6  1  0.056230  0.684338  0.207937  1
  O  O7  1  0.619008  0.754499  0.426527  1
  O  O8  1  0.506147  0.255397  0.930988  1
  O  O9  1  0.710280  0.598885  0.813094  1
  O  O10  1  0.943770  0.315662  0.792063  1
  O  O11  1  0.289720  0.401115  0.186906  1
  O  O12  1  0.380992  0.245501  0.573473  1
  O  O13  1  0.000000  0.000000  0.000000  1
  O  O14  1  0.493853  0.744603  0.069012  1
