# generated using pymatgen
data_SrTh(ClO4)6
_symmetry_space_group_name_H-M   'P 1'
_cell_length_a   9.61667800
_cell_length_b   9.61667884
_cell_length_c   5.99851500
_cell_angle_alpha   90.00000000
_cell_angle_beta   90.00000000
_cell_angle_gamma   119.99999617
_symmetry_Int_Tables_number   1
_chemical_formula_structural   SrTh(ClO4)6
_chemical_formula_sum   'Sr1 Th1 Cl6 O24'
_cell_volume   480.42387843
_cell_formula_units_Z   1
loop_
 _symmetry_equiv_pos_site_id
 _symmetry_equiv_pos_as_xyz
  1  'x, y, z'
loop_
 _atom_site_type_symbol
 _atom_site_label
 _atom_site_symmetry_multiplicity
 _atom_site_fract_x
 _atom_site_fract_y
 _atom_site_fract_z
 _atom_site_occupancy
  Sr  Sr0  1  0.333333  0.666667  0.250000  1
  Th  Th1  1  0.666667  0.333333  0.750000  1
  Cl  Cl2  1  0.297863  0.920921  0.750000  1
  Cl  Cl3  1  0.708507  0.101999  0.250000  1
  Cl  Cl4  1  0.623059  0.702137  0.750000  1
  Cl  Cl5  1  0.393492  0.291493  0.250000  1
  Cl  Cl6  1  0.079079  0.376941  0.750000  1
  Cl  Cl7  1  0.898001  0.606508  0.250000  1
  O  O8  1  0.793534  0.796576  0.750000  1
  O  O9  1  0.953281  0.428735  0.750000  1
  O  O10  1  0.475454  0.046719  0.750000  1
  O  O11  1  0.203424  0.996957  0.750000  1
  O  O12  1  0.962552  0.775110  0.250000  1
  O  O13  1  0.464905  0.257054  0.447664  1
  O  O14  1  0.176919  0.446401  0.947371  1
  O  O15  1  0.540000  0.982291  0.250000  1
  O  O16  1  0.553599  0.730518  0.947371  1
  O  O17  1  0.017709  0.557708  0.250000  1
  O  O18  1  0.003043  0.206466  0.750000  1
  O  O19  1  0.269482  0.823081  0.552629  1
  O  O20  1  0.792148  0.535095  0.447664  1
  O  O21  1  0.464905  0.257054  0.052336  1
  O  O22  1  0.553599  0.730518  0.552629  1
  O  O23  1  0.269482  0.823081  0.947371  1
  O  O24  1  0.792148  0.535095  0.052336  1
  O  O25  1  0.571265  0.524546  0.750000  1
  O  O26  1  0.442292  0.460000  0.250000  1
  O  O27  1  0.176919  0.446401  0.552629  1
  O  O28  1  0.742946  0.207852  0.052336  1
  O  O29  1  0.224890  0.187442  0.250000  1
  O  O30  1  0.742946  0.207852  0.447664  1
  O  O31  1  0.812558  0.037448  0.250000  1
