# generated using pymatgen
data_Nd6Dy10CdHg3Ir4
_symmetry_space_group_name_H-M   'P 1'
_cell_length_a   9.71337158
_cell_length_b   9.72420348
_cell_length_c   9.72420400
_cell_angle_alpha   59.99999823
_cell_angle_beta   59.96310237
_cell_angle_gamma   59.96310897
_symmetry_Int_Tables_number   1
_chemical_formula_structural   Nd6Dy10CdHg3Ir4
_chemical_formula_sum   'Nd6 Dy10 Cd1 Hg3 Ir4'
_cell_volume   649.11356530
_cell_formula_units_Z   1
loop_
 _symmetry_equiv_pos_site_id
 _symmetry_equiv_pos_as_xyz
  1  'x, y, z'
loop_
 _atom_site_type_symbol
 _atom_site_label
 _atom_site_symmetry_multiplicity
 _atom_site_fract_x
 _atom_site_fract_y
 _atom_site_fract_z
 _atom_site_occupancy
  Nd  Nd0  1  0.939198  0.560052  0.560052  1
  Nd  Nd1  1  0.559404  0.940366  0.940366  1
  Nd  Nd2  1  0.559404  0.940366  0.559865  1
  Nd  Nd3  1  0.939198  0.560052  0.940698  1
  Nd  Nd4  1  0.559404  0.559865  0.940366  1
  Nd  Nd5  1  0.939198  0.940698  0.560052  1
  Dy  Dy6  1  0.348194  0.347909  0.347909  1
  Dy  Dy7  1  0.348194  0.347909  0.955987  1
  Dy  Dy8  1  0.348194  0.955987  0.347909  1
  Dy  Dy9  1  0.954870  0.348376  0.348376  1
  Dy  Dy10  1  0.812281  0.187635  0.187635  1
  Dy  Dy11  1  0.186972  0.812808  0.812808  1
  Dy  Dy12  1  0.186972  0.812808  0.187411  1
  Dy  Dy13  1  0.812281  0.187635  0.812449  1
  Dy  Dy14  1  0.186972  0.187411  0.812808  1
  Dy  Dy15  1  0.812281  0.812449  0.187635  1
  Cd  Cd16  1  0.263239  0.578920  0.578920  1
  Hg  Hg17  1  0.581213  0.582699  0.582699  1
  Hg  Hg18  1  0.581213  0.582699  0.253388  1
  Hg  Hg19  1  0.581213  0.253388  0.582699  1
  Ir  Ir20  1  0.141649  0.141615  0.141615  1
  Ir  Ir21  1  0.141649  0.141615  0.575121  1
  Ir  Ir22  1  0.141649  0.575121  0.141615  1
  Ir  Ir23  1  0.575158  0.141614  0.141614  1
