# generated using pymatgen
data_SrTb2Dy4PtI12
_symmetry_space_group_name_H-M   'P 1'
_cell_length_a   9.83344431
_cell_length_b   9.83528592
_cell_length_c   9.83194991
_cell_angle_alpha   106.46322608
_cell_angle_beta   106.45815668
_cell_angle_gamma   106.47207797
_symmetry_Int_Tables_number   1
_chemical_formula_structural   SrTb2Dy4PtI12
_chemical_formula_sum   'Sr1 Tb2 Dy4 Pt1 I12'
_cell_volume   803.20170138
_cell_formula_units_Z   1
loop_
 _symmetry_equiv_pos_site_id
 _symmetry_equiv_pos_as_xyz
  1  'x, y, z'
loop_
 _atom_site_type_symbol
 _atom_site_label
 _atom_site_symmetry_multiplicity
 _atom_site_fract_x
 _atom_site_fract_y
 _atom_site_fract_z
 _atom_site_occupancy
  Sr  Sr0  1  0.500005  0.500003  0.499984  1
  Tb  Tb1  1  0.700469  0.904007  0.976543  1
  Tb  Tb2  1  0.976640  0.700530  0.903862  1
  Dy  Dy3  1  0.096014  0.023725  0.298737  1
  Dy  Dy4  1  0.298680  0.096016  0.023569  1
  Dy  Dy5  1  0.023654  0.298656  0.095813  1
  Dy  Dy6  1  0.904334  0.976667  0.701397  1
  Pt  Pt7  1  0.000339  0.000400  0.000145  1
  I  I8  1  0.074033  0.677435  0.223419  1
  I  I9  1  0.222807  0.073849  0.677304  1
  I  I10  1  0.677393  0.223421  0.074030  1
  I  I11  1  0.926080  0.322260  0.777060  1
  I  I12  1  0.777437  0.926233  0.323091  1
  I  I13  1  0.322709  0.777295  0.926157  1
  I  I14  1  0.451766  0.137404  0.372164  1
  I  I15  1  0.372172  0.451783  0.137382  1
  I  I16  1  0.137388  0.372150  0.451761  1
  I  I17  1  0.548201  0.862598  0.627419  1
  I  I18  1  0.627450  0.547700  0.862423  1
  I  I19  1  0.862427  0.627869  0.547738  1
