# generated using pymatgen
data_Ho5Si6P6Ir19
_symmetry_space_group_name_H-M   'P 1'
_cell_length_a   12.79034000
_cell_length_b   12.79033932
_cell_length_c   3.94677100
_cell_angle_alpha   90.00000000
_cell_angle_beta   90.00000000
_cell_angle_gamma   120.00000693
_symmetry_Int_Tables_number   1
_chemical_formula_structural   Ho5Si6P6Ir19
_chemical_formula_sum   'Ho5 Si6 P6 Ir19'
_cell_volume   559.16075843
_cell_formula_units_Z   1
loop_
 _symmetry_equiv_pos_site_id
 _symmetry_equiv_pos_as_xyz
  1  'x, y, z'
loop_
 _atom_site_type_symbol
 _atom_site_label
 _atom_site_symmetry_multiplicity
 _atom_site_fract_x
 _atom_site_fract_y
 _atom_site_fract_z
 _atom_site_occupancy
  Ho  Ho0  1  0.666667  0.333333  0.000000  1
  Ho  Ho1  1  0.333333  0.666667  0.000000  1
  Ho  Ho2  1  0.816671  0.814890  0.500000  1
  Ho  Ho3  1  0.185110  0.001781  0.500000  1
  Ho  Ho4  1  0.998219  0.183329  0.500000  1
  Si  Si5  1  0.682013  0.162722  0.500000  1
  Si  Si6  1  0.837278  0.519291  0.500000  1
  Si  Si7  1  0.480709  0.317987  0.500000  1
  Si  Si8  1  0.636508  0.635714  0.000000  1
  Si  Si9  1  0.364286  0.000795  0.000000  1
  Si  Si10  1  0.999205  0.363492  0.000000  1
  P  P11  1  0.177764  0.693817  0.500000  1
  P  P12  1  0.516053  0.822236  0.500000  1
  P  P13  1  0.306183  0.483947  0.500000  1
  P  P14  1  0.176163  0.180148  0.000000  1
  P  P15  1  0.819852  0.996014  0.000000  1
  P  P16  1  0.003986  0.823837  0.000000  1
  Ir  Ir17  1  0.808937  0.175773  0.000000  1
  Ir  Ir18  1  0.824227  0.633164  0.000000  1
  Ir  Ir19  1  0.366836  0.191063  0.000000  1
  Ir  Ir20  1  0.182782  0.801137  0.000000  1
  Ir  Ir21  1  0.618355  0.817218  0.000000  1
  Ir  Ir22  1  0.198863  0.381645  0.000000  1
  Ir  Ir23  1  0.457894  0.443304  0.000000  1
  Ir  Ir24  1  0.556696  0.014590  0.000000  1
  Ir  Ir25  1  0.985410  0.542106  0.000000  1
  Ir  Ir26  1  0.277786  0.284262  0.500000  1
  Ir  Ir27  1  0.715738  0.993525  0.500000  1
  Ir  Ir28  1  0.006475  0.722214  0.500000  1
  Ir  Ir29  1  0.868878  0.353367  0.500000  1
  Ir  Ir30  1  0.646633  0.515512  0.500000  1
  Ir  Ir31  1  0.484488  0.131122  0.500000  1
  Ir  Ir32  1  0.368192  0.873654  0.500000  1
  Ir  Ir33  1  0.505463  0.631808  0.500000  1
  Ir  Ir34  1  0.126346  0.494537  0.500000  1
  Ir  Ir35  1  0.000000  0.000000  0.000000  1
