# generated using pymatgen
data_TbHoSn5PdRh2
_symmetry_space_group_name_H-M   'P 1'
_cell_length_a   13.51390177
_cell_length_b   13.51390161
_cell_length_c   7.32998500
_cell_angle_alpha   90.00000000
_cell_angle_beta   90.00000000
_cell_angle_gamma   161.09917494
_symmetry_Int_Tables_number   1
_chemical_formula_structural   TbHoSn5PdRh2
_chemical_formula_sum   'Tb2 Ho2 Sn10 Pd2 Rh4'
_cell_volume   433.62784682
_cell_formula_units_Z   2
loop_
 _symmetry_equiv_pos_site_id
 _symmetry_equiv_pos_as_xyz
  1  'x, y, z'
loop_
 _atom_site_type_symbol
 _atom_site_label
 _atom_site_symmetry_multiplicity
 _atom_site_fract_x
 _atom_site_fract_y
 _atom_site_fract_z
 _atom_site_occupancy
  Tb  Tb0  1  0.174437  0.825563  0.745483  1
  Tb  Tb1  1  0.825563  0.174437  0.245483  1
  Ho  Ho2  1  0.475713  0.524287  0.762694  1
  Ho  Ho3  1  0.524287  0.475713  0.262694  1
  Sn  Sn4  1  0.878651  0.121349  0.773891  1
  Sn  Sn5  1  0.121349  0.878651  0.273891  1
  Sn  Sn6  1  0.704011  0.295989  0.451461  1
  Sn  Sn7  1  0.295989  0.704011  0.951461  1
  Sn  Sn8  1  0.598032  0.401968  0.883608  1
  Sn  Sn9  1  0.401968  0.598032  0.383608  1
  Sn  Sn10  1  0.951668  0.048332  0.100890  1
  Sn  Sn11  1  0.048332  0.951668  0.600890  1
  Sn  Sn12  1  0.290333  0.709667  0.521937  1
  Sn  Sn13  1  0.709667  0.290333  0.021937  1
  Pd  Pd14  1  0.049867  0.950133  0.984972  1
  Pd  Pd15  1  0.950133  0.049867  0.484972  1
  Rh  Rh16  1  0.776196  0.223804  0.732420  1
  Rh  Rh17  1  0.223804  0.776196  0.232420  1
  Rh  Rh18  1  0.395646  0.604354  0.014641  1
  Rh  Rh19  1  0.604354  0.395646  0.514641  1
