# generated using pymatgen
data_Ce2Sm4MnI10
_symmetry_space_group_name_H-M   'P 1'
_cell_length_a   7.92948645
_cell_length_b   9.96649148
_cell_length_c   9.87530300
_cell_angle_alpha   106.93719555
_cell_angle_beta   96.03693135
_cell_angle_gamma   105.57811139
_symmetry_Int_Tables_number   1
_chemical_formula_structural   Ce2Sm4MnI10
_chemical_formula_sum   'Ce2 Sm4 Mn1 I10'
_cell_volume   704.77127828
_cell_formula_units_Z   1
loop_
 _symmetry_equiv_pos_site_id
 _symmetry_equiv_pos_as_xyz
  1  'x, y, z'
loop_
 _atom_site_type_symbol
 _atom_site_label
 _atom_site_symmetry_multiplicity
 _atom_site_fract_x
 _atom_site_fract_y
 _atom_site_fract_z
 _atom_site_occupancy
  Ce  Ce0  1  0.896165  0.962265  0.209289  1
  Ce  Ce1  1  0.103835  0.037735  0.790711  1
  Sm  Sm2  1  0.030799  0.708156  0.910899  1
  Sm  Sm3  1  0.969201  0.291844  0.089101  1
  Sm  Sm4  1  0.642952  0.869803  0.828695  1
  Sm  Sm5  1  0.357048  0.130197  0.171305  1
  Mn  Mn6  1  0.000000  0.000000  0.000000  1
  I  I7  1  0.648521  0.546813  0.727674  1
  I  I8  1  0.351479  0.453187  0.272326  1
  I  I9  1  0.746279  0.914896  0.546962  1
  I  I10  1  0.253721  0.085104  0.453038  1
  I  I11  1  0.086473  0.367023  0.821655  1
  I  I12  1  0.913527  0.632977  0.178345  1
  I  I13  1  0.455974  0.818512  0.091875  1
  I  I14  1  0.544026  0.181488  0.908125  1
  I  I15  1  0.214039  0.742288  0.652985  1
  I  I16  1  0.785961  0.257712  0.347015  1
