# generated using pymatgen
data_LuTh7Ti8(Si4W)4
_symmetry_space_group_name_H-M   'P 1'
_cell_length_a   6.92934983
_cell_length_b   7.14743008
_cell_length_c   13.43534947
_cell_angle_alpha   89.89695080
_cell_angle_beta   89.88366779
_cell_angle_gamma   89.98319420
_symmetry_Int_Tables_number   1
_chemical_formula_structural   LuTh7Ti8(Si4W)4
_chemical_formula_sum   'Lu1 Th7 Ti8 Si16 W4'
_cell_volume   665.41066112
_cell_formula_units_Z   1
loop_
 _symmetry_equiv_pos_site_id
 _symmetry_equiv_pos_as_xyz
  1  'x, y, z'
loop_
 _atom_site_type_symbol
 _atom_site_label
 _atom_site_symmetry_multiplicity
 _atom_site_fract_x
 _atom_site_fract_y
 _atom_site_fract_z
 _atom_site_occupancy
  Lu  Lu0  1  0.998167  0.171474  0.098814  1
  Th  Th1  1  0.500932  0.332318  0.096246  1
  Th  Th2  1  0.000074  0.168542  0.402671  1
  Th  Th3  1  0.501089  0.669020  0.597156  1
  Th  Th4  1  0.999662  0.829194  0.904841  1
  Th  Th5  1  0.499349  0.669609  0.905472  1
  Th  Th6  1  0.001784  0.830325  0.597146  1
  Th  Th7  1  0.498662  0.330431  0.401039  1
  Ti  Ti8  1  0.835240  0.328085  0.626379  1
  Ti  Ti9  1  0.335065  0.172667  0.875227  1
  Ti  Ti10  1  0.167989  0.673335  0.124994  1
  Ti  Ti11  1  0.667565  0.829846  0.372589  1
  Ti  Ti12  1  0.163327  0.672305  0.371744  1
  Ti  Ti13  1  0.664494  0.826739  0.124431  1
  Ti  Ti14  1  0.835102  0.325340  0.875535  1
  Ti  Ti15  1  0.337190  0.172551  0.626247  1
  Si  Si16  1  0.660075  0.045910  0.545956  1
  Si  Si17  1  0.157317  0.451027  0.957729  1
  Si  Si18  1  0.331165  0.961176  0.047242  1
  Si  Si19  1  0.839671  0.545842  0.453437  1
  Si  Si20  1  0.341132  0.952922  0.453148  1
  Si  Si21  1  0.845613  0.537829  0.047032  1
  Si  Si22  1  0.660076  0.044562  0.956486  1
  Si  Si23  1  0.159968  0.453939  0.545659  1
  Si  Si24  1  0.539279  0.363583  0.751222  1
  Si  Si25  1  0.039961  0.136219  0.750657  1
  Si  Si26  1  0.460282  0.638892  0.249381  1
  Si  Si27  1  0.961710  0.867052  0.246344  1
  Si  Si28  1  0.806418  0.609395  0.751291  1
  Si  Si29  1  0.306757  0.890226  0.751177  1
  Si  Si30  1  0.188505  0.383874  0.245819  1
  Si  Si31  1  0.698670  0.112381  0.246229  1
  W  W32  1  0.665034  0.010914  0.751731  1
  W  W33  1  0.164949  0.488336  0.750556  1
  W  W34  1  0.334471  0.992197  0.248855  1
  W  W35  1  0.833254  0.511944  0.249516  1
