# generated using pymatgen
data_Sr4La2TiCo4O15
_symmetry_space_group_name_H-M   'P 1'
_cell_length_a   6.90409758
_cell_length_b   6.90409876
_cell_length_c   6.94774379
_cell_angle_alpha   86.89592220
_cell_angle_beta   86.89592255
_cell_angle_gamma   87.04916871
_symmetry_Int_Tables_number   1
_chemical_formula_structural   Sr4La2TiCo4O15
_chemical_formula_sum   'Sr4 La2 Ti1 Co4 O15'
_cell_volume   329.81241755
_cell_formula_units_Z   1
loop_
 _symmetry_equiv_pos_site_id
 _symmetry_equiv_pos_as_xyz
  1  'x, y, z'
loop_
 _atom_site_type_symbol
 _atom_site_label
 _atom_site_symmetry_multiplicity
 _atom_site_fract_x
 _atom_site_fract_y
 _atom_site_fract_z
 _atom_site_occupancy
  Sr  Sr0  1  0.864006  0.135994  0.500000  1
  Sr  Sr1  1  0.997744  0.675872  0.327527  1
  Sr  Sr2  1  0.324128  0.002256  0.672473  1
  Sr  Sr3  1  0.679214  0.320786  0.000000  1
  La  La4  1  0.500088  0.863674  0.141401  1
  La  La5  1  0.136326  0.499912  0.858599  1
  Ti  Ti6  1  0.501792  0.498208  0.500000  1
  Co  Co7  1  0.702225  0.704559  0.707313  1
  Co  Co8  1  0.295441  0.297775  0.292687  1
  Co  Co9  1  0.903078  0.902010  0.903522  1
  Co  Co10  1  0.097990  0.096922  0.096478  1
  O  O11  1  0.383150  0.558115  0.242582  1
  O  O12  1  0.241523  0.384392  0.552270  1
  O  O13  1  0.551548  0.246920  0.380573  1
  O  O14  1  0.615608  0.758477  0.447730  1
  O  O15  1  0.441885  0.616850  0.757418  1
  O  O16  1  0.753080  0.448452  0.619427  1
  O  O17  1  0.210379  0.030954  0.341779  1
  O  O18  1  0.347402  0.204822  0.030530  1
  O  O19  1  0.034351  0.349177  0.195771  1
  O  O20  1  0.795178  0.652598  0.969470  1
  O  O21  1  0.969046  0.789621  0.658221  1
  O  O22  1  0.160493  0.839507  0.000000  1
  O  O23  1  0.841002  0.997497  0.155400  1
  O  O24  1  0.002503  0.158998  0.844600  1
  O  O25  1  0.650823  0.965649  0.804229  1
