# generated using pymatgen
data_Hf(Zr3Au5)2
_symmetry_space_group_name_H-M   'P 1'
_cell_length_a   8.39193300
_cell_length_b   8.39193257
_cell_length_c   10.05406600
_cell_angle_alpha   90.00000000
_cell_angle_beta   90.00000000
_cell_angle_gamma   106.36958078
_symmetry_Int_Tables_number   1
_chemical_formula_structural   Hf(Zr3Au5)2
_chemical_formula_sum   'Hf2 Zr12 Au20'
_cell_volume   679.35111311
_cell_formula_units_Z   2
loop_
 _symmetry_equiv_pos_site_id
 _symmetry_equiv_pos_as_xyz
  1  'x, y, z'
loop_
 _atom_site_type_symbol
 _atom_site_label
 _atom_site_symmetry_multiplicity
 _atom_site_fract_x
 _atom_site_fract_y
 _atom_site_fract_z
 _atom_site_occupancy
  Hf  Hf0  1  0.000000  0.000000  0.000000  1
  Hf  Hf1  1  0.500000  0.500000  0.500000  1
  Zr  Zr2  1  0.690103  0.309897  0.000000  1
  Zr  Zr3  1  0.309897  0.690103  0.000000  1
  Zr  Zr4  1  0.809897  0.190103  0.500000  1
  Zr  Zr5  1  0.190103  0.809897  0.500000  1
  Zr  Zr6  1  0.006308  0.506308  0.250000  1
  Zr  Zr7  1  0.993692  0.493692  0.750000  1
  Zr  Zr8  1  0.493692  0.993692  0.750000  1
  Zr  Zr9  1  0.506308  0.006308  0.250000  1
  Zr  Zr10  1  0.310378  0.310378  0.191160  1
  Zr  Zr11  1  0.689622  0.689622  0.808840  1
  Zr  Zr12  1  0.189622  0.189622  0.691160  1
  Zr  Zr13  1  0.810378  0.810378  0.308840  1
  Au  Au14  1  0.859623  0.150980  0.206031  1
  Au  Au15  1  0.140377  0.849020  0.793969  1
  Au  Au16  1  0.640377  0.349020  0.706031  1
  Au  Au17  1  0.650980  0.359623  0.293969  1
  Au  Au18  1  0.359623  0.650980  0.293969  1
  Au  Au19  1  0.349020  0.640377  0.706031  1
  Au  Au20  1  0.849020  0.140377  0.793969  1
  Au  Au21  1  0.150980  0.859623  0.206031  1
  Au  Au22  1  0.941827  0.649434  0.002471  1
  Au  Au23  1  0.058173  0.350566  0.997529  1
  Au  Au24  1  0.558173  0.850566  0.502471  1
  Au  Au25  1  0.149434  0.441827  0.497529  1
  Au  Au26  1  0.441827  0.149434  0.497529  1
  Au  Au27  1  0.850566  0.558173  0.502471  1
  Au  Au28  1  0.350566  0.058173  0.997529  1
  Au  Au29  1  0.649434  0.941827  0.002471  1
  Au  Au30  1  0.103724  0.103724  0.397455  1
  Au  Au31  1  0.896276  0.896276  0.602545  1
  Au  Au32  1  0.396276  0.396276  0.897455  1
  Au  Au33  1  0.603724  0.603724  0.102545  1
