# generated using pymatgen
data_Ho3Er2(In2Pd)2
_symmetry_space_group_name_H-M   'P 1'
_cell_length_a   3.60865800
_cell_length_b   8.13769700
_cell_length_c   18.19323200
_cell_angle_alpha   90.00000000
_cell_angle_beta   90.00000000
_cell_angle_gamma   90.00000000
_symmetry_Int_Tables_number   1
_chemical_formula_structural   Ho3Er2(In2Pd)2
_chemical_formula_sum   'Ho6 Er4 In8 Pd4'
_cell_volume   534.26545972
_cell_formula_units_Z   2
loop_
 _symmetry_equiv_pos_site_id
 _symmetry_equiv_pos_as_xyz
  1  'x, y, z'
loop_
 _atom_site_type_symbol
 _atom_site_label
 _atom_site_symmetry_multiplicity
 _atom_site_fract_x
 _atom_site_fract_y
 _atom_site_fract_z
 _atom_site_occupancy
  Ho  Ho0  1  0.000000  0.242787  0.219704  1
  Ho  Ho1  1  0.000000  0.757213  0.780296  1
  Ho  Ho2  1  0.000000  0.257213  0.719704  1
  Ho  Ho3  1  0.000000  0.742787  0.280296  1
  Ho  Ho4  1  0.000000  0.000000  0.000000  1
  Ho  Ho5  1  0.000000  0.500000  0.500000  1
  Er  Er6  1  0.000000  0.117525  0.415215  1
  Er  Er7  1  0.000000  0.882475  0.584785  1
  Er  Er8  1  0.000000  0.382475  0.915215  1
  Er  Er9  1  0.000000  0.617525  0.084785  1
  In  In10  1  0.500000  0.422833  0.350873  1
  In  In11  1  0.500000  0.577167  0.649127  1
  In  In12  1  0.500000  0.077167  0.850873  1
  In  In13  1  0.500000  0.922833  0.149127  1
  In  In14  1  0.500000  0.293037  0.066503  1
  In  In15  1  0.500000  0.706963  0.933497  1
  In  In16  1  0.500000  0.206963  0.566503  1
  In  In17  1  0.500000  0.793037  0.433497  1
  Pd  Pd18  1  0.500000  0.024727  0.303534  1
  Pd  Pd19  1  0.500000  0.975273  0.696466  1
  Pd  Pd20  1  0.500000  0.475273  0.803534  1
  Pd  Pd21  1  0.500000  0.524727  0.196466  1
