# generated using pymatgen
data_La6YbPr9(CdPt)4
_symmetry_space_group_name_H-M   'P 1'
_cell_length_a   10.10734922
_cell_length_b   10.10243308
_cell_length_c   10.13549868
_cell_angle_alpha   59.92378367
_cell_angle_beta   60.39135089
_cell_angle_gamma   60.20049111
_symmetry_Int_Tables_number   1
_chemical_formula_structural   La6YbPr9(CdPt)4
_chemical_formula_sum   'La6 Yb1 Pr9 Cd4 Pt4'
_cell_volume   734.62565913
_cell_formula_units_Z   1
loop_
 _symmetry_equiv_pos_site_id
 _symmetry_equiv_pos_as_xyz
  1  'x, y, z'
loop_
 _atom_site_type_symbol
 _atom_site_label
 _atom_site_symmetry_multiplicity
 _atom_site_fract_x
 _atom_site_fract_y
 _atom_site_fract_z
 _atom_site_occupancy
  La  La0  1  0.347702  0.352804  0.349373  1
  La  La1  1  0.350151  0.348691  0.950730  1
  La  La2  1  0.349373  0.950122  0.347702  1
  La  La3  1  0.950730  0.350429  0.350151  1
  La  La4  1  0.810798  0.189276  0.191135  1
  La  La5  1  0.191135  0.808790  0.810798  1
  Yb  Yb6  1  0.191834  0.808166  0.191834  1
  Pr  Pr7  1  0.807973  0.192027  0.807973  1
  Pr  Pr8  1  0.192687  0.191213  0.808847  1
  Pr  Pr9  1  0.808847  0.807253  0.192687  1
  Pr  Pr10  1  0.935362  0.565919  0.564402  1
  Pr  Pr11  1  0.564402  0.934317  0.935362  1
  Pr  Pr12  1  0.565326  0.934674  0.565326  1
  Pr  Pr13  1  0.933699  0.566301  0.933699  1
  Pr  Pr14  1  0.563787  0.565368  0.936207  1
  Pr  Pr15  1  0.936207  0.934638  0.563787  1
  Cd  Cd16  1  0.581204  0.580254  0.580084  1
  Cd  Cd17  1  0.580517  0.580983  0.258632  1
  Cd  Cd18  1  0.580084  0.258456  0.581204  1
  Cd  Cd19  1  0.258632  0.579867  0.580517  1
  Pt  Pt20  1  0.140704  0.142795  0.143939  1
  Pt  Pt21  1  0.143958  0.140977  0.570948  1
  Pt  Pt22  1  0.143939  0.572563  0.140704  1
  Pt  Pt23  1  0.570948  0.144118  0.143958  1
