# generated using pymatgen
data_TbDyHoMgCd2Ga3
_symmetry_space_group_name_H-M   'P 1'
_cell_length_a   7.25792822
_cell_length_b   7.25399321
_cell_length_c   4.42827600
_cell_angle_alpha   90.00000000
_cell_angle_beta   90.00000000
_cell_angle_gamma   120.09243689
_symmetry_Int_Tables_number   1
_chemical_formula_structural   TbDyHoMgCd2Ga3
_chemical_formula_sum   'Tb1 Dy1 Ho1 Mg1 Cd2 Ga3'
_cell_volume   201.72041191
_cell_formula_units_Z   1
loop_
 _symmetry_equiv_pos_site_id
 _symmetry_equiv_pos_as_xyz
  1  'x, y, z'
loop_
 _atom_site_type_symbol
 _atom_site_label
 _atom_site_symmetry_multiplicity
 _atom_site_fract_x
 _atom_site_fract_y
 _atom_site_fract_z
 _atom_site_occupancy
  Tb  Tb0  1  0.424495  0.424385  0.500000  1
  Dy  Dy1  1  0.001639  0.573196  0.500000  1
  Ho  Ho2  1  0.573187  0.001530  0.500000  1
  Mg  Mg3  1  0.759606  0.759687  0.000000  1
  Cd  Cd4  1  0.247089  0.998028  0.000000  1
  Cd  Cd5  1  0.997980  0.246826  0.000000  1
  Ga  Ga6  1  0.665551  0.336017  0.000000  1
  Ga  Ga7  1  0.337040  0.666484  0.000000  1
  Ga  Ga8  1  0.993412  0.993847  0.500000  1
