# generated using pymatgen
data_Ca2PdAu
_symmetry_space_group_name_H-M   'P 1'
_cell_length_a   5.79179478
_cell_length_b   5.79179478
_cell_length_c   4.44696600
_cell_angle_alpha   90.00000000
_cell_angle_beta   90.00000000
_cell_angle_gamma   138.66420110
_symmetry_Int_Tables_number   1
_chemical_formula_structural   Ca2PdAu
_chemical_formula_sum   'Ca2 Pd1 Au1'
_cell_volume   98.52441169
_cell_formula_units_Z   1
loop_
 _symmetry_equiv_pos_site_id
 _symmetry_equiv_pos_as_xyz
  1  'x, y, z'
loop_
 _atom_site_type_symbol
 _atom_site_label
 _atom_site_symmetry_multiplicity
 _atom_site_fract_x
 _atom_site_fract_y
 _atom_site_fract_z
 _atom_site_occupancy
  Ca  Ca0  1  0.860002  0.139998  0.000000  1
  Ca  Ca1  1  0.140886  0.859114  0.500000  1
  Pd  Pd2  1  0.419842  0.580158  0.500000  1
  Au  Au3  1  0.579270  0.420730  0.000000  1
