# generated using pymatgen
data_Lu4Ga17SiIr6
_symmetry_space_group_name_H-M   'P 1'
_cell_length_a   7.56960923
_cell_length_b   7.56960858
_cell_length_c   9.37036200
_cell_angle_alpha   90.00000000
_cell_angle_beta   90.00000000
_cell_angle_gamma   119.87073608
_symmetry_Int_Tables_number   1
_chemical_formula_structural   Lu4Ga17SiIr6
_chemical_formula_sum   'Lu4 Ga17 Si1 Ir6'
_cell_volume   465.58405825
_cell_formula_units_Z   1
loop_
 _symmetry_equiv_pos_site_id
 _symmetry_equiv_pos_as_xyz
  1  'x, y, z'
loop_
 _atom_site_type_symbol
 _atom_site_label
 _atom_site_symmetry_multiplicity
 _atom_site_fract_x
 _atom_site_fract_y
 _atom_site_fract_z
 _atom_site_occupancy
  Lu  Lu0  1  0.996522  0.674649  0.250000  1
  Lu  Lu1  1  0.002825  0.330465  0.750000  1
  Lu  Lu2  1  0.674649  0.996522  0.250000  1
  Lu  Lu3  1  0.330465  0.002825  0.750000  1
  Ga  Ga4  1  0.876778  0.876778  0.750000  1
  Ga  Ga5  1  0.998263  0.337086  0.083086  1
  Ga  Ga6  1  0.000925  0.665907  0.919008  1
  Ga  Ga7  1  0.000925  0.665907  0.580992  1
  Ga  Ga8  1  0.337086  0.998263  0.416914  1
  Ga  Ga9  1  0.998263  0.337086  0.416914  1
  Ga  Ga10  1  0.665907  0.000925  0.580992  1
  Ga  Ga11  1  0.665907  0.000925  0.919008  1
  Ga  Ga12  1  0.337086  0.998263  0.083086  1
  Ga  Ga13  1  0.330552  0.330552  0.564806  1
  Ga  Ga14  1  0.665606  0.665606  0.437375  1
  Ga  Ga15  1  0.665606  0.665606  0.062625  1
  Ga  Ga16  1  0.330552  0.330552  0.935194  1
  Ga  Ga17  1  0.337313  0.549209  0.250000  1
  Ga  Ga18  1  0.660882  0.452052  0.750000  1
  Ga  Ga19  1  0.549209  0.337313  0.250000  1
  Ga  Ga20  1  0.452052  0.660882  0.750000  1
  Si  Si21  1  0.126464  0.126464  0.250000  1
  Ir  Ir22  1  0.670860  0.326569  0.000010  1
  Ir  Ir23  1  0.326569  0.670860  0.000010  1
  Ir  Ir24  1  0.326569  0.670860  0.499990  1
  Ir  Ir25  1  0.670860  0.326569  0.499990  1
  Ir  Ir26  1  0.000654  0.000654  0.011190  1
  Ir  Ir27  1  0.000654  0.000654  0.488810  1
