# generated using pymatgen
data_K2(USe2)5
_symmetry_space_group_name_H-M   'P 1'
_cell_length_a   7.15233491
_cell_length_b   11.75380147
_cell_length_c   9.30456218
_cell_angle_alpha   61.30859618
_cell_angle_beta   67.37465161
_cell_angle_gamma   90.04629527
_symmetry_Int_Tables_number   1
_chemical_formula_structural   K2(USe2)5
_chemical_formula_sum   'K2 U5 Se10'
_cell_volume   616.51457351
_cell_formula_units_Z   1
loop_
 _symmetry_equiv_pos_site_id
 _symmetry_equiv_pos_as_xyz
  1  'x, y, z'
loop_
 _atom_site_type_symbol
 _atom_site_label
 _atom_site_symmetry_multiplicity
 _atom_site_fract_x
 _atom_site_fract_y
 _atom_site_fract_z
 _atom_site_occupancy
  K  K0  1  0.784894  0.071193  0.429080  1
  K  K1  1  0.015106  0.528807  0.970920  1
  U  U2  1  0.400000  0.800000  0.200000  1
  U  U3  1  0.797914  0.600320  0.406293  1
  U  U4  1  0.204359  0.397194  0.591937  1
  U  U5  1  0.595641  0.202806  0.808063  1
  U  U6  1  0.002086  0.999680  0.993707  1
  Se  Se7  1  0.992689  0.841158  0.347371  1
  Se  Se8  1  0.593486  0.035016  0.155838  1
  Se  Se9  1  0.180744  0.239388  0.953374  1
  Se  Se10  1  0.798288  0.438832  0.753662  1
  Se  Se11  1  0.385434  0.634694  0.552737  1
  Se  Se12  1  0.414566  0.965306  0.847263  1
  Se  Se13  1  0.001712  0.161168  0.646338  1
  Se  Se14  1  0.619256  0.360612  0.446626  1
  Se  Se15  1  0.206514  0.564984  0.244162  1
  Se  Se16  1  0.807311  0.758842  0.052629  1
