# generated using pymatgen
data_Tb2Y2CdPt
_symmetry_space_group_name_H-M   'P 1'
_cell_length_a   9.73419218
_cell_length_b   9.73419255
_cell_length_c   9.74156400
_cell_angle_alpha   59.97495320
_cell_angle_beta   59.97495194
_cell_angle_gamma   60.05010223
_symmetry_Int_Tables_number   1
_chemical_formula_structural   Tb2Y2CdPt
_chemical_formula_sum   'Tb8 Y8 Cd4 Pt4'
_cell_volume   652.69917625
_cell_formula_units_Z   4
loop_
 _symmetry_equiv_pos_site_id
 _symmetry_equiv_pos_as_xyz
  1  'x, y, z'
loop_
 _atom_site_type_symbol
 _atom_site_label
 _atom_site_symmetry_multiplicity
 _atom_site_fract_x
 _atom_site_fract_y
 _atom_site_fract_z
 _atom_site_occupancy
  Tb  Tb0  1  0.352242  0.352242  0.352589  1
  Tb  Tb1  1  0.352242  0.352242  0.942926  1
  Tb  Tb2  1  0.352589  0.942926  0.352242  1
  Tb  Tb3  1  0.942926  0.352589  0.352242  1
  Tb  Tb4  1  0.810218  0.189782  0.189782  1
  Tb  Tb5  1  0.189782  0.810218  0.810218  1
  Tb  Tb6  1  0.189782  0.810218  0.189782  1
  Tb  Tb7  1  0.810218  0.189782  0.810218  1
  Y  Y8  1  0.190217  0.190217  0.809783  1
  Y  Y9  1  0.809783  0.809783  0.190217  1
  Y  Y10  1  0.935455  0.564545  0.564545  1
  Y  Y11  1  0.564545  0.935455  0.935455  1
  Y  Y12  1  0.564545  0.935455  0.564545  1
  Y  Y13  1  0.935455  0.564545  0.935455  1
  Y  Y14  1  0.564425  0.564425  0.935575  1
  Y  Y15  1  0.935575  0.935575  0.564425  1
  Cd  Cd16  1  0.582081  0.582081  0.581714  1
  Cd  Cd17  1  0.582081  0.582081  0.254123  1
  Cd  Cd18  1  0.581714  0.254123  0.582081  1
  Cd  Cd19  1  0.254123  0.581714  0.582081  1
  Pt  Pt20  1  0.143397  0.143397  0.144085  1
  Pt  Pt21  1  0.143397  0.143397  0.569121  1
  Pt  Pt22  1  0.144085  0.569121  0.143397  1
  Pt  Pt23  1  0.569121  0.144085  0.143397  1
