# generated using pymatgen
data_Y2Er(SnRh)3
_symmetry_space_group_name_H-M   'P 1'
_cell_length_a   7.69566900
_cell_length_b   7.68096969
_cell_length_c   3.72582400
_cell_angle_alpha   90.00000000
_cell_angle_beta   90.00000000
_cell_angle_gamma   120.06331301
_symmetry_Int_Tables_number   1
_chemical_formula_structural   Y2Er(SnRh)3
_chemical_formula_sum   'Y2 Er1 Sn3 Rh3'
_cell_volume   190.60661648
_cell_formula_units_Z   1
loop_
 _symmetry_equiv_pos_site_id
 _symmetry_equiv_pos_as_xyz
  1  'x, y, z'
loop_
 _atom_site_type_symbol
 _atom_site_label
 _atom_site_symmetry_multiplicity
 _atom_site_fract_x
 _atom_site_fract_y
 _atom_site_fract_z
 _atom_site_occupancy
  Y  Y0  1  0.403143  0.403102  0.000000  1
  Y  Y1  1  0.000041  0.596898  0.000000  1
  Er  Er2  1  0.596965  0.000000  0.000000  1
  Sn  Sn3  1  0.734112  0.735282  0.500000  1
  Sn  Sn4  1  0.998830  0.264718  0.500000  1
  Sn  Sn5  1  0.266586  0.000000  0.500000  1
  Rh  Rh6  1  0.998735  0.000000  0.000000  1
  Rh  Rh7  1  0.666109  0.330629  0.500000  1
  Rh  Rh8  1  0.335479  0.669371  0.500000  1
