# generated using pymatgen
data_Nd5CSe4
_symmetry_space_group_name_H-M   'P 1'
_cell_length_a   7.33981214
_cell_length_b   7.33981031
_cell_length_c   10.36993400
_cell_angle_alpha   60.79389523
_cell_angle_beta   60.79390323
_cell_angle_gamma   31.73483787
_symmetry_Int_Tables_number   1
_chemical_formula_structural   Nd5CSe4
_chemical_formula_sum   'Nd5 C1 Se4'
_cell_volume   253.23219976
_cell_formula_units_Z   1
loop_
 _symmetry_equiv_pos_site_id
 _symmetry_equiv_pos_as_xyz
  1  'x, y, z'
loop_
 _atom_site_type_symbol
 _atom_site_label
 _atom_site_symmetry_multiplicity
 _atom_site_fract_x
 _atom_site_fract_y
 _atom_site_fract_z
 _atom_site_occupancy
  Nd  Nd0  1  0.000000  0.000000  0.500000  1
  Nd  Nd1  1  0.581369  0.581369  0.084575  1
  Nd  Nd2  1  0.177771  0.177771  0.737878  1
  Nd  Nd3  1  0.822229  0.822229  0.262122  1
  Nd  Nd4  1  0.418631  0.418631  0.915425  1
  C  C5  1  0.000000  0.000000  0.000000  1
  Se  Se6  1  0.607668  0.607668  0.591883  1
  Se  Se7  1  0.195594  0.195594  0.194100  1
  Se  Se8  1  0.804406  0.804406  0.805900  1
  Se  Se9  1  0.392332  0.392332  0.408117  1
