# generated using pymatgen
data_Yb3Pr(TmSe2)8
_symmetry_space_group_name_H-M   'P 1'
_cell_length_a   4.01924700
_cell_length_b   13.38922012
_cell_length_c   13.62278700
_cell_angle_alpha   89.99242573
_cell_angle_beta   90.00000000
_cell_angle_gamma   90.00000000
_symmetry_Int_Tables_number   1
_chemical_formula_structural   Yb3Pr(TmSe2)8
_chemical_formula_sum   'Yb3 Pr1 Tm8 Se16'
_cell_volume   733.10459240
_cell_formula_units_Z   1
loop_
 _symmetry_equiv_pos_site_id
 _symmetry_equiv_pos_as_xyz
  1  'x, y, z'
loop_
 _atom_site_type_symbol
 _atom_site_label
 _atom_site_symmetry_multiplicity
 _atom_site_fract_x
 _atom_site_fract_y
 _atom_site_fract_z
 _atom_site_occupancy
  Yb  Yb0  1  0.250000  0.868007  0.916254  1
  Yb  Yb1  1  0.750000  0.634363  0.414339  1
  Yb  Yb2  1  0.750000  0.130134  0.083354  1
  Pr  Pr3  1  0.250000  0.368666  0.586619  1
  Tm  Tm4  1  0.250000  0.105976  0.418098  1
  Tm  Tm5  1  0.250000  0.608896  0.081593  1
  Tm  Tm6  1  0.750000  0.892493  0.582237  1
  Tm  Tm7  1  0.750000  0.393649  0.920750  1
  Tm  Tm8  1  0.250000  0.144446  0.800969  1
  Tm  Tm9  1  0.250000  0.649688  0.701315  1
  Tm  Tm10  1  0.750000  0.852796  0.199900  1
  Tm  Tm11  1  0.750000  0.351670  0.297144  1
  Se  Se12  1  0.250000  0.215538  0.237180  1
  Se  Se13  1  0.250000  0.714962  0.262782  1
  Se  Se14  1  0.750000  0.785932  0.763712  1
  Se  Se15  1  0.750000  0.283376  0.738392  1
  Se  Se16  1  0.250000  0.256869  0.976036  1
  Se  Se17  1  0.250000  0.756543  0.523658  1
  Se  Se18  1  0.750000  0.742767  0.023329  1
  Se  Se19  1  0.750000  0.241569  0.474037  1
  Se  Se20  1  0.250000  0.470402  0.384410  1
  Se  Se21  1  0.250000  0.970050  0.114909  1
  Se  Se22  1  0.750000  0.533655  0.615066  1
  Se  Se23  1  0.750000  0.028800  0.884556  1
  Se  Se24  1  0.250000  0.035924  0.618891  1
  Se  Se25  1  0.250000  0.534450  0.879807  1
  Se  Se26  1  0.750000  0.962939  0.380858  1
  Se  Se27  1  0.750000  0.465434  0.119806  1
