# generated using pymatgen
data_Tb4HfIr3
_symmetry_space_group_name_H-M   'P 1'
_cell_length_a   10.88919700
_cell_length_b   10.88919700
_cell_length_c   6.27924900
_cell_angle_alpha   90.00000000
_cell_angle_beta   90.00000000
_cell_angle_gamma   90.00000000
_symmetry_Int_Tables_number   1
_chemical_formula_structural   Tb4HfIr3
_chemical_formula_sum   'Tb16 Hf4 Ir12'
_cell_volume   744.55950946
_cell_formula_units_Z   4
loop_
 _symmetry_equiv_pos_site_id
 _symmetry_equiv_pos_as_xyz
  1  'x, y, z'
loop_
 _atom_site_type_symbol
 _atom_site_label
 _atom_site_symmetry_multiplicity
 _atom_site_fract_x
 _atom_site_fract_y
 _atom_site_fract_z
 _atom_site_occupancy
  Tb  Tb0  1  0.289277  0.085781  0.375689  1
  Tb  Tb1  1  0.289277  0.914219  0.875689  1
  Tb  Tb2  1  0.710723  0.085781  0.875689  1
  Tb  Tb3  1  0.710723  0.914219  0.375689  1
  Tb  Tb4  1  0.585781  0.789277  0.875689  1
  Tb  Tb5  1  0.585781  0.210723  0.375689  1
  Tb  Tb6  1  0.414219  0.789277  0.375689  1
  Tb  Tb7  1  0.414219  0.210723  0.875689  1
  Tb  Tb8  1  0.210723  0.414219  0.624311  1
  Tb  Tb9  1  0.210723  0.585781  0.124311  1
  Tb  Tb10  1  0.789277  0.414219  0.124311  1
  Tb  Tb11  1  0.789277  0.585781  0.624311  1
  Tb  Tb12  1  0.914219  0.710723  0.124311  1
  Tb  Tb13  1  0.914219  0.289277  0.624311  1
  Tb  Tb14  1  0.085781  0.710723  0.624311  1
  Tb  Tb15  1  0.085781  0.289277  0.124311  1
  Hf  Hf16  1  0.000000  0.000000  0.500000  1
  Hf  Hf17  1  0.000000  0.000000  0.000000  1
  Hf  Hf18  1  0.500000  0.500000  0.000000  1
  Hf  Hf19  1  0.500000  0.500000  0.500000  1
  Ir  Ir20  1  0.858070  0.141930  0.250000  1
  Ir  Ir21  1  0.858070  0.858070  0.750000  1
  Ir  Ir22  1  0.141930  0.141930  0.750000  1
  Ir  Ir23  1  0.141930  0.858070  0.250000  1
  Ir  Ir24  1  0.641930  0.358070  0.750000  1
  Ir  Ir25  1  0.641930  0.641930  0.250000  1
  Ir  Ir26  1  0.358070  0.358070  0.250000  1
  Ir  Ir27  1  0.358070  0.641930  0.750000  1
  Ir  Ir28  1  0.500000  0.000000  0.121703  1
  Ir  Ir29  1  0.500000  0.000000  0.621703  1
  Ir  Ir30  1  0.000000  0.500000  0.878297  1
  Ir  Ir31  1  0.000000  0.500000  0.378297  1
