# generated using pymatgen
data_Nd4CrS5O24
_symmetry_space_group_name_H-M   'P 1'
_cell_length_a   6.77240900
_cell_length_b   7.00409713
_cell_length_c   11.46047004
_cell_angle_alpha   105.71710405
_cell_angle_beta   107.18560849
_cell_angle_gamma   89.99999875
_symmetry_Int_Tables_number   1
_chemical_formula_structural   Nd4CrS5O24
_chemical_formula_sum   'Nd4 Cr1 S5 O24'
_cell_volume   498.03646318
_cell_formula_units_Z   1
loop_
 _symmetry_equiv_pos_site_id
 _symmetry_equiv_pos_as_xyz
  1  'x, y, z'
loop_
 _atom_site_type_symbol
 _atom_site_label
 _atom_site_symmetry_multiplicity
 _atom_site_fract_x
 _atom_site_fract_y
 _atom_site_fract_z
 _atom_site_occupancy
  Nd  Nd0  1  0.775570  0.135891  0.266107  1
  Nd  Nd1  1  0.482297  0.635757  0.267781  1
  Nd  Nd2  1  0.509463  0.364109  0.733893  1
  Nd  Nd3  1  0.214518  0.864244  0.732219  1
  Cr  Cr4  1  0.676266  0.250000  0.000000  1
  S  S5  1  0.339436  0.750000  0.000000  1
  S  S6  1  0.997018  0.680990  0.368105  1
  S  S7  1  0.365060  0.180917  0.368849  1
  S  S8  1  0.996210  0.319083  0.631151  1
  S  S9  1  0.628913  0.819010  0.631894  1
  O  O10  1  0.245441  0.614392  0.051818  1
  O  O11  1  0.836756  0.097589  0.056556  1
  O  O12  1  0.596217  0.366148  0.125004  1
  O  O13  1  0.522475  0.862746  0.108814  1
  O  O14  1  0.146625  0.631405  0.295917  1
  O  O15  1  0.142965  0.129115  0.300067  1
  O  O16  1  0.458685  0.307185  0.306788  1
  O  O17  1  0.836176  0.803827  0.306340  1
  O  O18  1  0.481529  0.998732  0.353688  1
  O  O19  1  0.873983  0.497532  0.358144  1
  O  O20  1  0.896326  0.211948  0.497060  1
  O  O21  1  0.599984  0.708372  0.498880  1
  O  O22  1  0.399265  0.288052  0.502940  1
  O  O23  1  0.101103  0.791629  0.501120  1
  O  O24  1  0.127841  0.501267  0.646312  1
  O  O25  1  0.515840  0.002468  0.641857  1
  O  O26  1  0.151899  0.192814  0.693213  1
  O  O27  1  0.529837  0.696174  0.693661  1
  O  O28  1  0.850707  0.868594  0.704082  1
  O  O29  1  0.842899  0.370886  0.699934  1
  O  O30  1  0.471213  0.133852  0.874996  1
  O  O31  1  0.413660  0.637255  0.891186  1
  O  O32  1  0.193622  0.885608  0.948181  1
  O  O33  1  0.780202  0.402411  0.943445  1
