# generated using pymatgen
data_Sc4TcOs6W
_symmetry_space_group_name_H-M   'P 1'
_cell_length_a   5.19750129
_cell_length_b   5.27481547
_cell_length_c   8.71498600
_cell_angle_alpha   90.00000000
_cell_angle_beta   90.00000000
_cell_angle_gamma   121.13782233
_symmetry_Int_Tables_number   1
_chemical_formula_structural   Sc4TcOs6W
_chemical_formula_sum   'Sc4 Tc1 Os6 W1'
_cell_volume   204.50538595
_cell_formula_units_Z   1
loop_
 _symmetry_equiv_pos_site_id
 _symmetry_equiv_pos_as_xyz
  1  'x, y, z'
loop_
 _atom_site_type_symbol
 _atom_site_label
 _atom_site_symmetry_multiplicity
 _atom_site_fract_x
 _atom_site_fract_y
 _atom_site_fract_z
 _atom_site_occupancy
  Sc  Sc0  1  0.337970  0.667794  0.435648  1
  Sc  Sc1  1  0.665873  0.334850  0.566289  1
  Sc  Sc2  1  0.665873  0.334850  0.933711  1
  Sc  Sc3  1  0.337970  0.667794  0.064352  1
  Tc  Tc4  1  0.170390  0.342610  0.750000  1
  Os  Os5  1  0.170397  0.825550  0.750000  1
  Os  Os6  1  0.824018  0.650664  0.250000  1
  Os  Os7  1  0.652496  0.825418  0.750000  1
  Os  Os8  1  0.008630  0.007430  0.997804  1
  Os  Os9  1  0.824527  0.170457  0.250000  1
  Os  Os10  1  0.008630  0.007430  0.502196  1
  W  W11  1  0.333227  0.165153  0.250000  1
