# generated using pymatgen
data_Pr3Mg2CdGe2Au
_symmetry_space_group_name_H-M   'P 1'
_cell_length_a   7.50165088
_cell_length_b   7.50165137
_cell_length_c   4.46585800
_cell_angle_alpha   90.00000000
_cell_angle_beta   90.00000000
_cell_angle_gamma   119.44850490
_symmetry_Int_Tables_number   1
_chemical_formula_structural   Pr3Mg2CdGe2Au
_chemical_formula_sum   'Pr3 Mg2 Cd1 Ge2 Au1'
_cell_volume   218.84469114
_cell_formula_units_Z   1
loop_
 _symmetry_equiv_pos_site_id
 _symmetry_equiv_pos_as_xyz
  1  'x, y, z'
loop_
 _atom_site_type_symbol
 _atom_site_label
 _atom_site_symmetry_multiplicity
 _atom_site_fract_x
 _atom_site_fract_y
 _atom_site_fract_z
 _atom_site_occupancy
  Pr  Pr0  1  0.585620  0.997432  0.000000  1
  Pr  Pr1  1  0.997432  0.585620  0.000000  1
  Pr  Pr2  1  0.417249  0.417249  0.000000  1
  Mg  Mg3  1  0.240802  0.999293  0.500000  1
  Mg  Mg4  1  0.999293  0.240802  0.500000  1
  Cd  Cd5  1  0.753151  0.753151  0.500000  1
  Ge  Ge6  1  0.328729  0.666254  0.500000  1
  Ge  Ge7  1  0.666254  0.328729  0.500000  1
  Au  Au8  1  0.011471  0.011471  0.000000  1
