# generated using pymatgen
data_Tm4MnFe3(Co4P3)4
_symmetry_space_group_name_H-M   'P 1'
_cell_length_a   3.63911600
_cell_length_b   10.22631441
_cell_length_c   11.72632162
_cell_angle_alpha   90.06021178
_cell_angle_beta   90.00000000
_cell_angle_gamma   90.00000000
_symmetry_Int_Tables_number   1
_chemical_formula_structural   Tm4MnFe3(Co4P3)4
_chemical_formula_sum   'Tm4 Mn1 Fe3 Co16 P12'
_cell_volume   436.39182079
_cell_formula_units_Z   1
loop_
 _symmetry_equiv_pos_site_id
 _symmetry_equiv_pos_as_xyz
  1  'x, y, z'
loop_
 _atom_site_type_symbol
 _atom_site_label
 _atom_site_symmetry_multiplicity
 _atom_site_fract_x
 _atom_site_fract_y
 _atom_site_fract_z
 _atom_site_occupancy
  Tm  Tm0  1  0.250000  0.581097  0.703823  1
  Tm  Tm1  1  0.250000  0.919375  0.203112  1
  Tm  Tm2  1  0.750000  0.419096  0.296272  1
  Tm  Tm3  1  0.750000  0.081622  0.796555  1
  Mn  Mn4  1  0.250000  0.711260  0.987345  1
  Fe  Fe5  1  0.250000  0.789510  0.487480  1
  Fe  Fe6  1  0.750000  0.289229  0.012078  1
  Fe  Fe7  1  0.750000  0.210276  0.512634  1
  Co  Co8  1  0.250000  0.406265  0.486715  1
  Co  Co9  1  0.250000  0.093211  0.986723  1
  Co  Co10  1  0.750000  0.593655  0.513410  1
  Co  Co11  1  0.750000  0.906290  0.013014  1
  Co  Co12  1  0.250000  0.221282  0.176798  1
  Co  Co13  1  0.250000  0.278180  0.676669  1
  Co  Co14  1  0.750000  0.778689  0.823549  1
  Co  Co15  1  0.750000  0.721875  0.323053  1
  Co  Co16  1  0.250000  0.881919  0.698542  1
  Co  Co17  1  0.250000  0.617445  0.199137  1
  Co  Co18  1  0.750000  0.117682  0.301453  1
  Co  Co19  1  0.750000  0.382259  0.800899  1
  Co  Co20  1  0.250000  0.465548  0.932790  1
  Co  Co21  1  0.250000  0.033923  0.432843  1
  Co  Co22  1  0.750000  0.533503  0.067913  1
  Co  Co23  1  0.750000  0.966148  0.567362  1
  P  P24  1  0.250000  0.418907  0.113578  1
  P  P25  1  0.250000  0.080710  0.613890  1
  P  P26  1  0.750000  0.580849  0.886749  1
  P  P27  1  0.750000  0.919314  0.386200  1
  P  P28  1  0.250000  0.267869  0.868319  1
  P  P29  1  0.250000  0.231872  0.368136  1
  P  P30  1  0.750000  0.731717  0.131549  1
  P  P31  1  0.750000  0.768199  0.631778  1
  P  P32  1  0.250000  0.601029  0.392005  1
  P  P33  1  0.250000  0.899546  0.891336  1
  P  P34  1  0.750000  0.398688  0.608134  1
  P  P35  1  0.750000  0.101962  0.108158  1
