# generated using pymatgen
data_Dy4Lu4Ga3Co
_symmetry_space_group_name_H-M   'P 1'
_cell_length_a   9.85781900
_cell_length_b   9.85781903
_cell_length_c   6.92979900
_cell_angle_alpha   90.00000000
_cell_angle_beta   90.00000000
_cell_angle_gamma   119.99999655
_symmetry_Int_Tables_number   1
_chemical_formula_structural   Dy4Lu4Ga3Co
_chemical_formula_sum   'Dy8 Lu8 Ga6 Co2'
_cell_volume   583.19389032
_cell_formula_units_Z   2
loop_
 _symmetry_equiv_pos_site_id
 _symmetry_equiv_pos_as_xyz
  1  'x, y, z'
loop_
 _atom_site_type_symbol
 _atom_site_label
 _atom_site_symmetry_multiplicity
 _atom_site_fract_x
 _atom_site_fract_y
 _atom_site_fract_z
 _atom_site_occupancy
  Dy  Dy0  1  0.464257  0.535743  0.208315  1
  Dy  Dy1  1  0.071485  0.535743  0.208315  1
  Dy  Dy2  1  0.464257  0.928515  0.208315  1
  Dy  Dy3  1  0.535743  0.464257  0.708315  1
  Dy  Dy4  1  0.928515  0.464257  0.708315  1
  Dy  Dy5  1  0.535743  0.071485  0.708315  1
  Dy  Dy6  1  0.000000  0.000000  0.231633  1
  Dy  Dy7  1  0.000000  0.000000  0.731633  1
  Lu  Lu8  1  0.173803  0.826197  0.512576  1
  Lu  Lu9  1  0.652394  0.826197  0.512576  1
  Lu  Lu10  1  0.173803  0.347606  0.512576  1
  Lu  Lu11  1  0.826197  0.173803  0.012576  1
  Lu  Lu12  1  0.347606  0.173803  0.012576  1
  Lu  Lu13  1  0.826197  0.652394  0.012576  1
  Lu  Lu14  1  0.333333  0.666667  0.825040  1
  Lu  Lu15  1  0.666667  0.333333  0.325040  1
  Ga  Ga16  1  0.163700  0.836300  0.956849  1
  Ga  Ga17  1  0.672600  0.836300  0.956849  1
  Ga  Ga18  1  0.163700  0.327400  0.956849  1
  Ga  Ga19  1  0.836300  0.163700  0.456849  1
  Ga  Ga20  1  0.327400  0.163700  0.456849  1
  Ga  Ga21  1  0.836300  0.672600  0.456849  1
  Co  Co22  1  0.333333  0.666667  0.447523  1
  Co  Co23  1  0.666667  0.333333  0.947523  1
