# generated using pymatgen
data_BaNaEr(H6Ir)2
_symmetry_space_group_name_H-M   'P 1'
_cell_length_a   5.02227700
_cell_length_b   5.02227808
_cell_length_c   8.40975700
_cell_angle_alpha   90.00000000
_cell_angle_beta   90.00000000
_cell_angle_gamma   119.99998631
_symmetry_Int_Tables_number   1
_chemical_formula_structural   BaNaEr(H6Ir)2
_chemical_formula_sum   'Ba1 Na1 Er1 H12 Ir2'
_cell_volume   183.70270711
_cell_formula_units_Z   1
loop_
 _symmetry_equiv_pos_site_id
 _symmetry_equiv_pos_as_xyz
  1  'x, y, z'
loop_
 _atom_site_type_symbol
 _atom_site_label
 _atom_site_symmetry_multiplicity
 _atom_site_fract_x
 _atom_site_fract_y
 _atom_site_fract_z
 _atom_site_occupancy
  Ba  Ba0  1  0.000000  0.000000  0.034579  1
  Na  Na1  1  0.666667  0.333333  0.360457  1
  Er  Er2  1  0.333333  0.666667  0.615149  1
  H  H3  1  0.173825  0.826175  0.385790  1
  H  H4  1  0.652351  0.826175  0.385790  1
  H  H5  1  0.173825  0.347649  0.385790  1
  H  H6  1  0.827684  0.172316  0.615845  1
  H  H7  1  0.344632  0.172316  0.615845  1
  H  H8  1  0.827684  0.655368  0.615845  1
  H  H9  1  0.508656  0.017311  0.842203  1
  H  H10  1  0.508656  0.491344  0.842203  1
  H  H11  1  0.982689  0.491344  0.842203  1
  H  H12  1  0.486807  0.973616  0.152925  1
  H  H13  1  0.486807  0.513193  0.152925  1
  H  H14  1  0.026384  0.513193  0.152925  1
  Ir  Ir15  1  0.666667  0.333333  0.726332  1
  Ir  Ir16  1  0.333333  0.666667  0.273192  1
