# generated using pymatgen
data_HoLu4Co19(Si5P)2
_symmetry_space_group_name_H-M   'P 1'
_cell_length_a   12.06436800
_cell_length_b   12.09038577
_cell_length_c   3.68565600
_cell_angle_alpha   90.00000000
_cell_angle_beta   90.00000000
_cell_angle_gamma   119.92661384
_symmetry_Int_Tables_number   1
_chemical_formula_structural   HoLu4Co19(Si5P)2
_chemical_formula_sum   'Ho1 Lu4 Co19 Si10 P2'
_cell_volume   465.91945435
_cell_formula_units_Z   1
loop_
 _symmetry_equiv_pos_site_id
 _symmetry_equiv_pos_as_xyz
  1  'x, y, z'
loop_
 _atom_site_type_symbol
 _atom_site_label
 _atom_site_symmetry_multiplicity
 _atom_site_fract_x
 _atom_site_fract_y
 _atom_site_fract_z
 _atom_site_occupancy
  Ho  Ho0  1  0.332727  0.666282  0.500000  1
  Lu  Lu1  1  0.666538  0.333837  0.500000  1
  Lu  Lu2  1  0.184685  0.999733  0.000000  1
  Lu  Lu3  1  0.001082  0.185525  0.000000  1
  Lu  Lu4  1  0.815226  0.814724  0.000000  1
  Co  Co5  1  0.196646  0.371947  0.500000  1
  Co  Co6  1  0.624650  0.820978  0.500000  1
  Co  Co7  1  0.175392  0.803790  0.500000  1
  Co  Co8  1  0.823936  0.626836  0.500000  1
  Co  Co9  1  0.803170  0.179975  0.500000  1
  Co  Co10  1  0.372918  0.196688  0.500000  1
  Co  Co11  1  0.557805  0.000022  0.500000  1
  Co  Co12  1  0.000603  0.557879  0.500000  1
  Co  Co13  1  0.442847  0.441995  0.500000  1
  Co  Co14  1  0.123728  0.478028  0.000000  1
  Co  Co15  1  0.521699  0.644226  0.000000  1
  Co  Co16  1  0.353970  0.876538  0.000000  1
  Co  Co17  1  0.645591  0.520927  0.000000  1
  Co  Co18  1  0.876557  0.355803  0.000000  1
  Co  Co19  1  0.478436  0.124322  0.000000  1
  Co  Co20  1  0.720026  0.000916  0.000000  1
  Co  Co21  1  0.998867  0.722579  0.000000  1
  Co  Co22  1  0.277356  0.276510  0.000000  1
  Co  Co23  1  0.004608  0.000098  0.500000  1
  Si  Si24  1  0.368849  0.000050  0.500000  1
  Si  Si25  1  0.000285  0.369083  0.500000  1
  Si  Si26  1  0.631286  0.630810  0.500000  1
  Si  Si27  1  0.319251  0.477730  0.000000  1
  Si  Si28  1  0.521617  0.840036  0.000000  1
  Si  Si29  1  0.158913  0.680966  0.000000  1
  Si  Si30  1  0.840065  0.521012  0.000000  1
  Si  Si31  1  0.681613  0.161506  0.000000  1
  Si  Si32  1  0.479269  0.318897  0.000000  1
  Si  Si33  1  0.819788  0.000599  0.500000  1
  P  P34  1  0.999091  0.818589  0.500000  1
  P  P35  1  0.180910  0.180563  0.500000  1
