# generated using pymatgen
data_Tm12Co4RhPb
_symmetry_space_group_name_H-M   'P 1'
_cell_length_a   8.19936340
_cell_length_b   8.19936282
_cell_length_c   8.19936356
_cell_angle_alpha   110.86413155
_cell_angle_beta   110.90925311
_cell_angle_gamma   106.67592271
_symmetry_Int_Tables_number   1
_chemical_formula_structural   Tm12Co4RhPb
_chemical_formula_sum   'Tm12 Co4 Rh1 Pb1'
_cell_volume   423.59152185
_cell_formula_units_Z   1
loop_
 _symmetry_equiv_pos_site_id
 _symmetry_equiv_pos_as_xyz
  1  'x, y, z'
loop_
 _atom_site_type_symbol
 _atom_site_label
 _atom_site_symmetry_multiplicity
 _atom_site_fract_x
 _atom_site_fract_y
 _atom_site_fract_z
 _atom_site_occupancy
  Tm  Tm0  1  0.410811  0.214235  0.196576  1
  Tm  Tm1  1  0.589189  0.785765  0.803424  1
  Tm  Tm2  1  0.017660  0.214235  0.803424  1
  Tm  Tm3  1  0.982340  0.785765  0.196576  1
  Tm  Tm4  1  0.184886  0.287676  0.472562  1
  Tm  Tm5  1  0.815114  0.712324  0.527438  1
  Tm  Tm6  1  0.184886  0.712324  0.897210  1
  Tm  Tm7  1  0.815114  0.287676  0.102790  1
  Tm  Tm8  1  0.313108  0.620082  0.306972  1
  Tm  Tm9  1  0.686892  0.379918  0.693028  1
  Tm  Tm10  1  0.313108  0.006136  0.693028  1
  Tm  Tm11  1  0.686892  0.993864  0.306972  1
  Co  Co12  1  0.376027  0.000000  0.376027  1
  Co  Co13  1  0.623973  0.000000  0.623973  1
  Co  Co14  1  0.112175  0.612175  0.500000  1
  Co  Co15  1  0.887825  0.387825  0.500000  1
  Rh  Rh16  1  0.000000  0.000000  0.000000  1
  Pb  Pb17  1  0.500000  0.500000  0.000000  1
