# generated using pymatgen
data_NdDy7Cd2OsPt
_symmetry_space_group_name_H-M   'P 1'
_cell_length_a   9.70437363
_cell_length_b   9.70437331
_cell_length_c   9.75281100
_cell_angle_alpha   59.83474703
_cell_angle_beta   59.83474813
_cell_angle_gamma   59.58759352
_symmetry_Int_Tables_number   1
_chemical_formula_structural   NdDy7Cd2OsPt
_chemical_formula_sum   'Nd2 Dy14 Cd4 Os2 Pt2'
_cell_volume   645.79601863
_cell_formula_units_Z   2
loop_
 _symmetry_equiv_pos_site_id
 _symmetry_equiv_pos_as_xyz
  1  'x, y, z'
loop_
 _atom_site_type_symbol
 _atom_site_label
 _atom_site_symmetry_multiplicity
 _atom_site_fract_x
 _atom_site_fract_y
 _atom_site_fract_z
 _atom_site_occupancy
  Nd  Nd0  1  0.567532  0.567532  0.932468  1
  Nd  Nd1  1  0.935662  0.935662  0.564338  1
  Dy  Dy2  1  0.351050  0.351050  0.348527  1
  Dy  Dy3  1  0.351050  0.351050  0.949372  1
  Dy  Dy4  1  0.343894  0.955799  0.350154  1
  Dy  Dy5  1  0.955799  0.343894  0.350154  1
  Dy  Dy6  1  0.815989  0.186435  0.189926  1
  Dy  Dy7  1  0.186435  0.815989  0.807651  1
  Dy  Dy8  1  0.186435  0.815989  0.189926  1
  Dy  Dy9  1  0.815989  0.186435  0.807651  1
  Dy  Dy10  1  0.189213  0.189213  0.810787  1
  Dy  Dy11  1  0.807342  0.807342  0.192658  1
  Dy  Dy12  1  0.942025  0.551584  0.563766  1
  Dy  Dy13  1  0.551584  0.942025  0.942625  1
  Dy  Dy14  1  0.551584  0.942025  0.563766  1
  Dy  Dy15  1  0.942025  0.551584  0.942625  1
  Cd  Cd16  1  0.580649  0.580649  0.579536  1
  Cd  Cd17  1  0.580649  0.580649  0.259167  1
  Cd  Cd18  1  0.578643  0.256680  0.582340  1
  Cd  Cd19  1  0.256680  0.578643  0.582340  1
  Os  Os20  1  0.146783  0.146783  0.132382  1
  Os  Os21  1  0.146783  0.146783  0.574052  1
  Pt  Pt22  1  0.141101  0.575107  0.141896  1
  Pt  Pt23  1  0.575107  0.141101  0.141896  1
