# generated using pymatgen
data_Pr4YHoTa2O14
_symmetry_space_group_name_H-M   'P 1'
_cell_length_a   6.67386000
_cell_length_b   6.66139812
_cell_length_c   7.71295300
_cell_angle_alpha   90.00000000
_cell_angle_beta   90.00000000
_cell_angle_gamma   108.73427543
_symmetry_Int_Tables_number   1
_chemical_formula_structural   Pr4YHoTa2O14
_chemical_formula_sum   'Pr4 Y1 Ho1 Ta2 O14'
_cell_volume   324.72935038
_cell_formula_units_Z   1
loop_
 _symmetry_equiv_pos_site_id
 _symmetry_equiv_pos_as_xyz
  1  'x, y, z'
loop_
 _atom_site_type_symbol
 _atom_site_label
 _atom_site_symmetry_multiplicity
 _atom_site_fract_x
 _atom_site_fract_y
 _atom_site_fract_z
 _atom_site_occupancy
  Pr  Pr0  1  0.467201  0.468924  0.500284  1
  Pr  Pr1  1  0.467201  0.468924  0.999716  1
  Pr  Pr2  1  0.537759  0.994996  0.750000  1
  Pr  Pr3  1  0.993746  0.537264  0.250000  1
  Y  Y4  1  0.470951  0.996115  0.250000  1
  Ho  Ho5  1  0.996597  0.471884  0.750000  1
  Ta  Ta6  1  0.998708  0.998660  0.500571  1
  Ta  Ta7  1  0.998708  0.998660  0.999429  1
  O  O8  1  0.695426  0.943649  0.460409  1
  O  O9  1  0.953333  0.697855  0.542287  1
  O  O10  1  0.695426  0.943649  0.039591  1
  O  O11  1  0.953333  0.697855  0.957713  1
  O  O12  1  0.321785  0.076383  0.521070  1
  O  O13  1  0.072628  0.321585  0.479885  1
  O  O14  1  0.321785  0.076383  0.978930  1
  O  O15  1  0.072628  0.321585  0.020115  1
  O  O16  1  0.941605  0.059050  0.750000  1
  O  O17  1  0.057661  0.942312  0.250000  1
  O  O18  1  0.353630  0.621883  0.750000  1
  O  O19  1  0.622208  0.355035  0.250000  1
  O  O20  1  0.646238  0.364461  0.750000  1
  O  O21  1  0.361441  0.642885  0.250000  1
