# generated using pymatgen
data_Hf6AlNiTe
_symmetry_space_group_name_H-M   'P 1'
_cell_length_a   3.48566700
_cell_length_b   7.74981591
_cell_length_c   7.74981700
_cell_angle_alpha   119.99999186
_cell_angle_beta   90.00000000
_cell_angle_gamma   90.00000000
_symmetry_Int_Tables_number   1
_chemical_formula_structural   Hf6AlNiTe
_chemical_formula_sum   'Hf6 Al1 Ni1 Te1'
_cell_volume   181.30066444
_cell_formula_units_Z   1
loop_
 _symmetry_equiv_pos_site_id
 _symmetry_equiv_pos_as_xyz
  1  'x, y, z'
loop_
 _atom_site_type_symbol
 _atom_site_label
 _atom_site_symmetry_multiplicity
 _atom_site_fract_x
 _atom_site_fract_y
 _atom_site_fract_z
 _atom_site_occupancy
  Hf  Hf0  1  0.500000  0.749423  0.757595  1
  Hf  Hf1  1  0.500000  0.008172  0.250577  1
  Hf  Hf2  1  0.500000  0.242405  0.991828  1
  Hf  Hf3  1  0.000000  0.397899  0.403311  1
  Hf  Hf4  1  0.000000  0.005412  0.602101  1
  Hf  Hf5  1  0.000000  0.596689  0.994588  1
  Al  Al6  1  0.500000  0.333333  0.666667  1
  Ni  Ni7  1  0.000000  0.000000  0.000000  1
  Te  Te8  1  0.500000  0.666667  0.333333  1
