# generated using pymatgen
data_Ta5NbGa4
_symmetry_space_group_name_H-M   'P 1'
_cell_length_a   6.92067527
_cell_length_b   6.92067527
_cell_length_c   3.51760500
_cell_angle_alpha   90.00000000
_cell_angle_beta   90.00000000
_cell_angle_gamma   89.96776185
_symmetry_Int_Tables_number   1
_chemical_formula_structural   Ta5NbGa4
_chemical_formula_sum   'Ta5 Nb1 Ga4'
_cell_volume   168.47828981
_cell_formula_units_Z   1
loop_
 _symmetry_equiv_pos_site_id
 _symmetry_equiv_pos_as_xyz
  1  'x, y, z'
loop_
 _atom_site_type_symbol
 _atom_site_label
 _atom_site_symmetry_multiplicity
 _atom_site_fract_x
 _atom_site_fract_y
 _atom_site_fract_z
 _atom_site_occupancy
  Ta  Ta0  1  0.324849  0.824799  0.500000  1
  Ta  Ta1  1  0.175163  0.324837  0.500000  1
  Ta  Ta2  1  0.675201  0.175151  0.500000  1
  Ta  Ta3  1  0.499632  0.499766  0.000000  1
  Ta  Ta4  1  0.000234  0.000368  0.000000  1
  Nb  Nb5  1  0.824920  0.675080  0.500000  1
  Ga  Ga6  1  0.125897  0.626129  0.000000  1
  Ga  Ga7  1  0.626244  0.873756  0.000000  1
  Ga  Ga8  1  0.373988  0.126012  0.000000  1
  Ga  Ga9  1  0.873871  0.374103  0.000000  1
