# generated using pymatgen
data_Yb2DyHo(ReB4)4
_symmetry_space_group_name_H-M   'P 1'
_cell_length_a   3.59992200
_cell_length_b   5.97468458
_cell_length_c   11.56078247
_cell_angle_alpha   90.02535381
_cell_angle_beta   90.00000000
_cell_angle_gamma   90.00000000
_symmetry_Int_Tables_number   1
_chemical_formula_structural   Yb2DyHo(ReB4)4
_chemical_formula_sum   'Yb2 Dy1 Ho1 Re4 B16'
_cell_volume   248.65389132
_cell_formula_units_Z   1
loop_
 _symmetry_equiv_pos_site_id
 _symmetry_equiv_pos_as_xyz
  1  'x, y, z'
loop_
 _atom_site_type_symbol
 _atom_site_label
 _atom_site_symmetry_multiplicity
 _atom_site_fract_x
 _atom_site_fract_y
 _atom_site_fract_z
 _atom_site_occupancy
  Yb  Yb0  1  0.000000  0.372206  0.850238  1
  Yb  Yb1  1  0.000000  0.128133  0.349680  1
  Dy  Dy2  1  0.000000  0.627498  0.150416  1
  Ho  Ho3  1  0.000000  0.872578  0.650458  1
  Re  Re4  1  0.000000  0.631897  0.415420  1
  Re  Re5  1  0.000000  0.368518  0.585188  1
  Re  Re6  1  0.000000  0.131305  0.084898  1
  Re  Re7  1  0.000000  0.868211  0.915038  1
  B  B8  1  0.500000  0.977362  0.192484  1
  B  B9  1  0.500000  0.023083  0.807766  1
  B  B10  1  0.500000  0.476876  0.307980  1
  B  B11  1  0.500000  0.522684  0.692831  1
  B  B12  1  0.500000  0.786091  0.315185  1
  B  B13  1  0.500000  0.214357  0.684968  1
  B  B14  1  0.500000  0.285450  0.184856  1
  B  B15  1  0.500000  0.713763  0.815110  1
  B  B16  1  0.500000  0.864612  0.467892  1
  B  B17  1  0.500000  0.135905  0.531636  1
  B  B18  1  0.500000  0.363852  0.031625  1
  B  B19  1  0.500000  0.635497  0.967741  1
  B  B20  1  0.500000  0.887034  0.046955  1
  B  B21  1  0.500000  0.114759  0.952097  1
  B  B22  1  0.500000  0.385132  0.452221  1
  B  B23  1  0.500000  0.613198  0.547316  1
