# generated using pymatgen
data_NaNdB4Ir5
_symmetry_space_group_name_H-M   'P 1'
_cell_length_a   7.51792739
_cell_length_b   6.29258342
_cell_length_c   5.68615132
_cell_angle_alpha   77.56475054
_cell_angle_beta   54.82280395
_cell_angle_gamma   47.61244856
_symmetry_Int_Tables_number   1
_chemical_formula_structural   NaNdB4Ir5
_chemical_formula_sum   'Na1 Nd1 B4 Ir5'
_cell_volume   155.58269713
_cell_formula_units_Z   1
loop_
 _symmetry_equiv_pos_site_id
 _symmetry_equiv_pos_as_xyz
  1  'x, y, z'
loop_
 _atom_site_type_symbol
 _atom_site_label
 _atom_site_symmetry_multiplicity
 _atom_site_fract_x
 _atom_site_fract_y
 _atom_site_fract_z
 _atom_site_occupancy
  Na  Na0  1  0.852004  0.852005  0.147995  1
  Nd  Nd1  1  0.133332  0.133334  0.866667  1
  B  B2  1  0.475458  0.792784  0.207217  1
  B  B3  1  0.211912  0.528967  0.471034  1
  B  B4  1  0.792782  0.475460  0.524541  1
  B  B5  1  0.528965  0.211913  0.788087  1
  Ir  Ir6  1  0.499960  0.499959  0.000041  1
  Ir  Ir7  1  0.252521  0.252520  0.247478  1
  Ir  Ir8  1  0.999959  0.999959  0.500040  1
  Ir  Ir9  1  0.500581  0.500582  0.499419  1
  Ir  Ir10  1  0.752522  0.752520  0.747479  1
