# generated using pymatgen
data_Nd4ZrIr3
_symmetry_space_group_name_H-M   'P 1'
_cell_length_a   11.19023400
_cell_length_b   11.19023400
_cell_length_c   6.37942200
_cell_angle_alpha   90.00000000
_cell_angle_beta   90.00000000
_cell_angle_gamma   90.00000000
_symmetry_Int_Tables_number   1
_chemical_formula_structural   Nd4ZrIr3
_chemical_formula_sum   'Nd16 Zr4 Ir12'
_cell_volume   798.83975197
_cell_formula_units_Z   4
loop_
 _symmetry_equiv_pos_site_id
 _symmetry_equiv_pos_as_xyz
  1  'x, y, z'
loop_
 _atom_site_type_symbol
 _atom_site_label
 _atom_site_symmetry_multiplicity
 _atom_site_fract_x
 _atom_site_fract_y
 _atom_site_fract_z
 _atom_site_occupancy
  Nd  Nd0  1  0.086940  0.287695  0.121515  1
  Nd  Nd1  1  0.787695  0.413060  0.121515  1
  Nd  Nd2  1  0.212305  0.586940  0.121515  1
  Nd  Nd3  1  0.913060  0.712305  0.121515  1
  Nd  Nd4  1  0.413060  0.787695  0.378485  1
  Nd  Nd5  1  0.586940  0.212305  0.378485  1
  Nd  Nd6  1  0.287695  0.086940  0.378485  1
  Nd  Nd7  1  0.712305  0.913060  0.378485  1
  Nd  Nd8  1  0.413060  0.212305  0.878485  1
  Nd  Nd9  1  0.712305  0.086940  0.878485  1
  Nd  Nd10  1  0.287695  0.913060  0.878485  1
  Nd  Nd11  1  0.586940  0.787695  0.878485  1
  Nd  Nd12  1  0.086940  0.712305  0.621515  1
  Nd  Nd13  1  0.913060  0.287695  0.621515  1
  Nd  Nd14  1  0.212305  0.413060  0.621515  1
  Nd  Nd15  1  0.787695  0.586940  0.621515  1
  Zr  Zr16  1  0.000000  0.000000  0.000000  1
  Zr  Zr17  1  0.500000  0.500000  0.000000  1
  Zr  Zr18  1  0.500000  0.500000  0.500000  1
  Zr  Zr19  1  0.000000  0.000000  0.500000  1
  Ir  Ir20  1  0.138810  0.861190  0.250000  1
  Ir  Ir21  1  0.361190  0.361190  0.250000  1
  Ir  Ir22  1  0.638810  0.638810  0.250000  1
  Ir  Ir23  1  0.861190  0.138810  0.250000  1
  Ir  Ir24  1  0.361190  0.638810  0.750000  1
  Ir  Ir25  1  0.138810  0.138810  0.750000  1
  Ir  Ir26  1  0.861190  0.861190  0.750000  1
  Ir  Ir27  1  0.638810  0.361190  0.750000  1
  Ir  Ir28  1  0.000000  0.500000  0.378919  1
  Ir  Ir29  1  0.500000  0.000000  0.121081  1
  Ir  Ir30  1  0.500000  0.000000  0.621081  1
  Ir  Ir31  1  0.000000  0.500000  0.878919  1
