# generated using pymatgen
data_DyY7(ZrIr3)2
_symmetry_space_group_name_H-M   'P 1'
_cell_length_a   10.89108545
_cell_length_b   10.89100900
_cell_length_c   6.28283983
_cell_angle_alpha   90.00000000
_cell_angle_beta   89.94087938
_cell_angle_gamma   90.00000000
_symmetry_Int_Tables_number   1
_chemical_formula_structural   DyY7(ZrIr3)2
_chemical_formula_sum   'Dy2 Y14 Zr4 Ir12'
_cell_volume   745.23808278
_cell_formula_units_Z   2
loop_
 _symmetry_equiv_pos_site_id
 _symmetry_equiv_pos_as_xyz
  1  'x, y, z'
loop_
 _atom_site_type_symbol
 _atom_site_label
 _atom_site_symmetry_multiplicity
 _atom_site_fract_x
 _atom_site_fract_y
 _atom_site_fract_z
 _atom_site_occupancy
  Dy  Dy0  1  0.290087  0.086490  0.374471  1
  Dy  Dy1  1  0.290087  0.913510  0.874471  1
  Y  Y2  1  0.710270  0.086642  0.874150  1
  Y  Y3  1  0.710270  0.913358  0.374150  1
  Y  Y4  1  0.586729  0.789722  0.874103  1
  Y  Y5  1  0.586729  0.210278  0.374103  1
  Y  Y6  1  0.413178  0.789624  0.374033  1
  Y  Y7  1  0.413178  0.210376  0.874033  1
  Y  Y8  1  0.210355  0.413255  0.626006  1
  Y  Y9  1  0.210355  0.586745  0.126006  1
  Y  Y10  1  0.789654  0.413261  0.125908  1
  Y  Y11  1  0.789654  0.586739  0.625908  1
  Y  Y12  1  0.913228  0.710353  0.126065  1
  Y  Y13  1  0.913228  0.289647  0.626065  1
  Y  Y14  1  0.086817  0.710494  0.625834  1
  Y  Y15  1  0.086817  0.289506  0.125834  1
  Zr  Zr16  1  0.000026  0.999905  0.499770  1
  Zr  Zr17  1  0.000026  0.000095  0.999770  1
  Zr  Zr18  1  0.499994  0.499933  0.000172  1
  Zr  Zr19  1  0.499994  0.500067  0.500172  1
  Ir  Ir20  1  0.855991  0.144116  0.250048  1
  Ir  Ir21  1  0.855991  0.855884  0.750048  1
  Ir  Ir22  1  0.144688  0.143632  0.749150  1
  Ir  Ir23  1  0.144688  0.856368  0.249150  1
  Ir  Ir24  1  0.644053  0.355926  0.749937  1
  Ir  Ir25  1  0.644053  0.644074  0.249937  1
  Ir  Ir26  1  0.355875  0.355519  0.250349  1
  Ir  Ir27  1  0.355875  0.644481  0.750349  1
  Ir  Ir28  1  0.499004  0.999986  0.120859  1
  Ir  Ir29  1  0.499004  0.000014  0.620859  1
  Ir  Ir30  1  0.000053  0.500005  0.879142  1
  Ir  Ir31  1  0.000053  0.499995  0.379142  1
