# generated using pymatgen
data_DyTm5Al17Si7Ru8
_symmetry_space_group_name_H-M   'P 1'
_cell_length_a   8.61387947
_cell_length_b   8.62554026
_cell_length_c   9.43945500
_cell_angle_alpha   90.00000000
_cell_angle_beta   90.00000000
_cell_angle_gamma   119.88162098
_symmetry_Int_Tables_number   1
_chemical_formula_structural   DyTm5Al17Si7Ru8
_chemical_formula_sum   'Dy1 Tm5 Al17 Si7 Ru8'
_cell_volume   608.10625266
_cell_formula_units_Z   1
loop_
 _symmetry_equiv_pos_site_id
 _symmetry_equiv_pos_as_xyz
  1  'x, y, z'
loop_
 _atom_site_type_symbol
 _atom_site_label
 _atom_site_symmetry_multiplicity
 _atom_site_fract_x
 _atom_site_fract_y
 _atom_site_fract_z
 _atom_site_occupancy
  Dy  Dy0  1  0.808665  0.194764  0.750000  1
  Tm  Tm1  1  0.193334  0.806751  0.250000  1
  Tm  Tm2  1  0.389925  0.197252  0.750000  1
  Tm  Tm3  1  0.611102  0.802506  0.250000  1
  Tm  Tm4  1  0.803834  0.608667  0.750000  1
  Tm  Tm5  1  0.197843  0.389799  0.250000  1
  Al  Al6  1  0.836085  0.164944  0.419006  1
  Al  Al7  1  0.165036  0.836632  0.581094  1
  Al  Al8  1  0.328239  0.164021  0.420292  1
  Al  Al9  1  0.165036  0.836632  0.918906  1
  Al  Al10  1  0.670257  0.835476  0.579607  1
  Al  Al11  1  0.836085  0.164944  0.080994  1
  Al  Al12  1  0.836287  0.671320  0.421417  1
  Al  Al13  1  0.670257  0.835476  0.920393  1
  Al  Al14  1  0.165120  0.329200  0.579973  1
  Al  Al15  1  0.328239  0.164021  0.079708  1
  Al  Al16  1  0.165120  0.329200  0.920027  1
  Al  Al17  1  0.836287  0.671320  0.078583  1
  Al  Al18  1  0.875204  0.440411  0.250000  1
  Al  Al19  1  0.435494  0.871454  0.750000  1
  Al  Al20  1  0.560451  0.126238  0.250000  1
  Al  Al21  1  0.001453  0.998058  0.750000  1
  Al  Al22  1  0.000134  0.001117  0.250000  1
  Si  Si23  1  0.666151  0.331206  0.960643  1
  Si  Si24  1  0.333285  0.669334  0.041966  1
  Si  Si25  1  0.333285  0.669334  0.458034  1
  Si  Si26  1  0.666151  0.331206  0.539357  1
  Si  Si27  1  0.435971  0.559066  0.750000  1
  Si  Si28  1  0.562714  0.437314  0.250000  1
  Si  Si29  1  0.124605  0.560428  0.750000  1
  Ru  Ru30  1  0.498957  0.500328  0.999333  1
  Ru  Ru31  1  0.001806  0.501436  0.994238  1
  Ru  Ru32  1  0.498957  0.500328  0.500667  1
  Ru  Ru33  1  0.498805  0.999092  0.000028  1
  Ru  Ru34  1  0.001806  0.501436  0.505762  1
  Ru  Ru35  1  0.498805  0.999092  0.499972  1
  Ru  Ru36  1  0.999607  0.000098  0.000145  1
  Ru  Ru37  1  0.999607  0.000098  0.499855  1
