# generated using pymatgen
data_Ho3TmIn2HgAu3
_symmetry_space_group_name_H-M   'P 1'
_cell_length_a   8.03862749
_cell_length_b   8.03862791
_cell_length_c   3.71611500
_cell_angle_alpha   90.00000000
_cell_angle_beta   90.00000000
_cell_angle_gamma   90.05989296
_symmetry_Int_Tables_number   1
_chemical_formula_structural   Ho3TmIn2HgAu3
_chemical_formula_sum   'Ho3 Tm1 In2 Hg1 Au3'
_cell_volume   240.13349330
_cell_formula_units_Z   1
loop_
 _symmetry_equiv_pos_site_id
 _symmetry_equiv_pos_as_xyz
  1  'x, y, z'
loop_
 _atom_site_type_symbol
 _atom_site_label
 _atom_site_symmetry_multiplicity
 _atom_site_fract_x
 _atom_site_fract_y
 _atom_site_fract_z
 _atom_site_occupancy
  Ho  Ho0  1  0.340173  0.840173  0.500000  1
  Ho  Ho1  1  0.164493  0.318368  0.500000  1
  Ho  Ho2  1  0.818368  0.664493  0.500000  1
  Tm  Tm3  1  0.671131  0.171131  0.500000  1
  In  In4  1  0.502614  0.497444  0.000000  1
  In  In5  1  0.997444  0.002614  0.000000  1
  Hg  Hg6  1  0.129486  0.629486  0.000000  1
  Au  Au7  1  0.870484  0.370484  0.000000  1
  Au  Au8  1  0.631516  0.874291  0.000000  1
  Au  Au9  1  0.374291  0.131516  0.000000  1
