# generated using pymatgen
data_Li2P2OsRh
_symmetry_space_group_name_H-M   'P 1'
_cell_length_a   3.82462200
_cell_length_b   6.62266858
_cell_length_c   6.74108333
_cell_angle_alpha   89.97994595
_cell_angle_beta   90.00000000
_cell_angle_gamma   90.00000000
_symmetry_Int_Tables_number   1
_chemical_formula_structural   Li2P2OsRh
_chemical_formula_sum   'Li4 P4 Os2 Rh2'
_cell_volume   170.74626411
_cell_formula_units_Z   2
loop_
 _symmetry_equiv_pos_site_id
 _symmetry_equiv_pos_as_xyz
  1  'x, y, z'
loop_
 _atom_site_type_symbol
 _atom_site_label
 _atom_site_symmetry_multiplicity
 _atom_site_fract_x
 _atom_site_fract_y
 _atom_site_fract_z
 _atom_site_occupancy
  Li  Li0  1  0.250000  0.518194  0.162361  1
  Li  Li1  1  0.750000  0.481806  0.837639  1
  Li  Li2  1  0.750000  0.975505  0.654936  1
  Li  Li3  1  0.250000  0.024495  0.345064  1
  P  P4  1  0.250000  0.787458  0.875196  1
  P  P5  1  0.750000  0.212542  0.124804  1
  P  P6  1  0.750000  0.708338  0.363979  1
  P  P7  1  0.250000  0.291662  0.636021  1
  Os  Os8  1  0.750000  0.859263  0.060925  1
  Os  Os9  1  0.250000  0.140737  0.939075  1
  Rh  Rh10  1  0.250000  0.646492  0.552226  1
  Rh  Rh11  1  0.750000  0.353508  0.447774  1
