# generated using pymatgen
data_Tb3Tm2Be4P8Ir19
_symmetry_space_group_name_H-M   'P 1'
_cell_length_a   12.63235407
_cell_length_b   12.53022218
_cell_length_c   3.94472000
_cell_angle_alpha   90.00000000
_cell_angle_beta   90.00000000
_cell_angle_gamma   120.03595747
_symmetry_Int_Tables_number   1
_chemical_formula_structural   Tb3Tm2Be4P8Ir19
_chemical_formula_sum   'Tb3 Tm2 Be4 P8 Ir19'
_cell_volume   540.54568238
_cell_formula_units_Z   1
loop_
 _symmetry_equiv_pos_site_id
 _symmetry_equiv_pos_as_xyz
  1  'x, y, z'
loop_
 _atom_site_type_symbol
 _atom_site_label
 _atom_site_symmetry_multiplicity
 _atom_site_fract_x
 _atom_site_fract_y
 _atom_site_fract_z
 _atom_site_occupancy
  Tb  Tb0  1  0.333950  0.666823  0.500000  1
  Tb  Tb1  1  0.183599  0.191105  0.000000  1
  Tb  Tb2  1  0.808913  0.999816  0.000000  1
  Tm  Tm3  1  0.677428  0.331490  0.500000  1
  Tm  Tm4  1  0.005152  0.815133  0.000000  1
  Be  Be5  1  0.314326  0.836066  0.000000  1
  Be  Be6  1  0.163769  0.477449  0.000000  1
  Be  Be7  1  0.521909  0.684731  0.000000  1
  Be  Be8  1  0.830530  0.308068  0.000000  1
  P  P9  1  0.485349  0.176813  0.000000  1
  P  P10  1  0.697501  0.517241  0.000000  1
  P  P11  1  0.361882  0.374641  0.500000  1
  P  P12  1  0.625838  0.993279  0.500000  1
  P  P13  1  0.007522  0.631737  0.500000  1
  P  P14  1  0.817954  0.819264  0.500000  1
  P  P15  1  0.181813  0.001899  0.500000  1
  P  P16  1  0.995409  0.180974  0.500000  1
  Ir  Ir17  1  0.193748  0.820531  0.500000  1
  Ir  Ir18  1  0.177264  0.376192  0.500000  1
  Ir  Ir19  1  0.624349  0.804310  0.500000  1
  Ir  Ir20  1  0.810757  0.188222  0.500000  1
  Ir  Ir21  1  0.378514  0.190617  0.500000  1
  Ir  Ir22  1  0.809166  0.623030  0.500000  1
  Ir  Ir23  1  0.126640  0.641346  0.000000  1
  Ir  Ir24  1  0.357152  0.483344  0.000000  1
  Ir  Ir25  1  0.513137  0.869544  0.000000  1
  Ir  Ir26  1  0.633419  0.128375  0.000000  1
  Ir  Ir27  1  0.500981  0.368491  0.000000  1
  Ir  Ir28  1  0.874876  0.509849  0.000000  1
  Ir  Ir29  1  0.546938  0.554165  0.500000  1
  Ir  Ir30  1  0.443102  0.991149  0.500000  1
  Ir  Ir31  1  0.995551  0.443454  0.500000  1
  Ir  Ir32  1  0.719173  0.714117  0.000000  1
  Ir  Ir33  1  0.286879  0.006754  0.000000  1
  Ir  Ir34  1  0.995695  0.281066  0.000000  1
  Ir  Ir35  1  0.999808  0.998912  0.500000  1
