# generated using pymatgen
data_Y3Ho3Th2(CdIr)2
_symmetry_space_group_name_H-M   'P 1'
_cell_length_a   9.74553125
_cell_length_b   9.74553111
_cell_length_c   9.74553200
_cell_angle_alpha   60.00000378
_cell_angle_beta   60.00000425
_cell_angle_gamma   60.00000040
_symmetry_Int_Tables_number   1
_chemical_formula_structural   Y3Ho3Th2(CdIr)2
_chemical_formula_sum   'Y6 Ho6 Th4 Cd4 Ir4'
_cell_volume   654.48788611
_cell_formula_units_Z   2
loop_
 _symmetry_equiv_pos_site_id
 _symmetry_equiv_pos_as_xyz
  1  'x, y, z'
loop_
 _atom_site_type_symbol
 _atom_site_label
 _atom_site_symmetry_multiplicity
 _atom_site_fract_x
 _atom_site_fract_y
 _atom_site_fract_z
 _atom_site_occupancy
  Y  Y0  1  0.935899  0.564101  0.564101  1
  Y  Y1  1  0.564101  0.935899  0.935899  1
  Y  Y2  1  0.564101  0.935899  0.564101  1
  Y  Y3  1  0.935899  0.564101  0.935899  1
  Y  Y4  1  0.564101  0.564101  0.935899  1
  Y  Y5  1  0.935899  0.935899  0.564101  1
  Ho  Ho6  1  0.812509  0.187491  0.187491  1
  Ho  Ho7  1  0.187491  0.812509  0.812509  1
  Ho  Ho8  1  0.187491  0.812509  0.187491  1
  Ho  Ho9  1  0.812509  0.187491  0.812509  1
  Ho  Ho10  1  0.187491  0.187491  0.812509  1
  Ho  Ho11  1  0.812509  0.812509  0.187491  1
  Th  Th12  1  0.349770  0.349770  0.349770  1
  Th  Th13  1  0.349770  0.349770  0.950690  1
  Th  Th14  1  0.349770  0.950690  0.349770  1
  Th  Th15  1  0.950690  0.349770  0.349770  1
  Cd  Cd16  1  0.582795  0.582795  0.582795  1
  Cd  Cd17  1  0.582795  0.582795  0.251614  1
  Cd  Cd18  1  0.582795  0.251614  0.582795  1
  Cd  Cd19  1  0.251614  0.582795  0.582795  1
  Ir  Ir20  1  0.143061  0.143061  0.143061  1
  Ir  Ir21  1  0.143061  0.143061  0.570815  1
  Ir  Ir22  1  0.143061  0.570815  0.143061  1
  Ir  Ir23  1  0.570815  0.143061  0.143061  1
