# generated using pymatgen
data_LiTb(Pr4Si3)2
_symmetry_space_group_name_H-M   'P 1'
_cell_length_a   7.70891481
_cell_length_b   7.70891249
_cell_length_c   8.94739600
_cell_angle_alpha   115.51776023
_cell_angle_beta   115.51776023
_cell_angle_gamma   90.00000225
_symmetry_Int_Tables_number   1
_chemical_formula_structural   LiTb(Pr4Si3)2
_chemical_formula_sum   'Li1 Tb1 Pr8 Si6'
_cell_volume   421.65045266
_cell_formula_units_Z   1
loop_
 _symmetry_equiv_pos_site_id
 _symmetry_equiv_pos_as_xyz
  1  'x, y, z'
loop_
 _atom_site_type_symbol
 _atom_site_label
 _atom_site_symmetry_multiplicity
 _atom_site_fract_x
 _atom_site_fract_y
 _atom_site_fract_z
 _atom_site_occupancy
  Li  Li0  1  0.500000  0.500000  0.000000  1
  Tb  Tb1  1  0.000000  0.000000  0.000000  1
  Pr  Pr2  1  0.958253  0.816512  0.288128  1
  Pr  Pr3  1  0.329874  0.471616  0.288128  1
  Pr  Pr4  1  0.816512  0.329874  0.288128  1
  Pr  Pr5  1  0.471616  0.958253  0.288128  1
  Pr  Pr6  1  0.041747  0.183488  0.711872  1
  Pr  Pr7  1  0.670126  0.528384  0.711872  1
  Pr  Pr8  1  0.183488  0.670126  0.711872  1
  Pr  Pr9  1  0.528384  0.041747  0.711872  1
  Si  Si10  1  0.767055  0.767055  0.534110  1
  Si  Si11  1  0.232945  0.232945  0.465890  1
  Si  Si12  1  0.617900  0.889539  0.000000  1
  Si  Si13  1  0.382100  0.110461  0.000000  1
  Si  Si14  1  0.889539  0.382100  0.000000  1
  Si  Si15  1  0.110461  0.617900  0.000000  1
