# generated using pymatgen
data_Nd4TmIrPt2
_symmetry_space_group_name_H-M   'P 1'
_cell_length_a   11.33603300
_cell_length_b   11.33603300
_cell_length_c   6.48157000
_cell_angle_alpha   90.00000000
_cell_angle_beta   90.00000000
_cell_angle_gamma   90.00000000
_symmetry_Int_Tables_number   1
_chemical_formula_structural   Nd4TmIrPt2
_chemical_formula_sum   'Nd16 Tm4 Ir4 Pt8'
_cell_volume   832.91832813
_cell_formula_units_Z   4
loop_
 _symmetry_equiv_pos_site_id
 _symmetry_equiv_pos_as_xyz
  1  'x, y, z'
loop_
 _atom_site_type_symbol
 _atom_site_label
 _atom_site_symmetry_multiplicity
 _atom_site_fract_x
 _atom_site_fract_y
 _atom_site_fract_z
 _atom_site_occupancy
  Nd  Nd0  1  0.291535  0.087595  0.376924  1
  Nd  Nd1  1  0.291535  0.912405  0.876924  1
  Nd  Nd2  1  0.708465  0.087595  0.876924  1
  Nd  Nd3  1  0.708465  0.912405  0.376924  1
  Nd  Nd4  1  0.587595  0.791535  0.876924  1
  Nd  Nd5  1  0.587595  0.208465  0.376924  1
  Nd  Nd6  1  0.412405  0.791535  0.376924  1
  Nd  Nd7  1  0.412405  0.208465  0.876924  1
  Nd  Nd8  1  0.208465  0.412405  0.623076  1
  Nd  Nd9  1  0.208465  0.587595  0.123076  1
  Nd  Nd10  1  0.791535  0.412405  0.123076  1
  Nd  Nd11  1  0.791535  0.587595  0.623076  1
  Nd  Nd12  1  0.912405  0.708465  0.123076  1
  Nd  Nd13  1  0.912405  0.291535  0.623076  1
  Nd  Nd14  1  0.087595  0.708465  0.623076  1
  Nd  Nd15  1  0.087595  0.291535  0.123076  1
  Tm  Tm16  1  0.000000  0.000000  0.500000  1
  Tm  Tm17  1  0.000000  0.000000  0.000000  1
  Tm  Tm18  1  0.500000  0.500000  0.000000  1
  Tm  Tm19  1  0.500000  0.500000  0.500000  1
  Ir  Ir20  1  0.500000  0.000000  0.118461  1
  Ir  Ir21  1  0.500000  0.000000  0.618461  1
  Ir  Ir22  1  0.000000  0.500000  0.881539  1
  Ir  Ir23  1  0.000000  0.500000  0.381539  1
  Pt  Pt24  1  0.853620  0.146380  0.250000  1
  Pt  Pt25  1  0.853620  0.853620  0.750000  1
  Pt  Pt26  1  0.146380  0.146380  0.750000  1
  Pt  Pt27  1  0.146380  0.853620  0.250000  1
  Pt  Pt28  1  0.646380  0.353620  0.750000  1
  Pt  Pt29  1  0.646380  0.646380  0.250000  1
  Pt  Pt30  1  0.353620  0.353620  0.250000  1
  Pt  Pt31  1  0.353620  0.646380  0.750000  1
