# generated using pymatgen
data_Na2YbP2O7
_symmetry_space_group_name_H-M   'P 1'
_cell_length_a   5.43622486
_cell_length_b   7.12925225
_cell_length_c   8.88090944
_cell_angle_alpha   69.44013862
_cell_angle_beta   89.14699527
_cell_angle_gamma   88.82838616
_symmetry_Int_Tables_number   1
_chemical_formula_structural   Na2YbP2O7
_chemical_formula_sum   'Na4 Yb2 P4 O14'
_cell_volume   322.18923222
_cell_formula_units_Z   2
loop_
 _symmetry_equiv_pos_site_id
 _symmetry_equiv_pos_as_xyz
  1  'x, y, z'
loop_
 _atom_site_type_symbol
 _atom_site_label
 _atom_site_symmetry_multiplicity
 _atom_site_fract_x
 _atom_site_fract_y
 _atom_site_fract_z
 _atom_site_occupancy
  Na  Na0  1  0.234617  0.861514  0.549304  1
  Na  Na1  1  0.732515  0.209126  0.018134  1
  Na  Na2  1  0.765383  0.138486  0.450696  1
  Na  Na3  1  0.267485  0.790874  0.981866  1
  Yb  Yb4  1  0.232050  0.245283  0.720153  1
  Yb  Yb5  1  0.767950  0.754717  0.279847  1
  P  P6  1  0.247693  0.116129  0.173670  1
  P  P7  1  0.752307  0.883871  0.826330  1
  P  P8  1  0.293401  0.432693  0.310207  1
  P  P9  1  0.706599  0.567307  0.689793  1
  O  O10  1  0.541067  0.999286  0.717757  1
  O  O11  1  0.723465  0.872138  0.001245  1
  O  O12  1  0.155458  0.633809  0.248352  1
  O  O13  1  0.727909  0.648369  0.842481  1
  O  O14  1  0.009056  0.950406  0.756919  1
  O  O15  1  0.430382  0.545500  0.669478  1
  O  O16  1  0.826687  0.724298  0.543641  1
  O  O17  1  0.569618  0.454500  0.330522  1
  O  O18  1  0.844542  0.366191  0.751648  1
  O  O19  1  0.990944  0.049594  0.243081  1
  O  O20  1  0.272091  0.351631  0.157519  1
  O  O21  1  0.276535  0.127862  0.998755  1
  O  O22  1  0.458933  0.000714  0.282243  1
  O  O23  1  0.173313  0.275702  0.456359  1
