# generated using pymatgen
data_Pr6AlInSiSe14
_symmetry_space_group_name_H-M   'P 1'
_cell_length_a   10.70915200
_cell_length_b   10.70915241
_cell_length_c   6.18891500
_cell_angle_alpha   90.00000000
_cell_angle_beta   90.00000000
_cell_angle_gamma   120.00001645
_symmetry_Int_Tables_number   1
_chemical_formula_structural   Pr6AlInSiSe14
_chemical_formula_sum   'Pr6 Al1 In1 Si1 Se14'
_cell_volume   614.68874291
_cell_formula_units_Z   1
loop_
 _symmetry_equiv_pos_site_id
 _symmetry_equiv_pos_as_xyz
  1  'x, y, z'
loop_
 _atom_site_type_symbol
 _atom_site_label
 _atom_site_symmetry_multiplicity
 _atom_site_fract_x
 _atom_site_fract_y
 _atom_site_fract_z
 _atom_site_occupancy
  Pr  Pr0  1  0.799897  0.697630  0.527518  1
  Pr  Pr1  1  0.897733  0.200103  0.527518  1
  Pr  Pr2  1  0.302370  0.102267  0.527518  1
  Pr  Pr3  1  0.525063  0.964591  0.043637  1
  Pr  Pr4  1  0.439527  0.474937  0.043637  1
  Pr  Pr5  1  0.035409  0.560473  0.043637  1
  Al  Al6  1  0.333333  0.666667  0.451175  1
  In  In7  1  0.666667  0.333333  0.314744  1
  Si  Si8  1  0.000000  0.000000  0.944635  1
  Se  Se9  1  0.000000  0.000000  0.313044  1
  Se  Se10  1  0.333333  0.666667  0.832974  1
  Se  Se11  1  0.081031  0.855015  0.799269  1
  Se  Se12  1  0.773983  0.918969  0.799269  1
  Se  Se13  1  0.144985  0.226017  0.799269  1
  Se  Se14  1  0.243230  0.814711  0.302943  1
  Se  Se15  1  0.571480  0.756770  0.302943  1
  Se  Se16  1  0.185289  0.428520  0.302943  1
  Se  Se17  1  0.922856  0.495774  0.551555  1
  Se  Se18  1  0.572920  0.077144  0.551555  1
  Se  Se19  1  0.504226  0.427080  0.551555  1
  Se  Se20  1  0.415564  0.180548  0.070223  1
  Se  Se21  1  0.764984  0.584436  0.070223  1
  Se  Se22  1  0.819452  0.235016  0.070223  1
