# generated using pymatgen
data_HfZr4Sc(SiRu)6
_symmetry_space_group_name_H-M   'P 1'
_cell_length_a   7.66730317
_cell_length_b   7.65329729
_cell_length_c   7.66730456
_cell_angle_alpha   127.79496513
_cell_angle_beta   122.63441710
_cell_angle_gamma   81.29939491
_symmetry_Int_Tables_number   1
_chemical_formula_structural   HfZr4Sc(SiRu)6
_chemical_formula_sum   'Hf1 Zr4 Sc1 Si6 Ru6'
_cell_volume   288.33942874
_cell_formula_units_Z   1
loop_
 _symmetry_equiv_pos_site_id
 _symmetry_equiv_pos_as_xyz
  1  'x, y, z'
loop_
 _atom_site_type_symbol
 _atom_site_label
 _atom_site_symmetry_multiplicity
 _atom_site_fract_x
 _atom_site_fract_y
 _atom_site_fract_z
 _atom_site_occupancy
  Hf  Hf0  1  0.949962  0.653508  0.203547  1
  Zr  Zr1  1  0.535733  0.256501  0.220769  1
  Zr  Zr2  1  0.748483  0.837378  0.588895  1
  Zr  Zr3  1  0.252198  0.839339  0.087142  1
  Zr  Zr4  1  0.050133  0.256064  0.705930  1
  Sc  Sc5  1  0.463188  0.682521  0.719333  1
  Si  Si6  1  0.265972  0.267394  0.501423  1
  Si  Si7  1  0.733481  0.232370  0.998890  1
  Si  Si8  1  0.329306  0.588539  0.253384  1
  Si  Si9  1  0.671557  0.919800  0.255300  1
  Si  Si10  1  0.164499  0.919800  0.748243  1
  Si  Si11  1  0.835155  0.588539  0.759233  1
  Ru  Ru12  1  0.503289  0.498054  0.001087  1
  Ru  Ru13  1  0.996969  0.498054  0.494766  1
  Ru  Ru14  1  0.104175  0.253465  0.112184  1
  Ru  Ru15  1  0.895354  0.007405  0.148141  1
  Ru  Ru16  1  0.359264  0.007405  0.612051  1
  Ru  Ru17  1  0.641281  0.253465  0.649291  1
