# generated using pymatgen
data_Ho11Lu2Th3(InRh)4
_symmetry_space_group_name_H-M   'P 1'
_cell_length_a   9.69617179
_cell_length_b   9.70697179
_cell_length_c   9.71947701
_cell_angle_alpha   59.95757838
_cell_angle_beta   59.91936204
_cell_angle_gamma   59.99082598
_symmetry_Int_Tables_number   1
_chemical_formula_structural   Ho11Lu2Th3(InRh)4
_chemical_formula_sum   'Ho11 Lu2 Th3 In4 Rh4'
_cell_volume   646.21536064
_cell_formula_units_Z   1
loop_
 _symmetry_equiv_pos_site_id
 _symmetry_equiv_pos_as_xyz
  1  'x, y, z'
loop_
 _atom_site_type_symbol
 _atom_site_label
 _atom_site_symmetry_multiplicity
 _atom_site_fract_x
 _atom_site_fract_y
 _atom_site_fract_z
 _atom_site_occupancy
  Ho  Ho0  1  0.195557  0.601592  0.601420  1
  Ho  Ho1  1  0.061806  0.439903  0.439196  1
  Ho  Ho2  1  0.438881  0.061827  0.061341  1
  Ho  Ho3  1  0.438868  0.061840  0.437949  1
  Ho  Ho4  1  0.061793  0.439898  0.059126  1
  Ho  Ho5  1  0.438951  0.438016  0.061521  1
  Ho  Ho6  1  0.062008  0.059149  0.439425  1
  Ho  Ho7  1  0.184916  0.814150  0.813908  1
  Ho  Ho8  1  0.814462  0.184927  0.185851  1
  Ho  Ho9  1  0.814466  0.184919  0.814753  1
  Ho  Ho10  1  0.184902  0.814144  0.187030  1
  Lu  Lu11  1  0.813338  0.814406  0.186121  1
  Lu  Lu12  1  0.187023  0.188329  0.812315  1
  Th  Th13  1  0.596478  0.598947  0.599123  1
  Th  Th14  1  0.596489  0.598948  0.205436  1
  Th  Th15  1  0.596078  0.204400  0.599764  1
  In  In16  1  0.836678  0.833276  0.834190  1
  In  In17  1  0.836667  0.833285  0.495872  1
  In  In18  1  0.836726  0.497318  0.832969  1
  In  In19  1  0.497109  0.834832  0.834024  1
  Rh  Rh20  1  0.395818  0.390648  0.393011  1
  Rh  Rh21  1  0.395830  0.390655  0.820521  1
  Rh  Rh22  1  0.396192  0.820584  0.391619  1
  Rh  Rh23  1  0.818965  0.394010  0.393513  1
