# generated using pymatgen
data_Lu5Sc3Ru4
_symmetry_space_group_name_H-M   'P 1'
_cell_length_a   4.08551900
_cell_length_b   7.27360873
_cell_length_c   8.64317741
_cell_angle_alpha   89.66348112
_cell_angle_beta   90.00000000
_cell_angle_gamma   90.00000000
_symmetry_Int_Tables_number   1
_chemical_formula_structural   Lu5Sc3Ru4
_chemical_formula_sum   'Lu5 Sc3 Ru4'
_cell_volume   256.84026348
_cell_formula_units_Z   1
loop_
 _symmetry_equiv_pos_site_id
 _symmetry_equiv_pos_as_xyz
  1  'x, y, z'
loop_
 _atom_site_type_symbol
 _atom_site_label
 _atom_site_symmetry_multiplicity
 _atom_site_fract_x
 _atom_site_fract_y
 _atom_site_fract_z
 _atom_site_occupancy
  Lu  Lu0  1  0.750000  0.647993  0.437545  1
  Lu  Lu1  1  0.250000  0.471586  0.165489  1
  Lu  Lu2  1  0.250000  0.983815  0.327515  1
  Lu  Lu3  1  0.750000  0.527260  0.828923  1
  Lu  Lu4  1  0.750000  0.024032  0.674013  1
  Sc  Sc5  1  0.250000  0.855033  0.940723  1
  Sc  Sc6  1  0.250000  0.351397  0.562059  1
  Sc  Sc7  1  0.750000  0.144055  0.057717  1
  Ru  Ru8  1  0.250000  0.235597  0.874915  1
  Ru  Ru9  1  0.250000  0.735139  0.635026  1
  Ru  Ru10  1  0.750000  0.763964  0.122264  1
  Ru  Ru11  1  0.750000  0.260130  0.373811  1
