# generated using pymatgen
data_La8Nd12Si15P
_symmetry_space_group_name_H-M   'P 1'
_cell_length_a   7.92228845
_cell_length_b   7.92690312
_cell_length_c   15.29888867
_cell_angle_alpha   90.01818508
_cell_angle_beta   89.84271811
_cell_angle_gamma   90.00860888
_symmetry_Int_Tables_number   1
_chemical_formula_structural   La8Nd12Si15P
_chemical_formula_sum   'La8 Nd12 Si15 P1'
_cell_volume   960.75448997
_cell_formula_units_Z   1
loop_
 _symmetry_equiv_pos_site_id
 _symmetry_equiv_pos_as_xyz
  1  'x, y, z'
loop_
 _atom_site_type_symbol
 _atom_site_label
 _atom_site_symmetry_multiplicity
 _atom_site_fract_x
 _atom_site_fract_y
 _atom_site_fract_z
 _atom_site_occupancy
  La  La0  1  0.987336  0.623040  0.052560  1
  La  La1  1  0.014100  0.378823  0.550763  1
  La  La2  1  0.622707  0.987196  0.947820  1
  La  La3  1  0.123023  0.513047  0.801476  1
  La  La4  1  0.877827  0.489220  0.303490  1
  La  La5  1  0.512462  0.122979  0.198515  1
  La  La6  1  0.486752  0.877226  0.697525  1
  La  La7  1  0.375774  0.012229  0.448051  1
  Nd  Nd8  1  0.370116  0.483254  0.374930  1
  Nd  Nd9  1  0.875404  0.013268  0.377953  1
  Nd  Nd10  1  0.981696  0.127698  0.124056  1
  Nd  Nd11  1  0.020134  0.871297  0.621692  1
  Nd  Nd12  1  0.627570  0.518053  0.873340  1
  Nd  Nd13  1  0.480940  0.372299  0.625268  1
  Nd  Nd14  1  0.517421  0.628016  0.126908  1
  Nd  Nd15  1  0.127259  0.981447  0.876289  1
  Nd  Nd16  1  0.690380  0.691532  0.499562  1
  Nd  Nd17  1  0.809664  0.191264  0.749567  1
  Nd  Nd18  1  0.190472  0.810024  0.251193  1
  Nd  Nd19  1  0.309251  0.309524  0.000436  1
  Si  Si20  1  0.920641  0.286422  0.939386  1
  Si  Si21  1  0.715907  0.079914  0.559914  1
  Si  Si22  1  0.213095  0.421726  0.190203  1
  Si  Si23  1  0.788002  0.577752  0.688931  1
  Si  Si24  1  0.420415  0.213809  0.810183  1
  Si  Si25  1  0.577697  0.786040  0.310936  1
  Si  Si26  1  0.286161  0.921488  0.061194  1
  Si  Si27  1  0.831640  0.804957  0.795701  1
  Si  Si28  1  0.167217  0.195375  0.298148  1
  Si  Si29  1  0.804619  0.831835  0.203073  1
  Si  Si30  1  0.309697  0.669659  0.547592  1
  Si  Si31  1  0.695135  0.331897  0.047278  1
  Si  Si32  1  0.668929  0.303866  0.451397  1
  Si  Si33  1  0.331075  0.695077  0.953351  1
  Si  Si34  1  0.194093  0.168236  0.702438  1
  P  P35  1  0.075389  0.710511  0.438879  1
