# generated using pymatgen
data_RbTe8Rh5
_symmetry_space_group_name_H-M   'P 1'
_cell_length_a   10.52147817
_cell_length_b   10.52147741
_cell_length_c   9.10081191
_cell_angle_alpha   76.40126788
_cell_angle_beta   76.40126954
_cell_angle_gamma   22.32089383
_symmetry_Int_Tables_number   1
_chemical_formula_structural   RbTe8Rh5
_chemical_formula_sum   'Rb1 Te8 Rh5'
_cell_volume   371.48151373
_cell_formula_units_Z   1
loop_
 _symmetry_equiv_pos_site_id
 _symmetry_equiv_pos_as_xyz
  1  'x, y, z'
loop_
 _atom_site_type_symbol
 _atom_site_label
 _atom_site_symmetry_multiplicity
 _atom_site_fract_x
 _atom_site_fract_y
 _atom_site_fract_z
 _atom_site_occupancy
  Rb  Rb0  1  0.500000  0.500000  0.500000  1
  Te  Te1  1  0.763160  0.763160  0.150732  1
  Te  Te2  1  0.236840  0.236840  0.849268  1
  Te  Te3  1  0.429133  0.429133  0.152308  1
  Te  Te4  1  0.570867  0.570867  0.847692  1
  Te  Te5  1  0.907992  0.907992  0.837023  1
  Te  Te6  1  0.092008  0.092008  0.162977  1
  Te  Te7  1  0.822042  0.822042  0.484800  1
  Te  Te8  1  0.177958  0.177958  0.515200  1
  Rh  Rh9  1  0.660858  0.660858  0.014309  1
  Rh  Rh10  1  0.339142  0.339142  0.985691  1
  Rh  Rh11  1  0.704530  0.704530  0.682841  1
  Rh  Rh12  1  0.295470  0.295470  0.317159  1
  Rh  Rh13  1  0.000000  0.000000  0.000000  1
