# generated using pymatgen
data_BaTlIn(P2O7)2
_symmetry_space_group_name_H-M   'P 1'
_cell_length_a   7.77873390
_cell_length_b   7.77873286
_cell_length_c   10.15165089
_cell_angle_alpha   99.83743307
_cell_angle_beta   80.16256868
_cell_angle_gamma   91.21549341
_symmetry_Int_Tables_number   1
_chemical_formula_structural   BaTlIn(P2O7)2
_chemical_formula_sum   'Ba2 Tl2 In2 P8 O28'
_cell_volume   596.31213904
_cell_formula_units_Z   2
loop_
 _symmetry_equiv_pos_site_id
 _symmetry_equiv_pos_as_xyz
  1  'x, y, z'
loop_
 _atom_site_type_symbol
 _atom_site_label
 _atom_site_symmetry_multiplicity
 _atom_site_fract_x
 _atom_site_fract_y
 _atom_site_fract_z
 _atom_site_occupancy
  Ba  Ba0  1  0.500000  0.000000  0.000000  1
  Ba  Ba1  1  0.000000  0.499999  0.500000  1
  Tl  Tl2  1  0.554505  0.554505  0.250000  1
  Tl  Tl3  1  0.445495  0.445495  0.750000  1
  In  In4  1  0.000000  0.000000  0.000000  1
  In  In5  1  0.000000  0.000000  0.500000  1
  P  P6  1  0.248636  0.365935  0.060754  1
  P  P7  1  0.177886  0.733106  0.200036  1
  P  P8  1  0.733107  0.177885  0.299964  1
  P  P9  1  0.365935  0.248636  0.439246  1
  P  P10  1  0.634065  0.751364  0.560754  1
  P  P11  1  0.266893  0.822115  0.700036  1
  P  P12  1  0.822114  0.266894  0.799964  1
  P  P13  1  0.751365  0.634065  0.939246  1
  O  O14  1  0.141577  0.821147  0.084688  1
  O  O15  1  0.761269  0.607199  0.082823  1
  O  O16  1  0.435897  0.358941  0.091826  1
  O  O17  1  0.157934  0.197286  0.094296  1
  O  O18  1  0.142946  0.522799  0.167429  1
  O  O19  1  0.778294  0.050842  0.165400  1
  O  O20  1  0.372617  0.758466  0.209349  1
  O  O21  1  0.758466  0.372617  0.290651  1
  O  O22  1  0.050842  0.778294  0.334600  1
  O  O23  1  0.522799  0.142946  0.332571  1
  O  O24  1  0.197286  0.157934  0.405704  1
  O  O25  1  0.358941  0.435897  0.408174  1
  O  O26  1  0.607199  0.761270  0.417177  1
  O  O27  1  0.821147  0.141577  0.415312  1
  O  O28  1  0.178853  0.858423  0.584688  1
  O  O29  1  0.392801  0.238730  0.582823  1
  O  O30  1  0.641059  0.564103  0.591826  1
  O  O31  1  0.802714  0.842066  0.594296  1
  O  O32  1  0.477201  0.857054  0.667429  1
  O  O33  1  0.949158  0.221706  0.665400  1
  O  O34  1  0.241534  0.627383  0.709349  1
  O  O35  1  0.627383  0.241534  0.790651  1
  O  O36  1  0.221706  0.949158  0.834600  1
  O  O37  1  0.857054  0.477201  0.832572  1
  O  O38  1  0.842066  0.802714  0.905705  1
  O  O39  1  0.564103  0.641059  0.908174  1
  O  O40  1  0.238731  0.392800  0.917177  1
  O  O41  1  0.858424  0.178853  0.915312  1
