# generated using pymatgen
data_Zr2Tc2P7Ru10
_symmetry_space_group_name_H-M   'P 1'
_cell_length_a   9.37377562
_cell_length_b   9.37511440
_cell_length_c   3.90130400
_cell_angle_alpha   90.00000000
_cell_angle_beta   90.00000000
_cell_angle_gamma   119.79674804
_symmetry_Int_Tables_number   1
_chemical_formula_structural   Zr2Tc2P7Ru10
_chemical_formula_sum   'Zr2 Tc2 P7 Ru10'
_cell_volume   297.52084225
_cell_formula_units_Z   1
loop_
 _symmetry_equiv_pos_site_id
 _symmetry_equiv_pos_as_xyz
  1  'x, y, z'
loop_
 _atom_site_type_symbol
 _atom_site_label
 _atom_site_symmetry_multiplicity
 _atom_site_fract_x
 _atom_site_fract_y
 _atom_site_fract_z
 _atom_site_occupancy
  Zr  Zr0  1  0.000037  0.999910  0.000000  1
  Zr  Zr1  1  0.332759  0.664542  0.500000  1
  Tc  Tc2  1  0.880803  0.454641  0.500000  1
  Tc  Tc3  1  0.545157  0.428001  0.500000  1
  P  P4  1  0.667756  0.336997  0.000000  1
  P  P5  1  0.084288  0.448622  0.000000  1
  P  P6  1  0.264942  0.215941  0.500000  1
  P  P7  1  0.785996  0.048636  0.500000  1
  P  P8  1  0.952910  0.737311  0.500000  1
  P  P9  1  0.548526  0.634808  0.000000  1
  P  P10  1  0.361879  0.911967  0.000000  1
  Ru  Ru11  1  0.301435  0.402292  0.000000  1
  Ru  Ru12  1  0.100609  0.696831  0.000000  1
  Ru  Ru13  1  0.394414  0.172509  0.000000  1
  Ru  Ru14  1  0.781281  0.610405  0.000000  1
  Ru  Ru15  1  0.825195  0.218613  0.000000  1
  Ru  Ru16  1  0.222083  0.944688  0.500000  1
  Ru  Ru17  1  0.054237  0.274595  0.500000  1
  Ru  Ru18  1  0.723948  0.780901  0.500000  1
  Ru  Ru19  1  0.576022  0.118470  0.500000  1
  Ru  Ru20  1  0.595720  0.899321  0.000000  1
