# generated using pymatgen
data_Ho16In3Hg(IrRu)2
_symmetry_space_group_name_H-M   'P 1'
_cell_length_a   9.61735909
_cell_length_b   9.62113528
_cell_length_c   9.62113510
_cell_angle_alpha   59.73668939
_cell_angle_beta   59.75379153
_cell_angle_gamma   59.75378694
_symmetry_Int_Tables_number   1
_chemical_formula_structural   Ho16In3Hg(IrRu)2
_chemical_formula_sum   'Ho16 In3 Hg1 Ir2 Ru2'
_cell_volume   625.89568744
_cell_formula_units_Z   1
loop_
 _symmetry_equiv_pos_site_id
 _symmetry_equiv_pos_as_xyz
  1  'x, y, z'
loop_
 _atom_site_type_symbol
 _atom_site_label
 _atom_site_symmetry_multiplicity
 _atom_site_fract_x
 _atom_site_fract_y
 _atom_site_fract_z
 _atom_site_occupancy
  Ho  Ho0  1  0.438936  0.440833  0.062310  1
  Ho  Ho1  1  0.650168  0.651122  0.047205  1
  Ho  Ho2  1  0.192466  0.811769  0.189778  1
  Ho  Ho3  1  0.059489  0.441554  0.059739  1
  Ho  Ho4  1  0.192138  0.808934  0.808934  1
  Ho  Ho5  1  0.062494  0.439281  0.439281  1
  Ho  Ho6  1  0.810596  0.191985  0.191985  1
  Ho  Ho7  1  0.650074  0.651683  0.651683  1
  Ho  Ho8  1  0.808683  0.191154  0.808466  1
  Ho  Ho9  1  0.192466  0.189778  0.811769  1
  Ho  Ho10  1  0.047744  0.650313  0.650313  1
  Ho  Ho11  1  0.441178  0.058786  0.058786  1
  Ho  Ho12  1  0.059489  0.059739  0.441554  1
  Ho  Ho13  1  0.650168  0.047205  0.651122  1
  Ho  Ho14  1  0.808683  0.808466  0.191154  1
  Ho  Ho15  1  0.438936  0.062310  0.440833  1
  In  In16  1  0.417753  0.417835  0.747365  1
  In  In17  1  0.417753  0.747365  0.417835  1
  In  In18  1  0.746998  0.417988  0.417988  1
  Hg  Hg19  1  0.414042  0.414534  0.414534  1
  Ir  Ir20  1  0.858701  0.422211  0.858295  1
  Ir  Ir21  1  0.858701  0.858295  0.422211  1
  Ru  Ru22  1  0.421488  0.858142  0.858142  1
  Ru  Ru23  1  0.860862  0.858722  0.858722  1
