# generated using pymatgen
data_YbHo2Er2(In2Pt)2
_symmetry_space_group_name_H-M   'P 1'
_cell_length_a   3.65435200
_cell_length_b   8.10478300
_cell_length_c   18.18252400
_cell_angle_alpha   90.00000000
_cell_angle_beta   90.00000000
_cell_angle_gamma   90.00000000
_symmetry_Int_Tables_number   1
_chemical_formula_structural   YbHo2Er2(In2Pt)2
_chemical_formula_sum   'Yb2 Ho4 Er4 In8 Pt4'
_cell_volume   538.52508593
_cell_formula_units_Z   2
loop_
 _symmetry_equiv_pos_site_id
 _symmetry_equiv_pos_as_xyz
  1  'x, y, z'
loop_
 _atom_site_type_symbol
 _atom_site_label
 _atom_site_symmetry_multiplicity
 _atom_site_fract_x
 _atom_site_fract_y
 _atom_site_fract_z
 _atom_site_occupancy
  Yb  Yb0  1  0.000000  0.000000  0.000000  1
  Yb  Yb1  1  0.000000  0.500000  0.500000  1
  Ho  Ho2  1  0.000000  0.243027  0.220494  1
  Ho  Ho3  1  0.000000  0.756973  0.779506  1
  Ho  Ho4  1  0.000000  0.256973  0.720494  1
  Ho  Ho5  1  0.000000  0.743027  0.279506  1
  Er  Er6  1  0.000000  0.117567  0.413619  1
  Er  Er7  1  0.000000  0.882433  0.586381  1
  Er  Er8  1  0.000000  0.382433  0.913619  1
  Er  Er9  1  0.000000  0.617567  0.086381  1
  In  In10  1  0.500000  0.425630  0.351392  1
  In  In11  1  0.500000  0.574370  0.648608  1
  In  In12  1  0.500000  0.074370  0.851392  1
  In  In13  1  0.500000  0.925630  0.148608  1
  In  In14  1  0.500000  0.294298  0.066207  1
  In  In15  1  0.500000  0.705702  0.933793  1
  In  In16  1  0.500000  0.205702  0.566207  1
  In  In17  1  0.500000  0.794298  0.433793  1
  Pt  Pt18  1  0.500000  0.023275  0.303915  1
  Pt  Pt19  1  0.500000  0.976725  0.696085  1
  Pt  Pt20  1  0.500000  0.476725  0.803915  1
  Pt  Pt21  1  0.500000  0.523275  0.196085  1
