# generated using pymatgen
data_Er4Cu5SiRh7
_symmetry_space_group_name_H-M   'P 1'
_cell_length_a   7.05936812
_cell_length_b   7.05936713
_cell_length_c   7.05936700
_cell_angle_alpha   108.43611948
_cell_angle_beta   109.99123381
_cell_angle_gamma   109.99123441
_symmetry_Int_Tables_number   1
_chemical_formula_structural   Er4Cu5SiRh7
_chemical_formula_sum   'Er4 Cu5 Si1 Rh7'
_cell_volume   270.75059156
_cell_formula_units_Z   1
loop_
 _symmetry_equiv_pos_site_id
 _symmetry_equiv_pos_as_xyz
  1  'x, y, z'
loop_
 _atom_site_type_symbol
 _atom_site_label
 _atom_site_symmetry_multiplicity
 _atom_site_fract_x
 _atom_site_fract_y
 _atom_site_fract_z
 _atom_site_occupancy
  Er  Er0  1  0.990359  0.995180  0.495180  1
  Er  Er1  1  0.009641  0.504820  0.004820  1
  Er  Er2  1  0.500000  0.995180  0.004820  1
  Er  Er3  1  0.500000  0.504820  0.495180  1
  Cu  Cu4  1  0.749472  0.251433  0.501961  1
  Cu  Cu5  1  0.749472  0.498039  0.247511  1
  Cu  Cu6  1  0.500000  0.250000  0.750000  1
  Cu  Cu7  1  0.250528  0.498039  0.748567  1
  Cu  Cu8  1  0.250528  0.752489  0.501961  1
  Si  Si9  1  0.000000  0.000000  0.000000  1
  Rh  Rh10  1  0.500000  0.750000  0.250000  1
  Rh  Rh11  1  0.715770  0.704798  0.989027  1
  Rh  Rh12  1  0.284230  0.010973  0.295202  1
  Rh  Rh13  1  0.000000  0.286582  0.286582  1
  Rh  Rh14  1  0.284230  0.273257  0.989027  1
  Rh  Rh15  1  0.715770  0.010973  0.726743  1
  Rh  Rh16  1  0.000000  0.713418  0.713418  1
