# generated using pymatgen
data_TbDy7(Ho3Sn4)4
_symmetry_space_group_name_H-M   'P 1'
_cell_length_a   8.01664002
_cell_length_b   8.15632000
_cell_length_c   15.41556103
_cell_angle_alpha   89.99781150
_cell_angle_beta   89.99306967
_cell_angle_gamma   90.00273485
_symmetry_Int_Tables_number   1
_chemical_formula_structural   TbDy7(Ho3Sn4)4
_chemical_formula_sum   'Tb1 Dy7 Ho12 Sn16'
_cell_volume   1007.96620123
_cell_formula_units_Z   1
loop_
 _symmetry_equiv_pos_site_id
 _symmetry_equiv_pos_as_xyz
  1  'x, y, z'
loop_
 _atom_site_type_symbol
 _atom_site_label
 _atom_site_symmetry_multiplicity
 _atom_site_fract_x
 _atom_site_fract_y
 _atom_site_fract_z
 _atom_site_occupancy
  Tb  Tb0  1  0.521275  0.320271  0.902420  1
  Dy  Dy1  1  0.021297  0.179713  0.597600  1
  Dy  Dy2  1  0.478707  0.679721  0.402398  1
  Dy  Dy3  1  0.978711  0.820273  0.097601  1
  Dy  Dy4  1  0.478715  0.679731  0.097611  1
  Dy  Dy5  1  0.978709  0.820282  0.402399  1
  Dy  Dy6  1  0.521299  0.320272  0.597619  1
  Dy  Dy7  1  0.021295  0.179708  0.902393  1
  Ho  Ho8  1  0.367666  0.836165  0.877995  1
  Ho  Ho9  1  0.867670  0.663831  0.622004  1
  Ho  Ho10  1  0.632328  0.163824  0.377989  1
  Ho  Ho11  1  0.132326  0.336186  0.122006  1
  Ho  Ho12  1  0.632342  0.163810  0.122023  1
  Ho  Ho13  1  0.132326  0.336176  0.377992  1
  Ho  Ho14  1  0.367667  0.836176  0.622003  1
  Ho  Ho15  1  0.867684  0.663855  0.878001  1
  Ho  Ho16  1  0.198365  0.503168  0.749982  1
  Ho  Ho17  1  0.698411  0.996834  0.749987  1
  Ho  Ho18  1  0.801609  0.496856  0.249994  1
  Ho  Ho19  1  0.301607  0.003146  0.250001  1
  Sn  Sn20  1  0.292736  0.035815  0.041747  1
  Sn  Sn21  1  0.792744  0.464174  0.458256  1
  Sn  Sn22  1  0.707260  0.964175  0.541745  1
  Sn  Sn23  1  0.207162  0.535896  0.958269  1
  Sn  Sn24  1  0.707299  0.964111  0.958261  1
  Sn  Sn25  1  0.207266  0.535819  0.541745  1
  Sn  Sn26  1  0.292739  0.035829  0.458255  1
  Sn  Sn27  1  0.792822  0.464214  0.041781  1
  Sn  Sn28  1  0.565270  0.619411  0.749989  1
  Sn  Sn29  1  0.065270  0.880642  0.749998  1
  Sn  Sn30  1  0.434733  0.380631  0.250006  1
  Sn  Sn31  1  0.934735  0.119360  0.250001  1
  Sn  Sn32  1  0.329499  0.147113  0.749948  1
  Sn  Sn33  1  0.829617  0.352819  0.749981  1
  Sn  Sn34  1  0.670416  0.852810  0.250002  1
  Sn  Sn35  1  0.170421  0.647183  0.250000  1
