# generated using pymatgen
data_Nd3Y3NiBr10
_symmetry_space_group_name_H-M   'P 1'
_cell_length_a   7.43238304
_cell_length_b   9.38688010
_cell_length_c   9.48398981
_cell_angle_alpha   108.08004056
_cell_angle_beta   95.39979805
_cell_angle_gamma   105.68182856
_symmetry_Int_Tables_number   1
_chemical_formula_structural   Nd3Y3NiBr10
_chemical_formula_sum   'Nd3 Y3 Ni1 Br10'
_cell_volume   594.02304701
_cell_formula_units_Z   1
loop_
 _symmetry_equiv_pos_site_id
 _symmetry_equiv_pos_as_xyz
  1  'x, y, z'
loop_
 _atom_site_type_symbol
 _atom_site_label
 _atom_site_symmetry_multiplicity
 _atom_site_fract_x
 _atom_site_fract_y
 _atom_site_fract_z
 _atom_site_occupancy
  Nd  Nd0  1  0.869422  0.951128  0.244803  1
  Nd  Nd1  1  0.133084  0.048236  0.755900  1
  Nd  Nd2  1  0.028475  0.700886  0.903813  1
  Y  Y3  1  0.969267  0.290466  0.092135  1
  Y  Y4  1  0.649638  0.874344  0.831306  1
  Y  Y5  1  0.350435  0.130493  0.170067  1
  Ni  Ni6  1  0.001443  0.999432  0.000990  1
  Br  Br7  1  0.638303  0.556108  0.732291  1
  Br  Br8  1  0.342001  0.444138  0.264983  1
  Br  Br9  1  0.749476  0.921549  0.556322  1
  Br  Br10  1  0.254045  0.080642  0.443991  1
  Br  Br11  1  0.914160  0.622660  0.172164  1
  Br  Br12  1  0.085494  0.367356  0.833687  1
  Br  Br13  1  0.556383  0.180059  0.920517  1
  Br  Br14  1  0.449488  0.827308  0.083406  1
  Br  Br15  1  0.240390  0.749645  0.658244  1
  Br  Br16  1  0.768494  0.255551  0.335383  1
