# generated using pymatgen
data_Sm2DyHo(ReB6)2
_symmetry_space_group_name_H-M   'P 1'
_cell_length_a   3.71093900
_cell_length_b   9.21636801
_cell_length_c   11.64642701
_cell_angle_alpha   90.00534946
_cell_angle_beta   90.00000000
_cell_angle_gamma   90.00000000
_symmetry_Int_Tables_number   1
_chemical_formula_structural   Sm2DyHo(ReB6)2
_chemical_formula_sum   'Sm4 Dy2 Ho2 Re4 B24'
_cell_volume   398.32386819
_cell_formula_units_Z   2
loop_
 _symmetry_equiv_pos_site_id
 _symmetry_equiv_pos_as_xyz
  1  'x, y, z'
loop_
 _atom_site_type_symbol
 _atom_site_label
 _atom_site_symmetry_multiplicity
 _atom_site_fract_x
 _atom_site_fract_y
 _atom_site_fract_z
 _atom_site_occupancy
  Sm  Sm0  1  0.000000  0.323257  0.414080  1
  Sm  Sm1  1  0.000000  0.676743  0.585920  1
  Sm  Sm2  1  0.000000  0.823138  0.085862  1
  Sm  Sm3  1  0.000000  0.176862  0.914138  1
  Dy  Dy4  1  0.000000  0.942978  0.369698  1
  Dy  Dy5  1  0.000000  0.057022  0.630302  1
  Ho  Ho6  1  0.000000  0.443007  0.130235  1
  Ho  Ho7  1  0.000000  0.556993  0.869765  1
  Re  Re8  1  0.000000  0.638722  0.319835  1
  Re  Re9  1  0.000000  0.361278  0.680165  1
  Re  Re10  1  0.000000  0.139131  0.179947  1
  Re  Re11  1  0.000000  0.860869  0.820053  1
  B  B12  1  0.500000  0.554277  0.431403  1
  B  B13  1  0.500000  0.445723  0.568597  1
  B  B14  1  0.500000  0.054330  0.068570  1
  B  B15  1  0.500000  0.945670  0.931430  1
  B  B16  1  0.500000  0.749290  0.416909  1
  B  B17  1  0.500000  0.250710  0.583091  1
  B  B18  1  0.500000  0.249581  0.083085  1
  B  B19  1  0.500000  0.750419  0.916915  1
  B  B20  1  0.500000  0.791371  0.265972  1
  B  B21  1  0.500000  0.208629  0.734028  1
  B  B22  1  0.500000  0.291654  0.233938  1
  B  B23  1  0.500000  0.708346  0.766062  1
  B  B24  1  0.500000  0.630017  0.186166  1
  B  B25  1  0.500000  0.369983  0.813834  1
  B  B26  1  0.500000  0.130281  0.313661  1
  B  B27  1  0.500000  0.869719  0.686339  1
  B  B28  1  0.500000  0.983546  0.212570  1
  B  B29  1  0.500000  0.016454  0.787430  1
  B  B30  1  0.500000  0.483380  0.287256  1
  B  B31  1  0.500000  0.516620  0.712744  1
  B  B32  1  0.500000  0.597637  0.027149  1
  B  B33  1  0.500000  0.402363  0.972851  1
  B  B34  1  0.500000  0.097926  0.472780  1
  B  B35  1  0.500000  0.902074  0.527220  1
