# generated using pymatgen
data_LaTb6CoI12
_symmetry_space_group_name_H-M   'P 1'
_cell_length_a   9.79723145
_cell_length_b   9.79723182
_cell_length_c   9.79723246
_cell_angle_alpha   106.35539140
_cell_angle_beta   106.35538615
_cell_angle_gamma   106.35539878
_symmetry_Int_Tables_number   1
_chemical_formula_structural   LaTb6CoI12
_chemical_formula_sum   'La1 Tb6 Co1 I12'
_cell_volume   796.53999620
_cell_formula_units_Z   1
loop_
 _symmetry_equiv_pos_site_id
 _symmetry_equiv_pos_as_xyz
  1  'x, y, z'
loop_
 _atom_site_type_symbol
 _atom_site_label
 _atom_site_symmetry_multiplicity
 _atom_site_fract_x
 _atom_site_fract_y
 _atom_site_fract_z
 _atom_site_occupancy
  La  La0  1  0.993742  0.993742  0.993742  1
  Tb  Tb1  1  0.517993  0.590161  0.785948  1
  Tb  Tb2  1  0.785948  0.517993  0.590161  1
  Tb  Tb3  1  0.590161  0.785948  0.517993  1
  Tb  Tb4  1  0.480815  0.408736  0.213712  1
  Tb  Tb5  1  0.213712  0.480815  0.408736  1
  Tb  Tb6  1  0.408736  0.213712  0.480815  1
  Co  Co7  1  0.499966  0.499966  0.499966  1
  I  I8  1  0.275977  0.822111  0.426138  1
  I  I9  1  0.426138  0.275977  0.822111  1
  I  I10  1  0.822111  0.426138  0.275977  1
  I  I11  1  0.723131  0.177079  0.572775  1
  I  I12  1  0.572775  0.723131  0.177079  1
  I  I13  1  0.177079  0.572775  0.723131  1
  I  I14  1  0.043587  0.122172  0.349094  1
  I  I15  1  0.349094  0.043587  0.122172  1
  I  I16  1  0.122172  0.349094  0.043587  1
  I  I17  1  0.954563  0.875204  0.642463  1
  I  I18  1  0.642463  0.954563  0.875204  1
  I  I19  1  0.875204  0.642463  0.954563  1
