# generated using pymatgen
data_Nd5(HgC)2
_symmetry_space_group_name_H-M   'P 1'
_cell_length_a   9.13147600
_cell_length_b   13.61588800
_cell_length_c   3.85293900
_cell_angle_alpha   90.00000000
_cell_angle_beta   90.00000000
_cell_angle_gamma   90.00000000
_symmetry_Int_Tables_number   1
_chemical_formula_structural   Nd5(HgC)2
_chemical_formula_sum   'Nd10 Hg4 C4'
_cell_volume   479.04805993
_cell_formula_units_Z   2
loop_
 _symmetry_equiv_pos_site_id
 _symmetry_equiv_pos_as_xyz
  1  'x, y, z'
loop_
 _atom_site_type_symbol
 _atom_site_label
 _atom_site_symmetry_multiplicity
 _atom_site_fract_x
 _atom_site_fract_y
 _atom_site_fract_z
 _atom_site_occupancy
  Nd  Nd0  1  0.500000  0.000000  0.000000  1
  Nd  Nd1  1  0.179463  0.190209  0.000000  1
  Nd  Nd2  1  0.679464  0.309791  0.000000  1
  Nd  Nd3  1  0.000000  0.500000  0.000000  1
  Nd  Nd4  1  0.320537  0.690209  0.000000  1
  Nd  Nd5  1  0.820537  0.809791  0.000000  1
  Nd  Nd6  1  0.844089  0.071275  0.499998  1
  Nd  Nd7  1  0.344089  0.428725  0.499998  1
  Nd  Nd8  1  0.655912  0.571275  0.499998  1
  Nd  Nd9  1  0.155912  0.928725  0.499998  1
  Hg  Hg10  1  0.470619  0.182800  0.499998  1
  Hg  Hg11  1  0.970619  0.317200  0.499998  1
  Hg  Hg12  1  0.029380  0.682800  0.499998  1
  Hg  Hg13  1  0.529382  0.817200  0.499998  1
  C  C14  1  0.040135  0.042114  0.000000  1
  C  C15  1  0.540134  0.457886  0.000000  1
  C  C16  1  0.459865  0.542114  0.000000  1
  C  C17  1  0.959866  0.957886  0.000000  1
