# generated using pymatgen
data_Ag2SnHg(Pt2O7)2
_symmetry_space_group_name_H-M   'P 1'
_cell_length_a   7.31381782
_cell_length_b   7.18172278
_cell_length_c   7.18172253
_cell_angle_alpha   59.69205974
_cell_angle_beta   59.90464621
_cell_angle_gamma   59.90464819
_symmetry_Int_Tables_number   1
_chemical_formula_structural   Ag2SnHg(Pt2O7)2
_chemical_formula_sum   'Ag2 Sn1 Hg1 Pt4 O14'
_cell_volume   265.73022310
_cell_formula_units_Z   1
loop_
 _symmetry_equiv_pos_site_id
 _symmetry_equiv_pos_as_xyz
  1  'x, y, z'
loop_
 _atom_site_type_symbol
 _atom_site_label
 _atom_site_symmetry_multiplicity
 _atom_site_fract_x
 _atom_site_fract_y
 _atom_site_fract_z
 _atom_site_occupancy
  Ag  Ag0  1  0.125000  0.625000  0.125000  1
  Ag  Ag1  1  0.125000  0.125000  0.625000  1
  Sn  Sn2  1  0.625000  0.125000  0.125000  1
  Hg  Hg3  1  0.125000  0.125000  0.125000  1
  Pt  Pt4  1  0.625000  0.625000  0.125000  1
  Pt  Pt5  1  0.625000  0.625000  0.625000  1
  Pt  Pt6  1  0.625000  0.125000  0.625000  1
  Pt  Pt7  1  0.125000  0.625000  0.625000  1
  O  O8  1  0.701780  0.284997  0.284997  1
  O  O9  1  0.691659  0.288885  0.729043  1
  O  O10  1  0.984328  0.991403  0.991403  1
  O  O11  1  0.294105  0.707379  0.288969  1
  O  O12  1  0.691659  0.729043  0.288885  1
  O  O13  1  0.953644  0.544542  0.544542  1
  O  O14  1  0.296356  0.705458  0.705458  1
  O  O15  1  0.265672  0.258597  0.258597  1
  O  O16  1  0.955895  0.542621  0.961031  1
  O  O17  1  0.558341  0.961115  0.520957  1
  O  O18  1  0.558341  0.520957  0.961115  1
  O  O19  1  0.955895  0.961031  0.542621  1
  O  O20  1  0.548220  0.965003  0.965003  1
  O  O21  1  0.294105  0.288969  0.707379  1
