# generated using pymatgen
data_Dy2Er2Al23SiPt9
_symmetry_space_group_name_H-M   'P 1'
_cell_length_a   7.52565817
_cell_length_b   7.52153359
_cell_length_c   13.09437707
_cell_angle_alpha   84.50375187
_cell_angle_beta   100.99481847
_cell_angle_gamma   119.91129964
_symmetry_Int_Tables_number   1
_chemical_formula_structural   Dy2Er2Al23SiPt9
_chemical_formula_sum   'Dy2 Er2 Al23 Si1 Pt9'
_cell_volume   630.67833789
_cell_formula_units_Z   1
loop_
 _symmetry_equiv_pos_site_id
 _symmetry_equiv_pos_as_xyz
  1  'x, y, z'
loop_
 _atom_site_type_symbol
 _atom_site_label
 _atom_site_symmetry_multiplicity
 _atom_site_fract_x
 _atom_site_fract_y
 _atom_site_fract_z
 _atom_site_occupancy
  Dy  Dy0  1  0.732054  0.999171  0.192436  1
  Dy  Dy1  1  0.262361  0.001664  0.807971  1
  Er  Er2  1  0.062394  0.667693  0.192430  1
  Er  Er3  1  0.938521  0.326546  0.807889  1
  Al  Al4  1  0.190776  0.129640  0.183605  1
  Al  Al5  1  0.982093  0.665271  0.943314  1
  Al  Al6  1  0.018575  0.334346  0.055737  1
  Al  Al7  1  0.399816  0.668852  0.816128  1
  Al  Al8  1  0.601606  0.335645  0.183388  1
  Al  Al9  1  0.883297  0.662847  0.671165  1
  Al  Al10  1  0.116880  0.334304  0.329202  1
  Al  Al11  1  0.607813  0.459742  0.815607  1
  Al  Al12  1  0.396148  0.541330  0.183721  1
  Al  Al13  1  0.231334  0.341213  0.670018  1
  Al  Al14  1  0.770009  0.660141  0.330109  1
  Al  Al15  1  0.852886  0.332802  0.559056  1
  Al  Al16  1  0.185779  0.999996  0.558910  1
  Al  Al17  1  0.814021  0.000122  0.442277  1
  Al  Al18  1  0.352478  0.999647  0.055926  1
  Al  Al19  1  0.646842  0.001508  0.943012  1
  Al  Al20  1  0.554201  0.993951  0.671508  1
  Al  Al21  1  0.443215  0.006136  0.328862  1
  Al  Al22  1  0.520367  0.666945  0.561261  1
  Al  Al23  1  0.478888  0.332529  0.437519  1
  Al  Al24  1  0.685657  0.668833  0.050675  1
  Al  Al25  1  0.319671  0.335239  0.953127  1
  Al  Al26  1  0.146785  0.666608  0.440904  1
  Si  Si27  1  0.804161  0.865303  0.815803  1
  Pt  Pt28  1  0.330073  0.673159  0.998889  1
  Pt  Pt29  1  0.546442  0.325406  0.637777  1
  Pt  Pt30  1  0.454121  0.675512  0.362406  1
  Pt  Pt31  1  0.886909  0.006073  0.643118  1
  Pt  Pt32  1  0.111668  0.991248  0.361165  1
  Pt  Pt33  1  0.672832  0.330483  0.998825  1
  Pt  Pt34  1  0.204925  0.667155  0.639290  1
  Pt  Pt35  1  0.796095  0.333076  0.361281  1
  Pt  Pt36  1  0.998308  0.999865  0.995689  1
