# generated using pymatgen
data_Nd(Ti3Sb2)2
_symmetry_space_group_name_H-M   'P 1'
_cell_length_a   8.37316887
_cell_length_b   8.37316953
_cell_length_c   8.37316901
_cell_angle_alpha   40.22763664
_cell_angle_beta   40.22763212
_cell_angle_gamma   40.22763824
_symmetry_Int_Tables_number   1
_chemical_formula_structural   Nd(Ti3Sb2)2
_chemical_formula_sum   'Nd1 Ti6 Sb4'
_cell_volume   220.71353520
_cell_formula_units_Z   1
loop_
 _symmetry_equiv_pos_site_id
 _symmetry_equiv_pos_as_xyz
  1  'x, y, z'
loop_
 _atom_site_type_symbol
 _atom_site_label
 _atom_site_symmetry_multiplicity
 _atom_site_fract_x
 _atom_site_fract_y
 _atom_site_fract_z
 _atom_site_occupancy
  Nd  Nd0  1  0.000000  0.000000  0.000000  1
  Ti  Ti1  1  0.597707  0.597707  0.115329  1
  Ti  Ti2  1  0.884670  0.402294  0.402294  1
  Ti  Ti3  1  0.402294  0.884670  0.402294  1
  Ti  Ti4  1  0.597706  0.115330  0.597707  1
  Ti  Ti5  1  0.115330  0.597706  0.597707  1
  Ti  Ti6  1  0.402294  0.402294  0.884671  1
  Sb  Sb7  1  0.131039  0.131039  0.131039  1
  Sb  Sb8  1  0.332216  0.332216  0.332216  1
  Sb  Sb9  1  0.667784  0.667784  0.667784  1
  Sb  Sb10  1  0.868961  0.868961  0.868961  1
