# generated using pymatgen
data_Sr2La2Os6O19
_symmetry_space_group_name_H-M   'P 1'
_cell_length_a   7.98709410
_cell_length_b   7.98695829
_cell_length_c   7.97192848
_cell_angle_alpha   109.51704710
_cell_angle_beta   109.51570580
_cell_angle_gamma   109.45777979
_symmetry_Int_Tables_number   1
_chemical_formula_structural   Sr2La2Os6O19
_chemical_formula_sum   'Sr2 La2 Os6 O19'
_cell_volume   391.10999249
_cell_formula_units_Z   1
loop_
 _symmetry_equiv_pos_site_id
 _symmetry_equiv_pos_as_xyz
  1  'x, y, z'
loop_
 _atom_site_type_symbol
 _atom_site_label
 _atom_site_symmetry_multiplicity
 _atom_site_fract_x
 _atom_site_fract_y
 _atom_site_fract_z
 _atom_site_occupancy
  Sr  Sr0  1  0.313950  0.313487  0.314233  1
  Sr  Sr1  1  0.999332  0.999766  0.685838  1
  La  La2  1  0.696720  0.998828  0.000800  1
  La  La3  1  0.997958  0.695903  0.999141  1
  Os  Os4  1  0.498042  0.362033  0.862369  1
  Os  Os5  1  0.499675  0.635684  0.137644  1
  Os  Os6  1  0.863631  0.500113  0.362850  1
  Os  Os7  1  0.364636  0.864634  0.500001  1
  Os  Os8  1  0.137252  0.500767  0.637138  1
  Os  Os9  1  0.638140  0.138147  0.500003  1
  O  O10  1  0.281411  0.347118  0.639499  1
  O  O11  1  0.707654  0.641922  0.360517  1
  O  O12  1  0.721127  0.352770  0.060461  1
  O  O13  1  0.292313  0.660668  0.939531  1
  O  O14  1  0.639639  0.280006  0.343330  1
  O  O15  1  0.344769  0.638311  0.280866  1
  O  O16  1  0.936661  0.296288  0.656658  1
  O  O17  1  0.646585  0.366783  0.709395  1
  O  O18  1  0.367376  0.711382  0.648822  1
  O  O19  1  0.357469  0.063899  0.719157  1
  O  O20  1  0.062551  0.718523  0.351147  1
  O  O21  1  0.657367  0.937209  0.290614  1
  O  O22  1  0.998028  0.327764  0.326364  1
  O  O23  1  0.001399  0.671665  0.673629  1
  O  O24  1  0.328986  0.998107  0.326092  1
  O  O25  1  0.328810  0.328816  0.999999  1
  O  O26  1  0.672021  0.002886  0.673899  1
  O  O27  1  0.670605  0.670615  0.000014  1
  O  O28  1  0.975889  0.975905  0.999988  1
