# generated using pymatgen
data_Hf10In5Co4Hg3
_symmetry_space_group_name_H-M   'P 1'
_cell_length_a   17.12262254
_cell_length_b   7.50734624
_cell_length_c   3.31720800
_cell_angle_alpha   90.00000000
_cell_angle_beta   90.00000000
_cell_angle_gamma   89.97118504
_symmetry_Int_Tables_number   1
_chemical_formula_structural   Hf10In5Co4Hg3
_chemical_formula_sum   'Hf10 In5 Co4 Hg3'
_cell_volume   426.41196078
_cell_formula_units_Z   1
loop_
 _symmetry_equiv_pos_site_id
 _symmetry_equiv_pos_as_xyz
  1  'x, y, z'
loop_
 _atom_site_type_symbol
 _atom_site_label
 _atom_site_symmetry_multiplicity
 _atom_site_fract_x
 _atom_site_fract_y
 _atom_site_fract_z
 _atom_site_occupancy
  Hf  Hf0  1  0.000082  0.000165  0.000000  1
  Hf  Hf1  1  0.412754  0.135492  0.000000  1
  Hf  Hf2  1  0.723826  0.237451  0.000000  1
  Hf  Hf3  1  0.223429  0.261202  0.000000  1
  Hf  Hf4  1  0.912445  0.364281  0.000000  1
  Hf  Hf5  1  0.500031  0.499422  0.000000  1
  Hf  Hf6  1  0.087372  0.633343  0.000000  1
  Hf  Hf7  1  0.776344  0.739972  0.000000  1
  Hf  Hf8  1  0.275909  0.760704  0.000000  1
  Hf  Hf9  1  0.587417  0.866761  0.000000  1
  In  In10  1  0.349018  0.443294  0.500000  1
  In  In11  1  0.650930  0.556348  0.500000  1
  In  In12  1  0.932934  0.695386  0.500000  1
  In  In13  1  0.433120  0.805179  0.500000  1
  In  In14  1  0.151006  0.943761  0.500000  1
  Co  Co15  1  0.305896  0.051566  0.500000  1
  Co  Co16  1  0.805843  0.449268  0.500000  1
  Co  Co17  1  0.194480  0.552530  0.500000  1
  Co  Co18  1  0.693911  0.947614  0.500000  1
  Hg  Hg19  1  0.849070  0.056332  0.500000  1
  Hg  Hg20  1  0.567147  0.195030  0.500000  1
  Hg  Hg21  1  0.067038  0.304894  0.500000  1
