# generated using pymatgen
data_CsBa2H12IrPt
_symmetry_space_group_name_H-M   'P 1'
_cell_length_a   5.81333100
_cell_length_b   5.81333233
_cell_length_c   9.26581400
_cell_angle_alpha   90.00000000
_cell_angle_beta   90.00000000
_cell_angle_gamma   120.00000948
_symmetry_Int_Tables_number   1
_chemical_formula_structural   CsBa2H12IrPt
_chemical_formula_sum   'Cs1 Ba2 H12 Ir1 Pt1'
_cell_volume   271.18419269
_cell_formula_units_Z   1
loop_
 _symmetry_equiv_pos_site_id
 _symmetry_equiv_pos_as_xyz
  1  'x, y, z'
loop_
 _atom_site_type_symbol
 _atom_site_label
 _atom_site_symmetry_multiplicity
 _atom_site_fract_x
 _atom_site_fract_y
 _atom_site_fract_z
 _atom_site_occupancy
  Cs  Cs0  1  0.000000  0.000000  0.974994  1
  Ba  Ba1  1  0.666667  0.333333  0.370397  1
  Ba  Ba2  1  0.333333  0.666667  0.660078  1
  H  H3  1  0.195461  0.804539  0.366854  1
  H  H4  1  0.609078  0.804539  0.366854  1
  H  H5  1  0.195461  0.390922  0.366854  1
  H  H6  1  0.808218  0.191782  0.629936  1
  H  H7  1  0.383564  0.191782  0.629936  1
  H  H8  1  0.808218  0.616436  0.629936  1
  H  H9  1  0.538226  0.076452  0.845168  1
  H  H10  1  0.538226  0.461774  0.845168  1
  H  H11  1  0.923548  0.461774  0.845168  1
  H  H12  1  0.460965  0.921930  0.157103  1
  H  H13  1  0.460965  0.539035  0.157103  1
  H  H14  1  0.078070  0.539035  0.157103  1
  Ir  Ir15  1  0.666667  0.333333  0.731124  1
  Pt  Pt16  1  0.333333  0.666667  0.266216  1
