# generated using pymatgen
data_Pu3Pa(B4Mo)4
_symmetry_space_group_name_H-M   'P 1'
_cell_length_a   3.64697600
_cell_length_b   6.01354937
_cell_length_c   11.63575668
_cell_angle_alpha   89.92244005
_cell_angle_beta   90.00000000
_cell_angle_gamma   90.00000000
_symmetry_Int_Tables_number   1
_chemical_formula_structural   Pu3Pa(B4Mo)4
_chemical_formula_sum   'Pu3 Pa1 B16 Mo4'
_cell_volume   255.18669023
_cell_formula_units_Z   1
loop_
 _symmetry_equiv_pos_site_id
 _symmetry_equiv_pos_as_xyz
  1  'x, y, z'
loop_
 _atom_site_type_symbol
 _atom_site_label
 _atom_site_symmetry_multiplicity
 _atom_site_fract_x
 _atom_site_fract_y
 _atom_site_fract_z
 _atom_site_occupancy
  Pu  Pu0  1  0.000000  0.374477  0.650921  1
  Pu  Pu1  1  0.000000  0.124898  0.150201  1
  Pu  Pu2  1  0.000000  0.874795  0.849324  1
  Pa  Pa3  1  0.000000  0.624689  0.348997  1
  B  B4  1  0.500000  0.786384  0.186837  1
  B  B5  1  0.500000  0.213173  0.813525  1
  B  B6  1  0.500000  0.288812  0.313329  1
  B  B7  1  0.500000  0.713986  0.687397  1
  B  B8  1  0.500000  0.866297  0.032220  1
  B  B9  1  0.500000  0.133858  0.967745  1
  B  B10  1  0.500000  0.366771  0.467301  1
  B  B11  1  0.500000  0.633914  0.531754  1
  B  B12  1  0.500000  0.885748  0.453225  1
  B  B13  1  0.500000  0.115942  0.547514  1
  B  B14  1  0.500000  0.384229  0.046693  1
  B  B15  1  0.500000  0.615687  0.952824  1
  B  B16  1  0.500000  0.970991  0.307545  1
  B  B17  1  0.500000  0.026034  0.692946  1
  B  B18  1  0.500000  0.474365  0.193012  1
  B  B19  1  0.500000  0.525969  0.807075  1
  Mo  Mo20  1  0.000000  0.631213  0.086540  1
  Mo  Mo21  1  0.000000  0.368618  0.913505  1
  Mo  Mo22  1  0.000000  0.132001  0.412965  1
  Mo  Mo23  1  0.000000  0.867149  0.586603  1
