# generated using pymatgen
data_TmLu7In3Ru
_symmetry_space_group_name_H-M   'P 1'
_cell_length_a   10.13315700
_cell_length_b   10.13315655
_cell_length_c   6.92640500
_cell_angle_alpha   90.00000000
_cell_angle_beta   90.00000000
_cell_angle_gamma   120.00001125
_symmetry_Int_Tables_number   1
_chemical_formula_structural   TmLu7In3Ru
_chemical_formula_sum   'Tm2 Lu14 In6 Ru2'
_cell_volume   615.92522142
_cell_formula_units_Z   2
loop_
 _symmetry_equiv_pos_site_id
 _symmetry_equiv_pos_as_xyz
  1  'x, y, z'
loop_
 _atom_site_type_symbol
 _atom_site_label
 _atom_site_symmetry_multiplicity
 _atom_site_fract_x
 _atom_site_fract_y
 _atom_site_fract_z
 _atom_site_occupancy
  Tm  Tm0  1  0.000000  0.000000  0.273093  1
  Tm  Tm1  1  0.000000  0.000000  0.773093  1
  Lu  Lu2  1  0.177649  0.822351  0.991917  1
  Lu  Lu3  1  0.355298  0.177649  0.491917  1
  Lu  Lu4  1  0.822351  0.644702  0.491917  1
  Lu  Lu5  1  0.177649  0.355298  0.991917  1
  Lu  Lu6  1  0.644702  0.822351  0.991917  1
  Lu  Lu7  1  0.822351  0.177649  0.491917  1
  Lu  Lu8  1  0.333333  0.666667  0.669038  1
  Lu  Lu9  1  0.666667  0.333333  0.169038  1
  Lu  Lu10  1  0.466940  0.533060  0.290032  1
  Lu  Lu11  1  0.933877  0.466940  0.790032  1
  Lu  Lu12  1  0.533060  0.066123  0.790032  1
  Lu  Lu13  1  0.466940  0.933877  0.290032  1
  Lu  Lu14  1  0.066123  0.533060  0.290032  1
  Lu  Lu15  1  0.533060  0.466940  0.790032  1
  In  In16  1  0.163220  0.836780  0.536676  1
  In  In17  1  0.326439  0.163220  0.036676  1
  In  In18  1  0.836780  0.673561  0.036676  1
  In  In19  1  0.163220  0.326439  0.536676  1
  In  In20  1  0.673561  0.836780  0.536676  1
  In  In21  1  0.836780  0.163220  0.036676  1
  Ru  Ru22  1  0.333333  0.666667  0.064002  1
  Ru  Ru23  1  0.666667  0.333333  0.564002  1
