# generated using pymatgen
data_Rb2HfZn3As4
_symmetry_space_group_name_H-M   'P 1'
_cell_length_a   7.99589797
_cell_length_b   7.99589738
_cell_length_c   6.01525200
_cell_angle_alpha   90.00000000
_cell_angle_beta   90.00000000
_cell_angle_gamma   135.76297187
_symmetry_Int_Tables_number   1
_chemical_formula_structural   Rb2HfZn3As4
_chemical_formula_sum   'Rb2 Hf1 Zn3 As4'
_cell_volume   268.29486022
_cell_formula_units_Z   1
loop_
 _symmetry_equiv_pos_site_id
 _symmetry_equiv_pos_as_xyz
  1  'x, y, z'
loop_
 _atom_site_type_symbol
 _atom_site_label
 _atom_site_symmetry_multiplicity
 _atom_site_fract_x
 _atom_site_fract_y
 _atom_site_fract_z
 _atom_site_occupancy
  Rb  Rb0  1  0.500000  0.000000  0.252023  1
  Rb  Rb1  1  0.000000  0.500000  0.747977  1
  Hf  Hf2  1  0.000000  0.000000  0.000000  1
  Zn  Zn3  1  0.500000  0.500000  0.500000  1
  Zn  Zn4  1  0.500000  0.500000  0.000000  1
  Zn  Zn5  1  0.000000  0.000000  0.500000  1
  As  As6  1  0.648472  0.851676  0.750106  1
  As  As7  1  0.148324  0.351528  0.249894  1
  As  As8  1  0.851676  0.648472  0.249894  1
  As  As9  1  0.351528  0.148324  0.750106  1
