# generated using pymatgen
data_Dy4Ga4Ir3Pt
_symmetry_space_group_name_H-M   'P 1'
_cell_length_a   4.36480500
_cell_length_b   6.82241742
_cell_length_c   7.78678196
_cell_angle_alpha   89.87006134
_cell_angle_beta   90.00000000
_cell_angle_gamma   90.00000000
_symmetry_Int_Tables_number   1
_chemical_formula_structural   Dy4Ga4Ir3Pt
_chemical_formula_sum   'Dy4 Ga4 Ir3 Pt1'
_cell_volume   231.87825924
_cell_formula_units_Z   1
loop_
 _symmetry_equiv_pos_site_id
 _symmetry_equiv_pos_as_xyz
  1  'x, y, z'
loop_
 _atom_site_type_symbol
 _atom_site_label
 _atom_site_symmetry_multiplicity
 _atom_site_fract_x
 _atom_site_fract_y
 _atom_site_fract_z
 _atom_site_occupancy
  Dy  Dy0  1  0.250000  0.970210  0.310903  1
  Dy  Dy1  1  0.250000  0.475824  0.185460  1
  Dy  Dy2  1  0.750000  0.023498  0.692575  1
  Dy  Dy3  1  0.750000  0.524831  0.811864  1
  Ga  Ga4  1  0.250000  0.349085  0.570625  1
  Ga  Ga5  1  0.250000  0.845449  0.930823  1
  Ga  Ga6  1  0.750000  0.657672  0.431025  1
  Ga  Ga7  1  0.750000  0.152439  0.066577  1
  Ir  Ir8  1  0.250000  0.232716  0.889209  1
  Ir  Ir9  1  0.250000  0.733425  0.610350  1
  Ir  Ir10  1  0.750000  0.766901  0.111170  1
  Pt  Pt11  1  0.750000  0.267950  0.389418  1
