# generated using pymatgen
data_Er4MgZn3Rh4
_symmetry_space_group_name_H-M   'P 1'
_cell_length_a   4.00562400
_cell_length_b   6.98615277
_cell_length_c   8.20297781
_cell_angle_alpha   90.33934222
_cell_angle_beta   90.00000000
_cell_angle_gamma   90.00000000
_symmetry_Int_Tables_number   1
_chemical_formula_structural   Er4MgZn3Rh4
_chemical_formula_sum   'Er4 Mg1 Zn3 Rh4'
_cell_volume   229.54729445
_cell_formula_units_Z   1
loop_
 _symmetry_equiv_pos_site_id
 _symmetry_equiv_pos_as_xyz
  1  'x, y, z'
loop_
 _atom_site_type_symbol
 _atom_site_label
 _atom_site_symmetry_multiplicity
 _atom_site_fract_x
 _atom_site_fract_y
 _atom_site_fract_z
 _atom_site_occupancy
  Er  Er0  1  0.250000  0.538494  0.178296  1
  Er  Er1  1  0.750000  0.455395  0.825115  1
  Er  Er2  1  0.750000  0.967294  0.687194  1
  Er  Er3  1  0.250000  0.042291  0.316589  1
  Mg  Mg4  1  0.250000  0.633122  0.559959  1
  Zn  Zn5  1  0.750000  0.364776  0.434786  1
  Zn  Zn6  1  0.750000  0.864960  0.062330  1
  Zn  Zn7  1  0.250000  0.134098  0.937374  1
  Rh  Rh8  1  0.250000  0.753632  0.878140  1
  Rh  Rh9  1  0.750000  0.243328  0.123768  1
  Rh  Rh10  1  0.750000  0.750410  0.369941  1
  Rh  Rh11  1  0.250000  0.252201  0.626509  1
