# generated using pymatgen
data_Ho4Sc16BiSb11
_symmetry_space_group_name_H-M   'P 1'
_cell_length_a   7.71913318
_cell_length_b   8.86151043
_cell_length_c   11.35920129
_cell_angle_alpha   90.02767747
_cell_angle_beta   89.91707248
_cell_angle_gamma   90.02275098
_symmetry_Int_Tables_number   1
_chemical_formula_structural   Ho4Sc16BiSb11
_chemical_formula_sum   'Ho4 Sc16 Bi1 Sb11'
_cell_volume   777.00451631
_cell_formula_units_Z   1
loop_
 _symmetry_equiv_pos_site_id
 _symmetry_equiv_pos_as_xyz
  1  'x, y, z'
loop_
 _atom_site_type_symbol
 _atom_site_label
 _atom_site_symmetry_multiplicity
 _atom_site_fract_x
 _atom_site_fract_y
 _atom_site_fract_z
 _atom_site_occupancy
  Ho  Ho0  1  0.319860  0.253214  0.219845  1
  Ho  Ho1  1  0.815405  0.252406  0.281499  1
  Ho  Ho2  1  0.682783  0.750055  0.780633  1
  Ho  Ho3  1  0.182796  0.749958  0.719190  1
  Sc  Sc4  1  0.352420  0.747650  0.219080  1
  Sc  Sc5  1  0.846532  0.747051  0.282476  1
  Sc  Sc6  1  0.650436  0.249947  0.781384  1
  Sc  Sc7  1  0.150520  0.249866  0.718520  1
  Sc  Sc8  1  0.691816  0.563631  0.062334  1
  Sc  Sc9  1  0.193473  0.935809  0.439774  1
  Sc  Sc10  1  0.309259  0.064406  0.935940  1
  Sc  Sc11  1  0.807658  0.436276  0.562567  1
  Sc  Sc12  1  0.308202  0.436405  0.937419  1
  Sc  Sc13  1  0.807795  0.063956  0.562514  1
  Sc  Sc14  1  0.689713  0.935522  0.061716  1
  Sc  Sc15  1  0.192005  0.563688  0.437589  1
  Sc  Sc16  1  0.478764  0.250028  0.489563  1
  Sc  Sc17  1  0.977986  0.252408  0.009193  1
  Sc  Sc18  1  0.521587  0.749860  0.510507  1
  Sc  Sc19  1  0.020570  0.747435  0.987490  1
  Bi  Bi20  1  0.064762  0.990403  0.172031  1
  Sb  Sb21  1  0.404082  0.749941  0.967267  1
  Sb  Sb22  1  0.904701  0.749928  0.532906  1
  Sb  Sb23  1  0.595637  0.250154  0.032565  1
  Sb  Sb24  1  0.095384  0.250063  0.467160  1
  Sb  Sb25  1  0.563706  0.990298  0.328715  1
  Sb  Sb26  1  0.063768  0.509726  0.171092  1
  Sb  Sb27  1  0.436250  0.490358  0.671193  1
  Sb  Sb28  1  0.936186  0.009649  0.829116  1
  Sb  Sb29  1  0.436224  0.009696  0.671099  1
  Sb  Sb30  1  0.935966  0.490347  0.828371  1
  Sb  Sb31  1  0.563755  0.509864  0.329251  1
