# generated using pymatgen
data_Er2Pa2Ge6Os7
_symmetry_space_group_name_H-M   'P 1'
_cell_length_a   7.25084820
_cell_length_b   7.25084792
_cell_length_c   7.25907231
_cell_angle_alpha   109.51105803
_cell_angle_beta   109.51105290
_cell_angle_gamma   109.34556583
_symmetry_Int_Tables_number   1
_chemical_formula_structural   Er2Pa2Ge6Os7
_chemical_formula_sum   'Er2 Pa2 Ge6 Os7'
_cell_volume   293.95588673
_cell_formula_units_Z   1
loop_
 _symmetry_equiv_pos_site_id
 _symmetry_equiv_pos_as_xyz
  1  'x, y, z'
loop_
 _atom_site_type_symbol
 _atom_site_label
 _atom_site_symmetry_multiplicity
 _atom_site_fract_x
 _atom_site_fract_y
 _atom_site_fract_z
 _atom_site_occupancy
  Er  Er0  1  0.000000  0.000000  0.500000  1
  Er  Er1  1  0.500000  0.500000  0.500000  1
  Pa  Pa2  1  0.000000  0.500000  0.000000  1
  Pa  Pa3  1  0.500000  0.000000  0.000000  1
  Ge  Ge4  1  0.689148  0.689148  0.000000  1
  Ge  Ge5  1  0.310358  0.004575  0.314933  1
  Ge  Ge6  1  0.004575  0.310358  0.314933  1
  Ge  Ge7  1  0.310852  0.310852  0.000000  1
  Ge  Ge8  1  0.689642  0.995425  0.685067  1
  Ge  Ge9  1  0.995425  0.689642  0.685067  1
  Os  Os10  1  0.750000  0.250000  0.500000  1
  Os  Os11  1  0.750806  0.495406  0.246213  1
  Os  Os12  1  0.504594  0.249194  0.753787  1
  Os  Os13  1  0.249194  0.504594  0.753787  1
  Os  Os14  1  0.250000  0.750000  0.500000  1
  Os  Os15  1  0.495406  0.750806  0.246213  1
  Os  Os16  1  0.000000  0.000000  0.000000  1
