# generated using pymatgen
data_Tb4Tm3Lu(ReC2)4
_symmetry_space_group_name_H-M   'P 1'
_cell_length_a   5.08581300
_cell_length_b   6.57951420
_cell_length_c   9.79343030
_cell_angle_alpha   89.97168799
_cell_angle_beta   90.00000000
_cell_angle_gamma   90.00000000
_symmetry_Int_Tables_number   1
_chemical_formula_structural   Tb4Tm3Lu(ReC2)4
_chemical_formula_sum   'Tb4 Tm3 Lu1 Re4 C8'
_cell_volume   327.70947627
_cell_formula_units_Z   1
loop_
 _symmetry_equiv_pos_site_id
 _symmetry_equiv_pos_as_xyz
  1  'x, y, z'
loop_
 _atom_site_type_symbol
 _atom_site_label
 _atom_site_symmetry_multiplicity
 _atom_site_fract_x
 _atom_site_fract_y
 _atom_site_fract_z
 _atom_site_occupancy
  Tb  Tb0  1  0.750000  0.465367  0.786237  1
  Tb  Tb1  1  0.250000  0.034704  0.285597  1
  Tb  Tb2  1  0.750000  0.965191  0.714615  1
  Tb  Tb3  1  0.250000  0.534935  0.213723  1
  Tm  Tm4  1  0.250000  0.674825  0.557702  1
  Tm  Tm5  1  0.750000  0.325604  0.442086  1
  Tm  Tm6  1  0.250000  0.174401  0.942613  1
  Lu  Lu7  1  0.750000  0.826847  0.057859  1
  Re  Re8  1  0.750000  0.279399  0.133139  1
  Re  Re9  1  0.250000  0.220164  0.633584  1
  Re  Re10  1  0.750000  0.779609  0.366113  1
  Re  Re11  1  0.250000  0.720213  0.867242  1
  C  C12  1  0.750000  0.170194  0.950619  1
  C  C13  1  0.250000  0.828623  0.050009  1
  C  C14  1  0.750000  0.672009  0.549179  1
  C  C15  1  0.250000  0.328037  0.450643  1
  C  C16  1  0.750000  0.047880  0.259656  1
  C  C17  1  0.250000  0.451692  0.760361  1
  C  C18  1  0.750000  0.548755  0.238858  1
  C  C19  1  0.250000  0.951552  0.740166  1
