# generated using pymatgen
data_K3Rb13(TiSb4)2
_symmetry_space_group_name_H-M   'P 1'
_cell_length_a   11.92541379
_cell_length_b   11.92541359
_cell_length_c   11.92541417
_cell_angle_alpha   59.75109103
_cell_angle_beta   59.75109372
_cell_angle_gamma   59.75109028
_symmetry_Int_Tables_number   1
_chemical_formula_structural   K3Rb13(TiSb4)2
_chemical_formula_sum   'K3 Rb13 Ti2 Sb8'
_cell_volume   1192.45973038
_cell_formula_units_Z   1
loop_
 _symmetry_equiv_pos_site_id
 _symmetry_equiv_pos_as_xyz
  1  'x, y, z'
loop_
 _atom_site_type_symbol
 _atom_site_label
 _atom_site_symmetry_multiplicity
 _atom_site_fract_x
 _atom_site_fract_y
 _atom_site_fract_z
 _atom_site_occupancy
  K  K0  1  0.625000  0.125000  0.625000  1
  K  K1  1  0.625000  0.625000  0.125000  1
  K  K2  1  0.125000  0.625000  0.625000  1
  Rb  Rb3  1  0.625000  0.625000  0.625000  1
  Rb  Rb4  1  0.026485  0.026485  0.473258  1
  Rb  Rb5  1  0.776742  0.223515  0.223515  1
  Rb  Rb6  1  0.222773  0.776598  0.776598  1
  Rb  Rb7  1  0.776598  0.776598  0.222773  1
  Rb  Rb8  1  0.776598  0.222773  0.776598  1
  Rb  Rb9  1  0.223515  0.776742  0.223515  1
  Rb  Rb10  1  0.473402  0.027227  0.473402  1
  Rb  Rb11  1  0.473258  0.026485  0.026485  1
  Rb  Rb12  1  0.027227  0.473402  0.473402  1
  Rb  Rb13  1  0.026485  0.473258  0.026485  1
  Rb  Rb14  1  0.223515  0.223515  0.776742  1
  Rb  Rb15  1  0.473402  0.473402  0.027227  1
  Ti  Ti16  1  0.750408  0.750408  0.750408  1
  Ti  Ti17  1  0.499592  0.499592  0.499592  1
  Sb  Sb18  1  0.403080  0.787242  0.403080  1
  Sb  Sb19  1  0.846920  0.846920  0.462758  1
  Sb  Sb20  1  0.462758  0.846920  0.846920  1
  Sb  Sb21  1  0.845722  0.845722  0.845722  1
  Sb  Sb22  1  0.787242  0.403080  0.403080  1
  Sb  Sb23  1  0.404278  0.404278  0.404278  1
  Sb  Sb24  1  0.403080  0.403080  0.787242  1
  Sb  Sb25  1  0.846920  0.462758  0.846920  1
