# generated using pymatgen
data_Tb16Tl2In2Pd3Rh
_symmetry_space_group_name_H-M   'P 1'
_cell_length_a   9.76048388
_cell_length_b   9.77435860
_cell_length_c   9.80186600
_cell_angle_alpha   59.90686192
_cell_angle_beta   59.85965046
_cell_angle_gamma   59.78808157
_symmetry_Int_Tables_number   1
_chemical_formula_structural   Tb16Tl2In2Pd3Rh
_chemical_formula_sum   'Tb16 Tl2 In2 Pd3 Rh1'
_cell_volume   659.00194549
_cell_formula_units_Z   1
loop_
 _symmetry_equiv_pos_site_id
 _symmetry_equiv_pos_as_xyz
  1  'x, y, z'
loop_
 _atom_site_type_symbol
 _atom_site_label
 _atom_site_symmetry_multiplicity
 _atom_site_fract_x
 _atom_site_fract_y
 _atom_site_fract_z
 _atom_site_occupancy
  Tb  Tb0  1  0.810025  0.810046  0.189965  1
  Tb  Tb1  1  0.810619  0.189719  0.809651  1
  Tb  Tb2  1  0.193391  0.184645  0.810982  1
  Tb  Tb3  1  0.644732  0.054426  0.650422  1
  Tb  Tb4  1  0.061638  0.063130  0.437616  1
  Tb  Tb5  1  0.435050  0.438578  0.063185  1
  Tb  Tb6  1  0.645250  0.651575  0.651096  1
  Tb  Tb7  1  0.810619  0.189719  0.190010  1
  Tb  Tb8  1  0.193222  0.811336  0.810251  1
  Tb  Tb9  1  0.060766  0.647078  0.646079  1
  Tb  Tb10  1  0.434941  0.062682  0.063513  1
  Tb  Tb11  1  0.434941  0.062682  0.438863  1
  Tb  Tb12  1  0.061179  0.437287  0.063690  1
  Tb  Tb13  1  0.645250  0.651575  0.052081  1
  Tb  Tb14  1  0.193222  0.811336  0.185191  1
  Tb  Tb15  1  0.061179  0.437287  0.437844  1
  Tl  Tl16  1  0.415825  0.414789  0.412873  1
  Tl  Tl17  1  0.415825  0.414789  0.756513  1
  In  In18  1  0.418591  0.749317  0.416045  1
  In  In19  1  0.748483  0.418356  0.416579  1
  Pd  Pd20  1  0.858901  0.431084  0.855008  1
  Pd  Pd21  1  0.858189  0.855642  0.854420  1
  Pd  Pd22  1  0.858189  0.855642  0.431751  1
  Rh  Rh23  1  0.429978  0.857278  0.856373  1
