# generated using pymatgen
data_Sc10Pb6S
_symmetry_space_group_name_H-M   'P 1'
_cell_length_a   6.12034200
_cell_length_b   8.58202823
_cell_length_c   8.58205100
_cell_angle_alpha   119.99975244
_cell_angle_beta   89.99996255
_cell_angle_gamma   89.99965153
_symmetry_Int_Tables_number   1
_chemical_formula_structural   Sc10Pb6S
_chemical_formula_sum   'Sc10 Pb6 S1'
_cell_volume   390.38078728
_cell_formula_units_Z   1
loop_
 _symmetry_equiv_pos_site_id
 _symmetry_equiv_pos_as_xyz
  1  'x, y, z'
loop_
 _atom_site_type_symbol
 _atom_site_label
 _atom_site_symmetry_multiplicity
 _atom_site_fract_x
 _atom_site_fract_y
 _atom_site_fract_z
 _atom_site_occupancy
  Sc  Sc0  1  0.500001  0.333328  0.666662  1
  Sc  Sc1  1  0.500001  0.666665  0.333337  1
  Sc  Sc2  1  0.000008  0.666657  0.333333  1
  Sc  Sc3  1  0.000001  0.333334  0.666671  1
  Sc  Sc4  1  0.750993  0.240347  0.000043  1
  Sc  Sc5  1  0.750985  0.759701  0.759644  1
  Sc  Sc6  1  0.750980  0.999961  0.240316  1
  Sc  Sc7  1  0.249013  0.759697  0.000046  1
  Sc  Sc8  1  0.249012  0.240351  0.240310  1
  Sc  Sc9  1  0.249010  0.999956  0.759640  1
  Pb  Pb10  1  0.752097  0.606311  0.000037  1
  Pb  Pb11  1  0.752108  0.393723  0.393688  1
  Pb  Pb12  1  0.752107  0.999970  0.606277  1
  Pb  Pb13  1  0.247903  0.393718  0.000034  1
  Pb  Pb14  1  0.247894  0.606311  0.606270  1
  Pb  Pb15  1  0.247891  0.999976  0.393696  1
  S  S16  1  0.499997  0.999997  0.999998  1
