# generated using pymatgen
data_Hf3ScCo5(Si3Ir)2
_symmetry_space_group_name_H-M   'P 1'
_cell_length_a   6.76119938
_cell_length_b   6.77257160
_cell_length_c   6.76468318
_cell_angle_alpha   109.18630652
_cell_angle_beta   109.61272991
_cell_angle_gamma   109.65987808
_symmetry_Int_Tables_number   1
_chemical_formula_structural   Hf3ScCo5(Si3Ir)2
_chemical_formula_sum   'Hf3 Sc1 Co5 Si6 Ir2'
_cell_volume   238.31610630
_cell_formula_units_Z   1
loop_
 _symmetry_equiv_pos_site_id
 _symmetry_equiv_pos_as_xyz
  1  'x, y, z'
loop_
 _atom_site_type_symbol
 _atom_site_label
 _atom_site_symmetry_multiplicity
 _atom_site_fract_x
 _atom_site_fract_y
 _atom_site_fract_z
 _atom_site_occupancy
  Hf  Hf0  1  0.004504  0.002252  0.502252  1
  Hf  Hf1  1  0.499746  0.002183  0.997493  1
  Hf  Hf2  1  0.499746  0.497563  0.502253  1
  Sc  Sc3  1  0.996689  0.498344  0.998344  1
  Co  Co4  1  0.749456  0.252702  0.500617  1
  Co  Co5  1  0.749456  0.496754  0.248840  1
  Co  Co6  1  0.498054  0.249026  0.749026  1
  Co  Co7  1  0.250603  0.496920  0.745025  1
  Co  Co8  1  0.250603  0.753683  0.505576  1
  Si  Si9  1  0.676334  0.667896  0.994443  1
  Si  Si10  1  0.324063  0.003880  0.329762  1
  Si  Si11  1  0.999852  0.332042  0.330185  1
  Si  Si12  1  0.324063  0.320183  0.994301  1
  Si  Si13  1  0.676334  0.008438  0.681891  1
  Si  Si14  1  0.999852  0.667810  0.669667  1
  Ir  Ir15  1  0.500808  0.750404  0.250404  1
  Ir  Ir16  1  0.999837  0.999918  0.999918  1
