# generated using pymatgen
data_Lu2P7(Rh3W)3
_symmetry_space_group_name_H-M   'P 1'
_cell_length_a   3.92764006
_cell_length_b   9.50214948
_cell_length_c   9.50101602
_cell_angle_alpha   119.99812747
_cell_angle_beta   89.99985247
_cell_angle_gamma   90.00043564
_symmetry_Int_Tables_number   1
_chemical_formula_structural   Lu2P7(Rh3W)3
_chemical_formula_sum   'Lu2 P7 Rh9 W3'
_cell_volume   307.08769525
_cell_formula_units_Z   1
loop_
 _symmetry_equiv_pos_site_id
 _symmetry_equiv_pos_as_xyz
  1  'x, y, z'
loop_
 _atom_site_type_symbol
 _atom_site_label
 _atom_site_symmetry_multiplicity
 _atom_site_fract_x
 _atom_site_fract_y
 _atom_site_fract_z
 _atom_site_occupancy
  Lu  Lu0  1  0.261737  0.666635  0.333259  1
  Lu  Lu1  1  0.762320  0.333336  0.666688  1
  P  P2  1  0.261690  0.999983  0.999942  1
  P  P3  1  0.761911  0.879266  0.590419  1
  P  P4  1  0.761912  0.409571  0.288837  1
  P  P5  1  0.761919  0.711138  0.120661  1
  P  P6  1  0.261939  0.119911  0.413591  1
  P  P7  1  0.261946  0.586469  0.706378  1
  P  P8  1  0.261923  0.293699  0.880148  1
  Rh  Rh9  1  0.261872  0.885993  0.160292  1
  Rh  Rh10  1  0.261866  0.839650  0.725529  1
  Rh  Rh11  1  0.261877  0.274385  0.114118  1
  Rh  Rh12  1  0.761925  0.613461  0.557637  1
  Rh  Rh13  1  0.761919  0.442251  0.055715  1
  Rh  Rh14  1  0.761919  0.944141  0.386513  1
  Rh  Rh15  1  0.261914  0.370765  0.440529  1
  Rh  Rh16  1  0.261913  0.559601  0.930327  1
  Rh  Rh17  1  0.261922  0.069735  0.629290  1
  W  W18  1  0.761855  0.090384  0.869309  1
  W  W19  1  0.761864  0.130782  0.221295  1
  W  W20  1  0.761854  0.778843  0.909523  1
