# generated using pymatgen
data_Tb6Nb3Al13Os7
_symmetry_space_group_name_H-M   'P 1'
_cell_length_a   9.06416188
_cell_length_b   9.06416273
_cell_length_c   9.06416156
_cell_angle_alpha   59.64802224
_cell_angle_beta   59.64801956
_cell_angle_gamma   59.64802135
_symmetry_Int_Tables_number   1
_chemical_formula_structural   Tb6Nb3Al13Os7
_chemical_formula_sum   'Tb6 Nb3 Al13 Os7'
_cell_volume   522.37292263
_cell_formula_units_Z   1
loop_
 _symmetry_equiv_pos_site_id
 _symmetry_equiv_pos_as_xyz
  1  'x, y, z'
loop_
 _atom_site_type_symbol
 _atom_site_label
 _atom_site_symmetry_multiplicity
 _atom_site_fract_x
 _atom_site_fract_y
 _atom_site_fract_z
 _atom_site_occupancy
  Tb  Tb0  1  0.709830  0.709830  0.283047  1
  Tb  Tb1  1  0.293559  0.708857  0.293559  1
  Tb  Tb2  1  0.708857  0.293559  0.293559  1
  Tb  Tb3  1  0.293559  0.293559  0.708857  1
  Tb  Tb4  1  0.709830  0.283047  0.709830  1
  Tb  Tb5  1  0.283047  0.709830  0.709830  1
  Nb  Nb6  1  0.877188  0.877188  0.362091  1
  Nb  Nb7  1  0.877188  0.362091  0.877188  1
  Nb  Nb8  1  0.362091  0.877188  0.877188  1
  Al  Al9  1  0.881164  0.881164  0.881164  1
  Al  Al10  1  0.121234  0.121234  0.639987  1
  Al  Al11  1  0.121234  0.639987  0.121234  1
  Al  Al12  1  0.639987  0.121234  0.121234  1
  Al  Al13  1  0.120460  0.120460  0.120460  1
  Al  Al14  1  0.670607  0.670607  0.991872  1
  Al  Al15  1  0.670607  0.991872  0.670607  1
  Al  Al16  1  0.991872  0.670607  0.670607  1
  Al  Al17  1  0.666256  0.666256  0.666256  1
  Al  Al18  1  0.331160  0.331160  0.009136  1
  Al  Al19  1  0.331160  0.009136  0.331160  1
  Al  Al20  1  0.009136  0.331160  0.331160  1
  Al  Al21  1  0.331640  0.331640  0.331640  1
  Os  Os22  1  0.002068  0.002068  0.002068  1
  Os  Os23  1  0.998677  0.998677  0.497967  1
  Os  Os24  1  0.502369  0.996205  0.502369  1
  Os  Os25  1  0.996205  0.502369  0.502369  1
  Os  Os26  1  0.502369  0.502369  0.996205  1
  Os  Os27  1  0.998677  0.497967  0.998677  1
  Os  Os28  1  0.497967  0.998677  0.998677  1
