# generated using pymatgen
data_Ce3Dy4Er(ReB6)4
_symmetry_space_group_name_H-M   'P 1'
_cell_length_a   3.71865400
_cell_length_b   9.19925253
_cell_length_c   11.58469815
_cell_angle_alpha   90.08716429
_cell_angle_beta   90.00000000
_cell_angle_gamma   90.00000000
_symmetry_Int_Tables_number   1
_chemical_formula_structural   Ce3Dy4Er(ReB6)4
_chemical_formula_sum   'Ce3 Dy4 Er1 Re4 B24'
_cell_volume   396.29859442
_cell_formula_units_Z   1
loop_
 _symmetry_equiv_pos_site_id
 _symmetry_equiv_pos_as_xyz
  1  'x, y, z'
loop_
 _atom_site_type_symbol
 _atom_site_label
 _atom_site_symmetry_multiplicity
 _atom_site_fract_x
 _atom_site_fract_y
 _atom_site_fract_z
 _atom_site_occupancy
  Ce  Ce0  1  0.000000  0.321835  0.414467  1
  Ce  Ce1  1  0.000000  0.677865  0.586516  1
  Ce  Ce2  1  0.000000  0.823622  0.085356  1
  Dy  Dy3  1  0.000000  0.177368  0.913765  1
  Dy  Dy4  1  0.000000  0.944387  0.372375  1
  Dy  Dy5  1  0.000000  0.056369  0.628619  1
  Dy  Dy6  1  0.000000  0.442947  0.127462  1
  Er  Er7  1  0.000000  0.556157  0.871534  1
  Re  Re8  1  0.000000  0.638415  0.320742  1
  Re  Re9  1  0.000000  0.362990  0.678764  1
  Re  Re10  1  0.000000  0.138491  0.179180  1
  Re  Re11  1  0.000000  0.860395  0.821207  1
  B  B12  1  0.500000  0.554260  0.431526  1
  B  B13  1  0.500000  0.445717  0.568801  1
  B  B14  1  0.500000  0.053914  0.067361  1
  B  B15  1  0.500000  0.945735  0.932311  1
  B  B16  1  0.500000  0.748337  0.418074  1
  B  B17  1  0.500000  0.251473  0.582498  1
  B  B18  1  0.500000  0.248336  0.080784  1
  B  B19  1  0.500000  0.751194  0.918215  1
  B  B20  1  0.500000  0.791067  0.265713  1
  B  B21  1  0.500000  0.208587  0.734793  1
  B  B22  1  0.500000  0.290978  0.233216  1
  B  B23  1  0.500000  0.708338  0.766468  1
  B  B24  1  0.500000  0.631234  0.185560  1
  B  B25  1  0.500000  0.368983  0.814993  1
  B  B26  1  0.500000  0.131680  0.313720  1
  B  B27  1  0.500000  0.868726  0.686685  1
  B  B28  1  0.500000  0.984015  0.211998  1
  B  B29  1  0.500000  0.017064  0.787870  1
  B  B30  1  0.500000  0.483610  0.287012  1
  B  B31  1  0.500000  0.516482  0.713662  1
  B  B32  1  0.500000  0.602866  0.027774  1
  B  B33  1  0.500000  0.396340  0.970168  1
  B  B34  1  0.500000  0.106391  0.470937  1
  B  B35  1  0.500000  0.893828  0.529875  1
