# generated using pymatgen
data_Tb6Y2Pd24Pb
_symmetry_space_group_name_H-M   'P 1'
_cell_length_a   8.44387700
_cell_length_b   8.44387700
_cell_length_c   8.44387700
_cell_angle_alpha   90.00008143
_cell_angle_beta   90.00008143
_cell_angle_gamma   90.00008143
_symmetry_Int_Tables_number   1
_chemical_formula_structural   Tb6Y2Pd24Pb
_chemical_formula_sum   'Tb6 Y2 Pd24 Pb1'
_cell_volume   602.04048265
_cell_formula_units_Z   1
loop_
 _symmetry_equiv_pos_site_id
 _symmetry_equiv_pos_as_xyz
  1  'x, y, z'
loop_
 _atom_site_type_symbol
 _atom_site_label
 _atom_site_symmetry_multiplicity
 _atom_site_fract_x
 _atom_site_fract_y
 _atom_site_fract_z
 _atom_site_occupancy
  Tb  Tb0  1  0.747385  0.747385  0.252632  1
  Tb  Tb1  1  0.747385  0.252632  0.747385  1
  Tb  Tb2  1  0.252615  0.252615  0.747368  1
  Tb  Tb3  1  0.252615  0.747368  0.252615  1
  Tb  Tb4  1  0.252632  0.747385  0.747385  1
  Tb  Tb5  1  0.747368  0.252615  0.252615  1
  Y  Y6  1  0.252547  0.252547  0.252547  1
  Y  Y7  1  0.747453  0.747453  0.747453  1
  Pd  Pd8  1  0.267544  0.500014  0.000000  1
  Pd  Pd9  1  0.732456  0.499986  0.000000  1
  Pd  Pd10  1  0.000000  0.267544  0.500014  1
  Pd  Pd11  1  0.500014  0.267544  0.000000  1
  Pd  Pd12  1  0.000000  0.732456  0.499986  1
  Pd  Pd13  1  0.499986  0.732456  0.000000  1
  Pd  Pd14  1  0.500014  0.000000  0.267544  1
  Pd  Pd15  1  0.267544  0.000000  0.500014  1
  Pd  Pd16  1  0.499986  0.000000  0.732456  1
  Pd  Pd17  1  0.732456  0.000000  0.499986  1
  Pd  Pd18  1  0.000000  0.500014  0.267544  1
  Pd  Pd19  1  0.000000  0.499986  0.732456  1
  Pd  Pd20  1  0.255593  0.500023  0.500023  1
  Pd  Pd21  1  0.744407  0.499977  0.499977  1
  Pd  Pd22  1  0.500023  0.255593  0.500023  1
  Pd  Pd23  1  0.499977  0.744407  0.499977  1
  Pd  Pd24  1  0.500023  0.500023  0.255593  1
  Pd  Pd25  1  0.499977  0.499977  0.744407  1
  Pd  Pd26  1  0.316364  0.000012  0.000012  1
  Pd  Pd27  1  0.683636  0.999988  0.999988  1
  Pd  Pd28  1  0.000012  0.316364  0.000012  1
  Pd  Pd29  1  0.999988  0.683636  0.999988  1
  Pd  Pd30  1  0.000012  0.000012  0.316364  1
  Pd  Pd31  1  0.999988  0.999988  0.683636  1
  Pb  Pb32  1  0.000000  0.000000  0.000000  1
