# generated using pymatgen
data_Li8Tm8SiPb7
_symmetry_space_group_name_H-M   'P 1'
_cell_length_a   9.27644200
_cell_length_b   9.27644249
_cell_length_c   7.37636700
_cell_angle_alpha   90.00000000
_cell_angle_beta   90.00000000
_cell_angle_gamma   119.99999824
_symmetry_Int_Tables_number   1
_chemical_formula_structural   Li8Tm8SiPb7
_chemical_formula_sum   'Li8 Tm8 Si1 Pb7'
_cell_volume   549.71304850
_cell_formula_units_Z   1
loop_
 _symmetry_equiv_pos_site_id
 _symmetry_equiv_pos_as_xyz
  1  'x, y, z'
loop_
 _atom_site_type_symbol
 _atom_site_label
 _atom_site_symmetry_multiplicity
 _atom_site_fract_x
 _atom_site_fract_y
 _atom_site_fract_z
 _atom_site_occupancy
  Li  Li0  1  0.831760  0.168240  0.704007  1
  Li  Li1  1  0.831760  0.663522  0.704007  1
  Li  Li2  1  0.336478  0.168240  0.704007  1
  Li  Li3  1  0.172500  0.827500  0.207916  1
  Li  Li4  1  0.172500  0.344998  0.207916  1
  Li  Li5  1  0.655002  0.827500  0.207916  1
  Li  Li6  1  0.666667  0.333333  0.332493  1
  Li  Li7  1  0.333333  0.666667  0.844166  1
  Tm  Tm8  1  0.479851  0.520149  0.499160  1
  Tm  Tm9  1  0.479851  0.959704  0.499160  1
  Tm  Tm10  1  0.040296  0.520149  0.499160  1
  Tm  Tm11  1  0.511250  0.488750  0.007040  1
  Tm  Tm12  1  0.511250  0.022502  0.007040  1
  Tm  Tm13  1  0.977498  0.488750  0.007040  1
  Tm  Tm14  1  0.000000  0.000000  0.500039  1
  Tm  Tm15  1  0.000000  0.000000  0.001221  1
  Si  Si16  1  0.333333  0.666667  0.243941  1
  Pb  Pb17  1  0.833466  0.166534  0.273670  1
  Pb  Pb18  1  0.833466  0.666930  0.273670  1
  Pb  Pb19  1  0.333070  0.166534  0.273670  1
  Pb  Pb20  1  0.166694  0.833306  0.772859  1
  Pb  Pb21  1  0.166694  0.333388  0.772859  1
  Pb  Pb22  1  0.666612  0.833306  0.772859  1
  Pb  Pb23  1  0.666667  0.333333  0.742199  1
