# generated using pymatgen
data_Tb15Y5Sn16
_symmetry_space_group_name_H-M   'P 1'
_cell_length_a   8.06856702
_cell_length_b   8.21676803
_cell_length_c   15.54891303
_cell_angle_alpha   90.00692975
_cell_angle_beta   90.00076646
_cell_angle_gamma   90.00747993
_symmetry_Int_Tables_number   1
_chemical_formula_structural   Tb15Y5Sn16
_chemical_formula_sum   'Tb15 Y5 Sn16'
_cell_volume   1030.85472206
_cell_formula_units_Z   1
loop_
 _symmetry_equiv_pos_site_id
 _symmetry_equiv_pos_as_xyz
  1  'x, y, z'
loop_
 _atom_site_type_symbol
 _atom_site_label
 _atom_site_symmetry_multiplicity
 _atom_site_fract_x
 _atom_site_fract_y
 _atom_site_fract_z
 _atom_site_occupancy
  Tb  Tb0  1  0.867636  0.664412  0.621402  1
  Tb  Tb1  1  0.632326  0.164417  0.378643  1
  Tb  Tb2  1  0.132337  0.335579  0.121316  1
  Tb  Tb3  1  0.632369  0.164488  0.121384  1
  Tb  Tb4  1  0.132327  0.335569  0.378638  1
  Tb  Tb5  1  0.367696  0.835570  0.621411  1
  Tb  Tb6  1  0.867761  0.664438  0.878618  1
  Tb  Tb7  1  0.520196  0.319524  0.902261  1
  Tb  Tb8  1  0.020219  0.180386  0.597763  1
  Tb  Tb9  1  0.479801  0.680422  0.402259  1
  Tb  Tb10  1  0.979777  0.819558  0.097760  1
  Tb  Tb11  1  0.479759  0.680389  0.097721  1
  Tb  Tb12  1  0.979770  0.819615  0.402241  1
  Tb  Tb13  1  0.520234  0.319625  0.597775  1
  Tb  Tb14  1  0.020290  0.180386  0.902232  1
  Y  Y15  1  0.367504  0.835706  0.878595  1
  Y  Y16  1  0.198236  0.502127  0.750044  1
  Y  Y17  1  0.698220  0.997901  0.749983  1
  Y  Y18  1  0.801791  0.497918  0.250000  1
  Y  Y19  1  0.301803  0.002078  0.249979  1
  Sn  Sn20  1  0.291899  0.033586  0.042052  1
  Sn  Sn21  1  0.791869  0.466296  0.457856  1
  Sn  Sn22  1  0.708135  0.966283  0.542179  1
  Sn  Sn23  1  0.208250  0.533849  0.957813  1
  Sn  Sn24  1  0.707914  0.966222  0.957801  1
  Sn  Sn25  1  0.208104  0.533722  0.542178  1
  Sn  Sn26  1  0.291877  0.033706  0.457834  1
  Sn  Sn27  1  0.791873  0.466297  0.042170  1
  Sn  Sn28  1  0.565212  0.618909  0.749978  1
  Sn  Sn29  1  0.065324  0.881159  0.750022  1
  Sn  Sn30  1  0.434708  0.381199  0.249996  1
  Sn  Sn31  1  0.934712  0.118812  0.250014  1
  Sn  Sn32  1  0.327835  0.145280  0.750037  1
  Sn  Sn33  1  0.827811  0.354626  0.750022  1
  Sn  Sn34  1  0.672229  0.854631  0.250005  1
  Sn  Sn35  1  0.172197  0.645314  0.250015  1
