# generated using pymatgen
data_LiNd4(CuO4)3
_symmetry_space_group_name_H-M   'P 1'
_cell_length_a   5.39485298
_cell_length_b   5.52225958
_cell_length_c   7.78321594
_cell_angle_alpha   89.42164116
_cell_angle_beta   89.90209302
_cell_angle_gamma   90.24128960
_symmetry_Int_Tables_number   1
_chemical_formula_structural   LiNd4(CuO4)3
_chemical_formula_sum   'Li1 Nd4 Cu3 O12'
_cell_volume   231.86162061
_cell_formula_units_Z   1
loop_
 _symmetry_equiv_pos_site_id
 _symmetry_equiv_pos_as_xyz
  1  'x, y, z'
loop_
 _atom_site_type_symbol
 _atom_site_label
 _atom_site_symmetry_multiplicity
 _atom_site_fract_x
 _atom_site_fract_y
 _atom_site_fract_z
 _atom_site_occupancy
  Li  Li0  1  0.000000  0.500000  0.500000  1
  Nd  Nd1  1  0.016639  0.944199  0.741578  1
  Nd  Nd2  1  0.507683  0.550212  0.257993  1
  Nd  Nd3  1  0.492317  0.449788  0.742007  1
  Nd  Nd4  1  0.983361  0.055801  0.258422  1
  Cu  Cu5  1  0.500000  0.000000  0.500000  1
  Cu  Cu6  1  0.500000  0.000000  0.000000  1
  Cu  Cu7  1  0.000000  0.500000  0.000000  1
  O  O8  1  0.699214  0.279369  0.463892  1
  O  O9  1  0.222705  0.199979  0.534711  1
  O  O10  1  0.785373  0.790272  0.048944  1
  O  O11  1  0.290059  0.711449  0.952166  1
  O  O12  1  0.300786  0.720631  0.536108  1
  O  O13  1  0.777295  0.800021  0.465289  1
  O  O14  1  0.214627  0.209728  0.951056  1
  O  O15  1  0.709941  0.288551  0.047834  1
  O  O16  1  0.071539  0.486856  0.236260  1
  O  O17  1  0.580772  0.014250  0.760837  1
  O  O18  1  0.419228  0.985750  0.239163  1
  O  O19  1  0.928461  0.513144  0.763740  1
