# generated using pymatgen
data_La2Al6PtAu5
_symmetry_space_group_name_H-M   'P 1'
_cell_length_a   4.42588200
_cell_length_b   7.14806000
_cell_length_c   8.69823600
_cell_angle_alpha   90.00000000
_cell_angle_beta   90.00000000
_cell_angle_gamma   90.00000000
_symmetry_Int_Tables_number   1
_chemical_formula_structural   La2Al6PtAu5
_chemical_formula_sum   'La2 Al6 Pt1 Au5'
_cell_volume   275.18148304
_cell_formula_units_Z   1
loop_
 _symmetry_equiv_pos_site_id
 _symmetry_equiv_pos_as_xyz
  1  'x, y, z'
loop_
 _atom_site_type_symbol
 _atom_site_label
 _atom_site_symmetry_multiplicity
 _atom_site_fract_x
 _atom_site_fract_y
 _atom_site_fract_z
 _atom_site_occupancy
  La  La0  1  0.500000  0.000000  0.742364  1
  La  La1  1  0.000000  0.500000  0.258245  1
  Al  Al2  1  0.000000  0.312260  0.894960  1
  Al  Al3  1  0.500000  0.200171  0.101347  1
  Al  Al4  1  0.000000  0.687740  0.894960  1
  Al  Al5  1  0.000000  0.000000  0.364569  1
  Al  Al6  1  0.500000  0.799829  0.101347  1
  Al  Al7  1  0.500000  0.500000  0.646226  1
  Pt  Pt8  1  0.500000  0.500000  0.944046  1
  Au  Au9  1  0.000000  0.723020  0.600104  1
  Au  Au10  1  0.500000  0.777938  0.398052  1
  Au  Au11  1  0.000000  0.000000  0.055622  1
  Au  Au12  1  0.500000  0.222062  0.398052  1
  Au  Au13  1  0.000000  0.276980  0.600104  1
