# generated using pymatgen
data_Yb4YSn3H
_symmetry_space_group_name_H-M   'P 1'
_cell_length_a   9.35143489
_cell_length_b   9.34089459
_cell_length_c   9.35738866
_cell_angle_alpha   128.87253475
_cell_angle_beta   128.82146470
_cell_angle_gamma   75.21743096
_symmetry_Int_Tables_number   1
_chemical_formula_structural   Yb4YSn3H
_chemical_formula_sum   'Yb8 Y2 Sn6 H2'
_cell_volume   482.73637872
_cell_formula_units_Z   2
loop_
 _symmetry_equiv_pos_site_id
 _symmetry_equiv_pos_as_xyz
  1  'x, y, z'
loop_
 _atom_site_type_symbol
 _atom_site_label
 _atom_site_symmetry_multiplicity
 _atom_site_fract_x
 _atom_site_fract_y
 _atom_site_fract_z
 _atom_site_occupancy
  Yb  Yb0  1  0.002242  0.998650  0.001081  1
  Yb  Yb1  1  0.183702  0.685062  0.172614  1
  Yb  Yb2  1  0.007395  0.184666  0.497559  1
  Yb  Yb3  1  0.686820  0.509230  0.500975  1
  Yb  Yb4  1  0.489619  0.990888  0.178459  1
  Yb  Yb5  1  0.813542  0.312574  0.822720  1
  Yb  Yb6  1  0.989246  0.813209  0.500018  1
  Yb  Yb7  1  0.312689  0.488280  0.498186  1
  Y  Y8  1  0.498476  0.503106  0.000733  1
  Y  Y9  1  0.513168  0.013547  0.825345  1
  Sn  Sn10  1  0.258930  0.248000  0.995409  1
  Sn  Sn11  1  0.741492  0.751026  0.996003  1
  Sn  Sn12  1  0.864585  0.371226  0.235993  1
  Sn  Sn13  1  0.129849  0.622422  0.754288  1
  Sn  Sn14  1  0.372982  0.131703  0.509608  1
  Sn  Sn15  1  0.624954  0.866443  0.497409  1
  H  H16  1  0.260051  0.759847  0.511360  1
  H  H17  1  0.750256  0.250124  0.502239  1
