# generated using pymatgen
data_Nd8Tm12Sn9Bi7
_symmetry_space_group_name_H-M   'P 1'
_cell_length_a   8.28758908
_cell_length_b   8.30084690
_cell_length_c   15.76934500
_cell_angle_alpha   89.92959549
_cell_angle_beta   90.02929226
_cell_angle_gamma   89.95436971
_symmetry_Int_Tables_number   1
_chemical_formula_structural   Nd8Tm12Sn9Bi7
_chemical_formula_sum   'Nd8 Tm12 Sn9 Bi7'
_cell_volume   1084.83514352
_cell_formula_units_Z   1
loop_
 _symmetry_equiv_pos_site_id
 _symmetry_equiv_pos_as_xyz
  1  'x, y, z'
loop_
 _atom_site_type_symbol
 _atom_site_label
 _atom_site_symmetry_multiplicity
 _atom_site_fract_x
 _atom_site_fract_y
 _atom_site_fract_z
 _atom_site_occupancy
  Nd  Nd0  1  0.463979  0.822096  0.896039  1
  Nd  Nd1  1  0.960486  0.674624  0.605518  1
  Nd  Nd2  1  0.539313  0.174816  0.394087  1
  Nd  Nd3  1  0.033282  0.328694  0.103965  1
  Nd  Nd4  1  0.539136  0.179547  0.104771  1
  Nd  Nd5  1  0.038978  0.325884  0.394077  1
  Nd  Nd6  1  0.460410  0.826210  0.606109  1
  Nd  Nd7  1  0.957460  0.671505  0.896361  1
  Tm  Tm8  1  0.628383  0.343988  0.875900  1
  Tm  Tm9  1  0.126205  0.158806  0.627743  1
  Tm  Tm10  1  0.374467  0.659633  0.373049  1
  Tm  Tm11  1  0.871133  0.835682  0.125511  1
  Tm  Tm12  1  0.380226  0.658259  0.126010  1
  Tm  Tm13  1  0.874813  0.840815  0.372814  1
  Tm  Tm14  1  0.625278  0.340644  0.626779  1
  Tm  Tm15  1  0.125775  0.158322  0.873339  1
  Tm  Tm16  1  0.291922  0.499153  0.750498  1
  Tm  Tm17  1  0.791694  0.999984  0.750597  1
  Tm  Tm18  1  0.707949  0.501405  0.245869  1
  Tm  Tm19  1  0.207920  0.999824  0.248809  1
  Sn  Sn20  1  0.713776  0.534919  0.044240  1
  Sn  Sn21  1  0.652444  0.642786  0.749817  1
  Sn  Sn22  1  0.151979  0.855645  0.750891  1
  Sn  Sn23  1  0.345911  0.357322  0.250082  1
  Sn  Sn24  1  0.847350  0.142358  0.249504  1
  Sn  Sn25  1  0.429339  0.132194  0.751464  1
  Sn  Sn26  1  0.927866  0.368067  0.749978  1
  Sn  Sn27  1  0.572070  0.870104  0.250588  1
  Sn  Sn28  1  0.073345  0.631873  0.249912  1
  Bi  Bi29  1  0.214510  0.965408  0.044421  1
  Bi  Bi30  1  0.714178  0.534791  0.454966  1
  Bi  Bi31  1  0.786064  0.034644  0.544393  1
  Bi  Bi32  1  0.286516  0.463893  0.956172  1
  Bi  Bi33  1  0.786303  0.034565  0.955620  1
  Bi  Bi34  1  0.285310  0.465503  0.544499  1
  Bi  Bi35  1  0.214226  0.966033  0.455605  1
