# generated using pymatgen
data_Y2SbRh5
_symmetry_space_group_name_H-M   'P 1'
_cell_length_a   4.29632300
_cell_length_b   5.76784200
_cell_length_c   11.36045500
_cell_angle_alpha   90.00000000
_cell_angle_beta   90.00000000
_cell_angle_gamma   90.00000000
_symmetry_Int_Tables_number   1
_chemical_formula_structural   Y2SbRh5
_chemical_formula_sum   'Y4 Sb2 Rh10'
_cell_volume   281.51789424
_cell_formula_units_Z   2
loop_
 _symmetry_equiv_pos_site_id
 _symmetry_equiv_pos_as_xyz
  1  'x, y, z'
loop_
 _atom_site_type_symbol
 _atom_site_label
 _atom_site_symmetry_multiplicity
 _atom_site_fract_x
 _atom_site_fract_y
 _atom_site_fract_z
 _atom_site_occupancy
  Y  Y0  1  0.500000  0.177550  0.641107  1
  Y  Y1  1  0.500000  0.822450  0.358893  1
  Y  Y2  1  0.500000  0.677550  0.858893  1
  Y  Y3  1  0.500000  0.322450  0.141107  1
  Sb  Sb4  1  0.000000  0.500000  0.500000  1
  Sb  Sb5  1  0.000000  0.000000  0.000000  1
  Rh  Rh6  1  0.500000  0.188121  0.891439  1
  Rh  Rh7  1  0.500000  0.811879  0.108561  1
  Rh  Rh8  1  0.500000  0.688121  0.608561  1
  Rh  Rh9  1  0.500000  0.311879  0.391439  1
  Rh  Rh10  1  0.000000  0.433122  0.746487  1
  Rh  Rh11  1  0.000000  0.566878  0.253513  1
  Rh  Rh12  1  0.000000  0.000000  0.500000  1
  Rh  Rh13  1  0.000000  0.500000  0.000000  1
  Rh  Rh14  1  0.000000  0.066878  0.246487  1
  Rh  Rh15  1  0.000000  0.933122  0.753513  1
