# generated using pymatgen
data_Te13Rh
_symmetry_space_group_name_H-M   'P 1'
_cell_length_a   10.14520792
_cell_length_b   10.73858313
_cell_length_c   9.60689057
_cell_angle_alpha   105.30946504
_cell_angle_beta   109.66054506
_cell_angle_gamma   88.60939591
_symmetry_Int_Tables_number   1
_chemical_formula_structural   Te13Rh
_chemical_formula_sum   'Te26 Rh2'
_cell_volume   948.22830941
_cell_formula_units_Z   2
loop_
 _symmetry_equiv_pos_site_id
 _symmetry_equiv_pos_as_xyz
  1  'x, y, z'
loop_
 _atom_site_type_symbol
 _atom_site_label
 _atom_site_symmetry_multiplicity
 _atom_site_fract_x
 _atom_site_fract_y
 _atom_site_fract_z
 _atom_site_occupancy
  Te  Te0  1  0.455569  0.693641  0.036203  1
  Te  Te1  1  0.544431  0.306359  0.963797  1
  Te  Te2  1  0.589618  0.870392  0.342645  1
  Te  Te3  1  0.410382  0.129608  0.657355  1
  Te  Te4  1  0.717804  0.726536  0.964271  1
  Te  Te5  1  0.282196  0.273464  0.035729  1
  Te  Te6  1  0.812972  0.960714  0.263028  1
  Te  Te7  1  0.187028  0.039286  0.736972  1
  Te  Te8  1  0.437981  0.064421  0.153525  1
  Te  Te9  1  0.562019  0.935579  0.846475  1
  Te  Te10  1  0.238547  0.678097  0.634570  1
  Te  Te11  1  0.761453  0.321903  0.365430  1
  Te  Te12  1  0.092512  0.817953  0.950310  1
  Te  Te13  1  0.907488  0.182047  0.049690  1
  Te  Te14  1  0.104603  0.030363  0.233032  1
  Te  Te15  1  0.895397  0.969637  0.766968  1
  Te  Te16  1  0.273466  0.838431  0.426140  1
  Te  Te17  1  0.726534  0.161569  0.573860  1
  Te  Te18  1  0.510113  0.554641  0.677307  1
  Te  Te19  1  0.489887  0.445359  0.322693  1
  Te  Te20  1  0.086630  0.495544  0.740555  1
  Te  Te21  1  0.913370  0.504456  0.259445  1
  Te  Te22  1  0.895328  0.690310  0.515391  1
  Te  Te23  1  0.104672  0.309690  0.484609  1
  Te  Te24  1  0.228183  0.630830  0.157498  1
  Te  Te25  1  0.771817  0.369170  0.842502  1
  Rh  Rh26  1  0.325006  0.871243  0.892732  1
  Rh  Rh27  1  0.674994  0.128757  0.107268  1
