# generated using pymatgen
data_Zr6Be2Ge(AsRu2)3
_symmetry_space_group_name_H-M   'P 1'
_cell_length_a   7.66986676
_cell_length_b   7.66975780
_cell_length_c   7.66985680
_cell_angle_alpha   127.80482949
_cell_angle_beta   123.22139348
_cell_angle_gamma   80.74506500
_symmetry_Int_Tables_number   1
_chemical_formula_structural   Zr6Be2Ge(AsRu2)3
_chemical_formula_sum   'Zr6 Be2 Ge1 As3 Ru6'
_cell_volume   287.57743630
_cell_formula_units_Z   1
loop_
 _symmetry_equiv_pos_site_id
 _symmetry_equiv_pos_as_xyz
  1  'x, y, z'
loop_
 _atom_site_type_symbol
 _atom_site_label
 _atom_site_symmetry_multiplicity
 _atom_site_fract_x
 _atom_site_fract_y
 _atom_site_fract_z
 _atom_site_occupancy
  Zr  Zr0  1  0.447103  0.647399  0.698950  1
  Zr  Zr1  1  0.552049  0.254731  0.200900  1
  Zr  Zr2  1  0.748351  0.858225  0.608182  1
  Zr  Zr3  1  0.250186  0.858380  0.109896  1
  Zr  Zr4  1  0.054193  0.254736  0.702337  1
  Zr  Zr5  1  0.948094  0.646696  0.199951  1
  Be  Be6  1  0.250608  0.253879  0.503688  1
  Be  Be7  1  0.749395  0.253095  0.003265  1
  Ge  Ge8  1  0.333305  0.586705  0.253215  1
  As  As9  1  0.666551  0.919474  0.253110  1
  As  As10  1  0.166743  0.920116  0.753167  1
  As  As11  1  0.833395  0.586341  0.753207  1
  Ru  Ru12  1  0.500444  0.491168  0.990700  1
  Ru  Ru13  1  0.000138  0.490741  0.490608  1
  Ru  Ru14  1  0.117937  0.252824  0.134036  1
  Ru  Ru15  1  0.881423  0.015333  0.134728  1
  Ru  Ru16  1  0.380869  0.017034  0.635308  1
  Ru  Ru17  1  0.619216  0.252724  0.634354  1
