# generated using pymatgen
data_Nd16Ag4RuPt3
_symmetry_space_group_name_H-M   'P 1'
_cell_length_a   9.91517357
_cell_length_b   9.91517463
_cell_length_c   9.91517449
_cell_angle_alpha   60.08430120
_cell_angle_beta   60.08429607
_cell_angle_gamma   60.08430178
_symmetry_Int_Tables_number   1
_chemical_formula_structural   Nd16Ag4RuPt3
_chemical_formula_sum   'Nd16 Ag4 Ru1 Pt3'
_cell_volume   690.58140301
_cell_formula_units_Z   1
loop_
 _symmetry_equiv_pos_site_id
 _symmetry_equiv_pos_as_xyz
  1  'x, y, z'
loop_
 _atom_site_type_symbol
 _atom_site_label
 _atom_site_symmetry_multiplicity
 _atom_site_fract_x
 _atom_site_fract_y
 _atom_site_fract_z
 _atom_site_occupancy
  Nd  Nd0  1  0.354582  0.354582  0.354582  1
  Nd  Nd1  1  0.350142  0.350142  0.943454  1
  Nd  Nd2  1  0.350142  0.943454  0.350142  1
  Nd  Nd3  1  0.943454  0.350142  0.350142  1
  Nd  Nd4  1  0.817850  0.187137  0.187137  1
  Nd  Nd5  1  0.192031  0.807764  0.807764  1
  Nd  Nd6  1  0.187137  0.817850  0.187137  1
  Nd  Nd7  1  0.807764  0.192031  0.807764  1
  Nd  Nd8  1  0.187137  0.187137  0.817850  1
  Nd  Nd9  1  0.807764  0.807764  0.192031  1
  Nd  Nd10  1  0.935747  0.563436  0.563436  1
  Nd  Nd11  1  0.561820  0.936097  0.936097  1
  Nd  Nd12  1  0.563436  0.935747  0.563436  1
  Nd  Nd13  1  0.936097  0.561820  0.936097  1
  Nd  Nd14  1  0.563436  0.563436  0.935747  1
  Nd  Nd15  1  0.936097  0.936097  0.561820  1
  Ag  Ag16  1  0.582342  0.582342  0.582342  1
  Ag  Ag17  1  0.583213  0.583213  0.253562  1
  Ag  Ag18  1  0.583213  0.253562  0.583213  1
  Ag  Ag19  1  0.253562  0.583213  0.583213  1
  Ru  Ru20  1  0.141664  0.141664  0.141664  1
  Pt  Pt21  1  0.145848  0.145848  0.569675  1
  Pt  Pt22  1  0.145848  0.569675  0.145848  1
  Pt  Pt23  1  0.569675  0.145848  0.145848  1
