# generated using pymatgen
data_ZrTa8GaS16
_symmetry_space_group_name_H-M   'P 1'
_cell_length_a   6.68150600
_cell_length_b   6.68150569
_cell_length_c   13.65774900
_cell_angle_alpha   90.00000000
_cell_angle_beta   90.00000000
_cell_angle_gamma   120.00001142
_symmetry_Int_Tables_number   1
_chemical_formula_structural   ZrTa8GaS16
_chemical_formula_sum   'Zr1 Ta8 Ga1 S16'
_cell_volume   528.02977709
_cell_formula_units_Z   1
loop_
 _symmetry_equiv_pos_site_id
 _symmetry_equiv_pos_as_xyz
  1  'x, y, z'
loop_
 _atom_site_type_symbol
 _atom_site_label
 _atom_site_symmetry_multiplicity
 _atom_site_fract_x
 _atom_site_fract_y
 _atom_site_fract_z
 _atom_site_occupancy
  Zr  Zr0  1  0.000000  0.000000  0.500000  1
  Ta  Ta1  1  0.504261  0.495739  0.737138  1
  Ta  Ta2  1  0.008522  0.504261  0.262862  1
  Ta  Ta3  1  0.495739  0.991478  0.262862  1
  Ta  Ta4  1  0.504261  0.008522  0.737138  1
  Ta  Ta5  1  0.991478  0.495739  0.737138  1
  Ta  Ta6  1  0.495739  0.504261  0.262862  1
  Ta  Ta7  1  0.000000  0.000000  0.734920  1
  Ta  Ta8  1  0.000000  0.000000  0.265080  1
  Ga  Ga9  1  0.000000  0.000000  0.000000  1
  S  S10  1  0.830445  0.169555  0.379355  1
  S  S11  1  0.830445  0.660888  0.379355  1
  S  S12  1  0.339112  0.169555  0.379355  1
  S  S13  1  0.668106  0.834053  0.849693  1
  S  S14  1  0.169555  0.339112  0.620645  1
  S  S15  1  0.165947  0.834053  0.849693  1
  S  S16  1  0.165947  0.331894  0.849693  1
  S  S17  1  0.834053  0.165947  0.150307  1
  S  S18  1  0.331894  0.165947  0.150307  1
  S  S19  1  0.660888  0.830445  0.620645  1
  S  S20  1  0.333333  0.666667  0.147182  1
  S  S21  1  0.666667  0.333333  0.620687  1
  S  S22  1  0.666667  0.333333  0.852818  1
  S  S23  1  0.333333  0.666667  0.379313  1
  S  S24  1  0.834053  0.668106  0.150307  1
  S  S25  1  0.169555  0.830445  0.620645  1
