# generated using pymatgen
data_La6Sc2(BiSb)5
_symmetry_space_group_name_H-M   'P 1'
_cell_length_a   9.74190100
_cell_length_b   9.72658637
_cell_length_c   6.57537000
_cell_angle_alpha   90.00000000
_cell_angle_beta   90.00000000
_cell_angle_gamma   120.05210154
_symmetry_Int_Tables_number   1
_chemical_formula_structural   La6Sc2(BiSb)5
_chemical_formula_sum   'La6 Sc2 Bi5 Sb5'
_cell_volume   539.29542807
_cell_formula_units_Z   1
loop_
 _symmetry_equiv_pos_site_id
 _symmetry_equiv_pos_as_xyz
  1  'x, y, z'
loop_
 _atom_site_type_symbol
 _atom_site_label
 _atom_site_symmetry_multiplicity
 _atom_site_fract_x
 _atom_site_fract_y
 _atom_site_fract_z
 _atom_site_occupancy
  La  La0  1  0.996213  0.617255  0.250000  1
  La  La1  1  0.378958  0.382745  0.250000  1
  La  La2  1  0.379611  0.000000  0.750000  1
  La  La3  1  0.622389  0.622319  0.750000  1
  La  La4  1  0.624979  0.000000  0.250000  1
  La  La5  1  0.000070  0.377681  0.750000  1
  Sc  Sc6  1  0.997038  0.000000  0.998092  1
  Sc  Sc7  1  0.997038  0.000000  0.501908  1
  Bi  Bi8  1  0.333295  0.667359  0.500062  1
  Bi  Bi9  1  0.665937  0.332641  0.999938  1
  Bi  Bi10  1  0.333295  0.667359  0.999938  1
  Bi  Bi11  1  0.260816  0.000000  0.250000  1
  Bi  Bi12  1  0.665937  0.332641  0.500062  1
  Sb  Sb13  1  0.001023  0.257162  0.250000  1
  Sb  Sb14  1  0.256932  0.256497  0.750000  1
  Sb  Sb15  1  0.742172  0.000000  0.750000  1
  Sb  Sb16  1  0.000434  0.743503  0.750000  1
  Sb  Sb17  1  0.743861  0.742838  0.250000  1
