# generated using pymatgen
data_DyYHo4(B7W)2
_symmetry_space_group_name_H-M   'P 1'
_cell_length_a   8.15154701
_cell_length_b   8.15154724
_cell_length_c   9.48864900
_cell_angle_alpha   90.00000000
_cell_angle_beta   90.00000000
_cell_angle_gamma   155.55410059
_symmetry_Int_Tables_number   1
_chemical_formula_structural   DyYHo4(B7W)2
_chemical_formula_sum   'Dy1 Y1 Ho4 B14 W2'
_cell_volume   260.92186369
_cell_formula_units_Z   1
loop_
 _symmetry_equiv_pos_site_id
 _symmetry_equiv_pos_as_xyz
  1  'x, y, z'
loop_
 _atom_site_type_symbol
 _atom_site_label
 _atom_site_symmetry_multiplicity
 _atom_site_fract_x
 _atom_site_fract_y
 _atom_site_fract_z
 _atom_site_occupancy
  Dy  Dy0  1  0.754549  0.245451  0.750000  1
  Y  Y1  1  0.245593  0.754407  0.250000  1
  Ho  Ho2  1  0.892900  0.107100  0.440066  1
  Ho  Ho3  1  0.107166  0.892834  0.559979  1
  Ho  Ho4  1  0.892900  0.107100  0.059934  1
  Ho  Ho5  1  0.107166  0.892834  0.940021  1
  B  B6  1  0.727587  0.272413  0.467470  1
  B  B7  1  0.272415  0.727585  0.532717  1
  B  B8  1  0.727587  0.272413  0.032530  1
  B  B9  1  0.272415  0.727585  0.967283  1
  B  B10  1  0.635044  0.364956  0.146831  1
  B  B11  1  0.364804  0.635196  0.853054  1
  B  B12  1  0.635044  0.364956  0.353169  1
  B  B13  1  0.364804  0.635196  0.646946  1
  B  B14  1  0.519547  0.480453  0.091477  1
  B  B15  1  0.480453  0.519547  0.908474  1
  B  B16  1  0.519547  0.480453  0.408523  1
  B  B17  1  0.480453  0.519547  0.591526  1
  B  B18  1  0.454771  0.545229  0.250000  1
  B  B19  1  0.545222  0.454778  0.750000  1
  W  W20  1  0.053104  0.946896  0.250000  1
  W  W21  1  0.946930  0.053070  0.750000  1
