# generated using pymatgen
data_Lu8ReOs3C8
_symmetry_space_group_name_H-M   'P 1'
_cell_length_a   4.98227300
_cell_length_b   6.40958569
_cell_length_c   9.60432462
_cell_angle_alpha   89.88467000
_cell_angle_beta   90.00000000
_cell_angle_gamma   90.00000000
_symmetry_Int_Tables_number   1
_chemical_formula_structural   Lu8ReOs3C8
_chemical_formula_sum   'Lu8 Re1 Os3 C8'
_cell_volume   306.70681734
_cell_formula_units_Z   1
loop_
 _symmetry_equiv_pos_site_id
 _symmetry_equiv_pos_as_xyz
  1  'x, y, z'
loop_
 _atom_site_type_symbol
 _atom_site_label
 _atom_site_symmetry_multiplicity
 _atom_site_fract_x
 _atom_site_fract_y
 _atom_site_fract_z
 _atom_site_occupancy
  Lu  Lu0  1  0.250000  0.825655  0.944893  1
  Lu  Lu1  1  0.250000  0.325966  0.555261  1
  Lu  Lu2  1  0.750000  0.175450  0.055687  1
  Lu  Lu3  1  0.750000  0.677640  0.443715  1
  Lu  Lu4  1  0.250000  0.469195  0.217211  1
  Lu  Lu5  1  0.250000  0.967599  0.281263  1
  Lu  Lu6  1  0.750000  0.531238  0.785079  1
  Lu  Lu7  1  0.750000  0.030988  0.715658  1
  Re  Re8  1  0.750000  0.217615  0.369940  1
  Os  Os9  1  0.250000  0.282805  0.867808  1
  Os  Os10  1  0.250000  0.783343  0.632016  1
  Os  Os11  1  0.750000  0.717998  0.129730  1
  C  C12  1  0.250000  0.048073  0.741349  1
  C  C13  1  0.250000  0.548104  0.758492  1
  C  C14  1  0.750000  0.950842  0.260208  1
  C  C15  1  0.750000  0.451649  0.241139  1
  C  C16  1  0.250000  0.669960  0.442421  1
  C  C17  1  0.250000  0.169162  0.057678  1
  C  C18  1  0.750000  0.327796  0.559015  1
  C  C19  1  0.750000  0.828924  0.941435  1
