# generated using pymatgen
data_Nb8CdBiS16
_symmetry_space_group_name_H-M   'P 1'
_cell_length_a   6.76435101
_cell_length_b   6.76496836
_cell_length_c   13.89916605
_cell_angle_alpha   90.00545335
_cell_angle_beta   90.00372247
_cell_angle_gamma   120.00011771
_symmetry_Int_Tables_number   1
_chemical_formula_structural   Nb8CdBiS16
_chemical_formula_sum   'Nb8 Cd1 Bi1 S16'
_cell_volume   550.82134251
_cell_formula_units_Z   1
loop_
 _symmetry_equiv_pos_site_id
 _symmetry_equiv_pos_as_xyz
  1  'x, y, z'
loop_
 _atom_site_type_symbol
 _atom_site_label
 _atom_site_symmetry_multiplicity
 _atom_site_fract_x
 _atom_site_fract_y
 _atom_site_fract_z
 _atom_site_occupancy
  Nb  Nb0  1  0.988397  0.494208  0.257929  1
  Nb  Nb1  1  0.011603  0.505792  0.742071  1
  Nb  Nb2  1  0.494193  0.505773  0.742079  1
  Nb  Nb3  1  0.505778  0.011547  0.257905  1
  Nb  Nb4  1  0.000015  0.000011  0.741520  1
  Nb  Nb5  1  0.999985  0.999989  0.258480  1
  Nb  Nb6  1  0.505807  0.494227  0.257921  1
  Nb  Nb7  1  0.494222  0.988453  0.742095  1
  Cd  Cd8  1  0.000000  0.000000  0.500000  1
  Bi  Bi9  1  0.000000  0.000000  0.000000  1
  S  S10  1  0.333400  0.666733  0.627053  1
  S  S11  1  0.666628  0.333294  0.142754  1
  S  S12  1  0.666600  0.333267  0.372947  1
  S  S13  1  0.333372  0.666706  0.857246  1
  S  S14  1  0.169590  0.339138  0.369040  1
  S  S15  1  0.831812  0.168118  0.853074  1
  S  S16  1  0.336344  0.168156  0.853059  1
  S  S17  1  0.660819  0.830424  0.369032  1
  S  S18  1  0.169613  0.830449  0.369033  1
  S  S19  1  0.831862  0.663757  0.853088  1
  S  S20  1  0.168138  0.336243  0.146912  1
  S  S21  1  0.830387  0.169551  0.630967  1
  S  S22  1  0.339181  0.169576  0.630968  1
  S  S23  1  0.663656  0.831844  0.146941  1
  S  S24  1  0.168188  0.831882  0.146926  1
  S  S25  1  0.830410  0.660862  0.630960  1
