# generated using pymatgen
data_Ho2Er3Bi2Os
_symmetry_space_group_name_H-M   'P 1'
_cell_length_a   7.90431300
_cell_length_b   9.00523700
_cell_length_c   12.46362000
_cell_angle_alpha   90.00000000
_cell_angle_beta   90.00000000
_cell_angle_gamma   90.00000000
_symmetry_Int_Tables_number   1
_chemical_formula_structural   Ho2Er3Bi2Os
_chemical_formula_sum   'Ho8 Er12 Bi8 Os4'
_cell_volume   887.16311248
_cell_formula_units_Z   4
loop_
 _symmetry_equiv_pos_site_id
 _symmetry_equiv_pos_as_xyz
  1  'x, y, z'
loop_
 _atom_site_type_symbol
 _atom_site_label
 _atom_site_symmetry_multiplicity
 _atom_site_fract_x
 _atom_site_fract_y
 _atom_site_fract_z
 _atom_site_occupancy
  Ho  Ho0  1  0.662701  0.750000  0.709045  1
  Ho  Ho1  1  0.337299  0.250000  0.290955  1
  Ho  Ho2  1  0.162701  0.250000  0.790955  1
  Ho  Ho3  1  0.837299  0.750000  0.209045  1
  Ho  Ho4  1  0.129198  0.750000  0.812174  1
  Ho  Ho5  1  0.870802  0.250000  0.187826  1
  Ho  Ho6  1  0.629198  0.250000  0.687826  1
  Ho  Ho7  1  0.370802  0.750000  0.312174  1
  Er  Er8  1  0.557625  0.750000  0.994905  1
  Er  Er9  1  0.442375  0.250000  0.005095  1
  Er  Er10  1  0.057625  0.250000  0.505095  1
  Er  Er11  1  0.942375  0.750000  0.494905  1
  Er  Er12  1  0.828350  0.458756  0.933490  1
  Er  Er13  1  0.171650  0.541244  0.066510  1
  Er  Er14  1  0.328350  0.541244  0.566510  1
  Er  Er15  1  0.171650  0.958756  0.066510  1
  Er  Er16  1  0.671650  0.458756  0.433490  1
  Er  Er17  1  0.828350  0.041244  0.933490  1
  Er  Er18  1  0.671650  0.041244  0.433490  1
  Er  Er19  1  0.328350  0.958756  0.566510  1
  Bi  Bi20  1  0.937905  0.004702  0.672417  1
  Bi  Bi21  1  0.062095  0.995298  0.327583  1
  Bi  Bi22  1  0.437905  0.995298  0.827583  1
  Bi  Bi23  1  0.062095  0.504702  0.327583  1
  Bi  Bi24  1  0.562095  0.004702  0.172417  1
  Bi  Bi25  1  0.937905  0.495298  0.672417  1
  Bi  Bi26  1  0.562095  0.495298  0.172417  1
  Bi  Bi27  1  0.437905  0.504702  0.827583  1
  Os  Os28  1  0.925766  0.750000  0.991841  1
  Os  Os29  1  0.074234  0.250000  0.008159  1
  Os  Os30  1  0.425766  0.250000  0.508159  1
  Os  Os31  1  0.574234  0.750000  0.491841  1
