# generated using pymatgen
data_Tm2Lu6Ga3Ir
_symmetry_space_group_name_H-M   'P 1'
_cell_length_a   9.87028902
_cell_length_b   9.86626076
_cell_length_c   6.89230206
_cell_angle_alpha   89.99427126
_cell_angle_beta   90.01144701
_cell_angle_gamma   120.01351026
_symmetry_Int_Tables_number   1
_chemical_formula_structural   Tm2Lu6Ga3Ir
_chemical_formula_sum   'Tm4 Lu12 Ga6 Ir2'
_cell_volume   581.19014948
_cell_formula_units_Z   2
loop_
 _symmetry_equiv_pos_site_id
 _symmetry_equiv_pos_as_xyz
  1  'x, y, z'
loop_
 _atom_site_type_symbol
 _atom_site_label
 _atom_site_symmetry_multiplicity
 _atom_site_fract_x
 _atom_site_fract_y
 _atom_site_fract_z
 _atom_site_occupancy
  Tm  Tm0  1  0.067762  0.533869  0.294811  1
  Tm  Tm1  1  0.533891  0.466131  0.794811  1
  Tm  Tm2  1  0.000061  0.999970  0.266926  1
  Tm  Tm3  1  0.000091  0.000030  0.766926  1
  Lu  Lu4  1  0.172077  0.828366  0.989245  1
  Lu  Lu5  1  0.343710  0.171634  0.489245  1
  Lu  Lu6  1  0.828131  0.656477  0.489575  1
  Lu  Lu7  1  0.171656  0.343523  0.989575  1
  Lu  Lu8  1  0.656425  0.828534  0.989918  1
  Lu  Lu9  1  0.827890  0.171466  0.489918  1
  Lu  Lu10  1  0.333581  0.667031  0.663604  1
  Lu  Lu11  1  0.666551  0.332969  0.163604  1
  Lu  Lu12  1  0.465732  0.534416  0.294854  1
  Lu  Lu13  1  0.931314  0.465584  0.794854  1
  Lu  Lu14  1  0.534328  0.068494  0.794815  1
  Lu  Lu15  1  0.465834  0.931506  0.294815  1
  Ga  Ga16  1  0.163579  0.836598  0.540874  1
  Ga  Ga17  1  0.326981  0.163402  0.040874  1
  Ga  Ga18  1  0.836684  0.673041  0.040642  1
  Ga  Ga19  1  0.163642  0.326959  0.540642  1
  Ga  Ga20  1  0.672838  0.836360  0.540401  1
  Ga  Ga21  1  0.836480  0.163640  0.040401  1
  Ir  Ir22  1  0.333848  0.666936  0.056340  1
  Ir  Ir23  1  0.666912  0.333064  0.556340  1
