# generated using pymatgen
data_CaZr4(AsO4)6
_symmetry_space_group_name_H-M   'P 1'
_cell_length_a   9.22355780
_cell_length_b   9.22355823
_cell_length_c   9.51038915
_cell_angle_alpha   60.99275688
_cell_angle_beta   60.99275856
_cell_angle_gamma   60.00000161
_symmetry_Int_Tables_number   1
_chemical_formula_structural   CaZr4(AsO4)6
_chemical_formula_sum   'Ca1 Zr4 As6 O24'
_cell_volume   580.54600922
_cell_formula_units_Z   1
loop_
 _symmetry_equiv_pos_site_id
 _symmetry_equiv_pos_as_xyz
  1  'x, y, z'
loop_
 _atom_site_type_symbol
 _atom_site_label
 _atom_site_symmetry_multiplicity
 _atom_site_fract_x
 _atom_site_fract_y
 _atom_site_fract_z
 _atom_site_occupancy
  Ca  Ca0  1  0.500000  0.500000  0.500000  1
  Zr  Zr1  1  0.140224  0.140224  0.579328  1
  Zr  Zr2  1  0.859776  0.859776  0.420672  1
  Zr  Zr3  1  0.646228  0.646228  0.061318  1
  Zr  Zr4  1  0.353772  0.353772  0.938682  1
  As  As5  1  0.957022  0.258158  0.258907  1
  As  As6  1  0.258158  0.525913  0.258907  1
  As  As7  1  0.525913  0.957022  0.258907  1
  As  As8  1  0.042978  0.741842  0.741093  1
  As  As9  1  0.741842  0.474087  0.741093  1
  As  As10  1  0.474087  0.042978  0.741093  1
  O  O11  1  0.981424  0.265285  0.421406  1
  O  O12  1  0.265285  0.331885  0.421406  1
  O  O13  1  0.331885  0.981424  0.421406  1
  O  O14  1  0.018576  0.734715  0.578594  1
  O  O15  1  0.734715  0.668115  0.578594  1
  O  O16  1  0.668115  0.018576  0.578594  1
  O  O17  1  0.505003  0.884130  0.928043  1
  O  O18  1  0.884130  0.682825  0.928043  1
  O  O19  1  0.682825  0.505003  0.928043  1
  O  O20  1  0.494997  0.115870  0.071957  1
  O  O21  1  0.115870  0.317175  0.071957  1
  O  O22  1  0.317175  0.494997  0.071957  1
  O  O23  1  0.029646  0.942237  0.718404  1
  O  O24  1  0.942237  0.309713  0.718404  1
  O  O25  1  0.309713  0.029646  0.718404  1
  O  O26  1  0.970354  0.057763  0.281596  1
  O  O27  1  0.057763  0.690287  0.281596  1
  O  O28  1  0.690287  0.970354  0.281596  1
  O  O29  1  0.587571  0.748437  0.254968  1
  O  O30  1  0.748437  0.409023  0.254968  1
  O  O31  1  0.409023  0.587571  0.254968  1
  O  O32  1  0.412429  0.251563  0.745032  1
  O  O33  1  0.251563  0.590977  0.745032  1
  O  O34  1  0.590977  0.412429  0.745032  1
