# generated using pymatgen
data_Ho17Tm3Sn16
_symmetry_space_group_name_H-M   'P 1'
_cell_length_a   7.99193811
_cell_length_b   8.12777111
_cell_length_c   15.38069600
_cell_angle_alpha   90.00000000
_cell_angle_beta   90.00000000
_cell_angle_gamma   90.01895922
_symmetry_Int_Tables_number   1
_chemical_formula_structural   Ho17Tm3Sn16
_chemical_formula_sum   'Ho17 Tm3 Sn16'
_cell_volume   999.07833505
_cell_formula_units_Z   1
loop_
 _symmetry_equiv_pos_site_id
 _symmetry_equiv_pos_as_xyz
  1  'x, y, z'
loop_
 _atom_site_type_symbol
 _atom_site_label
 _atom_site_symmetry_multiplicity
 _atom_site_fract_x
 _atom_site_fract_y
 _atom_site_fract_z
 _atom_site_occupancy
  Ho  Ho0  1  0.368107  0.836517  0.877739  1
  Ho  Ho1  1  0.867828  0.663693  0.622265  1
  Ho  Ho2  1  0.632001  0.163609  0.377725  1
  Ho  Ho3  1  0.132006  0.336409  0.122314  1
  Ho  Ho4  1  0.632001  0.163609  0.122275  1
  Ho  Ho5  1  0.132006  0.336409  0.377686  1
  Ho  Ho6  1  0.368107  0.836517  0.622261  1
  Ho  Ho7  1  0.867828  0.663693  0.877735  1
  Ho  Ho8  1  0.521374  0.320251  0.902753  1
  Ho  Ho9  1  0.021227  0.179613  0.597256  1
  Ho  Ho10  1  0.478698  0.679673  0.402728  1
  Ho  Ho11  1  0.978730  0.820306  0.097253  1
  Ho  Ho12  1  0.478698  0.679673  0.097272  1
  Ho  Ho13  1  0.978730  0.820306  0.402747  1
  Ho  Ho14  1  0.521374  0.320251  0.597247  1
  Ho  Ho15  1  0.021227  0.179613  0.902744  1
  Ho  Ho16  1  0.198172  0.503008  0.750000  1
  Tm  Tm17  1  0.698366  0.996927  0.750000  1
  Tm  Tm18  1  0.801668  0.496966  0.250000  1
  Tm  Tm19  1  0.301673  0.003022  0.250000  1
  Sn  Sn20  1  0.292189  0.035378  0.041795  1
  Sn  Sn21  1  0.792189  0.464658  0.458209  1
  Sn  Sn22  1  0.707808  0.964616  0.541781  1
  Sn  Sn23  1  0.207815  0.535389  0.958381  1
  Sn  Sn24  1  0.707808  0.964616  0.958219  1
  Sn  Sn25  1  0.207815  0.535389  0.541619  1
  Sn  Sn26  1  0.292189  0.035378  0.458205  1
  Sn  Sn27  1  0.792189  0.464658  0.041791  1
  Sn  Sn28  1  0.564965  0.619222  0.750000  1
  Sn  Sn29  1  0.064476  0.881103  0.750000  1
  Sn  Sn30  1  0.435467  0.380901  0.250000  1
  Sn  Sn31  1  0.935408  0.119059  0.250000  1
  Sn  Sn32  1  0.330383  0.147844  0.750000  1
  Sn  Sn33  1  0.830165  0.351625  0.750000  1
  Sn  Sn34  1  0.669694  0.851758  0.250000  1
  Sn  Sn35  1  0.169618  0.648341  0.250000  1
