# generated using pymatgen
data_Tb4GaBr6
_symmetry_space_group_name_H-M   'P 1'
_cell_length_a   4.06734700
_cell_length_b   13.41311400
_cell_length_c   14.19648000
_cell_angle_alpha   90.00000000
_cell_angle_beta   90.00000000
_cell_angle_gamma   90.00000000
_symmetry_Int_Tables_number   1
_chemical_formula_structural   Tb4GaBr6
_chemical_formula_sum   'Tb8 Ga2 Br12'
_cell_volume   774.50016726
_cell_formula_units_Z   2
loop_
 _symmetry_equiv_pos_site_id
 _symmetry_equiv_pos_as_xyz
  1  'x, y, z'
loop_
 _atom_site_type_symbol
 _atom_site_label
 _atom_site_symmetry_multiplicity
 _atom_site_fract_x
 _atom_site_fract_y
 _atom_site_fract_z
 _atom_site_occupancy
  Tb  Tb0  1  0.500000  0.118868  0.339491  1
  Tb  Tb1  1  0.500000  0.881132  0.660509  1
  Tb  Tb2  1  0.500000  0.618868  0.160509  1
  Tb  Tb3  1  0.500000  0.381132  0.839491  1
  Tb  Tb4  1  0.000000  0.121620  0.580519  1
  Tb  Tb5  1  0.000000  0.878380  0.419481  1
  Tb  Tb6  1  0.000000  0.621620  0.919481  1
  Tb  Tb7  1  0.000000  0.378380  0.080519  1
  Ga  Ga8  1  0.500000  0.000000  0.500000  1
  Ga  Ga9  1  0.500000  0.500000  0.000000  1
  Br  Br10  1  0.500000  0.244800  0.164046  1
  Br  Br11  1  0.500000  0.755200  0.835954  1
  Br  Br12  1  0.500000  0.744800  0.335954  1
  Br  Br13  1  0.500000  0.255200  0.664046  1
  Br  Br14  1  0.000000  0.254568  0.410823  1
  Br  Br15  1  0.000000  0.745432  0.589177  1
  Br  Br16  1  0.000000  0.754568  0.089177  1
  Br  Br17  1  0.000000  0.245432  0.910823  1
  Br  Br18  1  0.000000  0.002084  0.243494  1
  Br  Br19  1  0.000000  0.997916  0.756506  1
  Br  Br20  1  0.000000  0.502084  0.256506  1
  Br  Br21  1  0.000000  0.497916  0.743494  1
