# generated using pymatgen
data_Th4Al18(FePd)3
_symmetry_space_group_name_H-M   'P 1'
_cell_length_a   7.61083192
_cell_length_b   7.61083191
_cell_length_c   9.47818479
_cell_angle_alpha   89.98488966
_cell_angle_beta   89.98489089
_cell_angle_gamma   119.47279743
_symmetry_Int_Tables_number   1
_chemical_formula_structural   Th4Al18(FePd)3
_chemical_formula_sum   'Th4 Al18 Fe3 Pd3'
_cell_volume   477.97231497
_cell_formula_units_Z   1
loop_
 _symmetry_equiv_pos_site_id
 _symmetry_equiv_pos_as_xyz
  1  'x, y, z'
loop_
 _atom_site_type_symbol
 _atom_site_label
 _atom_site_symmetry_multiplicity
 _atom_site_fract_x
 _atom_site_fract_y
 _atom_site_fract_z
 _atom_site_occupancy
  Th  Th0  1  0.993106  0.669597  0.247876  1
  Th  Th1  1  0.008133  0.332000  0.751025  1
  Th  Th2  1  0.668000  0.991867  0.248975  1
  Th  Th3  1  0.330403  0.006894  0.752124  1
  Al  Al4  1  0.123332  0.125294  0.247915  1
  Al  Al5  1  0.874706  0.876668  0.752085  1
  Al  Al6  1  0.992980  0.324731  0.071154  1
  Al  Al7  1  0.989135  0.665447  0.927274  1
  Al  Al8  1  0.994385  0.675147  0.575069  1
  Al  Al9  1  0.324853  0.005615  0.424931  1
  Al  Al10  1  0.003688  0.324953  0.425424  1
  Al  Al11  1  0.675047  0.996312  0.574576  1
  Al  Al12  1  0.675269  0.007020  0.928846  1
  Al  Al13  1  0.334553  0.010865  0.072726  1
  Al  Al14  1  0.329017  0.328886  0.548625  1
  Al  Al15  1  0.671114  0.670983  0.451375  1
  Al  Al16  1  0.672508  0.665286  0.040980  1
  Al  Al17  1  0.334714  0.327492  0.959020  1
  Al  Al18  1  0.340104  0.539850  0.249233  1
  Al  Al19  1  0.658303  0.452505  0.759875  1
  Al  Al20  1  0.547495  0.341697  0.240125  1
  Al  Al21  1  0.460150  0.659896  0.750767  1
  Fe  Fe22  1  0.672565  0.327435  0.000000  1
  Fe  Fe23  1  0.000349  0.999651  0.000000  1
  Fe  Fe24  1  0.999868  0.000132  0.500000  1
  Pd  Pd25  1  0.327462  0.672538  0.000000  1
  Pd  Pd26  1  0.327039  0.672961  0.500000  1
  Pd  Pd27  1  0.671722  0.328278  0.500000  1
