# generated using pymatgen
data_Sm4Y4Re3B24Os
_symmetry_space_group_name_H-M   'P 1'
_cell_length_a   3.70600400
_cell_length_b   9.22770104
_cell_length_c   11.64493314
_cell_angle_alpha   89.93811218
_cell_angle_beta   90.00000000
_cell_angle_gamma   90.00000000
_symmetry_Int_Tables_number   1
_chemical_formula_structural   Sm4Y4Re3B24Os
_chemical_formula_sum   'Sm4 Y4 Re3 B24 Os1'
_cell_volume   398.23199123
_cell_formula_units_Z   1
loop_
 _symmetry_equiv_pos_site_id
 _symmetry_equiv_pos_as_xyz
  1  'x, y, z'
loop_
 _atom_site_type_symbol
 _atom_site_label
 _atom_site_symmetry_multiplicity
 _atom_site_fract_x
 _atom_site_fract_y
 _atom_site_fract_z
 _atom_site_occupancy
  Sm  Sm0  1  0.000000  0.822046  0.085710  1
  Sm  Sm1  1  0.000000  0.177350  0.912633  1
  Sm  Sm2  1  0.000000  0.324317  0.415325  1
  Sm  Sm3  1  0.000000  0.676909  0.586411  1
  Y  Y4  1  0.000000  0.442427  0.130224  1
  Y  Y5  1  0.000000  0.556926  0.870412  1
  Y  Y6  1  0.000000  0.942231  0.369949  1
  Y  Y7  1  0.000000  0.057287  0.629410  1
  Re  Re8  1  0.000000  0.862027  0.821206  1
  Re  Re9  1  0.000000  0.638541  0.319870  1
  Re  Re10  1  0.000000  0.361634  0.679641  1
  B  B11  1  0.500000  0.054424  0.068439  1
  B  B12  1  0.500000  0.946267  0.931788  1
  B  B13  1  0.500000  0.553801  0.431923  1
  B  B14  1  0.500000  0.446236  0.568319  1
  B  B15  1  0.500000  0.248172  0.082990  1
  B  B16  1  0.500000  0.751136  0.917382  1
  B  B17  1  0.500000  0.748776  0.417244  1
  B  B18  1  0.500000  0.251613  0.582656  1
  B  B19  1  0.500000  0.289836  0.233827  1
  B  B20  1  0.500000  0.709207  0.766343  1
  B  B21  1  0.500000  0.790591  0.265816  1
  B  B22  1  0.500000  0.209073  0.733610  1
  B  B23  1  0.500000  0.130539  0.313330  1
  B  B24  1  0.500000  0.870018  0.686711  1
  B  B25  1  0.500000  0.630373  0.185911  1
  B  B26  1  0.500000  0.369480  0.813688  1
  B  B27  1  0.500000  0.483378  0.287647  1
  B  B28  1  0.500000  0.516805  0.712766  1
  B  B29  1  0.500000  0.984144  0.212210  1
  B  B30  1  0.500000  0.017226  0.787551  1
  B  B31  1  0.500000  0.100188  0.471625  1
  B  B32  1  0.500000  0.899993  0.527541  1
  B  B33  1  0.500000  0.599436  0.028135  1
  B  B34  1  0.500000  0.399279  0.972265  1
  Os  Os35  1  0.000000  0.138315  0.179489  1
