# generated using pymatgen
data_Hf18Ti2Re6AuSe
_symmetry_space_group_name_H-M   'P 1'
_cell_length_a   8.72869600
_cell_length_b   8.72869559
_cell_length_c   8.55117200
_cell_angle_alpha   90.00000000
_cell_angle_beta   90.00000000
_cell_angle_gamma   120.00000157
_symmetry_Int_Tables_number   1
_chemical_formula_structural   Hf18Ti2Re6AuSe
_chemical_formula_sum   'Hf18 Ti2 Re6 Au1 Se1'
_cell_volume   564.22845274
_cell_formula_units_Z   1
loop_
 _symmetry_equiv_pos_site_id
 _symmetry_equiv_pos_as_xyz
  1  'x, y, z'
loop_
 _atom_site_type_symbol
 _atom_site_label
 _atom_site_symmetry_multiplicity
 _atom_site_fract_x
 _atom_site_fract_y
 _atom_site_fract_z
 _atom_site_occupancy
  Hf  Hf0  1  0.192282  0.807718  0.448622  1
  Hf  Hf1  1  0.192282  0.384564  0.448622  1
  Hf  Hf2  1  0.615436  0.807718  0.448622  1
  Hf  Hf3  1  0.806835  0.193165  0.548162  1
  Hf  Hf4  1  0.806835  0.613671  0.548162  1
  Hf  Hf5  1  0.386329  0.193165  0.548162  1
  Hf  Hf6  1  0.806835  0.193165  0.951838  1
  Hf  Hf7  1  0.806835  0.613671  0.951838  1
  Hf  Hf8  1  0.386329  0.193165  0.951838  1
  Hf  Hf9  1  0.192282  0.807718  0.051378  1
  Hf  Hf10  1  0.192282  0.384564  0.051378  1
  Hf  Hf11  1  0.615436  0.807718  0.051378  1
  Hf  Hf12  1  0.543531  0.456469  0.250000  1
  Hf  Hf13  1  0.543531  0.087061  0.250000  1
  Hf  Hf14  1  0.912939  0.456469  0.250000  1
  Hf  Hf15  1  0.453369  0.546631  0.750000  1
  Hf  Hf16  1  0.453369  0.906739  0.750000  1
  Hf  Hf17  1  0.093261  0.546631  0.750000  1
  Ti  Ti18  1  0.000000  0.000000  0.502301  1
  Ti  Ti19  1  0.000000  0.000000  0.997699  1
  Re  Re20  1  0.887653  0.112347  0.250000  1
  Re  Re21  1  0.887653  0.775305  0.250000  1
  Re  Re22  1  0.224695  0.112347  0.250000  1
  Re  Re23  1  0.112285  0.887715  0.750000  1
  Re  Re24  1  0.112285  0.224569  0.750000  1
  Re  Re25  1  0.775431  0.887715  0.750000  1
  Au  Au26  1  0.333333  0.666667  0.250000  1
  Se  Se27  1  0.666667  0.333333  0.750000  1
