# generated using pymatgen
data_Ho3In3CuAgIr
_symmetry_space_group_name_H-M   'P 1'
_cell_length_a   7.67479300
_cell_length_b   7.67479214
_cell_length_c   3.87838900
_cell_angle_alpha   90.00000000
_cell_angle_beta   90.00000000
_cell_angle_gamma   119.99999941
_symmetry_Int_Tables_number   1
_chemical_formula_structural   Ho3In3CuAgIr
_chemical_formula_sum   'Ho3 In3 Cu1 Ag1 Ir1'
_cell_volume   197.84054214
_cell_formula_units_Z   1
loop_
 _symmetry_equiv_pos_site_id
 _symmetry_equiv_pos_as_xyz
  1  'x, y, z'
loop_
 _atom_site_type_symbol
 _atom_site_label
 _atom_site_symmetry_multiplicity
 _atom_site_fract_x
 _atom_site_fract_y
 _atom_site_fract_z
 _atom_site_occupancy
  Ho  Ho0  1  0.027537  0.605706  0.500000  1
  Ho  Ho1  1  0.394294  0.421831  0.500000  1
  Ho  Ho2  1  0.578169  0.972463  0.500000  1
  In  In3  1  0.752070  0.747458  0.000000  1
  In  In4  1  0.995388  0.247930  0.000000  1
  In  In5  1  0.252542  0.004612  0.000000  1
  Cu  Cu6  1  0.000000  0.000000  0.500000  1
  Ag  Ag7  1  0.666667  0.333333  0.000000  1
  Ir  Ir8  1  0.333333  0.666667  0.000000  1
