# generated using pymatgen
data_Dy7Ho3Os4
_symmetry_space_group_name_H-M   'P 1'
_cell_length_a   6.35759909
_cell_length_b   7.34769610
_cell_length_c   8.43184563
_cell_angle_alpha   96.89803063
_cell_angle_beta   112.23234990
_cell_angle_gamma   90.00274050
_symmetry_Int_Tables_number   1
_chemical_formula_structural   Dy7Ho3Os4
_chemical_formula_sum   'Dy7 Ho3 Os4'
_cell_volume   361.51744505
_cell_formula_units_Z   1
loop_
 _symmetry_equiv_pos_site_id
 _symmetry_equiv_pos_as_xyz
  1  'x, y, z'
loop_
 _atom_site_type_symbol
 _atom_site_label
 _atom_site_symmetry_multiplicity
 _atom_site_fract_x
 _atom_site_fract_y
 _atom_site_fract_z
 _atom_site_occupancy
  Dy  Dy0  1  0.976483  0.916134  0.183313  1
  Dy  Dy1  1  0.793362  0.583692  0.816343  1
  Dy  Dy2  1  0.023341  0.084033  0.816680  1
  Dy  Dy3  1  0.206824  0.416136  0.183646  1
  Dy  Dy4  1  0.639617  0.816413  0.435379  1
  Dy  Dy5  1  0.203890  0.683493  0.564885  1
  Dy  Dy6  1  0.360476  0.183657  0.564513  1
  Ho  Ho7  1  0.795985  0.316538  0.434988  1
  Ho  Ho8  1  0.422270  0.749751  0.999880  1
  Ho  Ho9  1  0.577912  0.250324  0.000344  1
  Os  Os10  1  0.821959  0.577032  0.219296  1
  Os  Os11  1  0.602867  0.923044  0.780717  1
  Os  Os12  1  0.177540  0.422594  0.780523  1
  Os  Os13  1  0.397474  0.077159  0.219493  1
