# generated using pymatgen
data_Y5CuSe4
_symmetry_space_group_name_H-M   'P 1'
_cell_length_a   7.06846866
_cell_length_b   7.06846914
_cell_length_c   7.06847016
_cell_angle_alpha   99.70583349
_cell_angle_beta   99.70582933
_cell_angle_gamma   131.51534652
_symmetry_Int_Tables_number   1
_chemical_formula_structural   Y5CuSe4
_chemical_formula_sum   'Y5 Cu1 Se4'
_cell_volume   241.12210548
_cell_formula_units_Z   1
loop_
 _symmetry_equiv_pos_site_id
 _symmetry_equiv_pos_as_xyz
  1  'x, y, z'
loop_
 _atom_site_type_symbol
 _atom_site_label
 _atom_site_symmetry_multiplicity
 _atom_site_fract_x
 _atom_site_fract_y
 _atom_site_fract_z
 _atom_site_occupancy
  Y  Y0  1  0.401561  0.790669  0.192230  1
  Y  Y1  1  0.000000  0.000000  0.000000  1
  Y  Y2  1  0.598439  0.209331  0.807770  1
  Y  Y3  1  0.209331  0.401561  0.610892  1
  Y  Y4  1  0.790669  0.598439  0.389108  1
  Cu  Cu5  1  0.500000  0.500000  0.000000  1
  Se  Se6  1  0.094820  0.695990  0.790809  1
  Se  Se7  1  0.695990  0.905180  0.601170  1
  Se  Se8  1  0.304010  0.094820  0.398830  1
  Se  Se9  1  0.905180  0.304010  0.209191  1
