# generated using pymatgen
data_Zr3ScTi2(MnP2)2
_symmetry_space_group_name_H-M   'P 1'
_cell_length_a   3.59904900
_cell_length_b   6.60065258
_cell_length_c   7.83136605
_cell_angle_alpha   89.91975037
_cell_angle_beta   90.00000000
_cell_angle_gamma   90.00000000
_symmetry_Int_Tables_number   1
_chemical_formula_structural   Zr3ScTi2(MnP2)2
_chemical_formula_sum   'Zr3 Sc1 Ti2 Mn2 P4'
_cell_volume   186.04231363
_cell_formula_units_Z   1
loop_
 _symmetry_equiv_pos_site_id
 _symmetry_equiv_pos_as_xyz
  1  'x, y, z'
loop_
 _atom_site_type_symbol
 _atom_site_label
 _atom_site_symmetry_multiplicity
 _atom_site_fract_x
 _atom_site_fract_y
 _atom_site_fract_z
 _atom_site_occupancy
  Zr  Zr0  1  0.250000  0.033321  0.831113  1
  Zr  Zr1  1  0.750000  0.966746  0.173012  1
  Zr  Zr2  1  0.750000  0.466545  0.328000  1
  Sc  Sc3  1  0.250000  0.536180  0.667879  1
  Ti  Ti4  1  0.250000  0.131561  0.446259  1
  Ti  Ti5  1  0.250000  0.633706  0.054776  1
  Mn  Mn6  1  0.750000  0.367521  0.939783  1
  Mn  Mn7  1  0.750000  0.869400  0.560204  1
  P  P8  1  0.250000  0.263859  0.126778  1
  P  P9  1  0.250000  0.762748  0.374865  1
  P  P10  1  0.750000  0.731763  0.850456  1
  P  P11  1  0.750000  0.236652  0.646874  1
