# generated using pymatgen
data_CaZnIn3Rh
_symmetry_space_group_name_H-M   'P 1'
_cell_length_a   4.18179500
_cell_length_b   7.58890000
_cell_length_c   8.40517400
_cell_angle_alpha   90.00000000
_cell_angle_beta   90.00000000
_cell_angle_gamma   90.00000000
_symmetry_Int_Tables_number   1
_chemical_formula_structural   CaZnIn3Rh
_chemical_formula_sum   'Ca2 Zn2 In6 Rh2'
_cell_volume   266.74008028
_cell_formula_units_Z   2
loop_
 _symmetry_equiv_pos_site_id
 _symmetry_equiv_pos_as_xyz
  1  'x, y, z'
loop_
 _atom_site_type_symbol
 _atom_site_label
 _atom_site_symmetry_multiplicity
 _atom_site_fract_x
 _atom_site_fract_y
 _atom_site_fract_z
 _atom_site_occupancy
  Ca  Ca0  1  0.000000  0.398675  0.250000  1
  Ca  Ca1  1  0.000000  0.601325  0.750000  1
  Zn  Zn2  1  0.000000  0.000000  0.000000  1
  Zn  Zn3  1  0.000000  0.000000  0.500000  1
  In  In4  1  0.500000  0.063822  0.250000  1
  In  In5  1  0.500000  0.936178  0.750000  1
  In  In6  1  0.500000  0.690291  0.060584  1
  In  In7  1  0.500000  0.309709  0.939416  1
  In  In8  1  0.500000  0.690291  0.439416  1
  In  In9  1  0.500000  0.309709  0.560584  1
  Rh  Rh10  1  0.000000  0.814257  0.250000  1
  Rh  Rh11  1  0.000000  0.185743  0.750000  1
