# generated using pymatgen
data_Tm3Fe8Ru
_symmetry_space_group_name_H-M   'P 1'
_cell_length_a   5.05235482
_cell_length_b   5.05235591
_cell_length_c   8.73992199
_cell_angle_alpha   73.19957971
_cell_angle_beta   73.19957280
_cell_angle_gamma   60.00000526
_symmetry_Int_Tables_number   1
_chemical_formula_structural   Tm3Fe8Ru
_chemical_formula_sum   'Tm3 Fe8 Ru1'
_cell_volume   182.12990910
_cell_formula_units_Z   1
loop_
 _symmetry_equiv_pos_site_id
 _symmetry_equiv_pos_as_xyz
  1  'x, y, z'
loop_
 _atom_site_type_symbol
 _atom_site_label
 _atom_site_symmetry_multiplicity
 _atom_site_fract_x
 _atom_site_fract_y
 _atom_site_fract_z
 _atom_site_occupancy
  Tm  Tm0  1  0.141649  0.141649  0.575051  1
  Tm  Tm1  1  0.858351  0.858351  0.424949  1
  Tm  Tm2  1  0.000000  0.000000  0.000000  1
  Fe  Fe3  1  0.075942  0.582320  0.759418  1
  Fe  Fe4  1  0.582320  0.582320  0.759418  1
  Fe  Fe5  1  0.582320  0.075942  0.759418  1
  Fe  Fe6  1  0.924058  0.417680  0.240582  1
  Fe  Fe7  1  0.417680  0.417680  0.240582  1
  Fe  Fe8  1  0.417680  0.924058  0.240582  1
  Fe  Fe9  1  0.333293  0.333293  0.000122  1
  Fe  Fe10  1  0.666707  0.666707  0.999878  1
  Ru  Ru11  1  0.500000  0.500000  0.500000  1
