# generated using pymatgen
data_YbEr2Mg3AgPb2
_symmetry_space_group_name_H-M   'P 1'
_cell_length_a   7.61460686
_cell_length_b   7.61460637
_cell_length_c   4.56034500
_cell_angle_alpha   90.00000000
_cell_angle_beta   90.00000000
_cell_angle_gamma   120.46191230
_symmetry_Int_Tables_number   1
_chemical_formula_structural   YbEr2Mg3AgPb2
_chemical_formula_sum   'Yb1 Er2 Mg3 Ag1 Pb2'
_cell_volume   227.92027450
_cell_formula_units_Z   1
loop_
 _symmetry_equiv_pos_site_id
 _symmetry_equiv_pos_as_xyz
  1  'x, y, z'
loop_
 _atom_site_type_symbol
 _atom_site_label
 _atom_site_symmetry_multiplicity
 _atom_site_fract_x
 _atom_site_fract_y
 _atom_site_fract_z
 _atom_site_occupancy
  Yb  Yb0  1  0.412981  0.412981  0.500000  1
  Er  Er1  1  0.588043  0.002213  0.500000  1
  Er  Er2  1  0.002213  0.588043  0.500000  1
  Mg  Mg3  1  0.767267  0.767267  0.000000  1
  Mg  Mg4  1  0.234108  0.998904  0.000000  1
  Mg  Mg5  1  0.998904  0.234108  0.000000  1
  Ag  Ag6  1  0.995596  0.995596  0.500000  1
  Pb  Pb7  1  0.669481  0.331406  0.000000  1
  Pb  Pb8  1  0.331406  0.669481  0.000000  1
