# generated using pymatgen
data_HoThMn2Fe10P7
_symmetry_space_group_name_H-M   'P 1'
_cell_length_a   9.05396731
_cell_length_b   9.04239391
_cell_length_c   3.66032000
_cell_angle_alpha   90.00000000
_cell_angle_beta   90.00000000
_cell_angle_gamma   120.07251800
_symmetry_Int_Tables_number   1
_chemical_formula_structural   HoThMn2Fe10P7
_chemical_formula_sum   'Ho1 Th1 Mn2 Fe10 P7'
_cell_volume   259.33086624
_cell_formula_units_Z   1
loop_
 _symmetry_equiv_pos_site_id
 _symmetry_equiv_pos_as_xyz
  1  'x, y, z'
loop_
 _atom_site_type_symbol
 _atom_site_label
 _atom_site_symmetry_multiplicity
 _atom_site_fract_x
 _atom_site_fract_y
 _atom_site_fract_z
 _atom_site_occupancy
  Ho  Ho0  1  0.669070  0.333994  0.000000  1
  Th  Th1  1  0.332255  0.665493  0.500000  1
  Mn  Mn2  1  0.783488  0.887872  0.500000  1
  Mn  Mn3  1  0.116292  0.900564  0.500000  1
  Fe  Fe4  1  0.057420  0.425343  0.000000  1
  Fe  Fe5  1  0.572449  0.629198  0.000000  1
  Fe  Fe6  1  0.369307  0.942832  0.000000  1
  Fe  Fe7  1  0.273191  0.149978  0.000000  1
  Fe  Fe8  1  0.849210  0.122322  0.000000  1
  Fe  Fe9  1  0.877198  0.728434  0.000000  1
  Fe  Fe10  1  0.433445  0.380494  0.500000  1
  Fe  Fe11  1  0.619668  0.054164  0.500000  1
  Fe  Fe12  1  0.946866  0.564947  0.500000  1
  Fe  Fe13  1  0.097786  0.214721  0.500000  1
  P  P14  1  0.298166  0.401297  0.000000  1
  P  P15  1  0.594162  0.897393  0.000000  1
  P  P16  1  0.101307  0.696475  0.000000  1
  P  P17  1  0.409555  0.116813  0.500000  1
  P  P18  1  0.890661  0.290950  0.500000  1
  P  P19  1  0.707141  0.592677  0.500000  1
  P  P20  1  0.001361  0.004040  0.000000  1
