# generated using pymatgen
data_Hf8Zr2AlSn6Sb
_symmetry_space_group_name_H-M   'P 1'
_cell_length_a   8.74262810
_cell_length_b   8.74039741
_cell_length_c   5.88500401
_cell_angle_alpha   90.00780440
_cell_angle_beta   89.99610034
_cell_angle_gamma   119.99156133
_symmetry_Int_Tables_number   1
_chemical_formula_structural   Hf8Zr2AlSn6Sb
_chemical_formula_sum   'Hf8 Zr2 Al1 Sn6 Sb1'
_cell_volume   389.48209594
_cell_formula_units_Z   1
loop_
 _symmetry_equiv_pos_site_id
 _symmetry_equiv_pos_as_xyz
  1  'x, y, z'
loop_
 _atom_site_type_symbol
 _atom_site_label
 _atom_site_symmetry_multiplicity
 _atom_site_fract_x
 _atom_site_fract_y
 _atom_site_fract_z
 _atom_site_occupancy
  Hf  Hf0  1  0.332233  0.666117  0.000000  1
  Hf  Hf1  1  0.666224  0.333112  0.500000  1
  Hf  Hf2  1  0.666251  0.333125  0.000000  1
  Hf  Hf3  1  0.332388  0.666194  0.500000  1
  Hf  Hf4  1  0.276792  0.999508  0.262914  1
  Hf  Hf5  1  0.276792  0.277284  0.737086  1
  Hf  Hf6  1  0.000065  0.723092  0.738035  1
  Hf  Hf7  1  0.000065  0.276974  0.261965  1
  Zr  Zr8  1  0.724063  0.723422  0.261175  1
  Zr  Zr9  1  0.724063  0.000640  0.738825  1
  Al  Al10  1  0.000780  0.000390  0.500000  1
  Sn  Sn11  1  0.611764  0.000425  0.247645  1
  Sn  Sn12  1  0.611764  0.611340  0.752355  1
  Sn  Sn13  1  0.000288  0.388720  0.752315  1
  Sn  Sn14  1  0.000288  0.611568  0.247685  1
  Sn  Sn15  1  0.387226  0.387265  0.247465  1
  Sn  Sn16  1  0.387226  0.999962  0.752535  1
  Sb  Sb17  1  0.001726  0.000863  0.000000  1
