# generated using pymatgen
data_Hf5Zr(PtN)2
_symmetry_space_group_name_H-M   'P 1'
_cell_length_a   5.91670016
_cell_length_b   5.91669997
_cell_length_c   8.87035700
_cell_angle_alpha   90.00000000
_cell_angle_beta   90.00000000
_cell_angle_gamma   147.38332931
_symmetry_Int_Tables_number   1
_chemical_formula_structural   Hf5Zr(PtN)2
_chemical_formula_sum   'Hf5 Zr1 Pt2 N2'
_cell_volume   167.37930803
_cell_formula_units_Z   1
loop_
 _symmetry_equiv_pos_site_id
 _symmetry_equiv_pos_as_xyz
  1  'x, y, z'
loop_
 _atom_site_type_symbol
 _atom_site_label
 _atom_site_symmetry_multiplicity
 _atom_site_fract_x
 _atom_site_fract_y
 _atom_site_fract_z
 _atom_site_occupancy
  Hf  Hf0  1  0.370177  0.629822  0.052517  1
  Hf  Hf1  1  0.370177  0.629822  0.447484  1
  Hf  Hf2  1  0.629265  0.370734  0.554046  1
  Hf  Hf3  1  0.948218  0.051781  0.750000  1
  Hf  Hf4  1  0.629265  0.370734  0.945954  1
  Zr  Zr5  1  0.051346  0.948653  0.250000  1
  Pt  Pt6  1  0.751700  0.248298  0.250000  1
  Pt  Pt7  1  0.251194  0.748804  0.750000  1
  N  N8  1  0.999326  0.000674  0.996555  1
  N  N9  1  0.999326  0.000674  0.503445  1
