# generated using pymatgen
data_Er8Si(Pd5Pt)4
_symmetry_space_group_name_H-M   'P 1'
_cell_length_a   8.31035100
_cell_length_b   8.30664400
_cell_length_c   8.30664400
_cell_angle_alpha   90.00000000
_cell_angle_beta   90.00000000
_cell_angle_gamma   90.00000000
_symmetry_Int_Tables_number   1
_chemical_formula_structural   Er8Si(Pd5Pt)4
_chemical_formula_sum   'Er8 Si1 Pd20 Pt4'
_cell_volume   573.41699917
_cell_formula_units_Z   1
loop_
 _symmetry_equiv_pos_site_id
 _symmetry_equiv_pos_as_xyz
  1  'x, y, z'
loop_
 _atom_site_type_symbol
 _atom_site_label
 _atom_site_symmetry_multiplicity
 _atom_site_fract_x
 _atom_site_fract_y
 _atom_site_fract_z
 _atom_site_occupancy
  Er  Er0  1  0.253714  0.253834  0.253834  1
  Er  Er1  1  0.746286  0.746166  0.746166  1
  Er  Er2  1  0.746286  0.746166  0.253834  1
  Er  Er3  1  0.746286  0.253834  0.746166  1
  Er  Er4  1  0.253714  0.253834  0.746166  1
  Er  Er5  1  0.253714  0.746166  0.253834  1
  Er  Er6  1  0.253714  0.746166  0.746166  1
  Er  Er7  1  0.746286  0.253834  0.253834  1
  Si  Si8  1  0.000000  0.000000  0.000000  1
  Pd  Pd9  1  0.257264  0.500000  0.000000  1
  Pd  Pd10  1  0.742736  0.500000  0.000000  1
  Pd  Pd11  1  0.000000  0.257380  0.500000  1
  Pd  Pd12  1  0.500000  0.257358  0.000000  1
  Pd  Pd13  1  0.000000  0.742620  0.500000  1
  Pd  Pd14  1  0.500000  0.742642  0.000000  1
  Pd  Pd15  1  0.500000  0.000000  0.257358  1
  Pd  Pd16  1  0.257264  0.000000  0.500000  1
  Pd  Pd17  1  0.500000  0.000000  0.742642  1
  Pd  Pd18  1  0.742736  0.000000  0.500000  1
  Pd  Pd19  1  0.000000  0.500000  0.257380  1
  Pd  Pd20  1  0.000000  0.500000  0.742620  1
  Pd  Pd21  1  0.500000  0.252119  0.500000  1
  Pd  Pd22  1  0.500000  0.747881  0.500000  1
  Pd  Pd23  1  0.500000  0.500000  0.252119  1
  Pd  Pd24  1  0.500000  0.500000  0.747881  1
  Pd  Pd25  1  0.000000  0.280361  0.000000  1
  Pd  Pd26  1  0.000000  0.719639  0.000000  1
  Pd  Pd27  1  0.000000  0.000000  0.280361  1
  Pd  Pd28  1  0.000000  0.000000  0.719639  1
  Pt  Pt29  1  0.251946  0.500000  0.500000  1
  Pt  Pt30  1  0.748054  0.500000  0.500000  1
  Pt  Pt31  1  0.279424  0.000000  0.000000  1
  Pt  Pt32  1  0.720576  0.000000  0.000000  1
