# generated using pymatgen
data_Ho12Er4Cd4NiRu3
_symmetry_space_group_name_H-M   'P 1'
_cell_length_a   9.50177413
_cell_length_b   9.61572710
_cell_length_c   9.61572700
_cell_angle_alpha   60.00000379
_cell_angle_beta   59.60248553
_cell_angle_gamma   59.60248706
_symmetry_Int_Tables_number   1
_chemical_formula_structural   Ho12Er4Cd4NiRu3
_chemical_formula_sum   'Ho12 Er4 Cd4 Ni1 Ru3'
_cell_volume   617.47339270
_cell_formula_units_Z   1
loop_
 _symmetry_equiv_pos_site_id
 _symmetry_equiv_pos_as_xyz
  1  'x, y, z'
loop_
 _atom_site_type_symbol
 _atom_site_label
 _atom_site_symmetry_multiplicity
 _atom_site_fract_x
 _atom_site_fract_y
 _atom_site_fract_z
 _atom_site_occupancy
  Ho  Ho0  1  0.810572  0.188974  0.188974  1
  Ho  Ho1  1  0.186236  0.811864  0.811864  1
  Ho  Ho2  1  0.186236  0.811864  0.190035  1
  Ho  Ho3  1  0.810572  0.188974  0.811479  1
  Ho  Ho4  1  0.186236  0.190035  0.811864  1
  Ho  Ho5  1  0.810572  0.811479  0.188974  1
  Ho  Ho6  1  0.937245  0.561946  0.561946  1
  Ho  Ho7  1  0.559090  0.937250  0.937250  1
  Ho  Ho8  1  0.559090  0.937250  0.566410  1
  Ho  Ho9  1  0.937245  0.561946  0.938862  1
  Ho  Ho10  1  0.559090  0.566410  0.937250  1
  Ho  Ho11  1  0.937245  0.938862  0.561946  1
  Er  Er12  1  0.351176  0.345319  0.345319  1
  Er  Er13  1  0.351176  0.345319  0.958184  1
  Er  Er14  1  0.351176  0.958184  0.345319  1
  Er  Er15  1  0.964202  0.345266  0.345266  1
  Cd  Cd16  1  0.578764  0.580421  0.580421  1
  Cd  Cd17  1  0.578764  0.580421  0.260396  1
  Cd  Cd18  1  0.578764  0.260396  0.580421  1
  Cd  Cd19  1  0.255762  0.581413  0.581413  1
  Ni  Ni20  1  0.575716  0.141428  0.141428  1
  Ru  Ru21  1  0.145023  0.139188  0.139188  1
  Ru  Ru22  1  0.145023  0.139188  0.576601  1
  Ru  Ru23  1  0.145023  0.576601  0.139188  1
