# generated using pymatgen
data_Dy9Y7(CdRh)4
_symmetry_space_group_name_H-M   'P 1'
_cell_length_a   9.65532666
_cell_length_b   9.63527648
_cell_length_c   9.62400884
_cell_angle_alpha   59.93034799
_cell_angle_beta   59.93632268
_cell_angle_gamma   60.05049004
_symmetry_Int_Tables_number   1
_chemical_formula_structural   Dy9Y7(CdRh)4
_chemical_formula_sum   'Dy9 Y7 Cd4 Rh4'
_cell_volume   632.70159227
_cell_formula_units_Z   1
loop_
 _symmetry_equiv_pos_site_id
 _symmetry_equiv_pos_as_xyz
  1  'x, y, z'
loop_
 _atom_site_type_symbol
 _atom_site_label
 _atom_site_symmetry_multiplicity
 _atom_site_fract_x
 _atom_site_fract_y
 _atom_site_fract_z
 _atom_site_occupancy
  Dy  Dy0  1  0.150568  0.150732  0.150313  1
  Dy  Dy1  1  0.310620  0.688707  0.312201  1
  Dy  Dy2  1  0.548163  0.150666  0.150687  1
  Dy  Dy3  1  0.311236  0.311048  0.688813  1
  Dy  Dy4  1  0.311149  0.688851  0.688533  1
  Dy  Dy5  1  0.150960  0.150455  0.548078  1
  Dy  Dy6  1  0.689011  0.310843  0.688771  1
  Dy  Dy7  1  0.937259  0.937157  0.562767  1
  Dy  Dy8  1  0.562887  0.937326  0.563012  1
  Y  Y9  1  0.563434  0.563142  0.936082  1
  Y  Y10  1  0.149774  0.550982  0.149389  1
  Y  Y11  1  0.689136  0.310143  0.311768  1
  Y  Y12  1  0.936756  0.563318  0.563751  1
  Y  Y13  1  0.937577  0.563132  0.935725  1
  Y  Y14  1  0.688906  0.688901  0.311651  1
  Y  Y15  1  0.563357  0.937471  0.935657  1
  Cd  Cd16  1  0.918733  0.918751  0.919183  1
  Cd  Cd17  1  0.243377  0.918892  0.918904  1
  Cd  Cd18  1  0.918667  0.919004  0.243293  1
  Cd  Cd19  1  0.918813  0.243255  0.919177  1
  Rh  Rh20  1  0.358448  0.356535  0.926623  1
  Rh  Rh21  1  0.356506  0.356759  0.358730  1
  Rh  Rh22  1  0.929303  0.354735  0.359136  1
  Rh  Rh23  1  0.355359  0.929194  0.357755  1
