# generated using pymatgen
data_Dy5HoGa7Co16
_symmetry_space_group_name_H-M   'P 1'
_cell_length_a   8.47019376
_cell_length_b   8.47019426
_cell_length_c   8.46927200
_cell_angle_alpha   60.00360174
_cell_angle_beta   60.00359979
_cell_angle_gamma   59.99280959
_symmetry_Int_Tables_number   1
_chemical_formula_structural   Dy5HoGa7Co16
_chemical_formula_sum   'Dy5 Ho1 Ga7 Co16'
_cell_volume   429.65297668
_cell_formula_units_Z   1
loop_
 _symmetry_equiv_pos_site_id
 _symmetry_equiv_pos_as_xyz
  1  'x, y, z'
loop_
 _atom_site_type_symbol
 _atom_site_label
 _atom_site_symmetry_multiplicity
 _atom_site_fract_x
 _atom_site_fract_y
 _atom_site_fract_z
 _atom_site_occupancy
  Dy  Dy0  1  0.719359  0.280586  0.280641  1
  Dy  Dy1  1  0.719359  0.280586  0.719414  1
  Dy  Dy2  1  0.719419  0.719419  0.280581  1
  Dy  Dy3  1  0.280586  0.719359  0.719414  1
  Dy  Dy4  1  0.280586  0.719359  0.280641  1
  Ho  Ho5  1  0.280468  0.280468  0.719532  1
  Ga  Ga6  1  0.000004  0.000004  0.999996  1
  Ga  Ga7  1  0.499953  0.000080  0.999920  1
  Ga  Ga8  1  0.499953  0.000080  0.500047  1
  Ga  Ga9  1  0.499980  0.499980  0.000020  1
  Ga  Ga10  1  0.000080  0.499953  0.500047  1
  Ga  Ga11  1  0.000080  0.499953  0.999920  1
  Ga  Ga12  1  0.999980  0.999980  0.500020  1
  Co  Co13  1  0.622221  0.125928  0.125926  1
  Co  Co14  1  0.125928  0.622221  0.125926  1
  Co  Co15  1  0.125971  0.125971  0.622246  1
  Co  Co16  1  0.125971  0.125971  0.125813  1
  Co  Co17  1  0.377754  0.874187  0.874029  1
  Co  Co18  1  0.874187  0.377754  0.874029  1
  Co  Co19  1  0.874074  0.874074  0.377779  1
  Co  Co20  1  0.874074  0.874074  0.874072  1
  Co  Co21  1  0.036541  0.321160  0.321150  1
  Co  Co22  1  0.321160  0.036541  0.321150  1
  Co  Co23  1  0.321153  0.321153  0.036497  1
  Co  Co24  1  0.321153  0.321153  0.321198  1
  Co  Co25  1  0.963503  0.678802  0.678847  1
  Co  Co26  1  0.678802  0.963503  0.678847  1
  Co  Co27  1  0.678850  0.678850  0.963459  1
  Co  Co28  1  0.678850  0.678850  0.678840  1
