# generated using pymatgen
data_Tm4CoSi4Ni2Ru
_symmetry_space_group_name_H-M   'P 1'
_cell_length_a   4.15055100
_cell_length_b   6.78502104
_cell_length_c   7.16493146
_cell_angle_alpha   91.15447044
_cell_angle_beta   90.00000000
_cell_angle_gamma   90.00000000
_symmetry_Int_Tables_number   1
_chemical_formula_structural   Tm4CoSi4Ni2Ru
_chemical_formula_sum   'Tm4 Co1 Si4 Ni2 Ru1'
_cell_volume   201.73480254
_cell_formula_units_Z   1
loop_
 _symmetry_equiv_pos_site_id
 _symmetry_equiv_pos_as_xyz
  1  'x, y, z'
loop_
 _atom_site_type_symbol
 _atom_site_label
 _atom_site_symmetry_multiplicity
 _atom_site_fract_x
 _atom_site_fract_y
 _atom_site_fract_z
 _atom_site_occupancy
  Tm  Tm0  1  0.250000  0.991981  0.798637  1
  Tm  Tm1  1  0.750000  0.007350  0.199743  1
  Tm  Tm2  1  0.250000  0.488633  0.689000  1
  Tm  Tm3  1  0.750000  0.505158  0.311818  1
  Co  Co4  1  0.750000  0.348690  0.935088  1
  Si  Si5  1  0.250000  0.296876  0.093633  1
  Si  Si6  1  0.750000  0.698196  0.897762  1
  Si  Si7  1  0.250000  0.802511  0.400199  1
  Si  Si8  1  0.750000  0.199536  0.603989  1
  Ni  Ni9  1  0.750000  0.835890  0.576384  1
  Ni  Ni10  1  0.250000  0.168830  0.426878  1
  Ru  Ru11  1  0.250000  0.656349  0.066869  1
