# generated using pymatgen
data_Dy3Y7Si5Bi
_symmetry_space_group_name_H-M   'P 1'
_cell_length_a   8.55083200
_cell_length_b   8.59740969
_cell_length_c   6.38798000
_cell_angle_alpha   90.00214576
_cell_angle_beta   89.99990823
_cell_angle_gamma   119.82316551
_symmetry_Int_Tables_number   1
_chemical_formula_structural   Dy3Y7Si5Bi
_chemical_formula_sum   'Dy3 Y7 Si5 Bi1'
_cell_volume   407.41901171
_cell_formula_units_Z   1
loop_
 _symmetry_equiv_pos_site_id
 _symmetry_equiv_pos_as_xyz
  1  'x, y, z'
loop_
 _atom_site_type_symbol
 _atom_site_label
 _atom_site_symmetry_multiplicity
 _atom_site_fract_x
 _atom_site_fract_y
 _atom_site_fract_z
 _atom_site_occupancy
  Dy  Dy0  1  0.330789  0.654030  0.494873  1
  Dy  Dy1  1  0.330788  0.654028  0.005136  1
  Dy  Dy2  1  0.676768  0.345983  0.494902  1
  Y  Y3  1  0.984818  0.744683  0.749981  1
  Y  Y4  1  0.998367  0.243567  0.250008  1
  Y  Y5  1  0.754792  0.756448  0.250011  1
  Y  Y6  1  0.767502  0.000006  0.749998  1
  Y  Y7  1  0.240147  0.255358  0.749992  1
  Y  Y8  1  0.240526  0.000000  0.250003  1
  Y  Y9  1  0.676685  0.345887  0.005076  1
  Si  Si10  1  0.393013  0.390621  0.250038  1
  Si  Si11  1  0.002462  0.609413  0.250047  1
  Si  Si12  1  0.998724  0.394251  0.749964  1
  Si  Si13  1  0.604435  0.605765  0.749962  1
  Si  Si14  1  0.607209  0.999968  0.250024  1
  Bi  Bi15  1  0.392971  0.999994  0.749984  1
