# generated using pymatgen
data_Rb4Li2ScAlP4
_symmetry_space_group_name_H-M   'P 1'
_cell_length_a   9.09887116
_cell_length_b   9.09887031
_cell_length_c   9.09887152
_cell_angle_alpha   138.82287928
_cell_angle_beta   59.16834254
_cell_angle_gamma   139.45004556
_symmetry_Int_Tables_number   1
_chemical_formula_structural   Rb4Li2ScAlP4
_chemical_formula_sum   'Rb4 Li2 Sc1 Al1 P4'
_cell_volume   319.30817221
_cell_formula_units_Z   1
loop_
 _symmetry_equiv_pos_site_id
 _symmetry_equiv_pos_as_xyz
  1  'x, y, z'
loop_
 _atom_site_type_symbol
 _atom_site_label
 _atom_site_symmetry_multiplicity
 _atom_site_fract_x
 _atom_site_fract_y
 _atom_site_fract_z
 _atom_site_occupancy
  Rb  Rb0  1  0.825488  0.273787  0.102495  1
  Rb  Rb1  1  0.674511  0.777005  0.448299  1
  Rb  Rb2  1  0.328707  0.226212  0.551701  1
  Rb  Rb3  1  0.171293  0.722995  0.897507  1
  Li  Li4  1  0.750000  0.250000  0.500000  1
  Li  Li5  1  0.250000  0.749999  0.500000  1
  Sc  Sc6  1  0.250000  0.250000  0.000000  1
  Al  Al7  1  0.750001  0.750001  0.000000  1
  P  P8  1  0.428691  0.739218  0.143139  1
  P  P9  1  0.071308  0.214447  0.310526  1
  P  P10  1  0.903920  0.760781  0.689474  1
  P  P11  1  0.596079  0.285552  0.856860  1
