# generated using pymatgen
data_PrTh3AlGa17Ir6
_symmetry_space_group_name_H-M   'P 1'
_cell_length_a   7.70918126
_cell_length_b   7.71073162
_cell_length_c   9.51739129
_cell_angle_alpha   89.98068783
_cell_angle_beta   89.99226165
_cell_angle_gamma   119.71862160
_symmetry_Int_Tables_number   1
_chemical_formula_structural   PrTh3AlGa17Ir6
_chemical_formula_sum   'Pr1 Th3 Al1 Ga17 Ir6'
_cell_volume   491.33393368
_cell_formula_units_Z   1
loop_
 _symmetry_equiv_pos_site_id
 _symmetry_equiv_pos_as_xyz
  1  'x, y, z'
loop_
 _atom_site_type_symbol
 _atom_site_label
 _atom_site_symmetry_multiplicity
 _atom_site_fract_x
 _atom_site_fract_y
 _atom_site_fract_z
 _atom_site_occupancy
  Pr  Pr0  1  0.329518  0.003616  0.749105  1
  Th  Th1  1  0.996932  0.670275  0.249860  1
  Th  Th2  1  0.002136  0.330088  0.748970  1
  Th  Th3  1  0.669693  0.996581  0.249820  1
  Al  Al4  1  0.337754  0.335890  0.950090  1
  Ga  Ga5  1  0.134066  0.132729  0.249650  1
  Ga  Ga6  1  0.868853  0.868635  0.749573  1
  Ga  Ga7  1  0.003585  0.335160  0.078309  1
  Ga  Ga8  1  0.999118  0.667722  0.919749  1
  Ga  Ga9  1  0.998571  0.667813  0.579887  1
  Ga  Ga10  1  0.335144  0.004120  0.422493  1
  Ga  Ga11  1  0.004827  0.335238  0.419873  1
  Ga  Ga12  1  0.661730  0.995595  0.579976  1
  Ga  Ga13  1  0.661940  0.996310  0.919658  1
  Ga  Ga14  1  0.335043  0.002928  0.075564  1
  Ga  Ga15  1  0.335454  0.333119  0.562358  1
  Ga  Ga16  1  0.663013  0.663011  0.440269  1
  Ga  Ga17  1  0.666161  0.666123  0.059849  1
  Ga  Ga18  1  0.341760  0.544403  0.250076  1
  Ga  Ga19  1  0.654700  0.451745  0.750157  1
  Ga  Ga20  1  0.544669  0.340335  0.250044  1
  Ga  Ga21  1  0.453165  0.656010  0.750078  1
  Ir  Ir22  1  0.672559  0.330222  0.000876  1
  Ir  Ir23  1  0.327926  0.667801  0.000824  1
  Ir  Ir24  1  0.327861  0.671167  0.497872  1
  Ir  Ir25  1  0.676017  0.330356  0.497879  1
  Ir  Ir26  1  0.001383  0.003925  0.000069  1
  Ir  Ir27  1  0.996424  0.999085  0.497071  1
