# generated using pymatgen
data_HoErGa9CuRu2
_symmetry_space_group_name_H-M   'P 1'
_cell_length_a   7.54705546
_cell_length_b   7.54646969
_cell_length_c   9.53126000
_cell_angle_alpha   90.00000000
_cell_angle_beta   90.00000000
_cell_angle_gamma   119.95710946
_symmetry_Int_Tables_number   1
_chemical_formula_structural   HoErGa9CuRu2
_chemical_formula_sum   'Ho2 Er2 Ga18 Cu2 Ru4'
_cell_volume   470.31611367
_cell_formula_units_Z   2
loop_
 _symmetry_equiv_pos_site_id
 _symmetry_equiv_pos_as_xyz
  1  'x, y, z'
loop_
 _atom_site_type_symbol
 _atom_site_label
 _atom_site_symmetry_multiplicity
 _atom_site_fract_x
 _atom_site_fract_y
 _atom_site_fract_z
 _atom_site_occupancy
  Ho  Ho0  1  0.995905  0.668869  0.250000  1
  Ho  Ho1  1  0.004095  0.331131  0.750000  1
  Er  Er2  1  0.668794  0.995914  0.250000  1
  Er  Er3  1  0.331206  0.004086  0.750000  1
  Ga  Ga4  1  0.125044  0.125045  0.250000  1
  Ga  Ga5  1  0.874956  0.874955  0.750000  1
  Ga  Ga6  1  0.001730  0.336041  0.077778  1
  Ga  Ga7  1  0.998270  0.663959  0.922222  1
  Ga  Ga8  1  0.998270  0.663959  0.577778  1
  Ga  Ga9  1  0.336197  0.001772  0.422250  1
  Ga  Ga10  1  0.001730  0.336041  0.422222  1
  Ga  Ga11  1  0.663803  0.998228  0.577750  1
  Ga  Ga12  1  0.663803  0.998228  0.922250  1
  Ga  Ga13  1  0.336197  0.001772  0.077750  1
  Ga  Ga14  1  0.338148  0.338100  0.563944  1
  Ga  Ga15  1  0.661852  0.661900  0.436056  1
  Ga  Ga16  1  0.661852  0.661900  0.063944  1
  Ga  Ga17  1  0.338148  0.338100  0.936056  1
  Ga  Ga18  1  0.334640  0.548887  0.250000  1
  Ga  Ga19  1  0.665360  0.451113  0.750000  1
  Ga  Ga20  1  0.548939  0.334711  0.250000  1
  Ga  Ga21  1  0.451061  0.665289  0.750000  1
  Cu  Cu22  1  0.000000  0.000000  0.000000  1
  Cu  Cu23  1  0.000000  0.000000  0.500000  1
  Ru  Ru24  1  0.673189  0.326511  0.000014  1
  Ru  Ru25  1  0.326811  0.673489  0.999986  1
  Ru  Ru26  1  0.326811  0.673489  0.500014  1
  Ru  Ru27  1  0.673189  0.326511  0.499986  1
