# generated using pymatgen
data_ZnCuNi2(PdO4)2
_symmetry_space_group_name_H-M   'P 1'
_cell_length_a   5.91438609
_cell_length_b   6.05789334
_cell_length_c   6.05789401
_cell_angle_alpha   60.25209420
_cell_angle_beta   60.78059989
_cell_angle_gamma   60.78059228
_symmetry_Int_Tables_number   1
_chemical_formula_structural   ZnCuNi2(PdO4)2
_chemical_formula_sum   'Zn1 Cu1 Ni2 Pd2 O8'
_cell_volume   155.56151867
_cell_formula_units_Z   1
loop_
 _symmetry_equiv_pos_site_id
 _symmetry_equiv_pos_as_xyz
  1  'x, y, z'
loop_
 _atom_site_type_symbol
 _atom_site_label
 _atom_site_symmetry_multiplicity
 _atom_site_fract_x
 _atom_site_fract_y
 _atom_site_fract_z
 _atom_site_occupancy
  Zn  Zn0  1  0.768573  0.731427  0.731427  1
  Cu  Cu1  1  0.482650  0.517350  0.517350  1
  Ni  Ni2  1  0.125153  0.125173  0.125173  1
  Ni  Ni3  1  0.624500  0.125173  0.125173  1
  Pd  Pd4  1  0.125338  0.623609  0.125715  1
  Pd  Pd5  1  0.125338  0.125715  0.623609  1
  O  O6  1  0.886646  0.880535  0.880535  1
  O  O7  1  0.897783  0.369668  0.369668  1
  O  O8  1  0.359503  0.910099  0.370896  1
  O  O9  1  0.359503  0.370896  0.910099  1
  O  O10  1  0.889925  0.336879  0.883272  1
  O  O11  1  0.889925  0.883272  0.336879  1
  O  O12  1  0.352285  0.880535  0.880535  1
  O  O13  1  0.362880  0.369668  0.369668  1
