# generated using pymatgen
data_Li2Nb12Ga9CuN4
_symmetry_space_group_name_H-M   'P 1'
_cell_length_a   8.28293538
_cell_length_b   8.27818564
_cell_length_c   8.27818625
_cell_angle_alpha   59.82620875
_cell_angle_beta   59.92423284
_cell_angle_gamma   59.92423421
_symmetry_Int_Tables_number   1
_chemical_formula_structural   Li2Nb12Ga9CuN4
_chemical_formula_sum   'Li2 Nb12 Ga9 Cu1 N4'
_cell_volume   400.37685587
_cell_formula_units_Z   1
loop_
 _symmetry_equiv_pos_site_id
 _symmetry_equiv_pos_as_xyz
  1  'x, y, z'
loop_
 _atom_site_type_symbol
 _atom_site_label
 _atom_site_symmetry_multiplicity
 _atom_site_fract_x
 _atom_site_fract_y
 _atom_site_fract_z
 _atom_site_occupancy
  Li  Li0  1  0.625000  0.125000  0.625000  1
  Li  Li1  1  0.625000  0.625000  0.125000  1
  Nb  Nb2  1  0.816653  0.812802  0.183323  1
  Nb  Nb3  1  0.187683  0.195198  0.808796  1
  Nb  Nb4  1  0.816653  0.183323  0.812802  1
  Nb  Nb5  1  0.187683  0.808796  0.195198  1
  Nb  Nb6  1  0.183569  0.811329  0.811329  1
  Nb  Nb7  1  0.815071  0.187428  0.187428  1
  Nb  Nb8  1  0.433347  0.437198  0.066677  1
  Nb  Nb9  1  0.062317  0.054802  0.441204  1
  Nb  Nb10  1  0.433347  0.066677  0.437198  1
  Nb  Nb11  1  0.062317  0.441204  0.054802  1
  Nb  Nb12  1  0.066431  0.438671  0.438671  1
  Nb  Nb13  1  0.434929  0.062572  0.062572  1
  Ga  Ga14  1  0.125000  0.625000  0.625000  1
  Ga  Ga15  1  0.761967  0.411638  0.411638  1
  Ga  Ga16  1  0.428589  0.756693  0.405104  1
  Ga  Ga17  1  0.428589  0.405104  0.756693  1
  Ga  Ga18  1  0.430093  0.408803  0.408803  1
  Ga  Ga19  1  0.488033  0.838362  0.838362  1
  Ga  Ga20  1  0.821411  0.493307  0.844896  1
  Ga  Ga21  1  0.821411  0.844896  0.493307  1
  Ga  Ga22  1  0.819907  0.841197  0.841197  1
  Cu  Cu23  1  0.625000  0.625000  0.625000  1
  N  N24  1  0.625000  0.125000  0.125000  1
  N  N25  1  0.125000  0.625000  0.125000  1
  N  N26  1  0.125000  0.125000  0.625000  1
  N  N27  1  0.125000  0.125000  0.125000  1
