# generated using pymatgen
data_Hf16NbFe4Pd3
_symmetry_space_group_name_H-M   'P 1'
_cell_length_a   8.69550579
_cell_length_b   8.59821730
_cell_length_c   8.59821700
_cell_angle_alpha   59.99999730
_cell_angle_beta   60.36942045
_cell_angle_gamma   60.36942828
_symmetry_Int_Tables_number   1
_chemical_formula_structural   Hf16NbFe4Pd3
_chemical_formula_sum   'Hf16 Nb1 Fe4 Pd3'
_cell_volume   457.08740966
_cell_formula_units_Z   1
loop_
 _symmetry_equiv_pos_site_id
 _symmetry_equiv_pos_as_xyz
  1  'x, y, z'
loop_
 _atom_site_type_symbol
 _atom_site_label
 _atom_site_symmetry_multiplicity
 _atom_site_fract_x
 _atom_site_fract_y
 _atom_site_fract_z
 _atom_site_occupancy
  Hf  Hf0  1  0.182208  0.605930  0.605930  1
  Hf  Hf1  1  0.598632  0.206045  0.597661  1
  Hf  Hf2  1  0.598632  0.597661  0.206045  1
  Hf  Hf3  1  0.598632  0.597661  0.597661  1
  Hf  Hf4  1  0.813025  0.812041  0.187467  1
  Hf  Hf5  1  0.196845  0.178234  0.812461  1
  Hf  Hf6  1  0.813025  0.187467  0.812041  1
  Hf  Hf7  1  0.196845  0.812461  0.178234  1
  Hf  Hf8  1  0.196845  0.812461  0.812461  1
  Hf  Hf9  1  0.813025  0.187467  0.187467  1
  Hf  Hf10  1  0.439374  0.445669  0.057479  1
  Hf  Hf11  1  0.054475  0.054780  0.445372  1
  Hf  Hf12  1  0.439374  0.057479  0.445669  1
  Hf  Hf13  1  0.054475  0.445372  0.054780  1
  Hf  Hf14  1  0.054475  0.445372  0.445372  1
  Hf  Hf15  1  0.439374  0.057479  0.057479  1
  Nb  Nb16  1  0.516577  0.827808  0.827808  1
  Fe  Fe17  1  0.833886  0.388705  0.388705  1
  Fe  Fe18  1  0.384568  0.827491  0.393971  1
  Fe  Fe19  1  0.384568  0.393971  0.827491  1
  Fe  Fe20  1  0.384568  0.393971  0.393971  1
  Pd  Pd21  1  0.835525  0.490717  0.836880  1
  Pd  Pd22  1  0.835525  0.836880  0.490717  1
  Pd  Pd23  1  0.835525  0.836880  0.836880  1
