# generated using pymatgen
data_DyEr7(Si4W3)4
_symmetry_space_group_name_H-M   'P 1'
_cell_length_a   6.86245140
_cell_length_b   6.86355169
_cell_length_c   12.75445469
_cell_angle_alpha   90.03543217
_cell_angle_beta   89.98746509
_cell_angle_gamma   90.03725295
_symmetry_Int_Tables_number   1
_chemical_formula_structural   DyEr7(Si4W3)4
_chemical_formula_sum   'Dy1 Er7 Si16 W12'
_cell_volume   600.74463470
_cell_formula_units_Z   1
loop_
 _symmetry_equiv_pos_site_id
 _symmetry_equiv_pos_as_xyz
  1  'x, y, z'
loop_
 _atom_site_type_symbol
 _atom_site_label
 _atom_site_symmetry_multiplicity
 _atom_site_fract_x
 _atom_site_fract_y
 _atom_site_fract_z
 _atom_site_occupancy
  Dy  Dy0  1  0.336883  0.997353  0.469020  1
  Er  Er1  1  0.503544  0.836798  0.719263  1
  Er  Er2  1  0.496744  0.162853  0.219085  1
  Er  Er3  1  0.836976  0.503578  0.280620  1
  Er  Er4  1  0.162974  0.496817  0.780998  1
  Er  Er5  1  0.662735  0.003012  0.969151  1
  Er  Er6  1  0.996860  0.337387  0.530874  1
  Er  Er7  1  0.003165  0.662701  0.030973  1
  Si  Si8  1  0.202604  0.125855  0.683385  1
  Si  Si9  1  0.373699  0.703044  0.932798  1
  Si  Si10  1  0.626084  0.297796  0.432935  1
  Si  Si11  1  0.702890  0.373791  0.067064  1
  Si  Si12  1  0.297246  0.624838  0.567372  1
  Si  Si13  1  0.797295  0.874453  0.182541  1
  Si  Si14  1  0.125053  0.203376  0.316603  1
  Si  Si15  1  0.874246  0.797262  0.817404  1
  Si  Si16  1  0.289271  0.964281  0.064002  1
  Si  Si17  1  0.535329  0.788713  0.313176  1
  Si  Si18  1  0.464649  0.210471  0.813853  1
  Si  Si19  1  0.789463  0.535290  0.686408  1
  Si  Si20  1  0.210842  0.465127  0.186349  1
  Si  Si21  1  0.711963  0.035230  0.563882  1
  Si  Si22  1  0.964161  0.289304  0.935911  1
  Si  Si23  1  0.034807  0.710721  0.436265  1
  W  W24  1  0.334231  0.333996  0.000160  1
  W  W25  1  0.165560  0.833940  0.250028  1
  W  W26  1  0.834106  0.165926  0.749637  1
  W  W27  1  0.666181  0.666024  0.500014  1
  W  W28  1  0.165877  0.998826  0.873773  1
  W  W29  1  0.501482  0.664617  0.122709  1
  W  W30  1  0.499923  0.334910  0.624004  1
  W  W31  1  0.664294  0.501425  0.876738  1
  W  W32  1  0.334476  0.499331  0.376678  1
  W  W33  1  0.834019  0.001174  0.372977  1
  W  W34  1  0.999034  0.165936  0.126011  1
  W  W35  1  0.001335  0.833841  0.627338  1
