# generated using pymatgen
data_Ce2Lu2Sc3AlIr4
_symmetry_space_group_name_H-M   'P 1'
_cell_length_a   7.01708935
_cell_length_b   4.34754800
_cell_length_c   8.32907767
_cell_angle_alpha   90.00000000
_cell_angle_beta   92.95026371
_cell_angle_gamma   90.00000000
_symmetry_Int_Tables_number   1
_chemical_formula_structural   Ce2Lu2Sc3AlIr4
_chemical_formula_sum   'Ce2 Lu2 Sc3 Al1 Ir4'
_cell_volume   253.75949648
_cell_formula_units_Z   1
loop_
 _symmetry_equiv_pos_site_id
 _symmetry_equiv_pos_as_xyz
  1  'x, y, z'
loop_
 _atom_site_type_symbol
 _atom_site_label
 _atom_site_symmetry_multiplicity
 _atom_site_fract_x
 _atom_site_fract_y
 _atom_site_fract_z
 _atom_site_occupancy
  Ce  Ce0  1  0.038755  0.750000  0.830325  1
  Ce  Ce1  1  0.523316  0.750000  0.689732  1
  Lu  Lu2  1  0.981192  0.250000  0.165667  1
  Lu  Lu3  1  0.462208  0.250000  0.314915  1
  Sc  Sc4  1  0.866552  0.250000  0.558637  1
  Sc  Sc5  1  0.139253  0.750000  0.425076  1
  Sc  Sc6  1  0.636079  0.750000  0.069238  1
  Al  Al7  1  0.362107  0.250000  0.944310  1
  Ir  Ir8  1  0.737104  0.250000  0.883112  1
  Ir  Ir9  1  0.251235  0.250000  0.615875  1
  Ir  Ir10  1  0.256008  0.750000  0.110517  1
  Ir  Ir11  1  0.746193  0.750000  0.392597  1
