# generated using pymatgen
data_Tb4Dy2Al24ZnRu7
_symmetry_space_group_name_H-M   'P 1'
_cell_length_a   8.84502758
_cell_length_b   8.84380373
_cell_length_c   9.54796220
_cell_angle_alpha   90.01853942
_cell_angle_beta   89.97111943
_cell_angle_gamma   119.93370994
_symmetry_Int_Tables_number   1
_chemical_formula_structural   Tb4Dy2Al24ZnRu7
_chemical_formula_sum   'Tb4 Dy2 Al24 Zn1 Ru7'
_cell_volume   647.24583876
_cell_formula_units_Z   1
loop_
 _symmetry_equiv_pos_site_id
 _symmetry_equiv_pos_as_xyz
  1  'x, y, z'
loop_
 _atom_site_type_symbol
 _atom_site_label
 _atom_site_symmetry_multiplicity
 _atom_site_fract_x
 _atom_site_fract_y
 _atom_site_fract_z
 _atom_site_occupancy
  Tb  Tb0  1  0.806911  0.614323  0.252881  1
  Tb  Tb1  1  0.614537  0.807040  0.747113  1
  Tb  Tb2  1  0.193809  0.806135  0.753299  1
  Tb  Tb3  1  0.192977  0.385459  0.747076  1
  Dy  Dy4  1  0.385992  0.193091  0.252760  1
  Dy  Dy5  1  0.805862  0.194090  0.246693  1
  Al  Al6  1  0.438796  0.879018  0.251495  1
  Al  Al7  1  0.121237  0.561159  0.251490  1
  Al  Al8  1  0.436141  0.563528  0.245061  1
  Al  Al9  1  0.561434  0.121453  0.748477  1
  Al  Al10  1  0.878564  0.438566  0.748506  1
  Al  Al11  1  0.563766  0.436211  0.754984  1
  Al  Al12  1  0.162786  0.837469  0.422074  1
  Al  Al13  1  0.150292  0.321887  0.418389  1
  Al  Al14  1  0.678086  0.849802  0.418450  1
  Al  Al15  1  0.837287  0.162683  0.577625  1
  Al  Al16  1  0.849571  0.677937  0.581378  1
  Al  Al17  1  0.322045  0.150415  0.581251  1
  Al  Al18  1  0.837579  0.162439  0.922105  1
  Al  Al19  1  0.837849  0.675610  0.923848  1
  Al  Al20  1  0.324385  0.162147  0.923969  1
  Al  Al21  1  0.162500  0.837709  0.078197  1
  Al  Al22  1  0.162087  0.324259  0.076368  1
  Al  Al23  1  0.675694  0.837997  0.076325  1
  Al  Al24  1  0.328945  0.671041  0.519641  1
  Al  Al25  1  0.670974  0.328794  0.479986  1
  Al  Al26  1  0.666283  0.333476  0.015386  1
  Al  Al27  1  0.333629  0.666355  0.984935  1
  Al  Al28  1  0.001024  0.999396  0.249657  1
  Al  Al29  1  0.999103  0.000903  0.750365  1
  Zn  Zn30  1  0.499993  0.499957  0.499991  1
  Ru  Ru31  1  0.000022  0.999979  0.499961  1
  Ru  Ru32  1  0.000017  0.000016  0.000057  1
  Ru  Ru33  1  0.500072  0.000151  0.499763  1
  Ru  Ru34  1  0.999848  0.499802  0.499871  1
  Ru  Ru35  1  0.500147  0.000174  0.000242  1
  Ru  Ru36  1  0.999795  0.499757  0.000180  1
  Ru  Ru37  1  0.499963  0.499775  0.000151  1
