# generated using pymatgen
data_Ho10InBi3Pt2
_symmetry_space_group_name_H-M   'P 1'
_cell_length_a   7.98199860
_cell_length_b   9.04949095
_cell_length_c   12.35540500
_cell_angle_alpha   90.00000000
_cell_angle_beta   90.00000000
_cell_angle_gamma   90.09251292
_symmetry_Int_Tables_number   1
_chemical_formula_structural   Ho10InBi3Pt2
_chemical_formula_sum   'Ho20 In2 Bi6 Pt4'
_cell_volume   892.46710372
_cell_formula_units_Z   2
loop_
 _symmetry_equiv_pos_site_id
 _symmetry_equiv_pos_as_xyz
  1  'x, y, z'
loop_
 _atom_site_type_symbol
 _atom_site_label
 _atom_site_symmetry_multiplicity
 _atom_site_fract_x
 _atom_site_fract_y
 _atom_site_fract_z
 _atom_site_occupancy
  Ho  Ho0  1  0.162767  0.745202  0.211593  1
  Ho  Ho1  1  0.337233  0.754798  0.711593  1
  Ho  Ho2  1  0.831847  0.246910  0.788364  1
  Ho  Ho3  1  0.668153  0.253090  0.288364  1
  Ho  Ho4  1  0.455222  0.754919  0.997320  1
  Ho  Ho5  1  0.044778  0.745081  0.497320  1
  Ho  Ho6  1  0.546928  0.244784  0.996704  1
  Ho  Ho7  1  0.953072  0.255216  0.496704  1
  Ho  Ho8  1  0.633109  0.746363  0.302776  1
  Ho  Ho9  1  0.866891  0.753637  0.802776  1
  Ho  Ho10  1  0.377247  0.246170  0.700231  1
  Ho  Ho11  1  0.122753  0.253830  0.200231  1
  Ho  Ho12  1  0.824030  0.543008  0.071983  1
  Ho  Ho13  1  0.675970  0.956992  0.571983  1
  Ho  Ho14  1  0.182629  0.042975  0.932537  1
  Ho  Ho15  1  0.317371  0.457025  0.432537  1
  Ho  Ho16  1  0.177446  0.455471  0.933771  1
  Ho  Ho17  1  0.322554  0.044529  0.433771  1
  Ho  Ho18  1  0.819255  0.954805  0.064299  1
  Ho  Ho19  1  0.680745  0.545195  0.564299  1
  In  In20  1  0.931271  0.508182  0.327870  1
  In  In21  1  0.568729  0.991818  0.827870  1
  Bi  Bi22  1  0.068487  0.010504  0.670607  1
  Bi  Bi23  1  0.431513  0.489496  0.170607  1
  Bi  Bi24  1  0.069607  0.490325  0.674745  1
  Bi  Bi25  1  0.430393  0.009675  0.174745  1
  Bi  Bi26  1  0.932256  0.989909  0.327685  1
  Bi  Bi27  1  0.567744  0.510091  0.827685  1
  Pt  Pt28  1  0.424919  0.750177  0.488366  1
  Pt  Pt29  1  0.075081  0.749823  0.988366  1
  Pt  Pt30  1  0.576698  0.250802  0.511148  1
  Pt  Pt31  1  0.923302  0.249198  0.011148  1
