# generated using pymatgen
data_Ca4IrOs3O14
_symmetry_space_group_name_H-M   'P 1'
_cell_length_a   7.29528683
_cell_length_b   7.29528484
_cell_length_c   7.30406400
_cell_angle_alpha   120.49424924
_cell_angle_beta   118.39707130
_cell_angle_gamma   90.90451733
_symmetry_Int_Tables_number   1
_chemical_formula_structural   Ca4IrOs3O14
_chemical_formula_sum   'Ca4 Ir1 Os3 O14'
_cell_volume   277.18683567
_cell_formula_units_Z   1
loop_
 _symmetry_equiv_pos_site_id
 _symmetry_equiv_pos_as_xyz
  1  'x, y, z'
loop_
 _atom_site_type_symbol
 _atom_site_label
 _atom_site_symmetry_multiplicity
 _atom_site_fract_x
 _atom_site_fract_y
 _atom_site_fract_z
 _atom_site_occupancy
  Ca  Ca0  1  0.500000  0.500000  0.000000  1
  Ca  Ca1  1  0.000000  0.000000  0.000000  1
  Ca  Ca2  1  0.500000  0.500000  0.500000  1
  Ca  Ca3  1  0.500000  0.000000  0.000000  1
  Ir  Ir4  1  0.000000  0.000000  0.500000  1
  Os  Os5  1  0.000000  0.500000  0.000000  1
  Os  Os6  1  0.000000  0.500000  0.500000  1
  Os  Os7  1  0.500000  0.000000  0.500000  1
  O  O8  1  0.951693  0.579535  0.766981  1
  O  O9  1  0.051171  0.819990  0.641329  1
  O  O10  1  0.678662  0.909843  0.358671  1
  O  O11  1  0.312555  0.684714  0.233019  1
  O  O12  1  0.048307  0.420465  0.233019  1
  O  O13  1  0.948829  0.180010  0.358671  1
  O  O14  1  0.321338  0.090157  0.641329  1
  O  O15  1  0.687445  0.315286  0.766981  1
  O  O16  1  0.097527  0.254224  0.851752  1
  O  O17  1  0.902473  0.745776  0.148248  1
  O  O18  1  0.365605  0.098256  0.271445  1
  O  O19  1  0.634395  0.901744  0.728555  1
  O  O20  1  0.673188  0.405840  0.271445  1
  O  O21  1  0.326812  0.594160  0.728555  1
