# generated using pymatgen
data_Yb3HfNp2O12
_symmetry_space_group_name_H-M   'P 1'
_cell_length_a   5.31584000
_cell_length_b   7.61202981
_cell_length_c   11.39890400
_cell_angle_alpha   73.91415921
_cell_angle_beta   90.00000000
_cell_angle_gamma   90.00000000
_symmetry_Int_Tables_number   1
_chemical_formula_structural   Yb3HfNp2O12
_chemical_formula_sum   'Yb6 Hf2 Np4 O24'
_cell_volume   443.19006092
_cell_formula_units_Z   2
loop_
 _symmetry_equiv_pos_site_id
 _symmetry_equiv_pos_as_xyz
  1  'x, y, z'
loop_
 _atom_site_type_symbol
 _atom_site_label
 _atom_site_symmetry_multiplicity
 _atom_site_fract_x
 _atom_site_fract_y
 _atom_site_fract_z
 _atom_site_occupancy
  Yb  Yb0  1  0.808862  0.802425  0.583244  1
  Yb  Yb1  1  0.808862  0.197575  0.916756  1
  Yb  Yb2  1  0.696295  0.500000  0.250000  1
  Yb  Yb3  1  0.299957  0.500000  0.750000  1
  Yb  Yb4  1  0.750045  0.000000  0.250000  1
  Yb  Yb5  1  0.245906  0.000000  0.750000  1
  Hf  Hf6  1  0.184760  0.205409  0.418581  1
  Hf  Hf7  1  0.184760  0.794591  0.081419  1
  Np  Np8  1  0.255750  0.283862  0.112220  1
  Np  Np9  1  0.255750  0.716138  0.387780  1
  Np  Np10  1  0.741162  0.714053  0.893327  1
  Np  Np11  1  0.741162  0.285947  0.606673  1
  O  O12  1  0.444897  0.204352  0.277787  1
  O  O13  1  0.444897  0.795648  0.222213  1
  O  O14  1  0.542726  0.791819  0.739128  1
  O  O15  1  0.542726  0.208181  0.760872  1
  O  O16  1  0.061886  0.047387  0.100034  1
  O  O17  1  0.061886  0.952613  0.399966  1
  O  O18  1  0.959903  0.924721  0.909908  1
  O  O19  1  0.959903  0.075279  0.590092  1
  O  O20  1  0.977672  0.279551  0.237458  1
  O  O21  1  0.977672  0.720449  0.262542  1
  O  O22  1  0.017814  0.714522  0.770933  1
  O  O23  1  0.017814  0.285478  0.729067  1
  O  O24  1  0.903300  0.382248  0.437031  1
  O  O25  1  0.903300  0.617752  0.062969  1
  O  O26  1  0.119212  0.620722  0.551882  1
  O  O27  1  0.119212  0.379278  0.948118  1
  O  O28  1  0.605461  0.522861  0.603500  1
  O  O29  1  0.605461  0.477139  0.896500  1
  O  O30  1  0.382122  0.461041  0.390530  1
  O  O31  1  0.382122  0.538959  0.109470  1
  O  O32  1  0.450523  0.135338  0.552340  1
  O  O33  1  0.450523  0.864662  0.947660  1
  O  O34  1  0.547849  0.840188  0.428508  1
  O  O35  1  0.547849  0.159812  0.071492  1
