# generated using pymatgen
data_Tb2Dy2ReTc3B16
_symmetry_space_group_name_H-M   'P 1'
_cell_length_a   3.60891100
_cell_length_b   5.97760806
_cell_length_c   11.57594605
_cell_angle_alpha   89.94735939
_cell_angle_beta   90.00000000
_cell_angle_gamma   90.00000000
_symmetry_Int_Tables_number   1
_chemical_formula_structural   Tb2Dy2ReTc3B16
_chemical_formula_sum   'Tb2 Dy2 Re1 Tc3 B16'
_cell_volume   249.72379037
_cell_formula_units_Z   1
loop_
 _symmetry_equiv_pos_site_id
 _symmetry_equiv_pos_as_xyz
  1  'x, y, z'
loop_
 _atom_site_type_symbol
 _atom_site_label
 _atom_site_symmetry_multiplicity
 _atom_site_fract_x
 _atom_site_fract_y
 _atom_site_fract_z
 _atom_site_occupancy
  Tb  Tb0  1  0.000000  0.626954  0.349598  1
  Tb  Tb1  1  0.000000  0.372701  0.650404  1
  Dy  Dy2  1  0.000000  0.126859  0.149454  1
  Dy  Dy3  1  0.000000  0.873112  0.850733  1
  Re  Re4  1  0.000000  0.866895  0.587655  1
  Tc  Tc5  1  0.000000  0.633763  0.087528  1
  Tc  Tc6  1  0.000000  0.366627  0.912498  1
  Tc  Tc7  1  0.000000  0.132775  0.412651  1
  B  B8  1  0.500000  0.787371  0.184610  1
  B  B9  1  0.500000  0.212907  0.815421  1
  B  B10  1  0.500000  0.287010  0.315048  1
  B  B11  1  0.500000  0.712944  0.685132  1
  B  B12  1  0.500000  0.863831  0.031475  1
  B  B13  1  0.500000  0.136206  0.968634  1
  B  B14  1  0.500000  0.363506  0.468379  1
  B  B15  1  0.500000  0.636510  0.531225  1
  B  B16  1  0.500000  0.886973  0.452580  1
  B  B17  1  0.500000  0.113423  0.546905  1
  B  B18  1  0.500000  0.386521  0.047195  1
  B  B19  1  0.500000  0.613329  0.952962  1
  B  B20  1  0.500000  0.977287  0.307547  1
  B  B21  1  0.500000  0.023003  0.692259  1
  B  B22  1  0.500000  0.476497  0.192039  1
  B  B23  1  0.500000  0.522998  0.808067  1
