# generated using pymatgen
data_AcNp3O10
_symmetry_space_group_name_H-M   'P 1'
_cell_length_a   5.76913675
_cell_length_b   5.76913633
_cell_length_c   8.19683600
_cell_angle_alpha   69.59837522
_cell_angle_beta   69.59837678
_cell_angle_gamma   70.97457461
_symmetry_Int_Tables_number   1
_chemical_formula_structural   AcNp3O10
_chemical_formula_sum   'Ac1 Np3 O10'
_cell_volume   233.08006762
_cell_formula_units_Z   1
loop_
 _symmetry_equiv_pos_site_id
 _symmetry_equiv_pos_as_xyz
  1  'x, y, z'
loop_
 _atom_site_type_symbol
 _atom_site_label
 _atom_site_symmetry_multiplicity
 _atom_site_fract_x
 _atom_site_fract_y
 _atom_site_fract_z
 _atom_site_occupancy
  Ac  Ac0  1  0.958586  0.041414  0.250000  1
  Np  Np1  1  0.507103  0.510642  0.991488  1
  Np  Np2  1  0.489358  0.492897  0.508512  1
  Np  Np3  1  0.039153  0.960847  0.750000  1
  O  O4  1  0.398369  0.601631  0.750000  1
  O  O5  1  0.257541  0.196300  0.631291  1
  O  O6  1  0.707073  0.728597  0.390155  1
  O  O7  1  0.271403  0.292927  0.109845  1
  O  O8  1  0.577614  0.422386  0.250000  1
  O  O9  1  0.803700  0.742459  0.868709  1
  O  O10  1  0.220256  0.817400  0.010615  1
  O  O11  1  0.790500  0.203256  0.552152  1
  O  O12  1  0.796744  0.209500  0.947848  1
  O  O13  1  0.182600  0.779744  0.489385  1
