# generated using pymatgen
data_Ba3HoMn2O9
_symmetry_space_group_name_H-M   'P 1'
_cell_length_a   5.90082000
_cell_length_b   5.90081306
_cell_length_c   14.46319000
_cell_angle_alpha   90.00000000
_cell_angle_beta   90.00000000
_cell_angle_gamma   120.00063141
_symmetry_Int_Tables_number   1
_chemical_formula_structural   Ba3HoMn2O9
_chemical_formula_sum   'Ba6 Ho2 Mn4 O18'
_cell_volume   436.13022280
_cell_formula_units_Z   2
loop_
 _symmetry_equiv_pos_site_id
 _symmetry_equiv_pos_as_xyz
  1  'x, y, z'
loop_
 _atom_site_type_symbol
 _atom_site_label
 _atom_site_symmetry_multiplicity
 _atom_site_fract_x
 _atom_site_fract_y
 _atom_site_fract_z
 _atom_site_occupancy
  Ba  Ba0  1  0.000001  0.999999  0.250000  1
  Ba  Ba1  1  0.999999  0.000001  0.750000  1
  Ba  Ba2  1  0.333334  0.666666  0.594706  1
  Ba  Ba3  1  0.666666  0.333334  0.405294  1
  Ba  Ba4  1  0.666666  0.333334  0.094706  1
  Ba  Ba5  1  0.333334  0.666666  0.905294  1
  Ho  Ho6  1  0.000000  0.000000  0.500000  1
  Ho  Ho7  1  0.000000  0.000000  0.000000  1
  Mn  Mn8  1  0.333326  0.666659  0.340680  1
  Mn  Mn9  1  0.666674  0.333341  0.659320  1
  Mn  Mn10  1  0.666674  0.333341  0.840680  1
  Mn  Mn11  1  0.333326  0.666659  0.159320  1
  O  O12  1  0.477716  0.522288  0.250000  1
  O  O13  1  0.477712  0.955427  0.250000  1
  O  O14  1  0.044571  0.522289  0.250000  1
  O  O15  1  0.522284  0.477712  0.750000  1
  O  O16  1  0.522288  0.044573  0.750000  1
  O  O17  1  0.955429  0.477711  0.750000  1
  O  O18  1  0.177207  0.822790  0.088598  1
  O  O19  1  0.177210  0.354420  0.088598  1
  O  O20  1  0.645581  0.822788  0.088598  1
  O  O21  1  0.822793  0.177210  0.911402  1
  O  O22  1  0.822790  0.645580  0.911402  1
  O  O23  1  0.354419  0.177212  0.911402  1
  O  O24  1  0.822793  0.177210  0.588598  1
  O  O25  1  0.822790  0.645580  0.588598  1
  O  O26  1  0.354419  0.177212  0.588598  1
  O  O27  1  0.177207  0.822790  0.411402  1
  O  O28  1  0.177210  0.354420  0.411402  1
  O  O29  1  0.645581  0.822788  0.411402  1
