# generated using pymatgen
data_YbEr7(Si4W3)4
_symmetry_space_group_name_H-M   'P 1'
_cell_length_a   6.74408544
_cell_length_b   6.91878080
_cell_length_c   12.89042418
_cell_angle_alpha   89.91545273
_cell_angle_beta   89.96863373
_cell_angle_gamma   89.81727744
_symmetry_Int_Tables_number   1
_chemical_formula_structural   YbEr7(Si4W3)4
_chemical_formula_sum   'Yb1 Er7 Si16 W12'
_cell_volume   601.47433167
_cell_formula_units_Z   1
loop_
 _symmetry_equiv_pos_site_id
 _symmetry_equiv_pos_as_xyz
  1  'x, y, z'
loop_
 _atom_site_type_symbol
 _atom_site_label
 _atom_site_symmetry_multiplicity
 _atom_site_fract_x
 _atom_site_fract_y
 _atom_site_fract_z
 _atom_site_occupancy
  Yb  Yb0  1  0.996220  0.833121  0.590520  1
  Er  Er1  1  0.497226  0.668642  0.593607  1
  Er  Er2  1  0.996369  0.830898  0.906424  1
  Er  Er3  1  0.504204  0.331398  0.093133  1
  Er  Er4  1  0.004328  0.167056  0.408185  1
  Er  Er5  1  0.503486  0.331762  0.407244  1
  Er  Er6  1  0.004956  0.168403  0.093385  1
  Er  Er7  1  0.496663  0.668818  0.906241  1
  Si  Si8  1  0.661093  0.957894  0.453715  1
  Si  Si9  1  0.162998  0.543462  0.045742  1
  Si  Si10  1  0.336496  0.041683  0.953949  1
  Si  Si11  1  0.838200  0.458719  0.546873  1
  Si  Si12  1  0.337970  0.040951  0.547007  1
  Si  Si13  1  0.837295  0.457041  0.954481  1
  Si  Si14  1  0.663700  0.958034  0.045983  1
  Si  Si15  1  0.161343  0.542884  0.453596  1
  Si  Si16  1  0.465665  0.373151  0.749995  1
  Si  Si17  1  0.965556  0.127313  0.749442  1
  Si  Si18  1  0.533356  0.627213  0.250007  1
  Si  Si19  1  0.034198  0.870645  0.250521  1
  Si  Si20  1  0.699841  0.866248  0.748736  1
  Si  Si21  1  0.196361  0.637828  0.748699  1
  Si  Si22  1  0.302136  0.134586  0.250260  1
  Si  Si23  1  0.802521  0.362706  0.250479  1
  W  W24  1  0.666938  0.165353  0.625356  1
  W  W25  1  0.170815  0.339265  0.875369  1
  W  W26  1  0.331850  0.836796  0.125862  1
  W  W27  1  0.827843  0.660561  0.373888  1
  W  W28  1  0.331788  0.836708  0.374407  1
  W  W29  1  0.829261  0.660462  0.125273  1
  W  W30  1  0.668052  0.164074  0.874500  1
  W  W31  1  0.170162  0.338004  0.626190  1
  W  W32  1  0.836101  0.496454  0.750776  1
  W  W33  1  0.334651  0.001393  0.751000  1
  W  W34  1  0.164226  0.500628  0.249865  1
  W  W35  1  0.666134  0.999848  0.249289  1
