# generated using pymatgen
data_La4PI5
_symmetry_space_group_name_H-M   'P 1'
_cell_length_a   10.12862477
_cell_length_b   10.12862445
_cell_length_c   9.30088274
_cell_angle_alpha   77.26543313
_cell_angle_beta   77.26543426
_cell_angle_gamma   24.30328296
_symmetry_Int_Tables_number   1
_chemical_formula_structural   La4PI5
_chemical_formula_sum   'La4 P1 I5'
_cell_volume   382.59028136
_cell_formula_units_Z   1
loop_
 _symmetry_equiv_pos_site_id
 _symmetry_equiv_pos_as_xyz
  1  'x, y, z'
loop_
 _atom_site_type_symbol
 _atom_site_label
 _atom_site_symmetry_multiplicity
 _atom_site_fract_x
 _atom_site_fract_y
 _atom_site_fract_z
 _atom_site_occupancy
  La  La0  1  0.852700  0.852700  0.075632  1
  La  La1  1  0.147300  0.147300  0.924368  1
  La  La2  1  0.501357  0.501357  0.211587  1
  La  La3  1  0.498643  0.498643  0.788413  1
  P  P4  1  0.000000  0.000000  0.000000  1
  I  I5  1  0.671994  0.671994  0.175565  1
  I  I6  1  0.328006  0.328006  0.824435  1
  I  I7  1  0.665376  0.665376  0.657009  1
  I  I8  1  0.334624  0.334624  0.342991  1
  I  I9  1  0.000000  0.000000  0.500000  1
