# generated using pymatgen
data_Ce2Nd2ZnIn2Rh3
_symmetry_space_group_name_H-M   'P 1'
_cell_length_a   7.81240026
_cell_length_b   7.81239879
_cell_length_c   3.79358400
_cell_angle_alpha   90.00000000
_cell_angle_beta   90.00000000
_cell_angle_gamma   86.72712360
_symmetry_Int_Tables_number   1
_chemical_formula_structural   Ce2Nd2ZnIn2Rh3
_chemical_formula_sum   'Ce2 Nd2 Zn1 In2 Rh3'
_cell_volume   231.15839103
_cell_formula_units_Z   1
loop_
 _symmetry_equiv_pos_site_id
 _symmetry_equiv_pos_as_xyz
  1  'x, y, z'
loop_
 _atom_site_type_symbol
 _atom_site_label
 _atom_site_symmetry_multiplicity
 _atom_site_fract_x
 _atom_site_fract_y
 _atom_site_fract_z
 _atom_site_occupancy
  Ce  Ce0  1  0.165635  0.304935  0.500000  1
  Ce  Ce1  1  0.804935  0.665635  0.500000  1
  Nd  Nd2  1  0.676102  0.176102  0.500000  1
  Nd  Nd3  1  0.339031  0.839031  0.500000  1
  Zn  Zn4  1  0.124790  0.624790  0.000000  1
  In  In5  1  0.995774  0.992270  0.000000  1
  In  In6  1  0.492270  0.495774  0.000000  1
  Rh  Rh7  1  0.896377  0.396377  0.000000  1
  Rh  Rh8  1  0.646271  0.858815  0.000000  1
  Rh  Rh9  1  0.358815  0.146271  0.000000  1
