# generated using pymatgen
data_Ce3Zn3CuIrPd
_symmetry_space_group_name_H-M   'P 1'
_cell_length_a   7.27456600
_cell_length_b   7.27456604
_cell_length_c   3.96193400
_cell_angle_alpha   90.00000000
_cell_angle_beta   90.00000000
_cell_angle_gamma   119.99999983
_symmetry_Int_Tables_number   1
_chemical_formula_structural   Ce3Zn3CuIrPd
_chemical_formula_sum   'Ce3 Zn3 Cu1 Ir1 Pd1'
_cell_volume   181.57332566
_cell_formula_units_Z   1
loop_
 _symmetry_equiv_pos_site_id
 _symmetry_equiv_pos_as_xyz
  1  'x, y, z'
loop_
 _atom_site_type_symbol
 _atom_site_label
 _atom_site_symmetry_multiplicity
 _atom_site_fract_x
 _atom_site_fract_y
 _atom_site_fract_z
 _atom_site_occupancy
  Ce  Ce0  1  0.991557  0.409650  0.000000  1
  Ce  Ce1  1  0.590350  0.581908  0.000000  1
  Ce  Ce2  1  0.418092  0.008443  0.000000  1
  Zn  Zn3  1  0.001384  0.764177  0.500000  1
  Zn  Zn4  1  0.235823  0.237207  0.500000  1
  Zn  Zn5  1  0.762793  0.998616  0.500000  1
  Cu  Cu6  1  0.000000  0.000000  0.000000  1
  Ir  Ir7  1  0.666667  0.333333  0.500000  1
  Pd  Pd8  1  0.333333  0.666667  0.500000  1
