# generated using pymatgen
data_Nd2ThIn3Ir2Rh
_symmetry_space_group_name_H-M   'P 1'
_cell_length_a   7.83529300
_cell_length_b   7.67939609
_cell_length_c   3.99796000
_cell_angle_alpha   90.00000000
_cell_angle_beta   90.00000000
_cell_angle_gamma   120.67384842
_symmetry_Int_Tables_number   1
_chemical_formula_structural   Nd2ThIn3Ir2Rh
_chemical_formula_sum   'Nd2 Th1 In3 Ir2 Rh1'
_cell_volume   206.90083062
_cell_formula_units_Z   1
loop_
 _symmetry_equiv_pos_site_id
 _symmetry_equiv_pos_as_xyz
  1  'x, y, z'
loop_
 _atom_site_type_symbol
 _atom_site_label
 _atom_site_symmetry_multiplicity
 _atom_site_fract_x
 _atom_site_fract_y
 _atom_site_fract_z
 _atom_site_occupancy
  Nd  Nd0  1  0.411761  0.410607  0.500000  1
  Nd  Nd1  1  0.001154  0.589393  0.500000  1
  Th  Th2  1  0.581402  0.000000  0.500000  1
  In  In3  1  0.240015  0.000000  0.000000  1
  In  In4  1  0.748319  0.739424  0.000000  1
  In  In5  1  0.008895  0.260576  0.000000  1
  Ir  Ir6  1  0.354799  0.689478  0.000000  1
  Ir  Ir7  1  0.665322  0.310522  0.000000  1
  Rh  Rh8  1  0.988332  0.000000  0.500000  1
