# generated using pymatgen
data_TmLu19(Ir2Ru)4
_symmetry_space_group_name_H-M   'P 1'
_cell_length_a   10.60661401
_cell_length_b   10.60678903
_cell_length_c   6.31540801
_cell_angle_alpha   89.99250425
_cell_angle_beta   89.99963477
_cell_angle_gamma   89.99632673
_symmetry_Int_Tables_number   1
_chemical_formula_structural   TmLu19(Ir2Ru)4
_chemical_formula_sum   'Tm1 Lu19 Ir8 Ru4'
_cell_volume   710.49676406
_cell_formula_units_Z   1
loop_
 _symmetry_equiv_pos_site_id
 _symmetry_equiv_pos_as_xyz
  1  'x, y, z'
loop_
 _atom_site_type_symbol
 _atom_site_label
 _atom_site_symmetry_multiplicity
 _atom_site_fract_x
 _atom_site_fract_y
 _atom_site_fract_z
 _atom_site_occupancy
  Tm  Tm0  1  0.086382  0.293407  0.123509  1
  Lu  Lu1  1  0.293632  0.086282  0.376753  1
  Lu  Lu2  1  0.293568  0.913644  0.876700  1
  Lu  Lu3  1  0.706429  0.086343  0.876691  1
  Lu  Lu4  1  0.706420  0.913641  0.376693  1
  Lu  Lu5  1  0.586349  0.793569  0.876707  1
  Lu  Lu6  1  0.586343  0.206420  0.376684  1
  Lu  Lu7  1  0.413650  0.793567  0.376695  1
  Lu  Lu8  1  0.413684  0.206417  0.876678  1
  Lu  Lu9  1  0.206478  0.413718  0.623309  1
  Lu  Lu10  1  0.206489  0.586479  0.123309  1
  Lu  Lu11  1  0.793443  0.413694  0.123307  1
  Lu  Lu12  1  0.793567  0.586362  0.623301  1
  Lu  Lu13  1  0.913639  0.706464  0.123312  1
  Lu  Lu14  1  0.913571  0.293560  0.623309  1
  Lu  Lu15  1  0.086355  0.706435  0.623281  1
  Lu  Lu16  1  0.999992  0.999976  0.500008  1
  Lu  Lu17  1  0.999946  0.999886  0.999947  1
  Lu  Lu18  1  0.500017  0.500020  0.999962  1
  Lu  Lu19  1  0.500006  0.500013  0.500001  1
  Ir  Ir20  1  0.847070  0.152715  0.250094  1
  Ir  Ir21  1  0.847220  0.847210  0.749996  1
  Ir  Ir22  1  0.152869  0.152647  0.749573  1
  Ir  Ir23  1  0.152786  0.847210  0.250013  1
  Ir  Ir24  1  0.652786  0.347220  0.749994  1
  Ir  Ir25  1  0.652792  0.652769  0.250003  1
  Ir  Ir26  1  0.347435  0.347264  0.250125  1
  Ir  Ir27  1  0.347212  0.652780  0.749994  1
  Ru  Ru28  1  0.500001  0.999998  0.122420  1
  Ru  Ru29  1  0.500001  0.999999  0.622429  1
  Ru  Ru30  1  0.999933  0.500163  0.877415  1
  Ru  Ru31  1  0.999933  0.500128  0.377788  1
