# generated using pymatgen
data_Hf4Zr11Nb(Ir2N)4
_symmetry_space_group_name_H-M   'P 1'
_cell_length_a   8.79918488
_cell_length_b   8.79918763
_cell_length_c   8.80031827
_cell_angle_alpha   59.71423647
_cell_angle_beta   59.71425990
_cell_angle_gamma   59.62125510
_symmetry_Int_Tables_number   1
_chemical_formula_structural   Hf4Zr11Nb(Ir2N)4
_chemical_formula_sum   'Hf4 Zr11 Nb1 Ir8 N4'
_cell_volume   478.33404648
_cell_formula_units_Z   1
loop_
 _symmetry_equiv_pos_site_id
 _symmetry_equiv_pos_as_xyz
  1  'x, y, z'
loop_
 _atom_site_type_symbol
 _atom_site_label
 _atom_site_symmetry_multiplicity
 _atom_site_fract_x
 _atom_site_fract_y
 _atom_site_fract_z
 _atom_site_occupancy
  Hf  Hf0  1  0.124508  0.625536  0.625033  1
  Hf  Hf1  1  0.625536  0.124508  0.625033  1
  Hf  Hf2  1  0.625247  0.625247  0.124774  1
  Hf  Hf3  1  0.814863  0.814863  0.185723  1
  Zr  Zr4  1  0.184461  0.184461  0.815821  1
  Zr  Zr5  1  0.814100  0.186000  0.814275  1
  Zr  Zr6  1  0.184185  0.815887  0.184359  1
  Zr  Zr7  1  0.185999  0.814101  0.814275  1
  Zr  Zr8  1  0.815887  0.184184  0.184358  1
  Zr  Zr9  1  0.435848  0.435847  0.063601  1
  Zr  Zr10  1  0.065973  0.065973  0.433803  1
  Zr  Zr11  1  0.436454  0.063038  0.436051  1
  Zr  Zr12  1  0.064917  0.434637  0.065822  1
  Zr  Zr13  1  0.063038  0.436453  0.436051  1
  Zr  Zr14  1  0.434637  0.064918  0.065822  1
  Nb  Nb15  1  0.625282  0.625282  0.624433  1
  Ir  Ir16  1  0.761439  0.416006  0.414958  1
  Ir  Ir17  1  0.416006  0.761439  0.414959  1
  Ir  Ir18  1  0.415551  0.415552  0.761721  1
  Ir  Ir19  1  0.409863  0.409863  0.409595  1
  Ir  Ir20  1  0.488840  0.834055  0.834539  1
  Ir  Ir21  1  0.834055  0.488840  0.834539  1
  Ir  Ir22  1  0.834354  0.834354  0.485475  1
  Ir  Ir23  1  0.839875  0.839875  0.843812  1
  N  N24  1  0.627562  0.121198  0.125737  1
  N  N25  1  0.121198  0.627561  0.125737  1
  N  N26  1  0.125142  0.125142  0.624811  1
  N  N27  1  0.125179  0.125179  0.124885  1
