# generated using pymatgen
data_SmThAl20(FeRh)2
_symmetry_space_group_name_H-M   'P 1'
_cell_length_a   6.83455605
_cell_length_b   6.83455511
_cell_length_c   9.13223585
_cell_angle_alpha   90.08051523
_cell_angle_beta   90.08051554
_cell_angle_gamma   97.53136487
_symmetry_Int_Tables_number   1
_chemical_formula_structural   SmThAl20(FeRh)2
_chemical_formula_sum   'Sm1 Th1 Al20 Fe2 Rh2'
_cell_volume   422.89630674
_cell_formula_units_Z   1
loop_
 _symmetry_equiv_pos_site_id
 _symmetry_equiv_pos_as_xyz
  1  'x, y, z'
loop_
 _atom_site_type_symbol
 _atom_site_label
 _atom_site_symmetry_multiplicity
 _atom_site_fract_x
 _atom_site_fract_y
 _atom_site_fract_z
 _atom_site_occupancy
  Sm  Sm0  1  0.872664  0.127336  0.750000  1
  Th  Th1  1  0.125304  0.874696  0.250000  1
  Al  Al2  1  0.519621  0.776938  0.744650  1
  Al  Al3  1  0.481672  0.224702  0.255432  1
  Al  Al4  1  0.594110  0.862484  0.253493  1
  Al  Al5  1  0.778539  0.772535  0.001666  1
  Al  Al6  1  0.163375  0.844739  0.602636  1
  Al  Al7  1  0.220173  0.228145  0.996312  1
  Al  Al8  1  0.137516  0.405890  0.246507  1
  Al  Al9  1  0.627155  0.380061  0.949414  1
  Al  Al10  1  0.844236  0.163603  0.100054  1
  Al  Al11  1  0.381692  0.625710  0.450624  1
  Al  Al12  1  0.155261  0.836625  0.897364  1
  Al  Al13  1  0.223062  0.480379  0.755350  1
  Al  Al14  1  0.374290  0.618308  0.049376  1
  Al  Al15  1  0.836397  0.155764  0.399946  1
  Al  Al16  1  0.619939  0.372845  0.550586  1
  Al  Al17  1  0.409240  0.137138  0.746548  1
  Al  Al18  1  0.775298  0.518328  0.244568  1
  Al  Al19  1  0.771855  0.779827  0.503688  1
  Al  Al20  1  0.227465  0.221461  0.498334  1
  Al  Al21  1  0.862862  0.590760  0.753452  1
  Fe  Fe22  1  0.001279  0.502744  0.001825  1
  Fe  Fe23  1  0.497256  0.998721  0.498175  1
  Rh  Rh24  1  0.000879  0.501138  0.499333  1
  Rh  Rh25  1  0.498862  0.999121  0.000667  1
