# generated using pymatgen
data_Ti2Co4Si4MoW
_symmetry_space_group_name_H-M   'P 1'
_cell_length_a   3.58828500
_cell_length_b   6.10815093
_cell_length_c   6.95013706
_cell_angle_alpha   90.06319233
_cell_angle_beta   90.00000000
_cell_angle_gamma   90.00000000
_symmetry_Int_Tables_number   1
_chemical_formula_structural   Ti2Co4Si4MoW
_chemical_formula_sum   'Ti2 Co4 Si4 Mo1 W1'
_cell_volume   152.33152650
_cell_formula_units_Z   1
loop_
 _symmetry_equiv_pos_site_id
 _symmetry_equiv_pos_as_xyz
  1  'x, y, z'
loop_
 _atom_site_type_symbol
 _atom_site_label
 _atom_site_symmetry_multiplicity
 _atom_site_fract_x
 _atom_site_fract_y
 _atom_site_fract_z
 _atom_site_occupancy
  Ti  Ti0  1  0.250000  0.522447  0.680421  1
  Ti  Ti1  1  0.750000  0.978053  0.180620  1
  Co  Co2  1  0.250000  0.645894  0.060209  1
  Co  Co3  1  0.750000  0.359964  0.934562  1
  Co  Co4  1  0.250000  0.137435  0.436489  1
  Co  Co5  1  0.750000  0.855316  0.563465  1
  Si  Si6  1  0.750000  0.730283  0.879067  1
  Si  Si7  1  0.250000  0.768408  0.378177  1
  Si  Si8  1  0.750000  0.226316  0.618528  1
  Si  Si9  1  0.250000  0.275571  0.120855  1
  Mo  Mo10  1  0.750000  0.475682  0.323766  1
  W  W11  1  0.250000  0.024632  0.823842  1
