# generated using pymatgen
data_HoEr11(PdRh)2
_symmetry_space_group_name_H-M   'P 1'
_cell_length_a   6.35743801
_cell_length_b   7.06439202
_cell_length_c   9.41669800
_cell_angle_alpha   90.00000000
_cell_angle_beta   90.00000000
_cell_angle_gamma   89.99247856
_symmetry_Int_Tables_number   1
_chemical_formula_structural   HoEr11(PdRh)2
_chemical_formula_sum   'Ho1 Er11 Pd2 Rh2'
_cell_volume   422.91741029
_cell_formula_units_Z   1
loop_
 _symmetry_equiv_pos_site_id
 _symmetry_equiv_pos_as_xyz
  1  'x, y, z'
loop_
 _atom_site_type_symbol
 _atom_site_label
 _atom_site_symmetry_multiplicity
 _atom_site_fract_x
 _atom_site_fract_y
 _atom_site_fract_z
 _atom_site_occupancy
  Ho  Ho0  1  0.862334  0.974353  0.750000  1
  Er  Er1  1  0.675654  0.185075  0.060195  1
  Er  Er2  1  0.175713  0.315004  0.940048  1
  Er  Er3  1  0.829206  0.677213  0.437980  1
  Er  Er4  1  0.329254  0.822658  0.561866  1
  Er  Er5  1  0.329254  0.822658  0.938134  1
  Er  Er6  1  0.829206  0.677213  0.062020  1
  Er  Er7  1  0.175713  0.315004  0.559952  1
  Er  Er8  1  0.675654  0.185075  0.439805  1
  Er  Er9  1  0.361900  0.525754  0.250000  1
  Er  Er10  1  0.627283  0.466461  0.750000  1
  Er  Er11  1  0.127579  0.033711  0.250000  1
  Pd  Pd12  1  0.053904  0.611320  0.750000  1
  Pd  Pd13  1  0.553774  0.888390  0.250000  1
  Rh  Rh14  1  0.446493  0.114313  0.750000  1
  Rh  Rh15  1  0.947078  0.385798  0.250000  1
