# generated using pymatgen
data_Hf4Pd11Rh
_symmetry_space_group_name_H-M   'P 1'
_cell_length_a   5.65611000
_cell_length_b   5.68831796
_cell_length_c   9.26461055
_cell_angle_alpha   89.22151496
_cell_angle_beta   90.00000000
_cell_angle_gamma   119.81287456
_symmetry_Int_Tables_number   1
_chemical_formula_structural   Hf4Pd11Rh
_chemical_formula_sum   'Hf4 Pd11 Rh1'
_cell_volume   258.59616441
_cell_formula_units_Z   1
loop_
 _symmetry_equiv_pos_site_id
 _symmetry_equiv_pos_as_xyz
  1  'x, y, z'
loop_
 _atom_site_type_symbol
 _atom_site_label
 _atom_site_symmetry_multiplicity
 _atom_site_fract_x
 _atom_site_fract_y
 _atom_site_fract_z
 _atom_site_occupancy
  Hf  Hf0  1  0.663424  0.326847  0.755536  1
  Hf  Hf1  1  0.336576  0.673153  0.244464  1
  Hf  Hf2  1  0.000000  0.000000  0.500000  1
  Hf  Hf3  1  0.000000  0.000000  0.000000  1
  Pd  Pd4  1  0.167988  0.335975  0.749095  1
  Pd  Pd5  1  0.831915  0.170597  0.250671  1
  Pd  Pd6  1  0.338681  0.170597  0.250671  1
  Pd  Pd7  1  0.661319  0.829403  0.749329  1
  Pd  Pd8  1  0.500000  0.500000  0.500000  1
  Pd  Pd9  1  0.000000  0.500000  0.500000  1
  Pd  Pd10  1  0.000000  0.500000  0.000000  1
  Pd  Pd11  1  0.500000  0.500000  0.000000  1
  Pd  Pd12  1  0.500000  0.000000  0.500000  1
  Pd  Pd13  1  0.832012  0.664025  0.250905  1
  Pd  Pd14  1  0.168085  0.829403  0.749329  1
  Rh  Rh15  1  0.500000  0.000000  0.000000  1
