# generated using pymatgen
data_LaYb(TaS2)8
_symmetry_space_group_name_H-M   'P 1'
_cell_length_a   6.72070500
_cell_length_b   6.72070502
_cell_length_c   14.44054500
_cell_angle_alpha   90.00000000
_cell_angle_beta   90.00000000
_cell_angle_gamma   120.00000481
_symmetry_Int_Tables_number   1
_chemical_formula_structural   LaYb(TaS2)8
_chemical_formula_sum   'La1 Yb1 Ta8 S16'
_cell_volume   564.86395441
_cell_formula_units_Z   1
loop_
 _symmetry_equiv_pos_site_id
 _symmetry_equiv_pos_as_xyz
  1  'x, y, z'
loop_
 _atom_site_type_symbol
 _atom_site_label
 _atom_site_symmetry_multiplicity
 _atom_site_fract_x
 _atom_site_fract_y
 _atom_site_fract_z
 _atom_site_occupancy
  La  La0  1  0.000000  0.000000  0.000000  1
  Yb  Yb1  1  0.000000  0.000000  0.500000  1
  Ta  Ta2  1  0.504240  0.495757  0.746235  1
  Ta  Ta3  1  0.008478  0.504244  0.253763  1
  Ta  Ta4  1  0.495756  0.991519  0.253765  1
  Ta  Ta5  1  0.504244  0.008481  0.746235  1
  Ta  Ta6  1  0.991522  0.495756  0.746237  1
  Ta  Ta7  1  0.495760  0.504243  0.253765  1
  Ta  Ta8  1  0.000001  0.999998  0.747300  1
  Ta  Ta9  1  0.999999  0.000002  0.252700  1
  S  S10  1  0.832794  0.167210  0.360454  1
  S  S11  1  0.832792  0.665591  0.360456  1
  S  S12  1  0.334406  0.167209  0.360458  1
  S  S13  1  0.663003  0.831499  0.854167  1
  S  S14  1  0.167208  0.334409  0.639544  1
  S  S15  1  0.168500  0.831501  0.854169  1
  S  S16  1  0.168502  0.336996  0.854169  1
  S  S17  1  0.831500  0.168499  0.145831  1
  S  S18  1  0.336997  0.168501  0.145833  1
  S  S19  1  0.665594  0.832791  0.639542  1
  S  S20  1  0.333334  0.666666  0.143790  1
  S  S21  1  0.666668  0.333331  0.636934  1
  S  S22  1  0.666666  0.333334  0.856210  1
  S  S23  1  0.333332  0.666669  0.363066  1
  S  S24  1  0.831498  0.663004  0.145831  1
  S  S25  1  0.167206  0.832790  0.639546  1
