# generated using pymatgen
data_Tb5ThFeCo
_symmetry_space_group_name_H-M   'P 1'
_cell_length_a   6.23799300
_cell_length_b   7.00422800
_cell_length_c   9.57001900
_cell_angle_alpha   90.00000000
_cell_angle_beta   90.00000000
_cell_angle_gamma   90.00000000
_symmetry_Int_Tables_number   1
_chemical_formula_structural   Tb5ThFeCo
_chemical_formula_sum   'Tb10 Th2 Fe2 Co2'
_cell_volume   418.13638265
_cell_formula_units_Z   2
loop_
 _symmetry_equiv_pos_site_id
 _symmetry_equiv_pos_as_xyz
  1  'x, y, z'
loop_
 _atom_site_type_symbol
 _atom_site_label
 _atom_site_symmetry_multiplicity
 _atom_site_fract_x
 _atom_site_fract_y
 _atom_site_fract_z
 _atom_site_occupancy
  Tb  Tb0  1  0.327001  0.673016  0.069321  1
  Tb  Tb1  1  0.172999  0.173016  0.430679  1
  Tb  Tb2  1  0.674901  0.329287  0.569195  1
  Tb  Tb3  1  0.825099  0.829287  0.930805  1
  Tb  Tb4  1  0.674901  0.329287  0.930805  1
  Tb  Tb5  1  0.825099  0.829287  0.569195  1
  Tb  Tb6  1  0.327001  0.673016  0.430679  1
  Tb  Tb7  1  0.172999  0.173016  0.069321  1
  Tb  Tb8  1  0.147859  0.454183  0.750000  1
  Tb  Tb9  1  0.352141  0.954183  0.750000  1
  Th  Th10  1  0.846784  0.558453  0.250000  1
  Th  Th11  1  0.653216  0.058453  0.250000  1
  Fe  Fe12  1  0.017685  0.867162  0.250000  1
  Fe  Fe13  1  0.482315  0.367162  0.250000  1
  Co  Co14  1  0.951586  0.115598  0.750000  1
  Co  Co15  1  0.548414  0.615598  0.750000  1
