# generated using pymatgen
data_LiHoTm15Cd3Co4
_symmetry_space_group_name_H-M   'P 1'
_cell_length_a   9.37318227
_cell_length_b   9.37318423
_cell_length_c   9.38857133
_cell_angle_alpha   60.00756221
_cell_angle_beta   60.00755001
_cell_angle_gamma   59.97739752
_symmetry_Int_Tables_number   1
_chemical_formula_structural   LiHoTm15Cd3Co4
_chemical_formula_sum   'Li1 Ho1 Tm15 Cd3 Co4'
_cell_volume   583.22222065
_cell_formula_units_Z   1
loop_
 _symmetry_equiv_pos_site_id
 _symmetry_equiv_pos_as_xyz
  1  'x, y, z'
loop_
 _atom_site_type_symbol
 _atom_site_label
 _atom_site_symmetry_multiplicity
 _atom_site_fract_x
 _atom_site_fract_y
 _atom_site_fract_z
 _atom_site_occupancy
  Li  Li0  1  0.822031  0.822031  0.533218  1
  Ho  Ho1  1  0.438878  0.438878  0.060207  1
  Tm  Tm2  1  0.594702  0.594702  0.596217  1
  Tm  Tm3  1  0.187292  0.813290  0.812523  1
  Tm  Tm4  1  0.063405  0.063405  0.435849  1
  Tm  Tm5  1  0.438608  0.061627  0.060360  1
  Tm  Tm6  1  0.813290  0.187292  0.812523  1
  Tm  Tm7  1  0.435939  0.063270  0.436741  1
  Tm  Tm8  1  0.594921  0.214188  0.596765  1
  Tm  Tm9  1  0.811372  0.811372  0.188302  1
  Tm  Tm10  1  0.214188  0.594921  0.596765  1
  Tm  Tm11  1  0.811411  0.188992  0.188359  1
  Tm  Tm12  1  0.063270  0.435939  0.436741  1
  Tm  Tm13  1  0.188992  0.811411  0.188359  1
  Tm  Tm14  1  0.597273  0.597273  0.208854  1
  Tm  Tm15  1  0.187396  0.187396  0.812703  1
  Tm  Tm16  1  0.061627  0.438608  0.060360  1
  Cd  Cd17  1  0.831763  0.831763  0.827100  1
  Cd  Cd18  1  0.508732  0.831686  0.827386  1
  Cd  Cd19  1  0.831686  0.508732  0.827386  1
  Co  Co20  1  0.392176  0.392176  0.388653  1
  Co  Co21  1  0.827441  0.392271  0.388776  1
  Co  Co22  1  0.392271  0.827441  0.388776  1
  Co  Co23  1  0.391340  0.391340  0.827078  1
