# generated using pymatgen
data_Y5InSn2Se
_symmetry_space_group_name_H-M   'P 1'
_cell_length_a   9.10872207
_cell_length_b   9.11936359
_cell_length_c   6.80704200
_cell_angle_alpha   90.00000000
_cell_angle_beta   90.00000000
_cell_angle_gamma   120.03864756
_symmetry_Int_Tables_number   1
_chemical_formula_structural   Y5InSn2Se
_chemical_formula_sum   'Y10 In2 Sn4 Se2'
_cell_volume   489.48769850
_cell_formula_units_Z   2
loop_
 _symmetry_equiv_pos_site_id
 _symmetry_equiv_pos_as_xyz
  1  'x, y, z'
loop_
 _atom_site_type_symbol
 _atom_site_label
 _atom_site_symmetry_multiplicity
 _atom_site_fract_x
 _atom_site_fract_y
 _atom_site_fract_z
 _atom_site_occupancy
  Y  Y0  1  0.667001  0.333448  0.998872  1
  Y  Y1  1  0.332999  0.666448  0.998872  1
  Y  Y2  1  0.332999  0.666448  0.501128  1
  Y  Y3  1  0.667001  0.333448  0.501128  1
  Y  Y4  1  0.748553  0.748022  0.750000  1
  Y  Y5  1  0.251447  0.999469  0.750000  1
  Y  Y6  1  0.000000  0.252203  0.750000  1
  Y  Y7  1  0.251226  0.251984  0.250000  1
  Y  Y8  1  0.748774  0.000758  0.250000  1
  Y  Y9  1  0.000000  0.748835  0.250000  1
  In  In10  1  0.398368  0.398248  0.750000  1
  In  In11  1  0.601632  0.999880  0.750000  1
  Sn  Sn12  1  0.000000  0.603265  0.750000  1
  Sn  Sn13  1  0.601821  0.601416  0.250000  1
  Sn  Sn14  1  0.398179  0.999595  0.250000  1
  Sn  Sn15  1  0.000000  0.396496  0.250000  1
  Se  Se16  1  0.000000  0.000019  0.000372  1
  Se  Se17  1  0.000000  0.000019  0.499628  1
