# generated using pymatgen
data_Sr4DyU7N16
_symmetry_space_group_name_H-M   'P 1'
_cell_length_a   10.15658360
_cell_length_b   3.52873600
_cell_length_c   11.90938578
_cell_angle_alpha   90.00000000
_cell_angle_beta   89.86879051
_cell_angle_gamma   90.00000000
_symmetry_Int_Tables_number   1
_chemical_formula_structural   Sr4DyU7N16
_chemical_formula_sum   'Sr4 Dy1 U7 N16'
_cell_volume   426.83010207
_cell_formula_units_Z   1
loop_
 _symmetry_equiv_pos_site_id
 _symmetry_equiv_pos_as_xyz
  1  'x, y, z'
loop_
 _atom_site_type_symbol
 _atom_site_label
 _atom_site_symmetry_multiplicity
 _atom_site_fract_x
 _atom_site_fract_y
 _atom_site_fract_z
 _atom_site_occupancy
  Sr  Sr0  1  0.755114  0.500001  0.142499  1
  Sr  Sr1  1  0.248464  0.500001  0.349591  1
  Sr  Sr2  1  0.750714  0.000000  0.648646  1
  Sr  Sr3  1  0.253372  0.000000  0.852195  1
  Dy  Dy4  1  0.084268  0.500001  0.109570  1
  U  U5  1  0.421439  0.000000  0.113832  1
  U  U6  1  0.922998  0.000000  0.388378  1
  U  U7  1  0.577442  0.500001  0.385323  1
  U  U8  1  0.422843  0.000000  0.613453  1
  U  U9  1  0.076379  0.500001  0.613382  1
  U  U10  1  0.575316  0.500001  0.889569  1
  U  U11  1  0.928694  0.000000  0.889915  1
  N  N12  1  0.604512  0.000000  0.011094  1
  N  N13  1  0.925237  0.000000  0.061107  1
  N  N14  1  0.228621  0.000000  0.173416  1
  N  N15  1  0.487302  0.500001  0.215029  1
  N  N16  1  0.976510  0.500001  0.290414  1
  N  N17  1  0.707920  0.000000  0.338082  1
  N  N18  1  0.443348  0.000000  0.425090  1
  N  N19  1  0.114542  0.000000  0.495910  1
  N  N20  1  0.886330  0.500001  0.509297  1
  N  N21  1  0.558250  0.500001  0.574709  1
  N  N22  1  0.290388  0.500001  0.665688  1
  N  N23  1  0.008573  0.000000  0.713111  1
  N  N24  1  0.516596  0.000000  0.786043  1
  N  N25  1  0.790100  0.500001  0.842862  1
  N  N26  1  0.059481  0.500001  0.912124  1
  N  N27  1  0.385262  0.500001  0.989679  1
