# generated using pymatgen
data_DyEr3(Zn5Sn)2
_symmetry_space_group_name_H-M   'P 1'
_cell_length_a   8.33013834
_cell_length_b   8.33013828
_cell_length_c   8.98778720
_cell_angle_alpha   89.94301343
_cell_angle_beta   90.05698724
_cell_angle_gamma   149.79314241
_symmetry_Int_Tables_number   1
_chemical_formula_structural   DyEr3(Zn5Sn)2
_chemical_formula_sum   'Dy1 Er3 Zn10 Sn2'
_cell_volume   313.78449474
_cell_formula_units_Z   1
loop_
 _symmetry_equiv_pos_site_id
 _symmetry_equiv_pos_as_xyz
  1  'x, y, z'
loop_
 _atom_site_type_symbol
 _atom_site_label
 _atom_site_symmetry_multiplicity
 _atom_site_fract_x
 _atom_site_fract_y
 _atom_site_fract_z
 _atom_site_occupancy
  Dy  Dy0  1  0.000000  0.000000  0.500000  1
  Er  Er1  1  0.202055  0.797945  0.249584  1
  Er  Er2  1  0.797945  0.202055  0.750416  1
  Er  Er3  1  0.000000  0.000000  0.000000  1
  Zn  Zn4  1  0.812674  0.187326  0.391384  1
  Zn  Zn5  1  0.187326  0.812674  0.608616  1
  Zn  Zn6  1  0.813040  0.186960  0.109237  1
  Zn  Zn7  1  0.186960  0.813040  0.890763  1
  Zn  Zn8  1  0.655952  0.344048  0.480726  1
  Zn  Zn9  1  0.344048  0.655952  0.519274  1
  Zn  Zn10  1  0.655899  0.344101  0.018781  1
  Zn  Zn11  1  0.344101  0.655899  0.981219  1
  Zn  Zn12  1  0.390958  0.609042  0.250297  1
  Zn  Zn13  1  0.609042  0.390958  0.749703  1
  Sn  Sn14  1  0.552868  0.447132  0.249207  1
  Sn  Sn15  1  0.447132  0.552868  0.750793  1
