# generated using pymatgen
data_HoU2(InPt)3
_symmetry_space_group_name_H-M   'P 1'
_cell_length_a   7.62988463
_cell_length_b   7.56829908
_cell_length_c   3.97083300
_cell_angle_alpha   90.00000000
_cell_angle_beta   90.00000000
_cell_angle_gamma   119.73335213
_symmetry_Int_Tables_number   1
_chemical_formula_structural   HoU2(InPt)3
_chemical_formula_sum   'Ho1 U2 In3 Pt3'
_cell_volume   199.10820922
_cell_formula_units_Z   1
loop_
 _symmetry_equiv_pos_site_id
 _symmetry_equiv_pos_as_xyz
  1  'x, y, z'
loop_
 _atom_site_type_symbol
 _atom_site_label
 _atom_site_symmetry_multiplicity
 _atom_site_fract_x
 _atom_site_fract_y
 _atom_site_fract_z
 _atom_site_occupancy
  Ho  Ho0  1  0.000000  0.592378  0.500000  1
  U  U1  1  0.586953  0.997814  0.500000  1
  U  U2  1  0.413047  0.410861  0.500000  1
  In  In3  1  0.749863  0.743937  0.000000  1
  In  In4  1  0.000000  0.261720  0.000000  1
  In  In5  1  0.250137  0.994074  0.000000  1
  Pt  Pt6  1  0.343320  0.668482  0.000000  1
  Pt  Pt7  1  0.656680  0.325161  0.000000  1
  Pt  Pt8  1  0.000000  0.005572  0.500000  1
