# generated using pymatgen
data_DyLu3Mn4F28
_symmetry_space_group_name_H-M   'P 1'
_cell_length_a   5.37459302
_cell_length_b   8.58158394
_cell_length_c   11.57305213
_cell_angle_alpha   62.70736797
_cell_angle_beta   90.06982356
_cell_angle_gamma   90.04219095
_symmetry_Int_Tables_number   1
_chemical_formula_structural   DyLu3Mn4F28
_chemical_formula_sum   'Dy1 Lu3 Mn4 F28'
_cell_volume   474.35575018
_cell_formula_units_Z   1
loop_
 _symmetry_equiv_pos_site_id
 _symmetry_equiv_pos_as_xyz
  1  'x, y, z'
loop_
 _atom_site_type_symbol
 _atom_site_label
 _atom_site_symmetry_multiplicity
 _atom_site_fract_x
 _atom_site_fract_y
 _atom_site_fract_z
 _atom_site_occupancy
  Dy  Dy0  1  0.739002  0.811276  0.264897  1
  Lu  Lu1  1  0.761638  0.812182  0.764401  1
  Lu  Lu2  1  0.261743  0.187968  0.735728  1
  Lu  Lu3  1  0.238398  0.190434  0.235326  1
  Mn  Mn4  1  0.759165  0.274306  0.956025  1
  Mn  Mn5  1  0.258550  0.726439  0.544774  1
  Mn  Mn6  1  0.241360  0.726388  0.041903  1
  Mn  Mn7  1  0.741064  0.271536  0.457366  1
  F  F8  1  0.432847  0.705037  0.919353  1
  F  F9  1  0.932357  0.294593  0.579792  1
  F  F10  1  0.568340  0.295134  0.079281  1
  F  F11  1  0.070184  0.704238  0.421361  1
  F  F12  1  0.449995  0.277578  0.541748  1
  F  F13  1  0.949008  0.722100  0.958006  1
  F  F14  1  0.548306  0.720572  0.461375  1
  F  F15  1  0.049969  0.278410  0.041096  1
  F  F16  1  0.774683  0.515896  0.861058  1
  F  F17  1  0.274349  0.484394  0.639085  1
  F  F18  1  0.225237  0.484729  0.138300  1
  F  F19  1  0.724960  0.511683  0.362402  1
  F  F20  1  0.755500  0.035253  0.046142  1
  F  F21  1  0.255745  0.965681  0.452866  1
  F  F22  1  0.244570  0.966120  0.951959  1
  F  F23  1  0.744497  0.032496  0.548279  1
  F  F24  1  0.975114  0.727205  0.634448  1
  F  F25  1  0.475870  0.273065  0.865675  1
  F  F26  1  0.024018  0.272897  0.366294  1
  F  F27  1  0.523192  0.725743  0.132181  1
  F  F28  1  0.057253  0.743528  0.170578  1
  F  F29  1  0.552026  0.254722  0.328491  1
  F  F30  1  0.948333  0.255319  0.828048  1
  F  F31  1  0.448244  0.745013  0.672382  1
  F  F32  1  0.405761  0.973474  0.229351  1
  F  F33  1  0.914658  0.034648  0.270041  1
  F  F34  1  0.587017  0.029150  0.769668  1
  F  F35  1  0.087046  0.970793  0.730321  1
