# generated using pymatgen
data_Er20NiOsAu6
_symmetry_space_group_name_H-M   'P 1'
_cell_length_a   9.26535100
_cell_length_b   9.26535082
_cell_length_c   9.47622400
_cell_angle_alpha   90.00000000
_cell_angle_beta   90.00000000
_cell_angle_gamma   119.99998993
_symmetry_Int_Tables_number   1
_chemical_formula_structural   Er20NiOsAu6
_chemical_formula_sum   'Er20 Ni1 Os1 Au6'
_cell_volume   704.51417913
_cell_formula_units_Z   1
loop_
 _symmetry_equiv_pos_site_id
 _symmetry_equiv_pos_as_xyz
  1  'x, y, z'
loop_
 _atom_site_type_symbol
 _atom_site_label
 _atom_site_symmetry_multiplicity
 _atom_site_fract_x
 _atom_site_fract_y
 _atom_site_fract_z
 _atom_site_occupancy
  Er  Er0  1  0.000000  0.000000  0.499338  1
  Er  Er1  1  0.000000  0.000000  0.000662  1
  Er  Er2  1  0.541418  0.458582  0.250000  1
  Er  Er3  1  0.541418  0.082836  0.250000  1
  Er  Er4  1  0.917164  0.458582  0.250000  1
  Er  Er5  1  0.457186  0.542814  0.750000  1
  Er  Er6  1  0.457186  0.914373  0.750000  1
  Er  Er7  1  0.085627  0.542814  0.750000  1
  Er  Er8  1  0.206705  0.793295  0.442540  1
  Er  Er9  1  0.206705  0.413412  0.442540  1
  Er  Er10  1  0.586588  0.793295  0.442540  1
  Er  Er11  1  0.791324  0.208676  0.560028  1
  Er  Er12  1  0.791324  0.582649  0.560028  1
  Er  Er13  1  0.417351  0.208676  0.560028  1
  Er  Er14  1  0.791324  0.208676  0.939972  1
  Er  Er15  1  0.791324  0.582649  0.939972  1
  Er  Er16  1  0.417351  0.208676  0.939972  1
  Er  Er17  1  0.206705  0.793295  0.057460  1
  Er  Er18  1  0.206705  0.413412  0.057460  1
  Er  Er19  1  0.586588  0.793295  0.057460  1
  Ni  Ni20  1  0.666667  0.333333  0.750000  1
  Os  Os21  1  0.333333  0.666667  0.250000  1
  Au  Au22  1  0.880031  0.119969  0.250000  1
  Au  Au23  1  0.880031  0.760063  0.250000  1
  Au  Au24  1  0.239937  0.119969  0.250000  1
  Au  Au25  1  0.118804  0.881196  0.750000  1
  Au  Au26  1  0.118804  0.237609  0.750000  1
  Au  Au27  1  0.762391  0.881196  0.750000  1
