# generated using pymatgen
data_Be3InFeF9
_symmetry_space_group_name_H-M   'P 1'
_cell_length_a   6.80600000
_cell_length_b   6.80599481
_cell_length_c   9.92927600
_cell_angle_alpha   89.99998316
_cell_angle_beta   90.00000000
_cell_angle_gamma   120.00057929
_symmetry_Int_Tables_number   1
_chemical_formula_structural   Be3InFeF9
_chemical_formula_sum   'Be6 In2 Fe2 F18'
_cell_volume   398.31736280
_cell_formula_units_Z   2
loop_
 _symmetry_equiv_pos_site_id
 _symmetry_equiv_pos_as_xyz
  1  'x, y, z'
loop_
 _atom_site_type_symbol
 _atom_site_label
 _atom_site_symmetry_multiplicity
 _atom_site_fract_x
 _atom_site_fract_y
 _atom_site_fract_z
 _atom_site_occupancy
  Be  Be0  1  0.214126  0.940297  0.248729  1
  Be  Be1  1  0.211164  0.271995  0.750305  1
  Be  Be2  1  0.725607  0.939007  0.751210  1
  Be  Be3  1  0.058101  0.786614  0.749840  1
  Be  Be4  1  0.061722  0.272913  0.249777  1
  Be  Be5  1  0.728877  0.787270  0.250206  1
  In  In6  1  0.668562  0.338213  0.999719  1
  In  In7  1  0.666269  0.336429  0.500081  1
  Fe  Fe8  1  0.332864  0.666132  0.000033  1
  Fe  Fe9  1  0.333571  0.666890  0.500004  1
  F  F10  1  0.076903  0.669614  0.620981  1
  F  F11  1  0.584983  0.910662  0.622419  1
  F  F12  1  0.331621  0.413376  0.623228  1
  F  F13  1  0.326905  0.914492  0.377543  1
  F  F14  1  0.238316  0.185910  0.250549  1
  F  F15  1  0.950921  0.763835  0.248373  1
  F  F16  1  0.815940  0.052208  0.251311  1
  F  F17  1  0.812463  0.762934  0.751534  1
  F  F18  1  0.946717  0.184697  0.748856  1
  F  F19  1  0.235782  0.050943  0.749347  1
  F  F20  1  0.332298  0.920847  0.119631  1
  F  F21  1  0.593187  0.669513  0.379123  1
  F  F22  1  0.086117  0.416284  0.376898  1
  F  F23  1  0.085023  0.408973  0.119263  1
  F  F24  1  0.592554  0.672017  0.120898  1
  F  F25  1  0.079177  0.671612  0.879233  1
  F  F26  1  0.586803  0.919053  0.879905  1
  F  F27  1  0.323428  0.407270  0.881000  1
