# generated using pymatgen
data_Er12Co4RuPb
_symmetry_space_group_name_H-M   'P 1'
_cell_length_a   8.23247295
_cell_length_b   8.23247282
_cell_length_c   8.23247208
_cell_angle_alpha   110.79303261
_cell_angle_beta   111.38193545
_cell_angle_gamma   106.28548476
_symmetry_Int_Tables_number   1
_chemical_formula_structural   Er12Co4RuPb
_chemical_formula_sum   'Er12 Co4 Ru1 Pb1'
_cell_volume   428.50492197
_cell_formula_units_Z   1
loop_
 _symmetry_equiv_pos_site_id
 _symmetry_equiv_pos_as_xyz
  1  'x, y, z'
loop_
 _atom_site_type_symbol
 _atom_site_label
 _atom_site_symmetry_multiplicity
 _atom_site_fract_x
 _atom_site_fract_y
 _atom_site_fract_z
 _atom_site_occupancy
  Er  Er0  1  0.285274  0.183509  0.468782  1
  Er  Er1  1  0.714726  0.816491  0.531218  1
  Er  Er2  1  0.285274  0.816491  0.101766  1
  Er  Er3  1  0.714726  0.183509  0.898234  1
  Er  Er4  1  0.619345  0.312194  0.307151  1
  Er  Er5  1  0.380655  0.687806  0.692849  1
  Er  Er6  1  0.005045  0.312194  0.692849  1
  Er  Er7  1  0.994955  0.687806  0.307151  1
  Er  Er8  1  0.213950  0.408802  0.194851  1
  Er  Er9  1  0.786050  0.591198  0.805149  1
  Er  Er10  1  0.213950  0.019099  0.805149  1
  Er  Er11  1  0.786050  0.980901  0.194851  1
  Co  Co12  1  0.000000  0.377951  0.377951  1
  Co  Co13  1  0.000000  0.622049  0.622049  1
  Co  Co14  1  0.388645  0.888645  0.500000  1
  Co  Co15  1  0.611355  0.111355  0.500000  1
  Ru  Ru16  1  0.000000  0.000000  0.000000  1
  Pb  Pb17  1  0.500000  0.500000  0.000000  1
