# generated using pymatgen
data_Cs6SmNpBr12
_symmetry_space_group_name_H-M   'P 1'
_cell_length_a   10.08210900
_cell_length_b   10.08927799
_cell_length_c   8.36003000
_cell_angle_alpha   90.00000000
_cell_angle_beta   90.00000000
_cell_angle_gamma   89.98013728
_symmetry_Int_Tables_number   1
_chemical_formula_structural   Cs6SmNpBr12
_chemical_formula_sum   'Cs6 Sm1 Np1 Br12'
_cell_volume   850.39223568
_cell_formula_units_Z   1
loop_
 _symmetry_equiv_pos_site_id
 _symmetry_equiv_pos_as_xyz
  1  'x, y, z'
loop_
 _atom_site_type_symbol
 _atom_site_label
 _atom_site_symmetry_multiplicity
 _atom_site_fract_x
 _atom_site_fract_y
 _atom_site_fract_z
 _atom_site_occupancy
  Cs  Cs0  1  0.000000  0.000000  0.500000  1
  Cs  Cs1  1  0.000000  0.000000  0.000000  1
  Cs  Cs2  1  0.234130  0.585296  0.500000  1
  Cs  Cs3  1  0.765870  0.414704  0.500000  1
  Cs  Cs4  1  0.414710  0.235465  0.000000  1
  Cs  Cs5  1  0.585290  0.764535  0.000000  1
  Sm  Sm6  1  0.000000  0.500000  0.000000  1
  Np  Np7  1  0.500000  0.000000  0.500000  1
  Br  Br8  1  0.696861  0.059422  0.743814  1
  Br  Br9  1  0.303139  0.940578  0.743814  1
  Br  Br10  1  0.941339  0.693850  0.242108  1
  Br  Br11  1  0.058661  0.306150  0.242108  1
  Br  Br12  1  0.303139  0.940578  0.256186  1
  Br  Br13  1  0.696861  0.059422  0.256186  1
  Br  Br14  1  0.058661  0.306150  0.757892  1
  Br  Br15  1  0.941339  0.693850  0.757892  1
  Br  Br16  1  0.569354  0.721901  0.500000  1
  Br  Br17  1  0.430646  0.278099  0.500000  1
  Br  Br18  1  0.275201  0.569197  0.000000  1
  Br  Br19  1  0.724799  0.430803  0.000000  1
