# generated using pymatgen
data_HoThNiPt
_symmetry_space_group_name_H-M   'P 1'
_cell_length_a   5.78580679
_cell_length_b   5.78580679
_cell_length_c   4.29066800
_cell_angle_alpha   90.00000000
_cell_angle_beta   90.00000000
_cell_angle_gamma   141.97804248
_symmetry_Int_Tables_number   1
_chemical_formula_structural   HoThNiPt
_chemical_formula_sum   'Ho1 Th1 Ni1 Pt1'
_cell_volume   88.47237509
_cell_formula_units_Z   1
loop_
 _symmetry_equiv_pos_site_id
 _symmetry_equiv_pos_as_xyz
  1  'x, y, z'
loop_
 _atom_site_type_symbol
 _atom_site_label
 _atom_site_symmetry_multiplicity
 _atom_site_fract_x
 _atom_site_fract_y
 _atom_site_fract_z
 _atom_site_occupancy
  Ho  Ho0  1  0.141561  0.858439  0.000000  1
  Th  Th1  1  0.865078  0.134922  0.500000  1
  Ni  Ni2  1  0.408320  0.591680  0.000000  1
  Pt  Pt3  1  0.585042  0.414958  0.500000  1
