# generated using pymatgen
data_Pr3Nd(PaIr2)2
_symmetry_space_group_name_H-M   'P 1'
_cell_length_a   6.45399166
_cell_length_b   6.46277350
_cell_length_c   7.36105945
_cell_angle_alpha   99.71901583
_cell_angle_beta   99.63415104
_cell_angle_gamma   59.33266855
_symmetry_Int_Tables_number   1
_chemical_formula_structural   Pr3Nd(PaIr2)2
_chemical_formula_sum   'Pr3 Nd1 Pa2 Ir4'
_cell_volume   259.10534332
_cell_formula_units_Z   1
loop_
 _symmetry_equiv_pos_site_id
 _symmetry_equiv_pos_as_xyz
  1  'x, y, z'
loop_
 _atom_site_type_symbol
 _atom_site_label
 _atom_site_symmetry_multiplicity
 _atom_site_fract_x
 _atom_site_fract_y
 _atom_site_fract_z
 _atom_site_occupancy
  Pr  Pr0  1  0.735187  0.964974  0.356568  1
  Pr  Pr1  1  0.264481  0.035399  0.643439  1
  Pr  Pr2  1  0.965038  0.735299  0.857173  1
  Nd  Nd3  1  0.035864  0.264920  0.143786  1
  Pa  Pa4  1  0.419420  0.580488  0.249898  1
  Pa  Pa5  1  0.580834  0.419395  0.750051  1
  Ir  Ir6  1  0.504309  0.205856  0.988613  1
  Ir  Ir7  1  0.794740  0.494906  0.510778  1
  Ir  Ir8  1  0.205537  0.503878  0.487951  1
  Ir  Ir9  1  0.494591  0.794884  0.011743  1
