# generated using pymatgen
data_TbLu7(Zr3Si4)4
_symmetry_space_group_name_H-M   'P 1'
_cell_length_a   7.28705716
_cell_length_b   7.28945967
_cell_length_c   13.39314620
_cell_angle_alpha   89.93767898
_cell_angle_beta   89.99473974
_cell_angle_gamma   89.99524996
_symmetry_Int_Tables_number   1
_chemical_formula_structural   TbLu7(Zr3Si4)4
_chemical_formula_sum   'Tb1 Lu7 Zr12 Si16'
_cell_volume   711.42621302
_cell_formula_units_Z   1
loop_
 _symmetry_equiv_pos_site_id
 _symmetry_equiv_pos_as_xyz
  1  'x, y, z'
loop_
 _atom_site_type_symbol
 _atom_site_label
 _atom_site_symmetry_multiplicity
 _atom_site_fract_x
 _atom_site_fract_y
 _atom_site_fract_z
 _atom_site_occupancy
  Tb  Tb0  1  0.994928  0.655322  0.035633  1
  Lu  Lu1  1  0.345436  0.003217  0.464561  1
  Lu  Lu2  1  0.497265  0.845401  0.714004  1
  Lu  Lu3  1  0.502628  0.155164  0.214991  1
  Lu  Lu4  1  0.845415  0.497296  0.286377  1
  Lu  Lu5  1  0.155480  0.502745  0.784886  1
  Lu  Lu6  1  0.654029  0.997544  0.963744  1
  Lu  Lu7  1  0.003165  0.345523  0.535554  1
  Zr  Zr8  1  0.325403  0.324554  0.999994  1
  Zr  Zr9  1  0.175232  0.825363  0.250457  1
  Zr  Zr10  1  0.825033  0.174804  0.749375  1
  Zr  Zr11  1  0.675070  0.675258  0.500034  1
  Zr  Zr12  1  0.147618  0.002560  0.874411  1
  Zr  Zr13  1  0.496778  0.646496  0.125612  1
  Zr  Zr14  1  0.502906  0.353525  0.624695  1
  Zr  Zr15  1  0.646441  0.495398  0.874088  1
  Zr  Zr16  1  0.353847  0.502947  0.375663  1
  Zr  Zr17  1  0.853422  0.997429  0.375570  1
  Zr  Zr18  1  0.003024  0.147743  0.125240  1
  Zr  Zr19  1  0.997143  0.853467  0.624776  1
  Si  Si20  1  0.206413  0.141338  0.681931  1
  Si  Si21  1  0.360703  0.706436  0.931823  1
  Si  Si22  1  0.641492  0.294124  0.432364  1
  Si  Si23  1  0.704026  0.356834  0.067106  1
  Si  Si24  1  0.293969  0.641597  0.567788  1
  Si  Si25  1  0.792389  0.860672  0.184091  1
  Si  Si26  1  0.141444  0.206393  0.318074  1
  Si  Si27  1  0.858641  0.794017  0.817073  1
  Si  Si28  1  0.299281  0.951535  0.063167  1
  Si  Si29  1  0.548665  0.799345  0.313593  1
  Si  Si30  1  0.450629  0.200833  0.812793  1
  Si  Si31  1  0.799144  0.548927  0.686429  1
  Si  Si32  1  0.202334  0.449725  0.187897  1
  Si  Si33  1  0.701126  0.048987  0.563183  1
  Si  Si34  1  0.950183  0.296007  0.936087  1
  Si  Si35  1  0.049297  0.701473  0.436933  1
