# generated using pymatgen
data_Er4FeOs6W
_symmetry_space_group_name_H-M   'P 1'
_cell_length_a   5.22949133
_cell_length_b   5.22949083
_cell_length_c   8.85535200
_cell_angle_alpha   90.00000000
_cell_angle_beta   90.00000000
_cell_angle_gamma   117.28730225
_symmetry_Int_Tables_number   1
_chemical_formula_structural   Er4FeOs6W
_chemical_formula_sum   'Er4 Fe1 Os6 W1'
_cell_volume   215.22319635
_cell_formula_units_Z   1
loop_
 _symmetry_equiv_pos_site_id
 _symmetry_equiv_pos_as_xyz
  1  'x, y, z'
loop_
 _atom_site_type_symbol
 _atom_site_label
 _atom_site_symmetry_multiplicity
 _atom_site_fract_x
 _atom_site_fract_y
 _atom_site_fract_z
 _atom_site_occupancy
  Er  Er0  1  0.327189  0.672811  0.439678  1
  Er  Er1  1  0.667066  0.332934  0.567020  1
  Er  Er2  1  0.667066  0.332934  0.932980  1
  Er  Er3  1  0.327189  0.672811  0.060322  1
  Fe  Fe4  1  0.172539  0.827461  0.750000  1
  Os  Os5  1  0.995066  0.004934  0.504514  1
  Os  Os6  1  0.995066  0.004934  0.995486  1
  Os  Os7  1  0.824474  0.649929  0.250000  1
  Os  Os8  1  0.350071  0.175526  0.250000  1
  Os  Os9  1  0.178078  0.341635  0.750000  1
  Os  Os10  1  0.658365  0.821922  0.750000  1
  W  W11  1  0.837827  0.162173  0.250000  1
