# generated using pymatgen
data_Tb15Er5(CoSb2)4
_symmetry_space_group_name_H-M   'P 1'
_cell_length_a   7.91579279
_cell_length_b   8.78949048
_cell_length_c   12.25230807
_cell_angle_alpha   90.02353560
_cell_angle_beta   89.95811733
_cell_angle_gamma   89.97027093
_symmetry_Int_Tables_number   1
_chemical_formula_structural   Tb15Er5(CoSb2)4
_chemical_formula_sum   'Tb15 Er5 Co4 Sb8'
_cell_volume   852.46354318
_cell_formula_units_Z   1
loop_
 _symmetry_equiv_pos_site_id
 _symmetry_equiv_pos_as_xyz
  1  'x, y, z'
loop_
 _atom_site_type_symbol
 _atom_site_label
 _atom_site_symmetry_multiplicity
 _atom_site_fract_x
 _atom_site_fract_y
 _atom_site_fract_z
 _atom_site_occupancy
  Tb  Tb0  1  0.153694  0.750412  0.202756  1
  Tb  Tb1  1  0.653809  0.249808  0.296996  1
  Tb  Tb2  1  0.846683  0.249814  0.797205  1
  Tb  Tb3  1  0.346092  0.749885  0.703231  1
  Tb  Tb4  1  0.452947  0.750338  0.997693  1
  Tb  Tb5  1  0.954211  0.250170  0.502268  1
  Tb  Tb6  1  0.544817  0.249407  0.002172  1
  Tb  Tb7  1  0.045752  0.750271  0.497876  1
  Tb  Tb8  1  0.621929  0.749621  0.306667  1
  Tb  Tb9  1  0.122529  0.249710  0.192865  1
  Tb  Tb10  1  0.378008  0.249781  0.693497  1
  Tb  Tb11  1  0.878731  0.750848  0.807117  1
  Tb  Tb12  1  0.679257  0.964452  0.565034  1
  Tb  Tb13  1  0.820658  0.535010  0.064709  1
  Tb  Tb14  1  0.320779  0.464474  0.435113  1
  Er  Er15  1  0.823717  0.964526  0.064676  1
  Er  Er16  1  0.323271  0.035471  0.435070  1
  Er  Er17  1  0.176880  0.464509  0.934915  1
  Er  Er18  1  0.676758  0.535736  0.564955  1
  Er  Er19  1  0.176468  0.035606  0.934909  1
  Co  Co20  1  0.434678  0.749693  0.490689  1
  Co  Co21  1  0.936775  0.249382  0.008790  1
  Co  Co22  1  0.565330  0.249652  0.509415  1
  Co  Co23  1  0.066156  0.750956  0.990625  1
  Sb  Sb24  1  0.928767  0.992155  0.326726  1
  Sb  Sb25  1  0.429180  0.007912  0.173334  1
  Sb  Sb26  1  0.071294  0.492109  0.673275  1
  Sb  Sb27  1  0.571486  0.507964  0.826857  1
  Sb  Sb28  1  0.072693  0.008329  0.673345  1
  Sb  Sb29  1  0.570992  0.992085  0.827421  1
  Sb  Sb30  1  0.927896  0.508122  0.326886  1
  Sb  Sb31  1  0.427764  0.491793  0.172913  1
