# generated using pymatgen
data_ZrPa4TiRh10
_symmetry_space_group_name_H-M   'P 1'
_cell_length_a   5.77260124
_cell_length_b   5.77260170
_cell_length_c   8.81595600
_cell_angle_alpha   90.00000000
_cell_angle_beta   90.00000000
_cell_angle_gamma   103.49814345
_symmetry_Int_Tables_number   1
_chemical_formula_structural   ZrPa4TiRh10
_chemical_formula_sum   'Zr1 Pa4 Ti1 Rh10'
_cell_volume   285.65870228
_cell_formula_units_Z   1
loop_
 _symmetry_equiv_pos_site_id
 _symmetry_equiv_pos_as_xyz
  1  'x, y, z'
loop_
 _atom_site_type_symbol
 _atom_site_label
 _atom_site_symmetry_multiplicity
 _atom_site_fract_x
 _atom_site_fract_y
 _atom_site_fract_z
 _atom_site_occupancy
  Zr  Zr0  1  0.396523  0.396523  0.250000  1
  Pa  Pa1  1  0.797598  0.215533  0.499545  1
  Pa  Pa2  1  0.215533  0.797598  0.000455  1
  Pa  Pa3  1  0.215533  0.797598  0.499545  1
  Pa  Pa4  1  0.797598  0.215533  0.000455  1
  Ti  Ti5  1  0.581459  0.581459  0.750000  1
  Rh  Rh6  1  0.708658  0.708658  0.020271  1
  Rh  Rh7  1  0.708658  0.708658  0.479729  1
  Rh  Rh8  1  0.307324  0.307324  0.945455  1
  Rh  Rh9  1  0.307324  0.307324  0.554545  1
  Rh  Rh10  1  0.495206  0.005058  0.750000  1
  Rh  Rh11  1  0.514847  0.958856  0.250000  1
  Rh  Rh12  1  0.009984  0.009984  0.250000  1
  Rh  Rh13  1  0.979840  0.979840  0.750000  1
  Rh  Rh14  1  0.005058  0.495206  0.750000  1
  Rh  Rh15  1  0.958856  0.514847  0.250000  1
