# generated using pymatgen
data_NaTa(CuSe2)2
_symmetry_space_group_name_H-M   'P 1'
_cell_length_a   7.09204000
_cell_length_b   5.72595600
_cell_length_c   5.72595600
_cell_angle_alpha   90.00000000
_cell_angle_beta   90.00000000
_cell_angle_gamma   90.00000000
_symmetry_Int_Tables_number   1
_chemical_formula_structural   NaTa(CuSe2)2
_chemical_formula_sum   'Na1 Ta1 Cu2 Se4'
_cell_volume   232.52368089
_cell_formula_units_Z   1
loop_
 _symmetry_equiv_pos_site_id
 _symmetry_equiv_pos_as_xyz
  1  'x, y, z'
loop_
 _atom_site_type_symbol
 _atom_site_label
 _atom_site_symmetry_multiplicity
 _atom_site_fract_x
 _atom_site_fract_y
 _atom_site_fract_z
 _atom_site_occupancy
  Na  Na0  1  0.500000  0.000000  0.000000  1
  Ta  Ta1  1  0.000000  0.000000  0.000000  1
  Cu  Cu2  1  0.000000  0.000000  0.500000  1
  Cu  Cu3  1  0.000000  0.500000  0.000000  1
  Se  Se4  1  0.197750  0.248476  0.248476  1
  Se  Se5  1  0.802250  0.751524  0.248476  1
  Se  Se6  1  0.802250  0.248476  0.751524  1
  Se  Se7  1  0.197750  0.751524  0.751524  1
