# generated using pymatgen
data_TmTlPd2F14
_symmetry_space_group_name_H-M   'P 1'
_cell_length_a   5.47871000
_cell_length_b   8.75171520
_cell_length_c   11.83213800
_cell_angle_alpha   62.63503934
_cell_angle_beta   90.00000000
_cell_angle_gamma   90.00000000
_symmetry_Int_Tables_number   1
_chemical_formula_structural   TmTlPd2F14
_chemical_formula_sum   'Tm2 Tl2 Pd4 F28'
_cell_volume   503.84267619
_cell_formula_units_Z   2
loop_
 _symmetry_equiv_pos_site_id
 _symmetry_equiv_pos_as_xyz
  1  'x, y, z'
loop_
 _atom_site_type_symbol
 _atom_site_label
 _atom_site_symmetry_multiplicity
 _atom_site_fract_x
 _atom_site_fract_y
 _atom_site_fract_z
 _atom_site_occupancy
  Tm  Tm0  1  0.762776  0.814251  0.764507  1
  Tm  Tm1  1  0.262776  0.185749  0.735493  1
  Tl  Tl2  1  0.237630  0.185860  0.236540  1
  Tl  Tl3  1  0.737630  0.814140  0.263460  1
  Pd  Pd4  1  0.760282  0.274127  0.954772  1
  Pd  Pd5  1  0.260282  0.725873  0.545228  1
  Pd  Pd6  1  0.241305  0.727608  0.042565  1
  Pd  Pd7  1  0.741305  0.272392  0.457435  1
  F  F8  1  0.432488  0.701018  0.914542  1
  F  F9  1  0.932488  0.298982  0.585458  1
  F  F10  1  0.569987  0.304384  0.081245  1
  F  F11  1  0.069987  0.695616  0.418755  1
  F  F12  1  0.436173  0.276344  0.541905  1
  F  F13  1  0.936173  0.723656  0.958095  1
  F  F14  1  0.566911  0.717940  0.463904  1
  F  F15  1  0.066911  0.282060  0.036096  1
  F  F16  1  0.776376  0.524440  0.855952  1
  F  F17  1  0.276376  0.475560  0.644048  1
  F  F18  1  0.214315  0.477276  0.144945  1
  F  F19  1  0.714315  0.522724  0.355055  1
  F  F20  1  0.754302  0.025321  0.044836  1
  F  F21  1  0.254302  0.974679  0.455164  1
  F  F22  1  0.247322  0.976796  0.950293  1
  F  F23  1  0.747322  0.023204  0.549707  1
  F  F24  1  0.963812  0.724438  0.636920  1
  F  F25  1  0.463812  0.275562  0.863080  1
  F  F26  1  0.045889  0.280649  0.369594  1
  F  F27  1  0.545889  0.719351  0.130406  1
  F  F28  1  0.064265  0.741705  0.181826  1
  F  F29  1  0.564265  0.258295  0.318174  1
  F  F30  1  0.947674  0.254114  0.821381  1
  F  F31  1  0.447674  0.745886  0.678619  1
  F  F32  1  0.395401  0.963254  0.227098  1
  F  F33  1  0.895401  0.036746  0.272902  1
  F  F34  1  0.583095  0.028651  0.767425  1
  F  F35  1  0.083095  0.971349  0.732575  1
