# generated using pymatgen
data_Ta4V4GaGeP2
_symmetry_space_group_name_H-M   'P 1'
_cell_length_a   3.38838400
_cell_length_b   6.60532378
_cell_length_c   7.90673993
_cell_angle_alpha   89.48328640
_cell_angle_beta   90.00000000
_cell_angle_gamma   90.00000000
_symmetry_Int_Tables_number   1
_chemical_formula_structural   Ta4V4GaGeP2
_chemical_formula_sum   'Ta4 V4 Ga1 Ge1 P2'
_cell_volume   176.95650260
_cell_formula_units_Z   1
loop_
 _symmetry_equiv_pos_site_id
 _symmetry_equiv_pos_as_xyz
  1  'x, y, z'
loop_
 _atom_site_type_symbol
 _atom_site_label
 _atom_site_symmetry_multiplicity
 _atom_site_fract_x
 _atom_site_fract_y
 _atom_site_fract_z
 _atom_site_occupancy
  Ta  Ta0  1  0.250000  0.556578  0.172090  1
  Ta  Ta1  1  0.750000  0.443431  0.827642  1
  Ta  Ta2  1  0.750000  0.972928  0.658409  1
  Ta  Ta3  1  0.250000  0.026844  0.339554  1
  V  V4  1  0.250000  0.626697  0.554318  1
  V  V5  1  0.750000  0.370929  0.444614  1
  V  V6  1  0.750000  0.868539  0.068433  1
  V  V7  1  0.250000  0.133826  0.933969  1
  Ga  Ga8  1  0.250000  0.754000  0.857181  1
  Ge  Ge9  1  0.750000  0.247107  0.142793  1
  P  P10  1  0.750000  0.740106  0.364472  1
  P  P11  1  0.250000  0.259018  0.636525  1
