# generated using pymatgen
data_K3AsSO3
_symmetry_space_group_name_H-M   'P 1'
_cell_length_a   6.05033200
_cell_length_b   6.71516861
_cell_length_c   8.85323288
_cell_angle_alpha   77.44370751
_cell_angle_beta   90.00000000
_cell_angle_gamma   90.00000000
_symmetry_Int_Tables_number   1
_chemical_formula_structural   K3AsSO3
_chemical_formula_sum   'K6 As2 S2 O6'
_cell_volume   351.09505676
_cell_formula_units_Z   2
loop_
 _symmetry_equiv_pos_site_id
 _symmetry_equiv_pos_as_xyz
  1  'x, y, z'
loop_
 _atom_site_type_symbol
 _atom_site_label
 _atom_site_symmetry_multiplicity
 _atom_site_fract_x
 _atom_site_fract_y
 _atom_site_fract_z
 _atom_site_occupancy
  K  K0  1  0.750000  0.681002  0.468020  1
  K  K1  1  0.250000  0.244576  0.999152  1
  K  K2  1  0.250000  0.318998  0.531980  1
  K  K3  1  0.750000  0.755424  0.000848  1
  K  K4  1  0.250000  0.765765  0.731067  1
  K  K5  1  0.750000  0.234235  0.268933  1
  As  As6  1  0.750000  0.302743  0.789546  1
  As  As7  1  0.250000  0.697257  0.210454  1
  S  S8  1  0.750000  0.063498  0.652008  1
  S  S9  1  0.250000  0.936502  0.347992  1
  O  O10  1  0.250000  0.809172  0.016282  1
  O  O11  1  0.750000  0.190828  0.983718  1
  O  O12  1  0.981905  0.452020  0.740848  1
  O  O13  1  0.018095  0.547980  0.259152  1
  O  O14  1  0.518095  0.452020  0.740848  1
  O  O15  1  0.481905  0.547980  0.259152  1
