# generated using pymatgen
data_TbPrPa2(Al3Ir)6
_symmetry_space_group_name_H-M   'P 1'
_cell_length_a   7.62014407
_cell_length_b   7.62137334
_cell_length_c   9.41349400
_cell_angle_alpha   90.00000000
_cell_angle_beta   90.00000000
_cell_angle_gamma   119.64492830
_symmetry_Int_Tables_number   1
_chemical_formula_structural   TbPrPa2(Al3Ir)6
_chemical_formula_sum   'Tb1 Pr1 Pa2 Al18 Ir6'
_cell_volume   475.13900785
_cell_formula_units_Z   1
loop_
 _symmetry_equiv_pos_site_id
 _symmetry_equiv_pos_as_xyz
  1  'x, y, z'
loop_
 _atom_site_type_symbol
 _atom_site_label
 _atom_site_symmetry_multiplicity
 _atom_site_fract_x
 _atom_site_fract_y
 _atom_site_fract_z
 _atom_site_occupancy
  Tb  Tb0  1  0.329814  0.006391  0.750000  1
  Pr  Pr1  1  0.669283  0.993532  0.250000  1
  Pa  Pa2  1  0.998000  0.671113  0.250000  1
  Pa  Pa3  1  0.001927  0.328678  0.750000  1
  Al  Al4  1  0.132830  0.127773  0.250000  1
  Al  Al5  1  0.869837  0.872531  0.750000  1
  Al  Al6  1  0.002627  0.333694  0.075359  1
  Al  Al7  1  0.999480  0.668142  0.922513  1
  Al  Al8  1  0.999480  0.668142  0.577487  1
  Al  Al9  1  0.336188  0.003316  0.427600  1
  Al  Al10  1  0.002627  0.333694  0.424641  1
  Al  Al11  1  0.661662  0.996566  0.576719  1
  Al  Al12  1  0.661662  0.996566  0.923281  1
  Al  Al13  1  0.336188  0.003316  0.072400  1
  Al  Al14  1  0.335094  0.333519  0.553831  1
  Al  Al15  1  0.664980  0.665007  0.449385  1
  Al  Al16  1  0.664980  0.665007  0.050615  1
  Al  Al17  1  0.335094  0.333519  0.946169  1
  Al  Al18  1  0.338458  0.545071  0.250000  1
  Al  Al19  1  0.659333  0.452309  0.750000  1
  Al  Al20  1  0.549158  0.343360  0.250000  1
  Al  Al21  1  0.450129  0.657790  0.750000  1
  Ir  Ir22  1  0.676040  0.330508  0.998685  1
  Ir  Ir23  1  0.323543  0.669418  0.999504  1
  Ir  Ir24  1  0.323543  0.669418  0.500496  1
  Ir  Ir25  1  0.676040  0.330508  0.501315  1
  Ir  Ir26  1  0.001002  0.000556  0.998817  1
  Ir  Ir27  1  0.001002  0.000556  0.501183  1
