# generated using pymatgen
data_NdY8Er11Pb16
_symmetry_space_group_name_H-M   'P 1'
_cell_length_a   8.19501570
_cell_length_b   8.29966930
_cell_length_c   15.65001700
_cell_angle_alpha   90.00935408
_cell_angle_beta   89.78875713
_cell_angle_gamma   89.82396467
_symmetry_Int_Tables_number   1
_chemical_formula_structural   NdY8Er11Pb16
_chemical_formula_sum   'Nd1 Y8 Er11 Pb16'
_cell_volume   1064.43803254
_cell_formula_units_Z   1
loop_
 _symmetry_equiv_pos_site_id
 _symmetry_equiv_pos_as_xyz
  1  'x, y, z'
loop_
 _atom_site_type_symbol
 _atom_site_label
 _atom_site_symmetry_multiplicity
 _atom_site_fract_x
 _atom_site_fract_y
 _atom_site_fract_z
 _atom_site_occupancy
  Nd  Nd0  1  0.974710  0.821551  0.596766  1
  Y  Y1  1  0.130481  0.341984  0.621475  1
  Y  Y2  1  0.471160  0.676484  0.597883  1
  Y  Y3  1  0.971438  0.822530  0.902173  1
  Y  Y4  1  0.528577  0.323471  0.097877  1
  Y  Y5  1  0.028655  0.177361  0.400949  1
  Y  Y6  1  0.527239  0.322872  0.401845  1
  Y  Y7  1  0.028323  0.177039  0.098039  1
  Y  Y8  1  0.472327  0.676831  0.903316  1
  Er  Er9  1  0.630959  0.158458  0.622948  1
  Er  Er10  1  0.130434  0.342006  0.878966  1
  Er  Er11  1  0.369860  0.842844  0.122198  1
  Er  Er12  1  0.867811  0.657060  0.377415  1
  Er  Er13  1  0.369034  0.842470  0.376677  1
  Er  Er14  1  0.869645  0.657494  0.121899  1
  Er  Er15  1  0.629759  0.157393  0.878261  1
  Er  Er16  1  0.797565  0.495516  0.750834  1
  Er  Er17  1  0.298371  0.004875  0.751034  1
  Er  Er18  1  0.201932  0.504533  0.249536  1
  Er  Er19  1  0.701925  0.995688  0.249545  1
  Pb  Pb20  1  0.709404  0.964577  0.455827  1
  Pb  Pb21  1  0.212245  0.538492  0.042898  1
  Pb  Pb22  1  0.287308  0.036933  0.957552  1
  Pb  Pb23  1  0.784727  0.460791  0.542181  1
  Pb  Pb24  1  0.293399  0.039500  0.541721  1
  Pb  Pb25  1  0.787807  0.461502  0.957620  1
  Pb  Pb26  1  0.712373  0.962188  0.042697  1
  Pb  Pb27  1  0.211890  0.539256  0.456450  1
  Pb  Pb28  1  0.435827  0.373721  0.750925  1
  Pb  Pb29  1  0.935295  0.126829  0.751134  1
  Pb  Pb30  1  0.564293  0.625886  0.249351  1
  Pb  Pb31  1  0.063782  0.873361  0.249709  1
  Pb  Pb32  1  0.657506  0.845061  0.750586  1
  Pb  Pb33  1  0.161687  0.653019  0.752210  1
  Pb  Pb34  1  0.341169  0.155210  0.249675  1
  Pb  Pb35  1  0.841079  0.345213  0.249828  1
