# generated using pymatgen
data_U4Ge2Ir4OsRh
_symmetry_space_group_name_H-M   'P 1'
_cell_length_a   5.58834412
_cell_length_b   5.57338817
_cell_length_c   7.85455600
_cell_angle_alpha   90.00000000
_cell_angle_beta   90.00000000
_cell_angle_gamma   120.57708243
_symmetry_Int_Tables_number   1
_chemical_formula_structural   U4Ge2Ir4OsRh
_chemical_formula_sum   'U4 Ge2 Ir4 Os1 Rh1'
_cell_volume   210.62007730
_cell_formula_units_Z   1
loop_
 _symmetry_equiv_pos_site_id
 _symmetry_equiv_pos_as_xyz
  1  'x, y, z'
loop_
 _atom_site_type_symbol
 _atom_site_label
 _atom_site_symmetry_multiplicity
 _atom_site_fract_x
 _atom_site_fract_y
 _atom_site_fract_z
 _atom_site_occupancy
  U  U0  1  0.667242  0.330811  0.569729  1
  U  U1  1  0.335092  0.670121  0.425067  1
  U  U2  1  0.335092  0.670121  0.074933  1
  U  U3  1  0.667242  0.330811  0.930271  1
  Ge  Ge4  1  0.999005  0.001094  0.999682  1
  Ge  Ge5  1  0.999005  0.001094  0.500318  1
  Ir  Ir6  1  0.654398  0.826830  0.750000  1
  Ir  Ir7  1  0.166945  0.828117  0.750000  1
  Ir  Ir8  1  0.833376  0.660501  0.250000  1
  Ir  Ir9  1  0.342833  0.170322  0.250000  1
  Os  Os10  1  0.833099  0.171245  0.250000  1
  Rh  Rh11  1  0.166673  0.338931  0.750000  1
