# generated using pymatgen
data_In(Ni4Sb)3
_symmetry_space_group_name_H-M   'P 1'
_cell_length_a   5.27640500
_cell_length_b   5.27640495
_cell_length_c   8.55470200
_cell_angle_alpha   90.00000000
_cell_angle_beta   90.00000000
_cell_angle_gamma   119.99999405
_symmetry_Int_Tables_number   1
_chemical_formula_structural   In(Ni4Sb)3
_chemical_formula_sum   'In1 Ni12 Sb3'
_cell_volume   206.25846700
_cell_formula_units_Z   1
loop_
 _symmetry_equiv_pos_site_id
 _symmetry_equiv_pos_as_xyz
  1  'x, y, z'
loop_
 _atom_site_type_symbol
 _atom_site_label
 _atom_site_symmetry_multiplicity
 _atom_site_fract_x
 _atom_site_fract_y
 _atom_site_fract_z
 _atom_site_occupancy
  In  In0  1  0.666667  0.333333  0.500000  1
  Ni  Ni1  1  0.174949  0.825051  0.500000  1
  Ni  Ni2  1  0.174949  0.349898  0.500000  1
  Ni  Ni3  1  0.650102  0.825051  0.500000  1
  Ni  Ni4  1  0.827400  0.172600  0.000000  1
  Ni  Ni5  1  0.827400  0.654800  0.000000  1
  Ni  Ni6  1  0.345200  0.172600  0.000000  1
  Ni  Ni7  1  0.001188  0.500594  0.752505  1
  Ni  Ni8  1  0.499406  0.500594  0.752505  1
  Ni  Ni9  1  0.499406  0.998812  0.752505  1
  Ni  Ni10  1  0.001188  0.500594  0.247495  1
  Ni  Ni11  1  0.499406  0.500594  0.247495  1
  Ni  Ni12  1  0.499406  0.998812  0.247495  1
  Sb  Sb13  1  0.333333  0.666667  0.000000  1
  Sb  Sb14  1  0.000000  0.000000  0.745407  1
  Sb  Sb15  1  0.000000  0.000000  0.254593  1
