# generated using pymatgen
data_SmPd2Au3
_symmetry_space_group_name_H-M   'P 1'
_cell_length_a   5.46734480
_cell_length_b   5.46734389
_cell_length_c   5.46734460
_cell_angle_alpha   120.08847119
_cell_angle_beta   119.33383831
_cell_angle_gamma   90.50225389
_symmetry_Int_Tables_number   1
_chemical_formula_structural   SmPd2Au3
_chemical_formula_sum   'Sm1 Pd2 Au3'
_cell_volume   116.05528414
_cell_formula_units_Z   1
loop_
 _symmetry_equiv_pos_site_id
 _symmetry_equiv_pos_as_xyz
  1  'x, y, z'
loop_
 _atom_site_type_symbol
 _atom_site_label
 _atom_site_symmetry_multiplicity
 _atom_site_fract_x
 _atom_site_fract_y
 _atom_site_fract_z
 _atom_site_occupancy
  Sm  Sm0  1  0.005308  0.005308  0.000000  1
  Pd  Pd1  1  0.623503  0.374180  0.249322  1
  Pd  Pd2  1  0.124859  0.374180  0.750678  1
  Au  Au3  1  0.623691  0.374321  0.750630  1
  Au  Au4  1  0.623691  0.873062  0.249370  1
  Au  Au5  1  0.248948  0.748948  0.500000  1
