# generated using pymatgen
data_Sc4Zn2OsRu5
_symmetry_space_group_name_H-M   'P 1'
_cell_length_a   5.18334309
_cell_length_b   5.11178210
_cell_length_c   8.60307000
_cell_angle_alpha   90.00000000
_cell_angle_beta   90.00000000
_cell_angle_gamma   118.78169496
_symmetry_Int_Tables_number   1
_chemical_formula_structural   Sc4Zn2OsRu5
_chemical_formula_sum   'Sc4 Zn2 Os1 Ru5'
_cell_volume   199.78741004
_cell_formula_units_Z   1
loop_
 _symmetry_equiv_pos_site_id
 _symmetry_equiv_pos_as_xyz
  1  'x, y, z'
loop_
 _atom_site_type_symbol
 _atom_site_label
 _atom_site_symmetry_multiplicity
 _atom_site_fract_x
 _atom_site_fract_y
 _atom_site_fract_z
 _atom_site_occupancy
  Sc  Sc0  1  0.329685  0.665582  0.430268  1
  Sc  Sc1  1  0.657735  0.328240  0.556950  1
  Sc  Sc2  1  0.657735  0.328240  0.943050  1
  Sc  Sc3  1  0.329685  0.665582  0.069732  1
  Zn  Zn4  1  0.184535  0.347822  0.750000  1
  Zn  Zn5  1  0.184147  0.837299  0.750000  1
  Os  Os6  1  0.835427  0.169449  0.250000  1
  Ru  Ru7  1  0.349473  0.170298  0.250000  1
  Ru  Ru8  1  0.834312  0.659003  0.250000  1
  Ru  Ru9  1  0.677316  0.837169  0.750000  1
  Ru  Ru10  1  0.979975  0.995660  0.999192  1
  Ru  Ru11  1  0.979975  0.995660  0.500808  1
