# generated using pymatgen
data_U4MnMo2(As3Ru2)2
_symmetry_space_group_name_H-M   'P 1'
_cell_length_a   7.22563017
_cell_length_b   7.22562982
_cell_length_c   7.22562990
_cell_angle_alpha   108.47195754
_cell_angle_beta   110.06913725
_cell_angle_gamma   109.87723218
_symmetry_Int_Tables_number   1
_chemical_formula_structural   U4MnMo2(As3Ru2)2
_chemical_formula_sum   'U4 Mn1 Mo2 As6 Ru4'
_cell_volume   290.33881021
_cell_formula_units_Z   1
loop_
 _symmetry_equiv_pos_site_id
 _symmetry_equiv_pos_as_xyz
  1  'x, y, z'
loop_
 _atom_site_type_symbol
 _atom_site_label
 _atom_site_symmetry_multiplicity
 _atom_site_fract_x
 _atom_site_fract_y
 _atom_site_fract_z
 _atom_site_occupancy
  U  U0  1  0.997678  0.995431  0.497426  1
  U  U1  1  0.501995  0.004569  0.002247  1
  U  U2  1  0.997678  0.500252  0.002247  1
  U  U3  1  0.501995  0.499748  0.497426  1
  Mn  Mn4  1  0.751649  0.500000  0.251649  1
  Mo  Mo5  1  0.500251  0.749910  0.250161  1
  Mo  Mo6  1  0.500251  0.250090  0.750341  1
  As  As7  1  0.306394  0.000000  0.306394  1
  As  As8  1  0.996832  0.310163  0.306996  1
  As  As9  1  0.996832  0.689837  0.686669  1
  As  As10  1  0.312418  0.309154  0.003264  1
  As  As11  1  0.694110  0.690846  0.003264  1
  As  As12  1  0.693829  0.000000  0.693829  1
  Ru  Ru13  1  0.751585  0.251764  0.499821  1
  Ru  Ru14  1  0.248057  0.748236  0.499821  1
  Ru  Ru15  1  0.248539  0.500000  0.748539  1
  Ru  Ru16  1  0.999906  0.000000  0.999906  1
