# generated using pymatgen
data_Li2NdTcH6
_symmetry_space_group_name_H-M   'P 1'
_cell_length_a   5.09650126
_cell_length_b   5.09649953
_cell_length_c   5.09650400
_cell_angle_alpha   120.00024519
_cell_angle_beta   120.00029373
_cell_angle_gamma   59.99981533
_symmetry_Int_Tables_number   1
_chemical_formula_structural   Li2NdTcH6
_chemical_formula_sum   'Li2 Nd1 Tc1 H6'
_cell_volume   93.60501584
_cell_formula_units_Z   1
loop_
 _symmetry_equiv_pos_site_id
 _symmetry_equiv_pos_as_xyz
  1  'x, y, z'
loop_
 _atom_site_type_symbol
 _atom_site_label
 _atom_site_symmetry_multiplicity
 _atom_site_fract_x
 _atom_site_fract_y
 _atom_site_fract_z
 _atom_site_occupancy
  Li  Li0  1  0.499999  0.500001  0.499999  1
  Li  Li1  1  0.250001  0.250000  0.749999  1
  Nd  Nd2  1  0.750001  0.750000  0.249999  1
  Tc  Tc3  1  0.000001  0.000001  0.000002  1
  H  H4  1  0.245227  0.245227  0.245227  1
  H  H5  1  0.754775  0.245226  0.245226  1
  H  H6  1  0.245227  0.754774  0.245225  1
  H  H7  1  0.754774  0.245227  0.754773  1
  H  H8  1  0.245227  0.754774  0.754773  1
  H  H9  1  0.754773  0.754773  0.754773  1
