# generated using pymatgen
data_Tb4Cd2Cu3Pd
_symmetry_space_group_name_H-M   'P 1'
_cell_length_a   3.72467600
_cell_length_b   7.63072722
_cell_length_c   7.63072722
_cell_angle_alpha   89.71128051
_cell_angle_beta   90.00000000
_cell_angle_gamma   90.00000000
_symmetry_Int_Tables_number   1
_chemical_formula_structural   Tb4Cd2Cu3Pd
_chemical_formula_sum   'Tb4 Cd2 Cu3 Pd1'
_cell_volume   216.87767278
_cell_formula_units_Z   1
loop_
 _symmetry_equiv_pos_site_id
 _symmetry_equiv_pos_as_xyz
  1  'x, y, z'
loop_
 _atom_site_type_symbol
 _atom_site_label
 _atom_site_symmetry_multiplicity
 _atom_site_fract_x
 _atom_site_fract_y
 _atom_site_fract_z
 _atom_site_occupancy
  Tb  Tb0  1  0.500000  0.175909  0.671684  1
  Tb  Tb1  1  0.500000  0.828316  0.324091  1
  Tb  Tb2  1  0.500000  0.326368  0.173632  1
  Tb  Tb3  1  0.500000  0.671633  0.828367  1
  Cd  Cd4  1  0.000000  0.998348  0.995547  1
  Cd  Cd5  1  0.000000  0.504453  0.501652  1
  Cu  Cu6  1  0.000000  0.618802  0.119396  1
  Cu  Cu7  1  0.000000  0.380604  0.881198  1
  Cu  Cu8  1  0.000000  0.875057  0.624943  1
  Pd  Pd9  1  0.000000  0.120509  0.379491  1
