# generated using pymatgen
data_Lu2Sc2Ni2C5
_symmetry_space_group_name_H-M   'P 1'
_cell_length_a   3.42433100
_cell_length_b   3.62066700
_cell_length_c   11.17628600
_cell_angle_alpha   90.00000000
_cell_angle_beta   90.00000000
_cell_angle_gamma   90.00000000
_symmetry_Int_Tables_number   1
_chemical_formula_structural   Lu2Sc2Ni2C5
_chemical_formula_sum   'Lu2 Sc2 Ni2 C5'
_cell_volume   138.56764242
_cell_formula_units_Z   1
loop_
 _symmetry_equiv_pos_site_id
 _symmetry_equiv_pos_as_xyz
  1  'x, y, z'
loop_
 _atom_site_type_symbol
 _atom_site_label
 _atom_site_symmetry_multiplicity
 _atom_site_fract_x
 _atom_site_fract_y
 _atom_site_fract_z
 _atom_site_occupancy
  Lu  Lu0  1  0.500000  0.215573  0.500000  1
  Lu  Lu1  1  0.000000  0.989946  0.000000  1
  Sc  Sc2  1  0.500000  0.494628  0.197863  1
  Sc  Sc3  1  0.500000  0.494628  0.802137  1
  Ni  Ni4  1  0.000000  0.702796  0.381464  1
  Ni  Ni5  1  0.000000  0.702796  0.618536  1
  C  C6  1  0.000000  0.998909  0.222724  1
  C  C7  1  0.000000  0.998909  0.777276  1
  C  C8  1  0.000000  0.205892  0.327290  1
  C  C9  1  0.000000  0.205892  0.672710  1
  C  C10  1  0.500000  0.491533  0.000000  1
