# generated using pymatgen
data_Nd4Al17Ga(Ir2Pd)2
_symmetry_space_group_name_H-M   'P 1'
_cell_length_a   7.63819186
_cell_length_b   7.63819175
_cell_length_c   9.60123700
_cell_angle_alpha   90.00000000
_cell_angle_beta   90.00000000
_cell_angle_gamma   119.38101626
_symmetry_Int_Tables_number   1
_chemical_formula_structural   Nd4Al17Ga(Ir2Pd)2
_chemical_formula_sum   'Nd4 Al17 Ga1 Ir4 Pd2'
_cell_volume   488.10596019
_cell_formula_units_Z   1
loop_
 _symmetry_equiv_pos_site_id
 _symmetry_equiv_pos_as_xyz
  1  'x, y, z'
loop_
 _atom_site_type_symbol
 _atom_site_label
 _atom_site_symmetry_multiplicity
 _atom_site_fract_x
 _atom_site_fract_y
 _atom_site_fract_z
 _atom_site_occupancy
  Nd  Nd0  1  0.995486  0.674295  0.250000  1
  Nd  Nd1  1  0.004499  0.327829  0.750000  1
  Nd  Nd2  1  0.674295  0.995486  0.250000  1
  Nd  Nd3  1  0.327829  0.004499  0.750000  1
  Al  Al4  1  0.865127  0.865127  0.750000  1
  Al  Al5  1  0.002865  0.339959  0.074469  1
  Al  Al6  1  0.997255  0.660357  0.925328  1
  Al  Al7  1  0.997255  0.660357  0.574672  1
  Al  Al8  1  0.339959  0.002865  0.425531  1
  Al  Al9  1  0.002865  0.339959  0.425531  1
  Al  Al10  1  0.660357  0.997255  0.574672  1
  Al  Al11  1  0.660357  0.997255  0.925328  1
  Al  Al12  1  0.339959  0.002865  0.074469  1
  Al  Al13  1  0.337926  0.337926  0.551092  1
  Al  Al14  1  0.661702  0.661702  0.450229  1
  Al  Al15  1  0.661702  0.661702  0.049771  1
  Al  Al16  1  0.337926  0.337926  0.948908  1
  Al  Al17  1  0.338341  0.548119  0.250000  1
  Al  Al18  1  0.660608  0.452078  0.750000  1
  Al  Al19  1  0.548119  0.338341  0.250000  1
  Al  Al20  1  0.452078  0.660608  0.750000  1
  Ga  Ga21  1  0.137020  0.137020  0.250000  1
  Ir  Ir22  1  0.670722  0.328399  0.000259  1
  Ir  Ir23  1  0.328399  0.670722  0.000259  1
  Ir  Ir24  1  0.328399  0.670722  0.499741  1
  Ir  Ir25  1  0.670722  0.328399  0.499741  1
  Pd  Pd26  1  0.999113  0.999113  0.997891  1
  Pd  Pd27  1  0.999113  0.999113  0.502109  1
