# generated using pymatgen
data_ZrNb5(InRu2)6
_symmetry_space_group_name_H-M   'P 1'
_cell_length_a   4.54179713
_cell_length_b   6.31988117
_cell_length_c   13.80211110
_cell_angle_alpha   90.00878301
_cell_angle_beta   90.00297801
_cell_angle_gamma   90.02682008
_symmetry_Int_Tables_number   1
_chemical_formula_structural   ZrNb5(InRu2)6
_chemical_formula_sum   'Zr1 Nb5 In6 Ru12'
_cell_volume   396.17047859
_cell_formula_units_Z   1
loop_
 _symmetry_equiv_pos_site_id
 _symmetry_equiv_pos_as_xyz
  1  'x, y, z'
loop_
 _atom_site_type_symbol
 _atom_site_label
 _atom_site_symmetry_multiplicity
 _atom_site_fract_x
 _atom_site_fract_y
 _atom_site_fract_z
 _atom_site_occupancy
  Zr  Zr0  1  0.000000  0.500000  0.000000  1
  Nb  Nb1  1  0.499825  0.999994  0.166662  1
  Nb  Nb2  1  0.999949  0.500016  0.332641  1
  Nb  Nb3  1  0.500001  0.000000  0.500000  1
  Nb  Nb4  1  0.000051  0.499984  0.667359  1
  Nb  Nb5  1  0.500174  0.000006  0.833338  1
  In  In6  1  0.000000  0.000000  0.000000  1
  In  In7  1  0.499847  0.500002  0.165947  1
  In  In8  1  0.000064  0.999885  0.335392  1
  In  In9  1  0.500001  0.500000  0.500000  1
  In  In10  1  0.999937  0.000115  0.664608  1
  In  In11  1  0.500152  0.499998  0.834053  1
  Ru  Ru12  1  0.500051  0.243227  0.000010  1
  Ru  Ru13  1  0.499949  0.756772  0.999990  1
  Ru  Ru14  1  0.999725  0.245168  0.170101  1
  Ru  Ru15  1  0.999741  0.754949  0.170101  1
  Ru  Ru16  1  0.499957  0.251867  0.333771  1
  Ru  Ru17  1  0.499885  0.748095  0.333789  1
  Ru  Ru18  1  0.999972  0.249717  0.500010  1
  Ru  Ru19  1  0.000028  0.750284  0.499990  1
  Ru  Ru20  1  0.500115  0.251904  0.666211  1
  Ru  Ru21  1  0.500043  0.748132  0.666229  1
  Ru  Ru22  1  0.000259  0.245051  0.829899  1
  Ru  Ru23  1  0.000275  0.754832  0.829899  1
