# generated using pymatgen
data_Y16In2Ag2IrRh3
_symmetry_space_group_name_H-M   'P 1'
_cell_length_a   9.65163538
_cell_length_b   9.65723916
_cell_length_c   9.65163464
_cell_angle_alpha   59.67028792
_cell_angle_beta   59.74621449
_cell_angle_gamma   59.67028909
_symmetry_Int_Tables_number   1
_chemical_formula_structural   Y16In2Ag2IrRh3
_chemical_formula_sum   'Y16 In2 Ag2 Ir1 Rh3'
_cell_volume   631.72174151
_cell_formula_units_Z   1
loop_
 _symmetry_equiv_pos_site_id
 _symmetry_equiv_pos_as_xyz
  1  'x, y, z'
loop_
 _atom_site_type_symbol
 _atom_site_label
 _atom_site_symmetry_multiplicity
 _atom_site_fract_x
 _atom_site_fract_y
 _atom_site_fract_z
 _atom_site_occupancy
  Y  Y0  1  0.810681  0.186525  0.810681  1
  Y  Y1  1  0.933787  0.564491  0.562273  1
  Y  Y2  1  0.561019  0.939197  0.561019  1
  Y  Y3  1  0.809588  0.191457  0.189583  1
  Y  Y4  1  0.192354  0.807576  0.192354  1
  Y  Y5  1  0.350879  0.947351  0.350879  1
  Y  Y6  1  0.933575  0.941720  0.559585  1
  Y  Y7  1  0.559585  0.941720  0.933575  1
  Y  Y8  1  0.188273  0.808753  0.809907  1
  Y  Y9  1  0.350753  0.351445  0.949108  1
  Y  Y10  1  0.562273  0.564491  0.933787  1
  Y  Y11  1  0.350652  0.350866  0.350652  1
  Y  Y12  1  0.189583  0.191457  0.809588  1
  Y  Y13  1  0.809907  0.808753  0.188273  1
  Y  Y14  1  0.936254  0.563261  0.936254  1
  Y  Y15  1  0.949108  0.351445  0.350753  1
  In  In16  1  0.583955  0.578450  0.257452  1
  In  In17  1  0.257452  0.578450  0.583955  1
  Ag  Ag18  1  0.583406  0.581378  0.583406  1
  Ag  Ag19  1  0.583437  0.251516  0.583437  1
  Ir  Ir20  1  0.143068  0.140727  0.143068  1
  Rh  Rh21  1  0.143068  0.142273  0.574349  1
  Rh  Rh22  1  0.574349  0.142273  0.143068  1
  Rh  Rh23  1  0.142999  0.574425  0.142999  1
