# generated using pymatgen
data_Hf12Al9Pd3N4
_symmetry_space_group_name_H-M   'P 1'
_cell_length_a   8.56289889
_cell_length_b   8.56289794
_cell_length_c   8.56289900
_cell_angle_alpha   60.14070570
_cell_angle_beta   60.14070821
_cell_angle_gamma   60.14070830
_symmetry_Int_Tables_number   1
_chemical_formula_structural   Hf12Al9Pd3N4
_chemical_formula_sum   'Hf12 Al9 Pd3 N4'
_cell_volume   445.37871043
_cell_formula_units_Z   1
loop_
 _symmetry_equiv_pos_site_id
 _symmetry_equiv_pos_as_xyz
  1  'x, y, z'
loop_
 _atom_site_type_symbol
 _atom_site_label
 _atom_site_symmetry_multiplicity
 _atom_site_fract_x
 _atom_site_fract_y
 _atom_site_fract_z
 _atom_site_occupancy
  Hf  Hf0  1  0.816114  0.184552  0.184552  1
  Hf  Hf1  1  0.184552  0.816114  0.184552  1
  Hf  Hf2  1  0.815517  0.815517  0.184181  1
  Hf  Hf3  1  0.184181  0.815517  0.815517  1
  Hf  Hf4  1  0.815517  0.184181  0.815517  1
  Hf  Hf5  1  0.184552  0.184552  0.816114  1
  Hf  Hf6  1  0.433886  0.065448  0.065448  1
  Hf  Hf7  1  0.065448  0.433886  0.065448  1
  Hf  Hf8  1  0.434483  0.434483  0.065819  1
  Hf  Hf9  1  0.065819  0.434483  0.434483  1
  Hf  Hf10  1  0.434483  0.065819  0.434483  1
  Hf  Hf11  1  0.065448  0.065448  0.433886  1
  Al  Al12  1  0.413282  0.413282  0.748390  1
  Al  Al13  1  0.417769  0.417769  0.417769  1
  Al  Al14  1  0.748390  0.413282  0.413282  1
  Al  Al15  1  0.413282  0.748390  0.413282  1
  Al  Al16  1  0.836718  0.836718  0.501610  1
  Al  Al17  1  0.832231  0.832231  0.832231  1
  Al  Al18  1  0.501610  0.836718  0.836718  1
  Al  Al19  1  0.836718  0.501610  0.836718  1
  Al  Al20  1  0.625000  0.625000  0.625000  1
  Pd  Pd21  1  0.625000  0.625000  0.125000  1
  Pd  Pd22  1  0.125000  0.625000  0.625000  1
  Pd  Pd23  1  0.625000  0.125000  0.625000  1
  N  N24  1  0.125000  0.125000  0.625000  1
  N  N25  1  0.125000  0.125000  0.125000  1
  N  N26  1  0.625000  0.125000  0.125000  1
  N  N27  1  0.125000  0.625000  0.125000  1
