# generated using pymatgen
data_TbLuCo9P6Ru
_symmetry_space_group_name_H-M   'P 1'
_cell_length_a   3.66878400
_cell_length_b   10.32758800
_cell_length_c   11.74561800
_cell_angle_alpha   90.00000000
_cell_angle_beta   90.00000000
_cell_angle_gamma   90.00000000
_symmetry_Int_Tables_number   1
_chemical_formula_structural   TbLuCo9P6Ru
_chemical_formula_sum   'Tb2 Lu2 Co18 P12 Ru2'
_cell_volume   445.03782033
_cell_formula_units_Z   2
loop_
 _symmetry_equiv_pos_site_id
 _symmetry_equiv_pos_as_xyz
  1  'x, y, z'
loop_
 _atom_site_type_symbol
 _atom_site_label
 _atom_site_symmetry_multiplicity
 _atom_site_fract_x
 _atom_site_fract_y
 _atom_site_fract_z
 _atom_site_occupancy
  Tb  Tb0  1  0.250000  0.582358  0.702385  1
  Tb  Tb1  1  0.250000  0.917642  0.202385  1
  Lu  Lu2  1  0.750000  0.414224  0.295628  1
  Lu  Lu3  1  0.750000  0.085776  0.795628  1
  Co  Co4  1  0.750000  0.283481  0.007942  1
  Co  Co5  1  0.750000  0.216519  0.507942  1
  Co  Co6  1  0.250000  0.405094  0.485518  1
  Co  Co7  1  0.250000  0.094906  0.985518  1
  Co  Co8  1  0.750000  0.589825  0.508985  1
  Co  Co9  1  0.750000  0.910175  0.008985  1
  Co  Co10  1  0.250000  0.221436  0.176927  1
  Co  Co11  1  0.250000  0.278564  0.676927  1
  Co  Co12  1  0.750000  0.779380  0.822797  1
  Co  Co13  1  0.750000  0.720620  0.322797  1
  Co  Co14  1  0.250000  0.888888  0.702717  1
  Co  Co15  1  0.250000  0.611112  0.202717  1
  Co  Co16  1  0.750000  0.118126  0.301134  1
  Co  Co17  1  0.750000  0.381874  0.801134  1
  Co  Co18  1  0.250000  0.462421  0.933554  1
  Co  Co19  1  0.250000  0.037579  0.433554  1
  Co  Co20  1  0.750000  0.531237  0.070494  1
  Co  Co21  1  0.750000  0.968763  0.570494  1
  P  P22  1  0.250000  0.416936  0.113734  1
  P  P23  1  0.250000  0.083064  0.613734  1
  P  P24  1  0.750000  0.578131  0.888132  1
  P  P25  1  0.750000  0.921869  0.388132  1
  P  P26  1  0.250000  0.268679  0.868548  1
  P  P27  1  0.250000  0.231321  0.368548  1
  P  P28  1  0.750000  0.727996  0.132263  1
  P  P29  1  0.750000  0.772004  0.632263  1
  P  P30  1  0.250000  0.593324  0.389760  1
  P  P31  1  0.250000  0.906676  0.889760  1
  P  P32  1  0.750000  0.396297  0.608201  1
  P  P33  1  0.750000  0.103703  0.108201  1
  Ru  Ru34  1  0.250000  0.715547  0.991280  1
  Ru  Ru35  1  0.250000  0.784453  0.491280  1
