# generated using pymatgen
data_ThNpB6Mo
_symmetry_space_group_name_H-M   'P 1'
_cell_length_a   3.78423200
_cell_length_b   9.37165700
_cell_length_c   11.46976700
_cell_angle_alpha   90.00000000
_cell_angle_beta   90.00000000
_cell_angle_gamma   90.00000000
_symmetry_Int_Tables_number   1
_chemical_formula_structural   ThNpB6Mo
_chemical_formula_sum   'Th4 Np4 B24 Mo4'
_cell_volume   406.76983063
_cell_formula_units_Z   4
loop_
 _symmetry_equiv_pos_site_id
 _symmetry_equiv_pos_as_xyz
  1  'x, y, z'
loop_
 _atom_site_type_symbol
 _atom_site_label
 _atom_site_symmetry_multiplicity
 _atom_site_fract_x
 _atom_site_fract_y
 _atom_site_fract_z
 _atom_site_occupancy
  Th  Th0  1  0.000000  0.335527  0.407676  1
  Th  Th1  1  0.000000  0.664473  0.592324  1
  Th  Th2  1  0.000000  0.835527  0.092324  1
  Th  Th3  1  0.000000  0.164473  0.907676  1
  Np  Np4  1  0.000000  0.959522  0.400593  1
  Np  Np5  1  0.000000  0.040478  0.599407  1
  Np  Np6  1  0.000000  0.459522  0.099407  1
  Np  Np7  1  0.000000  0.540478  0.900593  1
  B  B8  1  0.500000  0.555767  0.428583  1
  B  B9  1  0.500000  0.444233  0.571417  1
  B  B10  1  0.500000  0.055767  0.071417  1
  B  B11  1  0.500000  0.944233  0.928583  1
  B  B12  1  0.500000  0.748060  0.421165  1
  B  B13  1  0.500000  0.251940  0.578835  1
  B  B14  1  0.500000  0.248060  0.078835  1
  B  B15  1  0.500000  0.751940  0.921165  1
  B  B16  1  0.500000  0.804821  0.274733  1
  B  B17  1  0.500000  0.195179  0.725267  1
  B  B18  1  0.500000  0.304821  0.225267  1
  B  B19  1  0.500000  0.695179  0.774733  1
  B  B20  1  0.500000  0.642643  0.186993  1
  B  B21  1  0.500000  0.357357  0.813007  1
  B  B22  1  0.500000  0.142643  0.313007  1
  B  B23  1  0.500000  0.857357  0.686993  1
  B  B24  1  0.500000  0.990523  0.222015  1
  B  B25  1  0.500000  0.009477  0.777985  1
  B  B26  1  0.500000  0.490523  0.277985  1
  B  B27  1  0.500000  0.509477  0.722015  1
  B  B28  1  0.500000  0.633531  0.036473  1
  B  B29  1  0.500000  0.366469  0.963527  1
  B  B30  1  0.500000  0.133531  0.463527  1
  B  B31  1  0.500000  0.866469  0.536473  1
  Mo  Mo32  1  0.000000  0.648167  0.317228  1
  Mo  Mo33  1  0.000000  0.351833  0.682772  1
  Mo  Mo34  1  0.000000  0.148167  0.182772  1
  Mo  Mo35  1  0.000000  0.851833  0.817228  1
