# generated using pymatgen
data_DyY3Se3N2
_symmetry_space_group_name_H-M   'P 1'
_cell_length_a   6.96750648
_cell_length_b   6.96750611
_cell_length_c   10.30797196
_cell_angle_alpha   52.25522964
_cell_angle_beta   52.25523334
_cell_angle_gamma   32.85666832
_symmetry_Int_Tables_number   1
_chemical_formula_structural   DyY3Se3N2
_chemical_formula_sum   'Dy1 Y3 Se3 N2'
_cell_volume   209.01472130
_cell_formula_units_Z   1
loop_
 _symmetry_equiv_pos_site_id
 _symmetry_equiv_pos_as_xyz
  1  'x, y, z'
loop_
 _atom_site_type_symbol
 _atom_site_label
 _atom_site_symmetry_multiplicity
 _atom_site_fract_x
 _atom_site_fract_y
 _atom_site_fract_z
 _atom_site_occupancy
  Dy  Dy0  1  0.241508  0.241508  0.640329  1
  Y  Y1  1  0.758491  0.758492  0.359057  1
  Y  Y2  1  0.558944  0.558944  0.150756  1
  Y  Y3  1  0.441014  0.441014  0.849141  1
  Se  Se4  1  0.999923  0.999923  0.000116  1
  Se  Se5  1  0.831735  0.831735  0.773639  1
  Se  Se6  1  0.168199  0.168199  0.226350  1
  N  N7  1  0.352900  0.352900  0.362537  1
  N  N8  1  0.647285  0.647285  0.638076  1
