# generated using pymatgen
data_Hf4GaPd15
_symmetry_space_group_name_H-M   'P 1'
_cell_length_a   4.03375000
_cell_length_b   4.03375000
_cell_length_c   20.15315500
_cell_angle_alpha   90.00000000
_cell_angle_beta   90.00000000
_cell_angle_gamma   90.00000000
_symmetry_Int_Tables_number   1
_chemical_formula_structural   Hf4GaPd15
_chemical_formula_sum   'Hf4 Ga1 Pd15'
_cell_volume   327.91478755
_cell_formula_units_Z   1
loop_
 _symmetry_equiv_pos_site_id
 _symmetry_equiv_pos_as_xyz
  1  'x, y, z'
loop_
 _atom_site_type_symbol
 _atom_site_label
 _atom_site_symmetry_multiplicity
 _atom_site_fract_x
 _atom_site_fract_y
 _atom_site_fract_z
 _atom_site_occupancy
  Hf  Hf0  1  0.000000  0.000000  0.194747  1
  Hf  Hf1  1  0.000000  0.000000  0.398662  1
  Hf  Hf2  1  0.000000  0.000000  0.601338  1
  Hf  Hf3  1  0.000000  0.000000  0.805253  1
  Ga  Ga4  1  0.000000  0.000000  0.000000  1
  Pd  Pd5  1  0.500000  0.500000  0.000000  1
  Pd  Pd6  1  0.500000  0.500000  0.199860  1
  Pd  Pd7  1  0.500000  0.500000  0.400803  1
  Pd  Pd8  1  0.500000  0.500000  0.599197  1
  Pd  Pd9  1  0.500000  0.500000  0.800140  1
  Pd  Pd10  1  0.500000  0.000000  0.099533  1
  Pd  Pd11  1  0.500000  0.000000  0.300595  1
  Pd  Pd12  1  0.500000  0.000000  0.500000  1
  Pd  Pd13  1  0.500000  0.000000  0.699405  1
  Pd  Pd14  1  0.500000  0.000000  0.900467  1
  Pd  Pd15  1  0.000000  0.500000  0.099533  1
  Pd  Pd16  1  0.000000  0.500000  0.300595  1
  Pd  Pd17  1  0.000000  0.500000  0.500000  1
  Pd  Pd18  1  0.000000  0.500000  0.699405  1
  Pd  Pd19  1  0.000000  0.500000  0.900467  1
