# generated using pymatgen
data_Cs3Na2NbP3
_symmetry_space_group_name_H-M   'P 1'
_cell_length_a   10.50894920
_cell_length_b   10.50894979
_cell_length_c   16.86881700
_cell_angle_alpha   90.00000000
_cell_angle_beta   90.00000000
_cell_angle_gamma   141.93098618
_symmetry_Int_Tables_number   1
_chemical_formula_structural   Cs3Na2NbP3
_chemical_formula_sum   'Cs12 Na8 Nb4 P12'
_cell_volume   1148.71936556
_cell_formula_units_Z   4
loop_
 _symmetry_equiv_pos_site_id
 _symmetry_equiv_pos_as_xyz
  1  'x, y, z'
loop_
 _atom_site_type_symbol
 _atom_site_label
 _atom_site_symmetry_multiplicity
 _atom_site_fract_x
 _atom_site_fract_y
 _atom_site_fract_z
 _atom_site_occupancy
  Cs  Cs0  1  0.943742  0.611253  0.827482  1
  Cs  Cs1  1  0.556258  0.888747  0.327482  1
  Cs  Cs2  1  0.388747  0.056258  0.172518  1
  Cs  Cs3  1  0.056258  0.388747  0.172518  1
  Cs  Cs4  1  0.888747  0.556258  0.327482  1
  Cs  Cs5  1  0.443742  0.111253  0.672518  1
  Cs  Cs6  1  0.611253  0.943742  0.827482  1
  Cs  Cs7  1  0.277842  0.277842  0.315206  1
  Cs  Cs8  1  0.777842  0.777842  0.184794  1
  Cs  Cs9  1  0.222158  0.222158  0.815206  1
  Cs  Cs10  1  0.722158  0.722158  0.684794  1
  Cs  Cs11  1  0.111253  0.443742  0.672518  1
  Na  Na12  1  0.921077  0.078923  0.000000  1
  Na  Na13  1  0.578923  0.421077  0.500000  1
  Na  Na14  1  0.078923  0.921077  0.000000  1
  Na  Na15  1  0.421077  0.578923  0.500000  1
  Na  Na16  1  0.755252  0.244748  0.000000  1
  Na  Na17  1  0.744748  0.255252  0.500000  1
  Na  Na18  1  0.244748  0.755252  0.000000  1
  Na  Na19  1  0.255252  0.744748  0.500000  1
  Nb  Nb20  1  0.581932  0.418068  0.000000  1
  Nb  Nb21  1  0.918068  0.081932  0.500000  1
  Nb  Nb22  1  0.418068  0.581932  0.000000  1
  Nb  Nb23  1  0.081932  0.918068  0.500000  1
  P  P24  1  0.857458  0.553166  0.085922  1
  P  P25  1  0.446834  0.142542  0.914078  1
  P  P26  1  0.642542  0.946834  0.585922  1
  P  P27  1  0.946834  0.642542  0.585922  1
  P  P28  1  0.142542  0.446834  0.914078  1
  P  P29  1  0.553166  0.857458  0.085922  1
  P  P30  1  0.357458  0.053166  0.414078  1
  P  P31  1  0.192970  0.192970  0.580575  1
  P  P32  1  0.692970  0.692970  0.919425  1
  P  P33  1  0.307030  0.307030  0.080575  1
  P  P34  1  0.053166  0.357458  0.414078  1
  P  P35  1  0.807030  0.807030  0.419425  1
