# generated using pymatgen
data_CaLuSc(GaNi2)3
_symmetry_space_group_name_H-M   'P 1'
_cell_length_a   5.16351800
_cell_length_b   5.16351771
_cell_length_c   15.62519500
_cell_angle_alpha   90.00000000
_cell_angle_beta   90.00000000
_cell_angle_gamma   119.99998906
_symmetry_Int_Tables_number   1
_chemical_formula_structural   CaLuSc(GaNi2)3
_chemical_formula_sum   'Ca2 Lu2 Sc2 Ga6 Ni12'
_cell_volume   360.78418463
_cell_formula_units_Z   2
loop_
 _symmetry_equiv_pos_site_id
 _symmetry_equiv_pos_as_xyz
  1  'x, y, z'
loop_
 _atom_site_type_symbol
 _atom_site_label
 _atom_site_symmetry_multiplicity
 _atom_site_fract_x
 _atom_site_fract_y
 _atom_site_fract_z
 _atom_site_occupancy
  Ca  Ca0  1  0.333333  0.666667  0.742368  1
  Ca  Ca1  1  0.666667  0.333333  0.257632  1
  Lu  Lu2  1  0.666667  0.333333  0.045215  1
  Lu  Lu3  1  0.333333  0.666667  0.954785  1
  Sc  Sc4  1  0.333333  0.666667  0.536634  1
  Sc  Sc5  1  0.666667  0.333333  0.463366  1
  Ga  Ga6  1  0.000000  0.000000  0.251349  1
  Ga  Ga7  1  0.000000  0.000000  0.748651  1
  Ga  Ga8  1  0.333333  0.666667  0.251332  1
  Ga  Ga9  1  0.666667  0.333333  0.748668  1
  Ga  Ga10  1  0.000000  0.000000  0.000000  1
  Ga  Ga11  1  0.000000  0.000000  0.500000  1
  Ni  Ni12  1  0.169423  0.338844  0.124410  1
  Ni  Ni13  1  0.830577  0.661156  0.875590  1
  Ni  Ni14  1  0.661156  0.830577  0.124410  1
  Ni  Ni15  1  0.830072  0.660145  0.620724  1
  Ni  Ni16  1  0.338844  0.169423  0.875590  1
  Ni  Ni17  1  0.169928  0.339855  0.379276  1
  Ni  Ni18  1  0.169423  0.830577  0.124410  1
  Ni  Ni19  1  0.339855  0.169928  0.620724  1
  Ni  Ni20  1  0.830577  0.169423  0.875590  1
  Ni  Ni21  1  0.660145  0.830072  0.379276  1
  Ni  Ni22  1  0.830072  0.169928  0.620724  1
  Ni  Ni23  1  0.169928  0.830072  0.379276  1
