# generated using pymatgen
data_Ac2Be2(ZnCu7)3
_symmetry_space_group_name_H-M   'P 1'
_cell_length_a   8.23763459
_cell_length_b   8.23367219
_cell_length_c   8.23382423
_cell_angle_alpha   60.03122469
_cell_angle_beta   59.89634891
_cell_angle_gamma   59.98530119
_symmetry_Int_Tables_number   1
_chemical_formula_structural   Ac2Be2(ZnCu7)3
_chemical_formula_sum   'Ac2 Be2 Zn3 Cu21'
_cell_volume   394.63476207
_cell_formula_units_Z   1
loop_
 _symmetry_equiv_pos_site_id
 _symmetry_equiv_pos_as_xyz
  1  'x, y, z'
loop_
 _atom_site_type_symbol
 _atom_site_label
 _atom_site_symmetry_multiplicity
 _atom_site_fract_x
 _atom_site_fract_y
 _atom_site_fract_z
 _atom_site_occupancy
  Ac  Ac0  1  0.252706  0.249456  0.253789  1
  Ac  Ac1  1  0.746211  0.755952  0.747294  1
  Be  Be2  1  0.500067  0.492539  0.499933  1
  Be  Be3  1  0.998957  0.000100  0.001043  1
  Zn  Zn4  1  0.800100  0.560388  0.199900  1
  Zn  Zn5  1  0.202136  0.437814  0.797864  1
  Zn  Zn6  1  0.560255  0.796334  0.439745  1
  Cu  Cu7  1  0.438310  0.207172  0.561690  1
  Cu  Cu8  1  0.285887  0.938478  0.714113  1
  Cu  Cu9  1  0.712836  0.063577  0.287164  1
  Cu  Cu10  1  0.936777  0.283619  0.063223  1
  Cu  Cu11  1  0.064014  0.715955  0.935986  1
  Cu  Cu12  1  0.208627  0.791045  0.562713  1
  Cu  Cu13  1  0.790975  0.207687  0.437438  1
  Cu  Cu14  1  0.437287  0.562386  0.791373  1
  Cu  Cu15  1  0.562562  0.436100  0.209025  1
  Cu  Cu16  1  0.709468  0.291144  0.936026  1
  Cu  Cu17  1  0.291166  0.709286  0.063385  1
  Cu  Cu18  1  0.063974  0.936639  0.290532  1
  Cu  Cu19  1  0.936615  0.063837  0.708834  1
  Cu  Cu20  1  0.562622  0.211355  0.788869  1
  Cu  Cu21  1  0.438535  0.787233  0.212016  1
  Cu  Cu22  1  0.787984  0.437783  0.561465  1
  Cu  Cu23  1  0.211131  0.562846  0.437378  1
  Cu  Cu24  1  0.940052  0.709484  0.291238  1
  Cu  Cu25  1  0.060280  0.291220  0.708297  1
  Cu  Cu26  1  0.291703  0.059796  0.939720  1
  Cu  Cu27  1  0.708762  0.940774  0.059948  1
