# generated using pymatgen
data_Sm2Dy3Co16(MoP4)3
_symmetry_space_group_name_H-M   'P 1'
_cell_length_a   12.09624600
_cell_length_b   12.09624608
_cell_length_c   3.71798600
_cell_angle_alpha   90.00000000
_cell_angle_beta   90.00000000
_cell_angle_gamma   119.99999430
_symmetry_Int_Tables_number   1
_chemical_formula_structural   Sm2Dy3Co16(MoP4)3
_chemical_formula_sum   'Sm2 Dy3 Co16 Mo3 P12'
_cell_volume   471.12877532
_cell_formula_units_Z   1
loop_
 _symmetry_equiv_pos_site_id
 _symmetry_equiv_pos_as_xyz
  1  'x, y, z'
loop_
 _atom_site_type_symbol
 _atom_site_label
 _atom_site_symmetry_multiplicity
 _atom_site_fract_x
 _atom_site_fract_y
 _atom_site_fract_z
 _atom_site_occupancy
  Sm  Sm0  1  0.666667  0.333333  0.000000  1
  Sm  Sm1  1  0.333333  0.666667  0.000000  1
  Dy  Dy2  1  0.185248  0.185248  0.500000  1
  Dy  Dy3  1  0.814752  0.000000  0.500000  1
  Dy  Dy4  1  0.000000  0.814752  0.500000  1
  Co  Co5  1  0.823391  0.197348  0.000000  1
  Co  Co6  1  0.802652  0.626044  0.000000  1
  Co  Co7  1  0.373956  0.176609  0.000000  1
  Co  Co8  1  0.197348  0.823391  0.000000  1
  Co  Co9  1  0.626044  0.802652  0.000000  1
  Co  Co10  1  0.176609  0.373956  0.000000  1
  Co  Co11  1  0.644947  0.125603  0.500000  1
  Co  Co12  1  0.874397  0.519346  0.500000  1
  Co  Co13  1  0.480654  0.355053  0.500000  1
  Co  Co14  1  0.125603  0.644947  0.500000  1
  Co  Co15  1  0.519346  0.874397  0.500000  1
  Co  Co16  1  0.355053  0.480654  0.500000  1
  Co  Co17  1  0.720378  0.720378  0.500000  1
  Co  Co18  1  0.279622  0.000000  0.500000  1
  Co  Co19  1  0.000000  0.279622  0.500000  1
  Co  Co20  1  0.000000  0.000000  0.000000  1
  Mo  Mo21  1  0.553947  0.553947  0.000000  1
  Mo  Mo22  1  0.446053  0.000000  0.000000  1
  Mo  Mo23  1  0.000000  0.446053  0.000000  1
  P  P24  1  0.361049  0.361049  0.000000  1
  P  P25  1  0.638951  0.000000  0.000000  1
  P  P26  1  0.000000  0.638951  0.000000  1
  P  P27  1  0.836035  0.313383  0.500000  1
  P  P28  1  0.686617  0.522652  0.500000  1
  P  P29  1  0.477348  0.163965  0.500000  1
  P  P30  1  0.313383  0.836035  0.500000  1
  P  P31  1  0.522652  0.686617  0.500000  1
  P  P32  1  0.163965  0.477348  0.500000  1
  P  P33  1  0.821965  0.821965  0.000000  1
  P  P34  1  0.178035  0.000000  0.000000  1
  P  P35  1  0.000000  0.178035  0.000000  1
