# generated using pymatgen
data_Pr16Lu4Si15Hg
_symmetry_space_group_name_H-M   'P 1'
_cell_length_a   7.89400245
_cell_length_b   7.86050205
_cell_length_c   15.18261804
_cell_angle_alpha   90.02932965
_cell_angle_beta   89.67789884
_cell_angle_gamma   89.93251750
_symmetry_Int_Tables_number   1
_chemical_formula_structural   Pr16Lu4Si15Hg
_chemical_formula_sum   'Pr16 Lu4 Si15 Hg1'
_cell_volume   942.07826949
_cell_formula_units_Z   1
loop_
 _symmetry_equiv_pos_site_id
 _symmetry_equiv_pos_as_xyz
  1  'x, y, z'
loop_
 _atom_site_type_symbol
 _atom_site_label
 _atom_site_symmetry_multiplicity
 _atom_site_fract_x
 _atom_site_fract_y
 _atom_site_fract_z
 _atom_site_occupancy
  Pr  Pr0  1  0.371990  0.013646  0.448419  1
  Pr  Pr1  1  0.491268  0.869242  0.699381  1
  Pr  Pr2  1  0.511892  0.122953  0.197744  1
  Pr  Pr3  1  0.877670  0.488072  0.301075  1
  Pr  Pr4  1  0.119680  0.517869  0.803317  1
  Pr  Pr5  1  0.626947  0.986032  0.951235  1
  Pr  Pr6  1  0.003012  0.381912  0.547416  1
  Pr  Pr7  1  0.989719  0.626022  0.053391  1
  Pr  Pr8  1  0.129616  0.978924  0.880090  1
  Pr  Pr9  1  0.522834  0.629156  0.128631  1
  Pr  Pr10  1  0.482906  0.376899  0.627402  1
  Pr  Pr11  1  0.627767  0.523402  0.874819  1
  Pr  Pr12  1  0.373941  0.479788  0.370235  1
  Pr  Pr13  1  0.872943  0.022471  0.377219  1
  Pr  Pr14  1  0.979949  0.128417  0.122953  1
  Pr  Pr15  1  0.012555  0.862120  0.618894  1
  Lu  Lu16  1  0.311343  0.310227  0.000091  1
  Lu  Lu17  1  0.189670  0.811775  0.249671  1
  Lu  Lu18  1  0.799794  0.187023  0.752910  1
  Lu  Lu19  1  0.687737  0.688141  0.498397  1
  Si  Si20  1  0.329124  0.689056  0.956591  1
  Si  Si21  1  0.665710  0.308666  0.453946  1
  Si  Si22  1  0.692555  0.331091  0.045807  1
  Si  Si23  1  0.311954  0.671410  0.542515  1
  Si  Si24  1  0.813262  0.829105  0.206446  1
  Si  Si25  1  0.172511  0.189014  0.294464  1
  Si  Si26  1  0.830891  0.812069  0.795187  1
  Si  Si27  1  0.286349  0.923297  0.064993  1
  Si  Si28  1  0.579856  0.786900  0.314779  1
  Si  Si29  1  0.437139  0.209628  0.818864  1
  Si  Si30  1  0.784234  0.576995  0.687622  1
  Si  Si31  1  0.215005  0.422806  0.185451  1
  Si  Si32  1  0.710931  0.077983  0.563329  1
  Si  Si33  1  0.923550  0.287875  0.936624  1
  Si  Si34  1  0.079191  0.714268  0.433955  1
  Hg  Hg35  1  0.184502  0.165749  0.696139  1
