# generated using pymatgen
data_La2Y3Pt4
_symmetry_space_group_name_H-M   'P 1'
_cell_length_a   7.65016300
_cell_length_b   14.91742000
_cell_length_c   7.76986600
_cell_angle_alpha   90.00000000
_cell_angle_beta   90.00000000
_cell_angle_gamma   90.00000000
_symmetry_Int_Tables_number   1
_chemical_formula_structural   La2Y3Pt4
_chemical_formula_sum   'La8 Y12 Pt16'
_cell_volume   886.70250440
_cell_formula_units_Z   4
loop_
 _symmetry_equiv_pos_site_id
 _symmetry_equiv_pos_as_xyz
  1  'x, y, z'
loop_
 _atom_site_type_symbol
 _atom_site_label
 _atom_site_symmetry_multiplicity
 _atom_site_fract_x
 _atom_site_fract_y
 _atom_site_fract_z
 _atom_site_occupancy
  La  La0  1  0.000331  0.406002  0.178902  1
  La  La1  1  0.499670  0.593998  0.678902  1
  La  La2  1  0.500330  0.093998  0.321098  1
  La  La3  1  0.999670  0.906001  0.821098  1
  La  La4  1  0.999670  0.593998  0.821098  1
  La  La5  1  0.500330  0.406002  0.321098  1
  La  La6  1  0.499670  0.906001  0.678902  1
  La  La7  1  0.000331  0.093998  0.178902  1
  Y  Y8  1  0.318926  0.250000  0.007494  1
  Y  Y9  1  0.181076  0.750000  0.507493  1
  Y  Y10  1  0.818925  0.250000  0.492507  1
  Y  Y11  1  0.681075  0.750000  0.992506  1
  Y  Y12  1  0.343947  0.624662  0.167051  1
  Y  Y13  1  0.156052  0.375339  0.667051  1
  Y  Y14  1  0.843947  0.875338  0.332949  1
  Y  Y15  1  0.656052  0.124661  0.832949  1
  Y  Y16  1  0.656052  0.375339  0.832949  1
  Y  Y17  1  0.843947  0.624662  0.332949  1
  Y  Y18  1  0.156052  0.124661  0.667051  1
  Y  Y19  1  0.343947  0.875338  0.167051  1
  Pt  Pt20  1  0.181363  0.542606  0.463294  1
  Pt  Pt21  1  0.318637  0.457394  0.963294  1
  Pt  Pt22  1  0.681364  0.957394  0.036706  1
  Pt  Pt23  1  0.818636  0.042606  0.536708  1
  Pt  Pt24  1  0.818636  0.457394  0.536708  1
  Pt  Pt25  1  0.681364  0.542606  0.036706  1
  Pt  Pt26  1  0.318637  0.042606  0.963294  1
  Pt  Pt27  1  0.181363  0.957394  0.463294  1
  Pt  Pt28  1  0.452814  0.250000  0.617501  1
  Pt  Pt29  1  0.047186  0.750000  0.117502  1
  Pt  Pt30  1  0.952814  0.250000  0.882498  1
  Pt  Pt31  1  0.547186  0.750000  0.382499  1
  Pt  Pt32  1  0.184158  0.250000  0.360795  1
  Pt  Pt33  1  0.315842  0.750000  0.860795  1
  Pt  Pt34  1  0.684157  0.250000  0.139205  1
  Pt  Pt35  1  0.815842  0.750000  0.639204  1
