# generated using pymatgen
data_Er8Hg3BiAu8
_symmetry_space_group_name_H-M   'P 1'
_cell_length_a   7.99821800
_cell_length_b   7.99821800
_cell_length_c   7.26872300
_cell_angle_alpha   90.00000000
_cell_angle_beta   90.00000000
_cell_angle_gamma   90.00000000
_symmetry_Int_Tables_number   1
_chemical_formula_structural   Er8Hg3BiAu8
_chemical_formula_sum   'Er8 Hg3 Bi1 Au8'
_cell_volume   464.99104925
_cell_formula_units_Z   1
loop_
 _symmetry_equiv_pos_site_id
 _symmetry_equiv_pos_as_xyz
  1  'x, y, z'
loop_
 _atom_site_type_symbol
 _atom_site_label
 _atom_site_symmetry_multiplicity
 _atom_site_fract_x
 _atom_site_fract_y
 _atom_site_fract_z
 _atom_site_occupancy
  Er  Er0  1  0.182052  0.186138  0.001448  1
  Er  Er1  1  0.313862  0.682052  0.498552  1
  Er  Er2  1  0.686138  0.317948  0.498552  1
  Er  Er3  1  0.817948  0.813862  0.001448  1
  Er  Er4  1  0.340719  0.656548  0.001814  1
  Er  Er5  1  0.659281  0.343452  0.001814  1
  Er  Er6  1  0.843452  0.840719  0.498186  1
  Er  Er7  1  0.156548  0.159281  0.498186  1
  Hg  Hg8  1  0.000000  0.500000  0.750000  1
  Hg  Hg9  1  0.500000  0.000000  0.250000  1
  Hg  Hg10  1  0.000000  0.500000  0.250000  1
  Bi  Bi11  1  0.500000  0.000000  0.750000  1
  Au  Au12  1  0.122534  0.869354  0.776861  1
  Au  Au13  1  0.872727  0.127373  0.224525  1
  Au  Au14  1  0.372627  0.372727  0.275475  1
  Au  Au15  1  0.630646  0.622534  0.723139  1
  Au  Au16  1  0.627373  0.627273  0.275475  1
  Au  Au17  1  0.877466  0.130646  0.776861  1
  Au  Au18  1  0.369354  0.377466  0.723139  1
  Au  Au19  1  0.127273  0.872627  0.224525  1
