# generated using pymatgen
data_RbSb12IrOs2Rh
_symmetry_space_group_name_H-M   'P 1'
_cell_length_a   8.18202714
_cell_length_b   8.16419146
_cell_length_c   8.17612529
_cell_angle_alpha   109.37935992
_cell_angle_beta   109.49547259
_cell_angle_gamma   109.50142313
_symmetry_Int_Tables_number   1
_chemical_formula_structural   RbSb12IrOs2Rh
_chemical_formula_sum   'Rb1 Sb12 Ir1 Os2 Rh1'
_cell_volume   420.62937781
_cell_formula_units_Z   1
loop_
 _symmetry_equiv_pos_site_id
 _symmetry_equiv_pos_as_xyz
  1  'x, y, z'
loop_
 _atom_site_type_symbol
 _atom_site_label
 _atom_site_symmetry_multiplicity
 _atom_site_fract_x
 _atom_site_fract_y
 _atom_site_fract_z
 _atom_site_occupancy
  Rb  Rb0  1  0.000000  0.000000  0.000000  1
  Sb  Sb1  1  0.341420  0.186109  0.841584  1
  Sb  Sb2  1  0.658580  0.813891  0.158416  1
  Sb  Sb3  1  0.658001  0.499610  0.844023  1
  Sb  Sb4  1  0.341999  0.500390  0.155977  1
  Sb  Sb5  1  0.183135  0.841593  0.341347  1
  Sb  Sb6  1  0.816865  0.158407  0.658653  1
  Sb  Sb7  1  0.499077  0.843428  0.655549  1
  Sb  Sb8  1  0.500923  0.156572  0.344451  1
  Sb  Sb9  1  0.844000  0.344305  0.185533  1
  Sb  Sb10  1  0.156000  0.655695  0.814467  1
  Sb  Sb11  1  0.843538  0.657595  0.499260  1
  Sb  Sb12  1  0.156462  0.342405  0.500740  1
  Ir  Ir13  1  0.500000  0.000000  0.000000  1
  Os  Os14  1  0.000000  0.000000  0.500000  1
  Os  Os15  1  0.000000  0.500000  0.000000  1
  Rh  Rh16  1  0.500000  0.500000  0.500000  1
