# generated using pymatgen
data_LiY8SnPd23
_symmetry_space_group_name_H-M   'P 1'
_cell_length_a   8.37147800
_cell_length_b   8.40789100
_cell_length_c   8.48772400
_cell_angle_alpha   90.00000000
_cell_angle_beta   90.00000000
_cell_angle_gamma   90.00000000
_symmetry_Int_Tables_number   1
_chemical_formula_structural   LiY8SnPd23
_chemical_formula_sum   'Li1 Y8 Sn1 Pd23'
_cell_volume   597.42096917
_cell_formula_units_Z   1
loop_
 _symmetry_equiv_pos_site_id
 _symmetry_equiv_pos_as_xyz
  1  'x, y, z'
loop_
 _atom_site_type_symbol
 _atom_site_label
 _atom_site_symmetry_multiplicity
 _atom_site_fract_x
 _atom_site_fract_y
 _atom_site_fract_z
 _atom_site_occupancy
  Li  Li0  1  0.273016  0.500000  0.000000  1
  Y  Y1  1  0.251404  0.247699  0.259755  1
  Y  Y2  1  0.748096  0.746848  0.749588  1
  Y  Y3  1  0.748096  0.746848  0.250412  1
  Y  Y4  1  0.748096  0.253152  0.749588  1
  Y  Y5  1  0.251404  0.247699  0.740245  1
  Y  Y6  1  0.251404  0.752301  0.259755  1
  Y  Y7  1  0.251404  0.752301  0.740245  1
  Y  Y8  1  0.748096  0.253152  0.250412  1
  Sn  Sn9  1  0.994438  0.000000  0.000000  1
  Pd  Pd10  1  0.738585  0.500000  0.000000  1
  Pd  Pd11  1  0.997333  0.264620  0.500000  1
  Pd  Pd12  1  0.492321  0.272313  0.000000  1
  Pd  Pd13  1  0.997333  0.735380  0.500000  1
  Pd  Pd14  1  0.492321  0.727687  0.000000  1
  Pd  Pd15  1  0.499957  0.000000  0.266520  1
  Pd  Pd16  1  0.263526  0.000000  0.500000  1
  Pd  Pd17  1  0.499957  0.000000  0.733480  1
  Pd  Pd18  1  0.735237  0.000000  0.500000  1
  Pd  Pd19  1  0.002287  0.500000  0.266070  1
  Pd  Pd20  1  0.002287  0.500000  0.733930  1
  Pd  Pd21  1  0.254285  0.500000  0.500000  1
  Pd  Pd22  1  0.745796  0.500000  0.500000  1
  Pd  Pd23  1  0.501696  0.255559  0.500000  1
  Pd  Pd24  1  0.501696  0.744441  0.500000  1
  Pd  Pd25  1  0.496619  0.500000  0.254323  1
  Pd  Pd26  1  0.496619  0.500000  0.745677  1
  Pd  Pd27  1  0.306866  0.000000  0.000000  1
  Pd  Pd28  1  0.683681  0.000000  0.000000  1
  Pd  Pd29  1  0.014706  0.312893  0.000000  1
  Pd  Pd30  1  0.014706  0.687107  0.000000  1
  Pd  Pd31  1  0.998367  0.000000  0.305902  1
  Pd  Pd32  1  0.998367  0.000000  0.694098  1
