# generated using pymatgen
data_Tm3Sc2Pa3(Pt2Pb)4
_symmetry_space_group_name_H-M   'P 1'
_cell_length_a   7.89314190
_cell_length_b   7.89314143
_cell_length_c   7.05217100
_cell_angle_alpha   90.00000000
_cell_angle_beta   90.00000000
_cell_angle_gamma   89.89706811
_symmetry_Int_Tables_number   1
_chemical_formula_structural   Tm3Sc2Pa3(Pt2Pb)4
_chemical_formula_sum   'Tm3 Sc2 Pa3 Pt8 Pb4'
_cell_volume   439.36142937
_cell_formula_units_Z   1
loop_
 _symmetry_equiv_pos_site_id
 _symmetry_equiv_pos_as_xyz
  1  'x, y, z'
loop_
 _atom_site_type_symbol
 _atom_site_label
 _atom_site_symmetry_multiplicity
 _atom_site_fract_x
 _atom_site_fract_y
 _atom_site_fract_z
 _atom_site_occupancy
  Tm  Tm0  1  0.343206  0.343792  0.500000  1
  Tm  Tm1  1  0.656208  0.656794  0.500000  1
  Tm  Tm2  1  0.175047  0.824953  0.500000  1
  Sc  Sc3  1  0.846956  0.153044  0.000000  1
  Sc  Sc4  1  0.155766  0.844234  0.000000  1
  Pa  Pa5  1  0.678732  0.677075  0.000000  1
  Pa  Pa6  1  0.824765  0.175235  0.500000  1
  Pa  Pa7  1  0.322925  0.321268  0.000000  1
  Pt  Pt8  1  0.868488  0.875024  0.738221  1
  Pt  Pt9  1  0.124976  0.131512  0.738221  1
  Pt  Pt10  1  0.633309  0.366691  0.777169  1
  Pt  Pt11  1  0.633309  0.366691  0.222831  1
  Pt  Pt12  1  0.373095  0.626905  0.220446  1
  Pt  Pt13  1  0.124976  0.131512  0.261779  1
  Pt  Pt14  1  0.868488  0.875024  0.261779  1
  Pt  Pt15  1  0.373095  0.626905  0.779554  1
  Pb  Pb16  1  0.495203  0.996874  0.749705  1
  Pb  Pb17  1  0.495203  0.996874  0.250295  1
  Pb  Pb18  1  0.003126  0.504797  0.749705  1
  Pb  Pb19  1  0.003126  0.504797  0.250295  1
