# generated using pymatgen
data_HoTh9(In2Rh)4
_symmetry_space_group_name_H-M   'P 1'
_cell_length_a   8.19779909
_cell_length_b   18.50990826
_cell_length_c   3.80293800
_cell_angle_alpha   90.00000000
_cell_angle_beta   90.00000000
_cell_angle_gamma   90.62445522
_symmetry_Int_Tables_number   1
_chemical_formula_structural   HoTh9(In2Rh)4
_chemical_formula_sum   'Ho1 Th9 In8 Rh4'
_cell_volume   577.02547585
_cell_formula_units_Z   1
loop_
 _symmetry_equiv_pos_site_id
 _symmetry_equiv_pos_as_xyz
  1  'x, y, z'
loop_
 _atom_site_type_symbol
 _atom_site_label
 _atom_site_symmetry_multiplicity
 _atom_site_fract_x
 _atom_site_fract_y
 _atom_site_fract_z
 _atom_site_occupancy
  Ho  Ho0  1  0.000000  0.000000  0.000000  1
  Th  Th1  1  0.500000  0.500000  0.000000  1
  Th  Th2  1  0.756413  0.276369  0.000000  1
  Th  Th3  1  0.243587  0.723631  0.000000  1
  Th  Th4  1  0.745547  0.779280  0.000000  1
  Th  Th5  1  0.254453  0.220720  0.000000  1
  Th  Th6  1  0.620588  0.083734  0.000000  1
  Th  Th7  1  0.379412  0.916266  0.000000  1
  Th  Th8  1  0.872001  0.585067  0.000000  1
  Th  Th9  1  0.127999  0.414933  0.000000  1
  In  In10  1  0.713127  0.932777  0.500000  1
  In  In11  1  0.286873  0.067223  0.500000  1
  In  In12  1  0.794826  0.430877  0.500000  1
  In  In13  1  0.205174  0.569123  0.500000  1
  In  In14  1  0.557932  0.650267  0.500000  1
  In  In15  1  0.442068  0.349733  0.500000  1
  In  In16  1  0.941634  0.146769  0.500000  1
  In  In17  1  0.058366  0.853231  0.500000  1
  Rh  Rh18  1  0.534256  0.195573  0.500000  1
  Rh  Rh19  1  0.465744  0.804427  0.500000  1
  Rh  Rh20  1  0.967227  0.695387  0.500000  1
  Rh  Rh21  1  0.032773  0.304613  0.500000  1
