# generated using pymatgen
data_Dy6ErSc(Ge4Mo3)4
_symmetry_space_group_name_H-M   'P 1'
_cell_length_a   6.92267038
_cell_length_b   7.04047917
_cell_length_c   13.12608915
_cell_angle_alpha   90.06783197
_cell_angle_beta   89.97706683
_cell_angle_gamma   89.98307600
_symmetry_Int_Tables_number   1
_chemical_formula_structural   Dy6ErSc(Ge4Mo3)4
_chemical_formula_sum   'Dy6 Er1 Sc1 Ge16 Mo12'
_cell_volume   639.75083662
_cell_formula_units_Z   1
loop_
 _symmetry_equiv_pos_site_id
 _symmetry_equiv_pos_as_xyz
  1  'x, y, z'
loop_
 _atom_site_type_symbol
 _atom_site_label
 _atom_site_symmetry_multiplicity
 _atom_site_fract_x
 _atom_site_fract_y
 _atom_site_fract_z
 _atom_site_occupancy
  Dy  Dy0  1  0.989514  0.830711  0.907884  1
  Dy  Dy1  1  0.511396  0.330615  0.092321  1
  Dy  Dy2  1  0.010186  0.168947  0.409935  1
  Dy  Dy3  1  0.510073  0.329730  0.409621  1
  Dy  Dy4  1  0.011071  0.169779  0.092209  1
  Dy  Dy5  1  0.488480  0.670079  0.906023  1
  Er  Er6  1  0.487963  0.670433  0.592268  1
  Sc  Sc7  1  0.984815  0.827774  0.593088  1
  Ge  Ge8  1  0.672002  0.952278  0.454361  1
  Ge  Ge9  1  0.170379  0.546963  0.047740  1
  Ge  Ge10  1  0.331235  0.048204  0.951030  1
  Ge  Ge11  1  0.830816  0.457613  0.548829  1
  Ge  Ge12  1  0.323235  0.041768  0.548952  1
  Ge  Ge13  1  0.830081  0.452782  0.951443  1
  Ge  Ge14  1  0.669753  0.952615  0.048085  1
  Ge  Ge15  1  0.168808  0.550050  0.453929  1
  Ge  Ge16  1  0.469903  0.366986  0.749205  1
  Ge  Ge17  1  0.970473  0.129288  0.747317  1
  Ge  Ge18  1  0.531354  0.632513  0.250457  1
  Ge  Ge19  1  0.031278  0.867882  0.250670  1
  Ge  Ge20  1  0.692368  0.854055  0.747745  1
  Ge  Ge21  1  0.185123  0.648559  0.746576  1
  Ge  Ge22  1  0.311173  0.145166  0.250809  1
  Ge  Ge23  1  0.811660  0.355418  0.251277  1
  Mo  Mo24  1  0.670256  0.153901  0.626363  1
  Mo  Mo25  1  0.168165  0.344984  0.871180  1
  Mo  Mo26  1  0.331219  0.844926  0.126904  1
  Mo  Mo27  1  0.831185  0.656802  0.374613  1
  Mo  Mo28  1  0.331718  0.844054  0.373499  1
  Mo  Mo29  1  0.831747  0.655572  0.127621  1
  Mo  Mo30  1  0.670903  0.154468  0.872087  1
  Mo  Mo31  1  0.170287  0.345424  0.626449  1
  Mo  Mo32  1  0.833704  0.494645  0.749024  1
  Mo  Mo33  1  0.333712  0.004219  0.748667  1
  Mo  Mo34  1  0.166986  0.506013  0.250663  1
  Mo  Mo35  1  0.666980  0.994784  0.251157  1
