# generated using pymatgen
data_MnAl12Fe2Si8Os
_symmetry_space_group_name_H-M   'P 1'
_cell_length_a   6.14023081
_cell_length_b   6.13976200
_cell_length_c   9.50073482
_cell_angle_alpha   90.00000000
_cell_angle_beta   90.35892111
_cell_angle_gamma   90.00000000
_symmetry_Int_Tables_number   1
_chemical_formula_structural   MnAl12Fe2Si8Os
_chemical_formula_sum   'Mn1 Al12 Fe2 Si8 Os1'
_cell_volume   358.16645440
_cell_formula_units_Z   1
loop_
 _symmetry_equiv_pos_site_id
 _symmetry_equiv_pos_as_xyz
  1  'x, y, z'
loop_
 _atom_site_type_symbol
 _atom_site_label
 _atom_site_symmetry_multiplicity
 _atom_site_fract_x
 _atom_site_fract_y
 _atom_site_fract_z
 _atom_site_occupancy
  Mn  Mn0  1  0.000000  0.985750  0.750000  1
  Al  Al1  1  0.997261  0.001055  0.993556  1
  Al  Al2  1  0.500432  0.500127  0.998165  1
  Al  Al3  1  0.002739  0.001055  0.506444  1
  Al  Al4  1  0.499568  0.500127  0.501835  1
  Al  Al5  1  0.140401  0.631778  0.863143  1
  Al  Al6  1  0.634836  0.863553  0.133633  1
  Al  Al7  1  0.859599  0.631778  0.636857  1
  Al  Al8  1  0.365164  0.863553  0.366367  1
  Al  Al9  1  0.858955  0.376502  0.134896  1
  Al  Al10  1  0.360614  0.132545  0.863870  1
  Al  Al11  1  0.141045  0.376502  0.365104  1
  Al  Al12  1  0.639386  0.132545  0.636130  1
  Fe  Fe13  1  0.500000  0.486409  0.750000  1
  Fe  Fe14  1  0.500000  0.512668  0.250000  1
  Si  Si15  1  0.169061  0.665052  0.151843  1
  Si  Si16  1  0.662839  0.826792  0.841971  1
  Si  Si17  1  0.830939  0.665052  0.348157  1
  Si  Si18  1  0.337161  0.826792  0.658029  1
  Si  Si19  1  0.836027  0.328019  0.842312  1
  Si  Si20  1  0.347559  0.175157  0.154549  1
  Si  Si21  1  0.163973  0.328019  0.657688  1
  Si  Si22  1  0.652441  0.175157  0.345451  1
  Os  Os23  1  0.000000  0.014016  0.250000  1
