# generated using pymatgen
data_Y4Tm16GeBi11
_symmetry_space_group_name_H-M   'P 1'
_cell_length_a   8.12041640
_cell_length_b   9.38352300
_cell_length_c   11.89054000
_cell_angle_alpha   90.00000000
_cell_angle_beta   90.20185890
_cell_angle_gamma   90.00000000
_symmetry_Int_Tables_number   1
_chemical_formula_structural   Y4Tm16GeBi11
_chemical_formula_sum   'Y4 Tm16 Ge1 Bi11'
_cell_volume   906.03109975
_cell_formula_units_Z   1
loop_
 _symmetry_equiv_pos_site_id
 _symmetry_equiv_pos_as_xyz
  1  'x, y, z'
loop_
 _atom_site_type_symbol
 _atom_site_label
 _atom_site_symmetry_multiplicity
 _atom_site_fract_x
 _atom_site_fract_y
 _atom_site_fract_z
 _atom_site_occupancy
  Y  Y0  1  0.315267  0.250000  0.218713  1
  Y  Y1  1  0.813114  0.250000  0.281484  1
  Y  Y2  1  0.669600  0.750000  0.790522  1
  Y  Y3  1  0.190817  0.750000  0.722796  1
  Tm  Tm4  1  0.354550  0.750000  0.206357  1
  Tm  Tm5  1  0.851373  0.750000  0.282690  1
  Tm  Tm6  1  0.649391  0.250000  0.783138  1
  Tm  Tm7  1  0.148053  0.250000  0.718953  1
  Tm  Tm8  1  0.683447  0.572216  0.055366  1
  Tm  Tm9  1  0.192530  0.933610  0.438734  1
  Tm  Tm10  1  0.310907  0.050274  0.940342  1
  Tm  Tm11  1  0.807835  0.434602  0.560106  1
  Tm  Tm12  1  0.310907  0.449726  0.940342  1
  Tm  Tm13  1  0.807835  0.065398  0.560106  1
  Tm  Tm14  1  0.683447  0.927784  0.055366  1
  Tm  Tm15  1  0.192530  0.566390  0.438734  1
  Tm  Tm16  1  0.476848  0.250000  0.489062  1
  Tm  Tm17  1  0.980796  0.250000  0.009093  1
  Tm  Tm18  1  0.525038  0.750000  0.511383  1
  Tm  Tm19  1  0.035304  0.750000  0.989763  1
  Ge  Ge20  1  0.406765  0.750000  0.964013  1
  Bi  Bi21  1  0.906660  0.750000  0.543564  1
  Bi  Bi22  1  0.595731  0.250000  0.040485  1
  Bi  Bi23  1  0.095635  0.250000  0.459678  1
  Bi  Bi24  1  0.564744  0.993752  0.325515  1
  Bi  Bi25  1  0.064217  0.504532  0.173858  1
  Bi  Bi26  1  0.434887  0.494050  0.673892  1
  Bi  Bi27  1  0.933965  0.002521  0.826338  1
  Bi  Bi28  1  0.434887  0.005950  0.673892  1
  Bi  Bi29  1  0.933965  0.497479  0.826338  1
  Bi  Bi30  1  0.564744  0.506248  0.325515  1
  Bi  Bi31  1  0.064217  0.995468  0.173858  1
