# generated using pymatgen
data_Dy3Zn3Pd2Ru
_symmetry_space_group_name_H-M   'P 1'
_cell_length_a   7.21368200
_cell_length_b   7.21368212
_cell_length_c   3.90343800
_cell_angle_alpha   90.00000000
_cell_angle_beta   90.00000000
_cell_angle_gamma   119.99999947
_symmetry_Int_Tables_number   1
_chemical_formula_structural   Dy3Zn3Pd2Ru
_chemical_formula_sum   'Dy3 Zn3 Pd2 Ru1'
_cell_volume   175.91056095
_cell_formula_units_Z   1
loop_
 _symmetry_equiv_pos_site_id
 _symmetry_equiv_pos_as_xyz
  1  'x, y, z'
loop_
 _atom_site_type_symbol
 _atom_site_label
 _atom_site_symmetry_multiplicity
 _atom_site_fract_x
 _atom_site_fract_y
 _atom_site_fract_z
 _atom_site_occupancy
  Dy  Dy0  1  0.414444  0.400878  0.500000  1
  Dy  Dy1  1  0.599122  0.013566  0.500000  1
  Dy  Dy2  1  0.986434  0.585556  0.500000  1
  Zn  Zn3  1  0.748812  0.745731  0.000000  1
  Zn  Zn4  1  0.254269  0.003082  0.000000  1
  Zn  Zn5  1  0.996918  0.251188  0.000000  1
  Pd  Pd6  1  0.333333  0.666667  0.000000  1
  Pd  Pd7  1  0.000000  0.000000  0.500000  1
  Ru  Ru8  1  0.666667  0.333333  0.000000  1
