# generated using pymatgen
data_TbEr(ThPd6)2
_symmetry_space_group_name_H-M   'P 1'
_cell_length_a   5.88858100
_cell_length_b   5.88858011
_cell_length_c   9.66010500
_cell_angle_alpha   90.00000000
_cell_angle_beta   90.00000000
_cell_angle_gamma   119.99999938
_symmetry_Int_Tables_number   1
_chemical_formula_structural   TbEr(ThPd6)2
_chemical_formula_sum   'Tb1 Er1 Th2 Pd12'
_cell_volume   290.09064422
_cell_formula_units_Z   1
loop_
 _symmetry_equiv_pos_site_id
 _symmetry_equiv_pos_as_xyz
  1  'x, y, z'
loop_
 _atom_site_type_symbol
 _atom_site_label
 _atom_site_symmetry_multiplicity
 _atom_site_fract_x
 _atom_site_fract_y
 _atom_site_fract_z
 _atom_site_occupancy
  Tb  Tb0  1  0.333333  0.666667  0.250000  1
  Er  Er1  1  0.666667  0.333333  0.750000  1
  Th  Th2  1  0.000000  0.000000  0.500298  1
  Th  Th3  1  0.000000  0.000000  0.999702  1
  Pd  Pd4  1  0.500331  0.499669  0.500511  1
  Pd  Pd5  1  0.500331  0.000662  0.500511  1
  Pd  Pd6  1  0.999338  0.499669  0.500511  1
  Pd  Pd7  1  0.500331  0.499669  0.999489  1
  Pd  Pd8  1  0.500331  0.000662  0.999489  1
  Pd  Pd9  1  0.999338  0.499669  0.999489  1
  Pd  Pd10  1  0.825921  0.651842  0.250000  1
  Pd  Pd11  1  0.348158  0.174079  0.250000  1
  Pd  Pd12  1  0.825921  0.174079  0.250000  1
  Pd  Pd13  1  0.173998  0.347996  0.750000  1
  Pd  Pd14  1  0.652004  0.826002  0.750000  1
  Pd  Pd15  1  0.173998  0.826002  0.750000  1
