# generated using pymatgen
data_Tb9Lu11Sn9Pb7
_symmetry_space_group_name_H-M   'P 1'
_cell_length_a   8.00417580
_cell_length_b   8.12702049
_cell_length_c   15.35814000
_cell_angle_alpha   90.07884762
_cell_angle_beta   89.97434488
_cell_angle_gamma   90.05540628
_symmetry_Int_Tables_number   1
_chemical_formula_structural   Tb9Lu11Sn9Pb7
_chemical_formula_sum   'Tb9 Lu11 Sn9 Pb7'
_cell_volume   999.04704175
_cell_formula_units_Z   1
loop_
 _symmetry_equiv_pos_site_id
 _symmetry_equiv_pos_as_xyz
  1  'x, y, z'
loop_
 _atom_site_type_symbol
 _atom_site_label
 _atom_site_symmetry_multiplicity
 _atom_site_fract_x
 _atom_site_fract_y
 _atom_site_fract_z
 _atom_site_occupancy
  Tb  Tb0  1  0.865951  0.660364  0.877084  1
  Tb  Tb1  1  0.526018  0.323773  0.901779  1
  Tb  Tb2  1  0.024611  0.177719  0.599166  1
  Tb  Tb3  1  0.476024  0.677847  0.400227  1
  Tb  Tb4  1  0.974936  0.819794  0.100294  1
  Tb  Tb5  1  0.479972  0.674331  0.099093  1
  Tb  Tb6  1  0.975644  0.822247  0.399762  1
  Tb  Tb7  1  0.523342  0.321460  0.599014  1
  Tb  Tb8  1  0.022083  0.179473  0.901096  1
  Lu  Lu9  1  0.364272  0.839684  0.873898  1
  Lu  Lu10  1  0.865346  0.659915  0.625113  1
  Lu  Lu11  1  0.634609  0.159655  0.374317  1
  Lu  Lu12  1  0.132546  0.339945  0.124961  1
  Lu  Lu13  1  0.635222  0.162888  0.126210  1
  Lu  Lu14  1  0.134021  0.339707  0.374343  1
  Lu  Lu15  1  0.366200  0.840579  0.625182  1
  Lu  Lu16  1  0.196341  0.504994  0.749586  1
  Lu  Lu17  1  0.695325  0.995843  0.749260  1
  Lu  Lu18  1  0.803503  0.494877  0.248779  1
  Lu  Lu19  1  0.304151  0.004854  0.249940  1
  Sn  Sn20  1  0.794985  0.458012  0.043232  1
  Sn  Sn21  1  0.559665  0.621928  0.749316  1
  Sn  Sn22  1  0.060879  0.878938  0.749401  1
  Sn  Sn23  1  0.438435  0.378050  0.250616  1
  Sn  Sn24  1  0.939814  0.121582  0.249957  1
  Sn  Sn25  1  0.331774  0.150912  0.750397  1
  Sn  Sn26  1  0.831001  0.349151  0.749308  1
  Sn  Sn27  1  0.667902  0.849678  0.249821  1
  Sn  Sn28  1  0.168817  0.649825  0.249715  1
  Pb  Pb29  1  0.294222  0.039070  0.041491  1
  Pb  Pb30  1  0.794131  0.459948  0.458316  1
  Pb  Pb31  1  0.706662  0.959603  0.540908  1
  Pb  Pb32  1  0.209856  0.539568  0.959453  1
  Pb  Pb33  1  0.702529  0.963238  0.959497  1
  Pb  Pb34  1  0.205639  0.540473  0.541034  1
  Pb  Pb35  1  0.293573  0.040076  0.458438  1
