# generated using pymatgen
data_SmBiSb4O13
_symmetry_space_group_name_H-M   'P 1'
_cell_length_a   7.43401300
_cell_length_b   7.35010671
_cell_length_c   10.35012200
_cell_angle_alpha   88.96520479
_cell_angle_beta   90.00000000
_cell_angle_gamma   90.00000000
_symmetry_Int_Tables_number   1
_chemical_formula_structural   SmBiSb4O13
_chemical_formula_sum   'Sm2 Bi2 Sb8 O26'
_cell_volume   565.44659833
_cell_formula_units_Z   2
loop_
 _symmetry_equiv_pos_site_id
 _symmetry_equiv_pos_as_xyz
  1  'x, y, z'
loop_
 _atom_site_type_symbol
 _atom_site_label
 _atom_site_symmetry_multiplicity
 _atom_site_fract_x
 _atom_site_fract_y
 _atom_site_fract_z
 _atom_site_occupancy
  Sm  Sm0  1  0.500000  0.500000  0.000000  1
  Sm  Sm1  1  0.000000  0.500000  0.000000  1
  Bi  Bi2  1  0.250000  0.750669  0.731212  1
  Bi  Bi3  1  0.750000  0.249331  0.268788  1
  Sb  Sb4  1  0.500000  0.000000  0.000000  1
  Sb  Sb5  1  0.750000  0.758287  0.745253  1
  Sb  Sb6  1  0.250000  0.748164  0.254041  1
  Sb  Sb7  1  0.500000  0.500000  0.500000  1
  Sb  Sb8  1  0.000000  0.500000  0.500000  1
  Sb  Sb9  1  0.750000  0.251836  0.745959  1
  Sb  Sb10  1  0.250000  0.241713  0.254747  1
  Sb  Sb11  1  0.000000  0.000000  0.000000  1
  O  O12  1  0.450527  0.689694  0.370444  1
  O  O13  1  0.750000  0.456081  0.127668  1
  O  O14  1  0.250000  0.492730  0.165301  1
  O  O15  1  0.453512  0.304343  0.369312  1
  O  O16  1  0.559331  0.211601  0.884449  1
  O  O17  1  0.940669  0.211601  0.884449  1
  O  O18  1  0.447128  0.202694  0.123185  1
  O  O19  1  0.750000  0.001705  0.076114  1
  O  O20  1  0.250000  0.998295  0.923886  1
  O  O21  1  0.750000  0.004662  0.680615  1
  O  O22  1  0.552872  0.797306  0.876815  1
  O  O23  1  0.947128  0.797306  0.876815  1
  O  O24  1  0.440669  0.788399  0.115551  1
  O  O25  1  0.049473  0.689694  0.370444  1
  O  O26  1  0.546488  0.695657  0.630688  1
  O  O27  1  0.953512  0.695657  0.630688  1
  O  O28  1  0.250000  0.518344  0.575018  1
  O  O29  1  0.750000  0.507270  0.834699  1
  O  O30  1  0.750000  0.481656  0.424982  1
  O  O31  1  0.046488  0.304343  0.369312  1
  O  O32  1  0.549473  0.310306  0.629556  1
  O  O33  1  0.950527  0.310306  0.629556  1
  O  O34  1  0.052872  0.202694  0.123185  1
  O  O35  1  0.250000  0.995338  0.319385  1
  O  O36  1  0.059331  0.788399  0.115551  1
  O  O37  1  0.250000  0.543919  0.872332  1
