# generated using pymatgen
data_Sm8TiPd13Pt11
_symmetry_space_group_name_H-M   'P 1'
_cell_length_a   8.46977400
_cell_length_b   8.44400700
_cell_length_c   8.47602000
_cell_angle_alpha   90.00000000
_cell_angle_beta   90.00000000
_cell_angle_gamma   90.00000000
_symmetry_Int_Tables_number   1
_chemical_formula_structural   Sm8TiPd13Pt11
_chemical_formula_sum   'Sm8 Ti1 Pd13 Pt11'
_cell_volume   606.19504146
_cell_formula_units_Z   1
loop_
 _symmetry_equiv_pos_site_id
 _symmetry_equiv_pos_as_xyz
  1  'x, y, z'
loop_
 _atom_site_type_symbol
 _atom_site_label
 _atom_site_symmetry_multiplicity
 _atom_site_fract_x
 _atom_site_fract_y
 _atom_site_fract_z
 _atom_site_occupancy
  Sm  Sm0  1  0.250629  0.250701  0.250657  1
  Sm  Sm1  1  0.749659  0.749243  0.748940  1
  Sm  Sm2  1  0.749659  0.749243  0.251060  1
  Sm  Sm3  1  0.749371  0.250701  0.749343  1
  Sm  Sm4  1  0.250629  0.250701  0.749343  1
  Sm  Sm5  1  0.250341  0.749243  0.251060  1
  Sm  Sm6  1  0.250341  0.749243  0.748940  1
  Sm  Sm7  1  0.749371  0.250701  0.250657  1
  Ti  Ti8  1  0.000000  0.000599  0.000000  1
  Pd  Pd9  1  0.500000  0.735698  0.000000  1
  Pd  Pd10  1  0.500000  0.999795  0.264619  1
  Pd  Pd11  1  0.265492  0.999902  0.500000  1
  Pd  Pd12  1  0.500000  0.999795  0.735381  1
  Pd  Pd13  1  0.734508  0.999902  0.500000  1
  Pd  Pd14  1  0.000000  0.499980  0.265351  1
  Pd  Pd15  1  0.000000  0.499980  0.734649  1
  Pd  Pd16  1  0.254800  0.500126  0.500000  1
  Pd  Pd17  1  0.745200  0.500126  0.500000  1
  Pd  Pd18  1  0.500000  0.255228  0.500000  1
  Pd  Pd19  1  0.500000  0.744696  0.500000  1
  Pd  Pd20  1  0.500000  0.500024  0.255043  1
  Pd  Pd21  1  0.500000  0.500024  0.744957  1
  Pt  Pt22  1  0.264684  0.499894  0.000000  1
  Pt  Pt23  1  0.735316  0.499894  0.000000  1
  Pt  Pt24  1  0.000000  0.264205  0.500000  1
  Pt  Pt25  1  0.500000  0.264174  0.000000  1
  Pt  Pt26  1  0.000000  0.736014  0.500000  1
  Pt  Pt27  1  0.300811  0.999910  0.000000  1
  Pt  Pt28  1  0.699189  0.999910  0.000000  1
  Pt  Pt29  1  0.000000  0.301434  0.000000  1
  Pt  Pt30  1  0.000000  0.698914  0.000000  1
  Pt  Pt31  1  0.000000  0.000000  0.300987  1
  Pt  Pt32  1  0.000000  0.000000  0.699013  1
