# generated using pymatgen
data_Sr2TbY3(SiIr2)6
_symmetry_space_group_name_H-M   'P 1'
_cell_length_a   5.62858200
_cell_length_b   5.62858337
_cell_length_c   15.14428300
_cell_angle_alpha   90.00000000
_cell_angle_beta   90.00000000
_cell_angle_gamma   120.00000372
_symmetry_Int_Tables_number   1
_chemical_formula_structural   Sr2TbY3(SiIr2)6
_chemical_formula_sum   'Sr2 Tb1 Y3 Si6 Ir12'
_cell_volume   415.50612726
_cell_formula_units_Z   1
loop_
 _symmetry_equiv_pos_site_id
 _symmetry_equiv_pos_as_xyz
  1  'x, y, z'
loop_
 _atom_site_type_symbol
 _atom_site_label
 _atom_site_symmetry_multiplicity
 _atom_site_fract_x
 _atom_site_fract_y
 _atom_site_fract_z
 _atom_site_occupancy
  Sr  Sr0  1  0.333333  0.666667  0.749934  1
  Sr  Sr1  1  0.666667  0.333333  0.249996  1
  Tb  Tb2  1  0.333333  0.666667  0.540846  1
  Y  Y3  1  0.666667  0.333333  0.459129  1
  Y  Y4  1  0.666667  0.333333  0.040783  1
  Y  Y5  1  0.333333  0.666667  0.959170  1
  Si  Si6  1  0.000000  0.000000  0.250023  1
  Si  Si7  1  0.000000  0.000000  0.750080  1
  Si  Si8  1  0.333333  0.666667  0.249976  1
  Si  Si9  1  0.666667  0.333333  0.750011  1
  Si  Si10  1  0.000000  0.000000  0.999956  1
  Si  Si11  1  0.000000  0.000000  0.500006  1
  Ir  Ir12  1  0.167536  0.335072  0.128902  1
  Ir  Ir13  1  0.832419  0.664839  0.871109  1
  Ir  Ir14  1  0.664928  0.832464  0.128902  1
  Ir  Ir15  1  0.832454  0.664910  0.628898  1
  Ir  Ir16  1  0.335161  0.167581  0.871109  1
  Ir  Ir17  1  0.167532  0.335064  0.371121  1
  Ir  Ir18  1  0.167536  0.832464  0.128902  1
  Ir  Ir19  1  0.335090  0.167546  0.628898  1
  Ir  Ir20  1  0.832419  0.167581  0.871109  1
  Ir  Ir21  1  0.664936  0.832468  0.371121  1
  Ir  Ir22  1  0.832454  0.167546  0.628898  1
  Ir  Ir23  1  0.167532  0.832468  0.371121  1
