# generated using pymatgen
data_MnNb4Cr3P4
_symmetry_space_group_name_H-M   'P 1'
_cell_length_a   3.53517900
_cell_length_b   6.27811167
_cell_length_c   7.37944779
_cell_angle_alpha   90.05309290
_cell_angle_beta   90.00000000
_cell_angle_gamma   90.00000000
_symmetry_Int_Tables_number   1
_chemical_formula_structural   MnNb4Cr3P4
_chemical_formula_sum   'Mn1 Nb4 Cr3 P4'
_cell_volume   163.78122813
_cell_formula_units_Z   1
loop_
 _symmetry_equiv_pos_site_id
 _symmetry_equiv_pos_as_xyz
  1  'x, y, z'
loop_
 _atom_site_type_symbol
 _atom_site_label
 _atom_site_symmetry_multiplicity
 _atom_site_fract_x
 _atom_site_fract_y
 _atom_site_fract_z
 _atom_site_occupancy
  Mn  Mn0  1  0.250000  0.642078  0.060033  1
  Nb  Nb1  1  0.250000  0.530673  0.671741  1
  Nb  Nb2  1  0.750000  0.468568  0.328019  1
  Nb  Nb3  1  0.250000  0.030549  0.827558  1
  Nb  Nb4  1  0.750000  0.970096  0.172518  1
  Cr  Cr5  1  0.750000  0.856586  0.559867  1
  Cr  Cr6  1  0.250000  0.142762  0.439516  1
  Cr  Cr7  1  0.750000  0.359684  0.941068  1
  P  P8  1  0.250000  0.269848  0.130342  1
  P  P9  1  0.750000  0.729767  0.870118  1
  P  P10  1  0.250000  0.769964  0.368693  1
  P  P11  1  0.750000  0.229425  0.630527  1
