# generated using pymatgen
data_Ba4LuMnO8
_symmetry_space_group_name_H-M   'P 1'
_cell_length_a   7.37526172
_cell_length_b   7.37526188
_cell_length_c   5.84429100
_cell_angle_alpha   90.00000000
_cell_angle_beta   90.00000000
_cell_angle_gamma   133.40959760
_symmetry_Int_Tables_number   1
_chemical_formula_structural   Ba4LuMnO8
_chemical_formula_sum   'Ba4 Lu1 Mn1 O8'
_cell_volume   230.93946841
_cell_formula_units_Z   1
loop_
 _symmetry_equiv_pos_site_id
 _symmetry_equiv_pos_as_xyz
  1  'x, y, z'
loop_
 _atom_site_type_symbol
 _atom_site_label
 _atom_site_symmetry_multiplicity
 _atom_site_fract_x
 _atom_site_fract_y
 _atom_site_fract_z
 _atom_site_occupancy
  Ba  Ba0  1  0.357337  0.642663  0.000000  1
  Ba  Ba1  1  0.856122  0.143878  0.500000  1
  Ba  Ba2  1  0.143878  0.856122  0.500000  1
  Ba  Ba3  1  0.642663  0.357337  0.000000  1
  Lu  Lu4  1  0.000000  0.000000  0.000000  1
  Mn  Mn5  1  0.500000  0.500000  0.500000  1
  O  O6  1  0.263633  0.263633  0.734088  1
  O  O7  1  0.736367  0.736367  0.265912  1
  O  O8  1  0.736367  0.736367  0.734088  1
  O  O9  1  0.263633  0.263633  0.265912  1
  O  O10  1  0.162278  0.837722  0.000000  1
  O  O11  1  0.648295  0.351705  0.500000  1
  O  O12  1  0.351705  0.648295  0.500000  1
  O  O13  1  0.837722  0.162278  0.000000  1
