# generated using pymatgen
data_Cs2VTc11Te14
_symmetry_space_group_name_H-M   'P 1'
_cell_length_a   10.24353420
_cell_length_b   10.26884049
_cell_length_c   10.27966410
_cell_angle_alpha   61.72406450
_cell_angle_beta   61.45572126
_cell_angle_gamma   61.94871379
_symmetry_Int_Tables_number   1
_chemical_formula_structural   Cs2VTc11Te14
_chemical_formula_sum   'Cs2 V1 Tc11 Te14'
_cell_volume   793.87090173
_cell_formula_units_Z   1
loop_
 _symmetry_equiv_pos_site_id
 _symmetry_equiv_pos_as_xyz
  1  'x, y, z'
loop_
 _atom_site_type_symbol
 _atom_site_label
 _atom_site_symmetry_multiplicity
 _atom_site_fract_x
 _atom_site_fract_y
 _atom_site_fract_z
 _atom_site_occupancy
  Cs  Cs0  1  0.616333  0.615906  0.617008  1
  Cs  Cs1  1  0.382359  0.384532  0.383668  1
  V  V2  1  0.723076  0.878561  0.991139  1
  Tc  Tc3  1  0.999313  0.707031  0.877875  1
  Tc  Tc4  1  0.874219  0.001541  0.707971  1
  Tc  Tc5  1  0.294998  0.124992  0.995233  1
  Tc  Tc6  1  0.997931  0.293927  0.126131  1
  Tc  Tc7  1  0.125456  0.997473  0.293228  1
  Tc  Tc8  1  0.940012  0.807814  0.110302  1
  Tc  Tc9  1  0.102373  0.939607  0.813116  1
  Tc  Tc10  1  0.808280  0.107525  0.940748  1
  Tc  Tc11  1  0.059267  0.187980  0.895941  1
  Tc  Tc12  1  0.896661  0.057604  0.186569  1
  Tc  Tc13  1  0.188434  0.893743  0.061263  1
  Te  Te14  1  0.421316  0.820081  0.162749  1
  Te  Te15  1  0.166593  0.418866  0.816851  1
  Te  Te16  1  0.813905  0.164123  0.420375  1
  Te  Te17  1  0.579862  0.190061  0.827346  1
  Te  Te18  1  0.834316  0.577781  0.183971  1
  Te  Te19  1  0.179388  0.834831  0.579882  1
  Te  Te20  1  0.645419  0.983800  0.241670  1
  Te  Te21  1  0.236990  0.644242  0.987609  1
  Te  Te22  1  0.981687  0.240315  0.647962  1
  Te  Te23  1  0.353093  0.015958  0.761535  1
  Te  Te24  1  0.760886  0.353835  0.017385  1
  Te  Te25  1  0.016159  0.760361  0.356036  1
  Te  Te26  1  0.775451  0.773427  0.774382  1
  Te  Te27  1  0.226226  0.224085  0.222057  1
