# generated using pymatgen
data_Ho8Sc12Ga3Si12Ag
_symmetry_space_group_name_H-M   'P 1'
_cell_length_a   7.16378813
_cell_length_b   7.37829605
_cell_length_c   14.16409527
_cell_angle_alpha   90.00667756
_cell_angle_beta   89.54674166
_cell_angle_gamma   90.29558081
_symmetry_Int_Tables_number   1
_chemical_formula_structural   Ho8Sc12Ga3Si12Ag
_chemical_formula_sum   'Ho8 Sc12 Ga3 Si12 Ag1'
_cell_volume   748.63181497
_cell_formula_units_Z   1
loop_
 _symmetry_equiv_pos_site_id
 _symmetry_equiv_pos_as_xyz
  1  'x, y, z'
loop_
 _atom_site_type_symbol
 _atom_site_label
 _atom_site_symmetry_multiplicity
 _atom_site_fract_x
 _atom_site_fract_y
 _atom_site_fract_z
 _atom_site_occupancy
  Ho  Ho0  1  0.013273  0.174689  0.096694  1
  Ho  Ho1  1  0.988499  0.826014  0.901935  1
  Ho  Ho2  1  0.486558  0.677685  0.901885  1
  Ho  Ho3  1  0.988009  0.827690  0.600798  1
  Ho  Ho4  1  0.511077  0.321079  0.097076  1
  Ho  Ho5  1  0.007172  0.174854  0.398352  1
  Ho  Ho6  1  0.510786  0.322284  0.399415  1
  Ho  Ho7  1  0.495172  0.676510  0.602921  1
  Sc  Sc8  1  0.163394  0.500584  0.753402  1
  Sc  Sc9  1  0.836388  0.498334  0.250957  1
  Sc  Sc10  1  0.336947  0.000757  0.247969  1
  Sc  Sc11  1  0.664918  0.997393  0.750546  1
  Sc  Sc12  1  0.340260  0.172998  0.629183  1
  Sc  Sc13  1  0.667508  0.826633  0.373430  1
  Sc  Sc14  1  0.166814  0.671115  0.370841  1
  Sc  Sc15  1  0.668458  0.826446  0.125230  1
  Sc  Sc16  1  0.826197  0.326682  0.626126  1
  Sc  Sc17  1  0.329900  0.175644  0.875069  1
  Sc  Sc18  1  0.828743  0.322946  0.875049  1
  Sc  Sc19  1  0.173103  0.675253  0.124087  1
  Ga  Ga20  1  0.833299  0.538489  0.459975  1
  Ga  Ga21  1  0.336005  0.961951  0.462581  1
  Ga  Ga22  1  0.840327  0.538709  0.038901  1
  Si  Si23  1  0.033416  0.118807  0.749817  1
  Si  Si24  1  0.967804  0.883432  0.248878  1
  Si  Si25  1  0.467245  0.614955  0.247138  1
  Si  Si26  1  0.534169  0.386459  0.753168  1
  Si  Si27  1  0.286564  0.872221  0.751792  1
  Si  Si28  1  0.713596  0.128323  0.247538  1
  Si  Si29  1  0.213572  0.370803  0.247327  1
  Si  Si30  1  0.789022  0.628794  0.753130  1
  Si  Si31  1  0.658978  0.033868  0.539962  1
  Si  Si32  1  0.156320  0.464507  0.960332  1
  Si  Si33  1  0.656707  0.035888  0.961412  1
  Si  Si34  1  0.344876  0.964030  0.037684  1
  Ag  Ag35  1  0.164923  0.463170  0.539404  1
