# generated using pymatgen
data_Ca5SmU2O12
_symmetry_space_group_name_H-M   'P 1'
_cell_length_a   6.83937790
_cell_length_b   6.79496695
_cell_length_c   6.82262908
_cell_angle_alpha   91.26844907
_cell_angle_beta   90.72374172
_cell_angle_gamma   91.06911807
_symmetry_Int_Tables_number   1
_chemical_formula_structural   Ca5SmU2O12
_chemical_formula_sum   'Ca5 Sm1 U2 O12'
_cell_volume   316.91053751
_cell_formula_units_Z   1
loop_
 _symmetry_equiv_pos_site_id
 _symmetry_equiv_pos_as_xyz
  1  'x, y, z'
loop_
 _atom_site_type_symbol
 _atom_site_label
 _atom_site_symmetry_multiplicity
 _atom_site_fract_x
 _atom_site_fract_y
 _atom_site_fract_z
 _atom_site_occupancy
  Ca  Ca0  1  0.751112  0.941699  0.444355  1
  Ca  Ca1  1  0.552381  0.248031  0.061095  1
  Ca  Ca2  1  0.250308  0.056708  0.553382  1
  Ca  Ca3  1  0.061680  0.557725  0.250285  1
  Ca  Ca4  1  0.445553  0.750654  0.941298  1
  Sm  Sm5  1  0.938334  0.442557  0.749621  1
  U  U6  1  0.999643  0.999382  0.001547  1
  U  U7  1  0.498296  0.500789  0.497668  1
  O  O8  1  0.290796  0.062990  0.927892  1
  O  O9  1  0.063208  0.924359  0.293716  1
  O  O10  1  0.923722  0.300196  0.062387  1
  O  O11  1  0.707801  0.935907  0.073259  1
  O  O12  1  0.936265  0.085060  0.705642  1
  O  O13  1  0.075121  0.697148  0.930761  1
  O  O14  1  0.198183  0.409478  0.541482  1
  O  O15  1  0.412213  0.541733  0.203582  1
  O  O16  1  0.458716  0.794684  0.587817  1
  O  O17  1  0.593460  0.457029  0.795399  1
  O  O18  1  0.801735  0.588200  0.466065  1
  O  O19  1  0.541474  0.205671  0.412745  1
