# generated using pymatgen
data_Ca9HoIr4
_symmetry_space_group_name_H-M   'P 1'
_cell_length_a   6.51965904
_cell_length_b   7.55075470
_cell_length_c   8.59293258
_cell_angle_alpha   97.20038111
_cell_angle_beta   112.29414461
_cell_angle_gamma   90.00000377
_symmetry_Int_Tables_number   1
_chemical_formula_structural   Ca9HoIr4
_chemical_formula_sum   'Ca9 Ho1 Ir4'
_cell_volume   387.78689875
_cell_formula_units_Z   1
loop_
 _symmetry_equiv_pos_site_id
 _symmetry_equiv_pos_as_xyz
  1  'x, y, z'
loop_
 _atom_site_type_symbol
 _atom_site_label
 _atom_site_symmetry_multiplicity
 _atom_site_fract_x
 _atom_site_fract_y
 _atom_site_fract_z
 _atom_site_occupancy
  Ca  Ca0  1  0.968603  0.919244  0.171665  1
  Ca  Ca1  1  0.796937  0.580756  0.828335  1
  Ca  Ca2  1  0.025279  0.081818  0.826245  1
  Ca  Ca3  1  0.199034  0.418182  0.173755  1
  Ca  Ca4  1  0.640849  0.822941  0.435354  1
  Ca  Ca5  1  0.205494  0.677059  0.564646  1
  Ca  Ca6  1  0.359451  0.178208  0.562013  1
  Ca  Ca7  1  0.797439  0.321792  0.437987  1
  Ca  Ca8  1  0.425848  0.750000  0.000000  1
  Ho  Ho9  1  0.564913  0.250000  0.000000  1
  Ir  Ir10  1  0.816825  0.569031  0.212239  1
  Ir  Ir11  1  0.604586  0.930969  0.787761  1
  Ir  Ir12  1  0.190284  0.415493  0.785826  1
  Ir  Ir13  1  0.404457  0.084507  0.214174  1
