# generated using pymatgen
data_GdDyTc2C3
_symmetry_space_group_name_H-M   'P 1'
_cell_length_a   6.20955121
_cell_length_b   6.20955040
_cell_length_c   5.83081100
_cell_angle_alpha   67.07902166
_cell_angle_beta   67.07902482
_cell_angle_gamma   31.99336489
_symmetry_Int_Tables_number   1
_chemical_formula_structural   GdDyTc2C3
_chemical_formula_sum   'Gd1 Dy1 Tc2 C3'
_cell_volume   108.90397275
_cell_formula_units_Z   1
loop_
 _symmetry_equiv_pos_site_id
 _symmetry_equiv_pos_as_xyz
  1  'x, y, z'
loop_
 _atom_site_type_symbol
 _atom_site_label
 _atom_site_symmetry_multiplicity
 _atom_site_fract_x
 _atom_site_fract_y
 _atom_site_fract_z
 _atom_site_occupancy
  Gd  Gd0  1  0.609550  0.609550  0.175062  1
  Dy  Dy1  1  0.388853  0.388853  0.829425  1
  Tc  Tc2  1  0.840651  0.840651  0.318206  1
  Tc  Tc3  1  0.159680  0.159680  0.680711  1
  C  C4  1  0.752901  0.752901  0.722593  1
  C  C5  1  0.248744  0.248744  0.276466  1
  C  C6  1  0.999620  0.999620  0.997537  1
