# generated using pymatgen
data_Nd4Cd2CuRh3
_symmetry_space_group_name_H-M   'P 1'
_cell_length_a   7.67320355
_cell_length_b   7.67320355
_cell_length_c   3.93972100
_cell_angle_alpha   90.00000000
_cell_angle_beta   90.00000000
_cell_angle_gamma   90.64500251
_symmetry_Int_Tables_number   1
_chemical_formula_structural   Nd4Cd2CuRh3
_chemical_formula_sum   'Nd4 Cd2 Cu1 Rh3'
_cell_volume   231.94840275
_cell_formula_units_Z   1
loop_
 _symmetry_equiv_pos_site_id
 _symmetry_equiv_pos_as_xyz
  1  'x, y, z'
loop_
 _atom_site_type_symbol
 _atom_site_label
 _atom_site_symmetry_multiplicity
 _atom_site_fract_x
 _atom_site_fract_y
 _atom_site_fract_z
 _atom_site_occupancy
  Nd  Nd0  1  0.675059  0.175059  0.500000  1
  Nd  Nd1  1  0.339519  0.839519  0.500000  1
  Nd  Nd2  1  0.167122  0.316064  0.500000  1
  Nd  Nd3  1  0.816064  0.667122  0.500000  1
  Cd  Cd4  1  0.000685  0.993504  0.000000  1
  Cd  Cd5  1  0.493504  0.500685  0.000000  1
  Cu  Cu6  1  0.125294  0.625294  0.000000  1
  Rh  Rh7  1  0.879825  0.379825  0.000000  1
  Rh  Rh8  1  0.633717  0.869212  0.000000  1
  Rh  Rh9  1  0.369212  0.133717  0.000000  1
