# generated using pymatgen
data_Cs3V2Ag3Te8
_symmetry_space_group_name_H-M   'P 1'
_cell_length_a   14.08075785
_cell_length_b   14.08075784
_cell_length_c   16.79460024
_cell_angle_alpha   61.75188918
_cell_angle_beta   61.75188879
_cell_angle_gamma   26.23738604
_symmetry_Int_Tables_number   1
_chemical_formula_structural   Cs3V2Ag3Te8
_chemical_formula_sum   'Cs6 V4 Ag6 Te16'
_cell_volume   1286.56547718
_cell_formula_units_Z   2
loop_
 _symmetry_equiv_pos_site_id
 _symmetry_equiv_pos_as_xyz
  1  'x, y, z'
loop_
 _atom_site_type_symbol
 _atom_site_label
 _atom_site_symmetry_multiplicity
 _atom_site_fract_x
 _atom_site_fract_y
 _atom_site_fract_z
 _atom_site_occupancy
  Cs  Cs0  1  0.637086  0.746710  0.401520  1
  Cs  Cs1  1  0.000000  0.000000  0.000000  1
  Cs  Cs2  1  0.746710  0.637086  0.901520  1
  Cs  Cs3  1  0.000000  0.000000  0.500000  1
  Cs  Cs4  1  0.253290  0.362914  0.098480  1
  Cs  Cs5  1  0.362914  0.253290  0.598480  1
  V  V6  1  0.585922  0.166569  0.277698  1
  V  V7  1  0.166569  0.585922  0.777698  1
  V  V8  1  0.833431  0.414078  0.222302  1
  V  V9  1  0.414078  0.833431  0.722302  1
  Ag  Ag10  1  0.279424  0.720576  0.750000  1
  Ag  Ag11  1  0.332364  0.914560  0.217973  1
  Ag  Ag12  1  0.914560  0.332364  0.717973  1
  Ag  Ag13  1  0.085440  0.667636  0.282027  1
  Ag  Ag14  1  0.720576  0.279424  0.250000  1
  Ag  Ag15  1  0.667636  0.085440  0.782027  1
  Te  Te16  1  0.466501  0.446444  0.657717  1
  Te  Te17  1  0.222149  0.090971  0.811968  1
  Te  Te18  1  0.446444  0.466501  0.157717  1
  Te  Te19  1  0.777851  0.909029  0.188032  1
  Te  Te20  1  0.553556  0.533499  0.842283  1
  Te  Te21  1  0.295610  0.289136  0.883047  1
  Te  Te22  1  0.710864  0.704390  0.616953  1
  Te  Te23  1  0.289136  0.295610  0.383047  1
  Te  Te24  1  0.909029  0.777851  0.688032  1
  Te  Te25  1  0.174426  0.019015  0.619442  1
  Te  Te26  1  0.704390  0.710864  0.116953  1
  Te  Te27  1  0.533499  0.553556  0.342283  1
  Te  Te28  1  0.980985  0.825574  0.880558  1
  Te  Te29  1  0.090971  0.222149  0.311968  1
  Te  Te30  1  0.825574  0.980985  0.380558  1
  Te  Te31  1  0.019015  0.174426  0.119442  1
