# generated using pymatgen
data_DyTm7Sc12Si15Ge
_symmetry_space_group_name_H-M   'P 1'
_cell_length_a   7.06086965
_cell_length_b   7.35189136
_cell_length_c   13.92007687
_cell_angle_alpha   90.03834916
_cell_angle_beta   89.89084434
_cell_angle_gamma   90.05044809
_symmetry_Int_Tables_number   1
_chemical_formula_structural   DyTm7Sc12Si15Ge
_chemical_formula_sum   'Dy1 Tm7 Sc12 Si15 Ge1'
_cell_volume   722.59983081
_cell_formula_units_Z   1
loop_
 _symmetry_equiv_pos_site_id
 _symmetry_equiv_pos_as_xyz
  1  'x, y, z'
loop_
 _atom_site_type_symbol
 _atom_site_label
 _atom_site_symmetry_multiplicity
 _atom_site_fract_x
 _atom_site_fract_y
 _atom_site_fract_z
 _atom_site_occupancy
  Dy  Dy0  1  0.012179  0.176084  0.096127  1
  Tm  Tm1  1  0.987824  0.823515  0.903446  1
  Tm  Tm2  1  0.488357  0.676588  0.903508  1
  Tm  Tm3  1  0.987467  0.824434  0.596602  1
  Tm  Tm4  1  0.511940  0.323721  0.096544  1
  Tm  Tm5  1  0.010816  0.175881  0.402779  1
  Tm  Tm6  1  0.512579  0.322124  0.402723  1
  Tm  Tm7  1  0.490892  0.678109  0.596902  1
  Sc  Sc8  1  0.161052  0.503576  0.751217  1
  Sc  Sc9  1  0.838701  0.496720  0.250185  1
  Sc  Sc10  1  0.339129  0.003354  0.250047  1
  Sc  Sc11  1  0.661063  0.996402  0.750082  1
  Sc  Sc12  1  0.332927  0.174475  0.626156  1
  Sc  Sc13  1  0.668243  0.823701  0.374440  1
  Sc  Sc14  1  0.167774  0.677530  0.374311  1
  Sc  Sc15  1  0.668702  0.822618  0.125189  1
  Sc  Sc16  1  0.829876  0.323171  0.625412  1
  Sc  Sc17  1  0.331294  0.176760  0.874661  1
  Sc  Sc18  1  0.830795  0.323267  0.874708  1
  Sc  Sc19  1  0.168962  0.676867  0.125295  1
  Si  Si20  1  0.032992  0.114253  0.750131  1
  Si  Si21  1  0.966925  0.885961  0.249757  1
  Si  Si22  1  0.466785  0.613939  0.249730  1
  Si  Si23  1  0.532599  0.386397  0.750215  1
  Si  Si24  1  0.285027  0.870397  0.750259  1
  Si  Si25  1  0.714458  0.128862  0.249948  1
  Si  Si26  1  0.215105  0.371379  0.250282  1
  Si  Si27  1  0.785715  0.629242  0.750103  1
  Si  Si28  1  0.835151  0.535762  0.459817  1
  Si  Si29  1  0.339813  0.965332  0.460500  1
  Si  Si30  1  0.840371  0.535163  0.039252  1
  Si  Si31  1  0.659883  0.035033  0.539374  1
  Si  Si32  1  0.159501  0.466030  0.960537  1
  Si  Si33  1  0.658914  0.034550  0.960467  1
  Si  Si34  1  0.341727  0.964893  0.039343  1
  Ge  Ge35  1  0.164466  0.463912  0.539951  1
