# generated using pymatgen
data_La2TbEr(ZnGe)4
_symmetry_space_group_name_H-M   'P 1'
_cell_length_a   4.31810300
_cell_length_b   4.31810284
_cell_length_c   16.23591000
_cell_angle_alpha   90.00000000
_cell_angle_beta   90.00000000
_cell_angle_gamma   119.99999355
_symmetry_Int_Tables_number   1
_chemical_formula_structural   La2TbEr(ZnGe)4
_chemical_formula_sum   'La2 Tb1 Er1 Zn4 Ge4'
_cell_volume   262.17620574
_cell_formula_units_Z   1
loop_
 _symmetry_equiv_pos_site_id
 _symmetry_equiv_pos_as_xyz
  1  'x, y, z'
loop_
 _atom_site_type_symbol
 _atom_site_label
 _atom_site_symmetry_multiplicity
 _atom_site_fract_x
 _atom_site_fract_y
 _atom_site_fract_z
 _atom_site_occupancy
  La  La0  1  0.000000  0.000000  0.999612  1
  La  La1  1  0.000000  0.000000  0.500388  1
  Tb  Tb2  1  0.000000  0.000000  0.250000  1
  Er  Er3  1  0.000000  0.000000  0.750000  1
  Zn  Zn4  1  0.333333  0.666667  0.154965  1
  Zn  Zn5  1  0.666667  0.333333  0.844139  1
  Zn  Zn6  1  0.666667  0.333333  0.655861  1
  Zn  Zn7  1  0.333333  0.666667  0.345035  1
  Ge  Ge8  1  0.333333  0.666667  0.619288  1
  Ge  Ge9  1  0.666667  0.333333  0.380967  1
  Ge  Ge10  1  0.666667  0.333333  0.119033  1
  Ge  Ge11  1  0.333333  0.666667  0.880712  1
