# generated using pymatgen
data_U4Mn6CrGe6
_symmetry_space_group_name_H-M   'P 1'
_cell_length_a   6.97847888
_cell_length_b   6.97847783
_cell_length_c   6.97847753
_cell_angle_alpha   109.62124713
_cell_angle_beta   109.62124760
_cell_angle_gamma   109.17159042
_symmetry_Int_Tables_number   1
_chemical_formula_structural   U4Mn6CrGe6
_chemical_formula_sum   'U4 Mn6 Cr1 Ge6'
_cell_volume   261.60817897
_cell_formula_units_Z   1
loop_
 _symmetry_equiv_pos_site_id
 _symmetry_equiv_pos_as_xyz
  1  'x, y, z'
loop_
 _atom_site_type_symbol
 _atom_site_label
 _atom_site_symmetry_multiplicity
 _atom_site_fract_x
 _atom_site_fract_y
 _atom_site_fract_z
 _atom_site_occupancy
  U  U0  1  0.498383  0.501617  0.500000  1
  U  U1  1  0.001617  0.998383  0.500000  1
  U  U2  1  0.498383  0.998383  0.996764  1
  U  U3  1  0.001617  0.501617  0.003236  1
  Mn  Mn4  1  0.750000  0.250000  0.500000  1
  Mn  Mn5  1  0.500846  0.250596  0.749750  1
  Mn  Mn6  1  0.500846  0.751095  0.250250  1
  Mn  Mn7  1  0.248905  0.499154  0.749750  1
  Mn  Mn8  1  0.749404  0.499154  0.250250  1
  Mn  Mn9  1  0.000000  0.000000  0.000000  1
  Cr  Cr10  1  0.250000  0.750000  0.500000  1
  Ge  Ge11  1  0.314733  0.314733  0.000000  1
  Ge  Ge12  1  0.997397  0.310025  0.312628  1
  Ge  Ge13  1  0.997397  0.684769  0.687372  1
  Ge  Ge14  1  0.689975  0.002603  0.687372  1
  Ge  Ge15  1  0.315231  0.002603  0.312628  1
  Ge  Ge16  1  0.685267  0.685267  0.000000  1
