# generated using pymatgen
data_Be3Ni2(BRu)2
_symmetry_space_group_name_H-M   'P 1'
_cell_length_a   7.63394000
_cell_length_b   7.63394000
_cell_length_c   2.87081200
_cell_angle_alpha   90.00000000
_cell_angle_beta   90.00000000
_cell_angle_gamma   90.00000000
_symmetry_Int_Tables_number   1
_chemical_formula_structural   Be3Ni2(BRu)2
_chemical_formula_sum   'Be6 Ni4 B4 Ru4'
_cell_volume   167.30242554
_cell_formula_units_Z   2
loop_
 _symmetry_equiv_pos_site_id
 _symmetry_equiv_pos_as_xyz
  1  'x, y, z'
loop_
 _atom_site_type_symbol
 _atom_site_label
 _atom_site_symmetry_multiplicity
 _atom_site_fract_x
 _atom_site_fract_y
 _atom_site_fract_z
 _atom_site_occupancy
  Be  Be0  1  0.000000  0.000000  0.500000  1
  Be  Be1  1  0.500000  0.500000  0.500000  1
  Be  Be2  1  0.000000  0.343916  0.500000  1
  Be  Be3  1  0.343916  0.000000  0.500000  1
  Be  Be4  1  0.656084  0.000000  0.500000  1
  Be  Be5  1  0.000000  0.656084  0.500000  1
  Ni  Ni6  1  0.838978  0.838978  0.000000  1
  Ni  Ni7  1  0.838978  0.161022  0.000000  1
  Ni  Ni8  1  0.161022  0.838978  0.000000  1
  Ni  Ni9  1  0.161022  0.161022  0.000000  1
  B  B10  1  0.294513  0.294513  0.500000  1
  B  B11  1  0.294513  0.705487  0.500000  1
  B  B12  1  0.705487  0.294513  0.500000  1
  B  B13  1  0.705487  0.705487  0.500000  1
  Ru  Ru14  1  0.500000  0.780072  0.000000  1
  Ru  Ru15  1  0.780072  0.500000  0.000000  1
  Ru  Ru16  1  0.219928  0.500000  0.000000  1
  Ru  Ru17  1  0.500000  0.219928  0.000000  1
