# generated using pymatgen
data_KZr2CuSe5
_symmetry_space_group_name_H-M   'P 1'
_cell_length_a   7.82009016
_cell_length_b   7.82009107
_cell_length_c   16.37563500
_cell_angle_alpha   90.00000000
_cell_angle_beta   90.00000000
_cell_angle_gamma   151.24411069
_symmetry_Int_Tables_number   1
_chemical_formula_structural   KZr2CuSe5
_chemical_formula_sum   'K2 Zr4 Cu2 Se10'
_cell_volume   481.76807205
_cell_formula_units_Z   2
loop_
 _symmetry_equiv_pos_site_id
 _symmetry_equiv_pos_as_xyz
  1  'x, y, z'
loop_
 _atom_site_type_symbol
 _atom_site_label
 _atom_site_symmetry_multiplicity
 _atom_site_fract_x
 _atom_site_fract_y
 _atom_site_fract_z
 _atom_site_occupancy
  K  K0  1  0.037065  0.962935  0.250000  1
  K  K1  1  0.962935  0.037065  0.750000  1
  Zr  Zr2  1  0.210676  0.789324  0.901712  1
  Zr  Zr3  1  0.789324  0.210676  0.401712  1
  Zr  Zr4  1  0.210676  0.789324  0.598288  1
  Zr  Zr5  1  0.789324  0.210676  0.098288  1
  Cu  Cu6  1  0.319094  0.680906  0.250000  1
  Cu  Cu7  1  0.680906  0.319094  0.750000  1
  Se  Se8  1  0.167251  0.832749  0.438281  1
  Se  Se9  1  0.832749  0.167251  0.938281  1
  Se  Se10  1  0.283031  0.716969  0.750000  1
  Se  Se11  1  0.410122  0.589878  0.372814  1
  Se  Se12  1  0.167251  0.832749  0.061719  1
  Se  Se13  1  0.589878  0.410122  0.872814  1
  Se  Se14  1  0.589878  0.410122  0.627186  1
  Se  Se15  1  0.410122  0.589878  0.127186  1
  Se  Se16  1  0.832749  0.167251  0.561719  1
  Se  Se17  1  0.716969  0.283031  0.250000  1
