# generated using pymatgen
data_Er3MnCrC6
_symmetry_space_group_name_H-M   'P 1'
_cell_length_a   8.07317700
_cell_length_b   8.07317643
_cell_length_c   4.94900000
_cell_angle_alpha   90.00000000
_cell_angle_beta   90.00000000
_cell_angle_gamma   119.99999824
_symmetry_Int_Tables_number   1
_chemical_formula_structural   Er3MnCrC6
_chemical_formula_sum   'Er6 Mn2 Cr2 C12'
_cell_volume   279.34249703
_cell_formula_units_Z   2
loop_
 _symmetry_equiv_pos_site_id
 _symmetry_equiv_pos_as_xyz
  1  'x, y, z'
loop_
 _atom_site_type_symbol
 _atom_site_label
 _atom_site_symmetry_multiplicity
 _atom_site_fract_x
 _atom_site_fract_y
 _atom_site_fract_z
 _atom_site_occupancy
  Er  Er0  1  0.624058  0.684413  0.750000  1
  Er  Er1  1  0.939644  0.624058  0.250000  1
  Er  Er2  1  0.684413  0.060356  0.250000  1
  Er  Er3  1  0.315587  0.939644  0.750000  1
  Er  Er4  1  0.060356  0.375942  0.750000  1
  Er  Er5  1  0.375942  0.315587  0.250000  1
  Mn  Mn6  1  0.666667  0.333333  0.750000  1
  Mn  Mn7  1  0.333333  0.666667  0.250000  1
  Cr  Cr8  1  0.000000  0.000000  0.500000  1
  Cr  Cr9  1  0.000000  0.000000  0.000000  1
  C  C10  1  0.964708  0.771496  0.750000  1
  C  C11  1  0.193213  0.964708  0.250000  1
  C  C12  1  0.771496  0.806787  0.250000  1
  C  C13  1  0.228504  0.193213  0.750000  1
  C  C14  1  0.806787  0.035292  0.750000  1
  C  C15  1  0.035292  0.228504  0.250000  1
  C  C16  1  0.866126  0.575967  0.750000  1
  C  C17  1  0.290159  0.866126  0.250000  1
  C  C18  1  0.575967  0.709841  0.250000  1
  C  C19  1  0.424033  0.290159  0.750000  1
  C  C20  1  0.133874  0.424033  0.250000  1
  C  C21  1  0.709841  0.133874  0.750000  1
