# generated using pymatgen
data_Th(Si2Rh3)2
_symmetry_space_group_name_H-M   'P 1'
_cell_length_a   7.04944300
_cell_length_b   7.04947813
_cell_length_c   3.85042300
_cell_angle_alpha   90.00000000
_cell_angle_beta   90.00000000
_cell_angle_gamma   119.99983983
_symmetry_Int_Tables_number   1
_chemical_formula_structural   Th(Si2Rh3)2
_chemical_formula_sum   'Th1 Si4 Rh6'
_cell_volume   165.71107952
_cell_formula_units_Z   1
loop_
 _symmetry_equiv_pos_site_id
 _symmetry_equiv_pos_as_xyz
  1  'x, y, z'
loop_
 _atom_site_type_symbol
 _atom_site_label
 _atom_site_symmetry_multiplicity
 _atom_site_fract_x
 _atom_site_fract_y
 _atom_site_fract_z
 _atom_site_occupancy
  Th  Th0  1  0.999998  0.999999  0.000000  1
  Si  Si1  1  0.333327  0.666652  0.000000  1
  Si  Si2  1  0.405440  0.202723  0.500000  1
  Si  Si3  1  0.797281  0.202723  0.500000  1
  Si  Si4  1  0.797275  0.594549  0.500000  1
  Rh  Rh5  1  0.532134  0.064267  0.000000  1
  Rh  Rh6  1  0.532138  0.467844  0.000000  1
  Rh  Rh7  1  0.935706  0.467844  0.000000  1
  Rh  Rh8  1  0.198479  0.396957  0.500000  1
  Rh  Rh9  1  0.198467  0.801522  0.500000  1
  Rh  Rh10  1  0.603055  0.801522  0.500000  1
