# generated using pymatgen
data_Dy4Hf3InPt4
_symmetry_space_group_name_H-M   'P 1'
_cell_length_a   4.59209300
_cell_length_b   7.13584660
_cell_length_c   8.25780033
_cell_angle_alpha   86.77445889
_cell_angle_beta   90.00000000
_cell_angle_gamma   90.00000000
_symmetry_Int_Tables_number   1
_chemical_formula_structural   Dy4Hf3InPt4
_chemical_formula_sum   'Dy4 Hf3 In1 Pt4'
_cell_volume   270.16681004
_cell_formula_units_Z   1
loop_
 _symmetry_equiv_pos_site_id
 _symmetry_equiv_pos_as_xyz
  1  'x, y, z'
loop_
 _atom_site_type_symbol
 _atom_site_label
 _atom_site_symmetry_multiplicity
 _atom_site_fract_x
 _atom_site_fract_y
 _atom_site_fract_z
 _atom_site_occupancy
  Dy  Dy0  1  0.250000  0.470192  0.185083  1
  Dy  Dy1  1  0.750000  0.520691  0.819301  1
  Dy  Dy2  1  0.750000  0.033688  0.669418  1
  Dy  Dy3  1  0.250000  0.987479  0.332515  1
  Hf  Hf4  1  0.250000  0.854949  0.924329  1
  Hf  Hf5  1  0.750000  0.133947  0.070515  1
  Hf  Hf6  1  0.750000  0.644146  0.434345  1
  In  In7  1  0.250000  0.353013  0.574093  1
  Pt  Pt8  1  0.250000  0.743445  0.609895  1
  Pt  Pt9  1  0.750000  0.268418  0.369313  1
  Pt  Pt10  1  0.750000  0.763939  0.102904  1
  Pt  Pt11  1  0.250000  0.226095  0.908288  1
