# generated using pymatgen
data_Ti3ReP3W2
_symmetry_space_group_name_H-M   'P 1'
_cell_length_a   6.73342498
_cell_length_b   6.73342474
_cell_length_c   3.28934200
_cell_angle_alpha   90.00000000
_cell_angle_beta   90.00000000
_cell_angle_gamma   120.17367843
_symmetry_Int_Tables_number   1
_chemical_formula_structural   Ti3ReP3W2
_chemical_formula_sum   'Ti3 Re1 P3 W2'
_cell_volume   128.92851392
_cell_formula_units_Z   1
loop_
 _symmetry_equiv_pos_site_id
 _symmetry_equiv_pos_as_xyz
  1  'x, y, z'
loop_
 _atom_site_type_symbol
 _atom_site_label
 _atom_site_symmetry_multiplicity
 _atom_site_fract_x
 _atom_site_fract_y
 _atom_site_fract_z
 _atom_site_occupancy
  Ti  Ti0  1  0.396393  0.396393  0.500000  1
  Ti  Ti1  1  0.598229  0.009644  0.500000  1
  Ti  Ti2  1  0.009644  0.598229  0.500000  1
  Re  Re3  1  0.738468  0.738468  0.000000  1
  P  P4  1  0.994162  0.994162  0.500000  1
  P  P5  1  0.668308  0.337996  0.000000  1
  P  P6  1  0.337996  0.668308  0.000000  1
  W  W7  1  0.999442  0.257358  0.000000  1
  W  W8  1  0.257358  0.999442  0.000000  1
