# generated using pymatgen
data_Er5BiPbO12
_symmetry_space_group_name_H-M   'P 1'
_cell_length_a   6.52925118
_cell_length_b   6.56836301
_cell_length_c   6.47454414
_cell_angle_alpha   98.63433632
_cell_angle_beta   99.23086191
_cell_angle_gamma   99.53741630
_symmetry_Int_Tables_number   1
_chemical_formula_structural   Er5BiPbO12
_chemical_formula_sum   'Er5 Bi1 Pb1 O12'
_cell_volume   265.79536193
_cell_formula_units_Z   1
loop_
 _symmetry_equiv_pos_site_id
 _symmetry_equiv_pos_as_xyz
  1  'x, y, z'
loop_
 _atom_site_type_symbol
 _atom_site_label
 _atom_site_symmetry_multiplicity
 _atom_site_fract_x
 _atom_site_fract_y
 _atom_site_fract_z
 _atom_site_occupancy
  Er  Er0  1  0.143800  0.611999  0.316721  1
  Er  Er1  1  0.687828  0.857221  0.391389  1
  Er  Er2  1  0.306500  0.140110  0.606584  1
  Er  Er3  1  0.866447  0.392416  0.689566  1
  Er  Er4  1  0.388760  0.688618  0.854004  1
  Bi  Bi5  1  0.995732  0.997599  0.001094  1
  Pb  Pb6  1  0.604644  0.320501  0.143075  1
  O  O7  1  0.681958  0.912541  0.048491  1
  O  O8  1  0.945890  0.315603  0.075117  1
  O  O9  1  0.425365  0.581307  0.178184  1
  O  O10  1  0.073067  0.947717  0.318500  1
  O  O11  1  0.822579  0.572064  0.416903  1
  O  O12  1  0.585776  0.182575  0.421095  1
  O  O13  1  0.416519  0.827968  0.568874  1
  O  O14  1  0.183117  0.431749  0.587978  1
  O  O15  1  0.927300  0.053190  0.681473  1
  O  O16  1  0.573093  0.407153  0.826895  1
  O  O17  1  0.053362  0.684998  0.923270  1
  O  O18  1  0.318265  0.074667  0.950789  1
