# generated using pymatgen
data_Tb6SmS8
_symmetry_space_group_name_H-M   'P 1'
_cell_length_a   7.84424384
_cell_length_b   7.84424430
_cell_length_c   7.84424300
_cell_angle_alpha   120.01407634
_cell_angle_beta   89.96079115
_cell_angle_gamma   120.03120344
_symmetry_Int_Tables_number   1
_chemical_formula_structural   Tb6SmS8
_chemical_formula_sum   'Tb6 Sm1 S8'
_cell_volume   341.18464273
_cell_formula_units_Z   1
loop_
 _symmetry_equiv_pos_site_id
 _symmetry_equiv_pos_as_xyz
  1  'x, y, z'
loop_
 _atom_site_type_symbol
 _atom_site_label
 _atom_site_symmetry_multiplicity
 _atom_site_fract_x
 _atom_site_fract_y
 _atom_site_fract_z
 _atom_site_occupancy
  Tb  Tb0  1  0.249988  0.499974  0.249988  1
  Tb  Tb1  1  0.750013  0.999999  0.249989  1
  Tb  Tb2  1  0.249999  0.500001  0.750000  1
  Tb  Tb3  1  0.249989  0.000001  0.750013  1
  Tb  Tb4  1  0.750014  0.000000  0.750014  1
  Tb  Tb5  1  0.750013  0.500025  0.750013  1
  Sm  Sm6  1  0.249989  0.000000  0.249989  1
  S  S7  1  0.997783  0.000000  0.997783  1
  S  S8  1  0.502215  0.000000  0.502215  1
  S  S9  1  0.997663  0.999642  0.501980  1
  S  S10  1  0.999936  0.500001  0.499938  1
  S  S11  1  0.502338  0.504316  0.501980  1
  S  S12  1  0.997665  0.495686  0.998023  1
  S  S13  1  0.500061  0.500001  0.000062  1
  S  S14  1  0.502336  0.000357  0.998023  1
