# generated using pymatgen
data_AlSnBO4
_symmetry_space_group_name_H-M   'P 1'
_cell_length_a   5.76521000
_cell_length_b   7.29929100
_cell_length_c   7.85087700
_cell_angle_alpha   90.00000000
_cell_angle_beta   90.00000000
_cell_angle_gamma   90.00000000
_symmetry_Int_Tables_number   1
_chemical_formula_structural   AlSnBO4
_chemical_formula_sum   'Al4 Sn4 B4 O16'
_cell_volume   330.38017778
_cell_formula_units_Z   4
loop_
 _symmetry_equiv_pos_site_id
 _symmetry_equiv_pos_as_xyz
  1  'x, y, z'
loop_
 _atom_site_type_symbol
 _atom_site_label
 _atom_site_symmetry_multiplicity
 _atom_site_fract_x
 _atom_site_fract_y
 _atom_site_fract_z
 _atom_site_occupancy
  Al  Al0  1  0.000000  0.500000  0.500000  1
  Al  Al1  1  0.000000  0.000000  0.000000  1
  Al  Al2  1  0.500000  0.000000  0.000000  1
  Al  Al3  1  0.500000  0.500000  0.500000  1
  Sn  Sn4  1  0.250000  0.092443  0.639108  1
  Sn  Sn5  1  0.250000  0.592443  0.860892  1
  Sn  Sn6  1  0.750000  0.907557  0.360892  1
  Sn  Sn7  1  0.750000  0.407557  0.139108  1
  B  B8  1  0.750000  0.725905  0.763873  1
  B  B9  1  0.750000  0.225905  0.736127  1
  B  B10  1  0.250000  0.774095  0.263873  1
  B  B11  1  0.250000  0.274095  0.236127  1
  O  O12  1  0.956916  0.164716  0.808290  1
  O  O13  1  0.956916  0.664716  0.691710  1
  O  O14  1  0.456916  0.335284  0.308290  1
  O  O15  1  0.750000  0.096819  0.118414  1
  O  O16  1  0.043084  0.335284  0.308290  1
  O  O17  1  0.250000  0.903181  0.881586  1
  O  O18  1  0.750000  0.341291  0.597197  1
  O  O19  1  0.250000  0.158709  0.097197  1
  O  O20  1  0.543084  0.164716  0.808290  1
  O  O21  1  0.043084  0.835284  0.191710  1
  O  O22  1  0.250000  0.658709  0.402803  1
  O  O23  1  0.750000  0.596819  0.381586  1
  O  O24  1  0.543084  0.664716  0.691710  1
  O  O25  1  0.750000  0.841291  0.902803  1
  O  O26  1  0.250000  0.403181  0.618414  1
  O  O27  1  0.456916  0.835284  0.191710  1
