# generated using pymatgen
data_Sc6Zn5SbRh12
_symmetry_space_group_name_H-M   'P 1'
_cell_length_a   4.46557300
_cell_length_b   6.27538300
_cell_length_c   13.34011200
_cell_angle_alpha   90.00000000
_cell_angle_beta   89.99963998
_cell_angle_gamma   90.00000000
_symmetry_Int_Tables_number   1
_chemical_formula_structural   Sc6Zn5SbRh12
_chemical_formula_sum   'Sc6 Zn5 Sb1 Rh12'
_cell_volume   373.83237166
_cell_formula_units_Z   1
loop_
 _symmetry_equiv_pos_site_id
 _symmetry_equiv_pos_as_xyz
  1  'x, y, z'
loop_
 _atom_site_type_symbol
 _atom_site_label
 _atom_site_symmetry_multiplicity
 _atom_site_fract_x
 _atom_site_fract_y
 _atom_site_fract_z
 _atom_site_occupancy
  Sc  Sc0  1  0.000000  0.000000  0.000000  1
  Sc  Sc1  1  0.499826  0.500000  0.173248  1
  Sc  Sc2  1  0.999813  0.000000  0.337002  1
  Sc  Sc3  1  0.499999  0.500000  0.500000  1
  Sc  Sc4  1  0.000186  0.000000  0.662998  1
  Sc  Sc5  1  0.500173  0.500000  0.826752  1
  Zn  Zn6  1  0.499829  0.000000  0.168202  1
  Zn  Zn7  1  0.999824  0.500000  0.334294  1
  Zn  Zn8  1  0.499999  0.000000  0.500000  1
  Zn  Zn9  1  0.000176  0.500000  0.665706  1
  Zn  Zn10  1  0.500173  0.000000  0.831797  1
  Sb  Sb11  1  0.000000  0.500000  0.000000  1
  Rh  Rh12  1  0.499999  0.247876  0.000000  1
  Rh  Rh13  1  0.499999  0.752124  0.000000  1
  Rh  Rh14  1  0.999812  0.248120  0.167608  1
  Rh  Rh15  1  0.999812  0.751879  0.167608  1
  Rh  Rh16  1  0.499816  0.248606  0.333759  1
  Rh  Rh17  1  0.499816  0.751394  0.333759  1
  Rh  Rh18  1  0.000000  0.250536  0.500000  1
  Rh  Rh19  1  0.000000  0.749463  0.500000  1
  Rh  Rh20  1  0.500184  0.248606  0.666241  1
  Rh  Rh21  1  0.500184  0.751394  0.666241  1
  Rh  Rh22  1  0.000190  0.248120  0.832392  1
  Rh  Rh23  1  0.000190  0.751879  0.832392  1
