# generated using pymatgen
data_YCdPtRhO7
_symmetry_space_group_name_H-M   'P 1'
_cell_length_a   7.25443708
_cell_length_b   7.25443710
_cell_length_c   7.32383600
_cell_angle_alpha   59.68304716
_cell_angle_beta   59.68304705
_cell_angle_gamma   59.87987778
_symmetry_Int_Tables_number   1
_chemical_formula_structural   YCdPtRhO7
_chemical_formula_sum   'Y2 Cd2 Pt2 Rh2 O14'
_cell_volume   270.98282296
_cell_formula_units_Z   2
loop_
 _symmetry_equiv_pos_site_id
 _symmetry_equiv_pos_as_xyz
  1  'x, y, z'
loop_
 _atom_site_type_symbol
 _atom_site_label
 _atom_site_symmetry_multiplicity
 _atom_site_fract_x
 _atom_site_fract_y
 _atom_site_fract_z
 _atom_site_occupancy
  Y  Y0  1  0.125000  0.125000  0.625000  1
  Y  Y1  1  0.125000  0.125000  0.125000  1
  Cd  Cd2  1  0.625000  0.125000  0.125000  1
  Cd  Cd3  1  0.125000  0.625000  0.125000  1
  Pt  Pt4  1  0.625000  0.625000  0.125000  1
  Pt  Pt5  1  0.625000  0.625000  0.625000  1
  Rh  Rh6  1  0.125000  0.625000  0.625000  1
  Rh  Rh7  1  0.625000  0.125000  0.625000  1
  O  O8  1  0.708780  0.708780  0.291220  1
  O  O9  1  0.291869  0.291869  0.708131  1
  O  O10  1  0.717495  0.292427  0.693670  1
  O  O11  1  0.292427  0.717495  0.296408  1
  O  O12  1  0.292427  0.717495  0.693670  1
  O  O13  1  0.717495  0.292427  0.296408  1
  O  O14  1  0.541220  0.541220  0.958780  1
  O  O15  1  0.958131  0.958131  0.541869  1
  O  O16  1  0.532505  0.957573  0.556330  1
  O  O17  1  0.957573  0.532505  0.953592  1
  O  O18  1  0.957573  0.532505  0.556330  1
  O  O19  1  0.532505  0.957573  0.953592  1
  O  O20  1  0.250777  0.250777  0.249223  1
  O  O21  1  0.999223  0.999223  0.000777  1
