# generated using pymatgen
data_Ho16Cd4TcPt3
_symmetry_space_group_name_H-M   'P 1'
_cell_length_a   9.68869922
_cell_length_b   9.68870013
_cell_length_c   9.68869996
_cell_angle_alpha   59.27050040
_cell_angle_beta   59.27049705
_cell_angle_gamma   59.27049483
_symmetry_Int_Tables_number   1
_chemical_formula_structural   Ho16Cd4TcPt3
_chemical_formula_sum   'Ho16 Cd4 Tc1 Pt3'
_cell_volume   632.42004084
_cell_formula_units_Z   1
loop_
 _symmetry_equiv_pos_site_id
 _symmetry_equiv_pos_as_xyz
  1  'x, y, z'
loop_
 _atom_site_type_symbol
 _atom_site_label
 _atom_site_symmetry_multiplicity
 _atom_site_fract_x
 _atom_site_fract_y
 _atom_site_fract_z
 _atom_site_occupancy
  Ho  Ho0  1  0.601409  0.601409  0.601409  1
  Ho  Ho1  1  0.601052  0.601052  0.196775  1
  Ho  Ho2  1  0.601052  0.196775  0.601052  1
  Ho  Ho3  1  0.196775  0.601052  0.601052  1
  Ho  Ho4  1  0.064792  0.438369  0.438369  1
  Ho  Ho5  1  0.439436  0.059922  0.059922  1
  Ho  Ho6  1  0.438369  0.064792  0.438369  1
  Ho  Ho7  1  0.059922  0.439436  0.059922  1
  Ho  Ho8  1  0.438369  0.438369  0.064792  1
  Ho  Ho9  1  0.059922  0.059922  0.439436  1
  Ho  Ho10  1  0.185573  0.815224  0.815224  1
  Ho  Ho11  1  0.807123  0.187653  0.187653  1
  Ho  Ho12  1  0.815224  0.185573  0.815224  1
  Ho  Ho13  1  0.187653  0.807123  0.187653  1
  Ho  Ho14  1  0.815224  0.815224  0.185573  1
  Ho  Ho15  1  0.187653  0.187653  0.807123  1
  Cd  Cd16  1  0.830194  0.830194  0.830194  1
  Cd  Cd17  1  0.831158  0.831158  0.504214  1
  Cd  Cd18  1  0.831158  0.504214  0.831158  1
  Cd  Cd19  1  0.504214  0.831158  0.831158  1
  Tc  Tc20  1  0.394037  0.394037  0.394037  1
  Pt  Pt21  1  0.393878  0.393878  0.821931  1
  Pt  Pt22  1  0.393878  0.821931  0.393878  1
  Pt  Pt23  1  0.821931  0.393878  0.393878  1
