# generated using pymatgen
data_DyEr15CdIn3Rh4
_symmetry_space_group_name_H-M   'P 1'
_cell_length_a   9.57661487
_cell_length_b   9.57180783
_cell_length_c   9.57954200
_cell_angle_alpha   59.97327437
_cell_angle_beta   59.98989545
_cell_angle_gamma   60.05850160
_symmetry_Int_Tables_number   1
_chemical_formula_structural   DyEr15CdIn3Rh4
_chemical_formula_sum   'Dy1 Er15 Cd1 In3 Rh4'
_cell_volume   621.02105039
_cell_formula_units_Z   1
loop_
 _symmetry_equiv_pos_site_id
 _symmetry_equiv_pos_as_xyz
  1  'x, y, z'
loop_
 _atom_site_type_symbol
 _atom_site_label
 _atom_site_symmetry_multiplicity
 _atom_site_fract_x
 _atom_site_fract_y
 _atom_site_fract_z
 _atom_site_occupancy
  Dy  Dy0  1  0.190480  0.190897  0.809312  1
  Er  Er1  1  0.437177  0.060285  0.065651  1
  Er  Er2  1  0.437177  0.060285  0.436889  1
  Er  Er3  1  0.063230  0.435880  0.064059  1
  Er  Er4  1  0.648416  0.051125  0.650230  1
  Er  Er5  1  0.189683  0.810696  0.810520  1
  Er  Er6  1  0.062908  0.059399  0.438847  1
  Er  Er7  1  0.809625  0.190914  0.190564  1
  Er  Er8  1  0.811451  0.810583  0.188983  1
  Er  Er9  1  0.651266  0.650109  0.045601  1
  Er  Er10  1  0.651266  0.650109  0.653024  1
  Er  Er11  1  0.063230  0.435880  0.436831  1
  Er  Er12  1  0.048704  0.648436  0.651430  1
  Er  Er13  1  0.809625  0.190914  0.808898  1
  Er  Er14  1  0.436990  0.433963  0.064524  1
  Er  Er15  1  0.189683  0.810696  0.189101  1
  Cd  Cd16  1  0.418692  0.747365  0.416971  1
  In  In17  1  0.416401  0.419998  0.748404  1
  In  In18  1  0.747994  0.420035  0.415986  1
  In  In19  1  0.416401  0.419998  0.415197  1
  Rh  Rh20  1  0.857382  0.425786  0.858416  1
  Rh  Rh21  1  0.858037  0.858844  0.427116  1
  Rh  Rh22  1  0.426151  0.858958  0.857446  1
  Rh  Rh23  1  0.858037  0.858844  0.856005  1
