# generated using pymatgen
data_Yb2In(SnPd2)3
_symmetry_space_group_name_H-M   'P 1'
_cell_length_a   4.73874200
_cell_length_b   10.00513800
_cell_length_c   10.01092500
_cell_angle_alpha   90.00000000
_cell_angle_beta   90.00000000
_cell_angle_gamma   90.00000000
_symmetry_Int_Tables_number   1
_chemical_formula_structural   Yb2In(SnPd2)3
_chemical_formula_sum   'Yb4 In2 Sn6 Pd12'
_cell_volume   474.63565013
_cell_formula_units_Z   2
loop_
 _symmetry_equiv_pos_site_id
 _symmetry_equiv_pos_as_xyz
  1  'x, y, z'
loop_
 _atom_site_type_symbol
 _atom_site_label
 _atom_site_symmetry_multiplicity
 _atom_site_fract_x
 _atom_site_fract_y
 _atom_site_fract_z
 _atom_site_occupancy
  Yb  Yb0  1  0.250000  0.437995  0.729126  1
  Yb  Yb1  1  0.250000  0.062005  0.229126  1
  Yb  Yb2  1  0.750000  0.562729  0.272533  1
  Yb  Yb3  1  0.750000  0.937271  0.772533  1
  In  In4  1  0.750000  0.846355  0.111056  1
  In  In5  1  0.750000  0.653645  0.611056  1
  Sn  Sn6  1  0.250000  0.878769  0.514082  1
  Sn  Sn7  1  0.250000  0.621231  0.014082  1
  Sn  Sn8  1  0.750000  0.118293  0.486413  1
  Sn  Sn9  1  0.750000  0.381707  0.986413  1
  Sn  Sn10  1  0.250000  0.153848  0.888215  1
  Sn  Sn11  1  0.250000  0.346152  0.388215  1
  Pd  Pd12  1  0.250000  0.143566  0.611981  1
  Pd  Pd13  1  0.250000  0.356434  0.111981  1
  Pd  Pd14  1  0.750000  0.858463  0.387511  1
  Pd  Pd15  1  0.750000  0.641537  0.887511  1
  Pd  Pd16  1  0.250000  0.734840  0.743323  1
  Pd  Pd17  1  0.250000  0.765160  0.243323  1
  Pd  Pd18  1  0.750000  0.266192  0.256787  1
  Pd  Pd19  1  0.750000  0.233808  0.756787  1
  Pd  Pd20  1  0.250000  0.900910  0.977816  1
  Pd  Pd21  1  0.250000  0.599090  0.477816  1
  Pd  Pd22  1  0.750000  0.102833  0.021157  1
  Pd  Pd23  1  0.750000  0.397167  0.521157  1
