# generated using pymatgen
data_Y19ErSi15Pt
_symmetry_space_group_name_H-M   'P 1'
_cell_length_a   7.41315600
_cell_length_b   7.73843647
_cell_length_c   14.66733400
_cell_angle_alpha   90.00000000
_cell_angle_beta   90.00000000
_cell_angle_gamma   90.09910796
_symmetry_Int_Tables_number   1
_chemical_formula_structural   Y19ErSi15Pt
_chemical_formula_sum   'Y19 Er1 Si15 Pt1'
_cell_volume   841.40849584
_cell_formula_units_Z   1
loop_
 _symmetry_equiv_pos_site_id
 _symmetry_equiv_pos_as_xyz
  1  'x, y, z'
loop_
 _atom_site_type_symbol
 _atom_site_label
 _atom_site_symmetry_multiplicity
 _atom_site_fract_x
 _atom_site_fract_y
 _atom_site_fract_z
 _atom_site_occupancy
  Y  Y0  1  0.680138  0.179133  0.622812  1
  Y  Y1  1  0.186498  0.323607  0.876758  1
  Y  Y2  1  0.317784  0.820157  0.123249  1
  Y  Y3  1  0.817510  0.678066  0.376506  1
  Y  Y4  1  0.317784  0.820157  0.376751  1
  Y  Y5  1  0.817510  0.678066  0.123494  1
  Y  Y6  1  0.680138  0.179133  0.877188  1
  Y  Y7  1  0.186498  0.323607  0.623242  1
  Y  Y8  1  0.525596  0.681648  0.594314  1
  Y  Y9  1  0.027056  0.817451  0.904117  1
  Y  Y10  1  0.473135  0.316014  0.097583  1
  Y  Y11  1  0.973032  0.182968  0.402442  1
  Y  Y12  1  0.473135  0.316014  0.402417  1
  Y  Y13  1  0.973032  0.182968  0.097558  1
  Y  Y14  1  0.525596  0.681648  0.905686  1
  Y  Y15  1  0.027056  0.817451  0.595883  1
  Y  Y16  1  0.355897  0.984368  0.750000  1
  Y  Y17  1  0.148481  0.485879  0.250000  1
  Y  Y18  1  0.648779  0.012892  0.250000  1
  Er  Er19  1  0.843261  0.509388  0.750000  1
  Si  Si20  1  0.646326  0.971944  0.458974  1
  Si  Si21  1  0.145974  0.527754  0.040309  1
  Si  Si22  1  0.351905  0.026019  0.960392  1
  Si  Si23  1  0.852322  0.472750  0.539980  1
  Si  Si24  1  0.351905  0.026019  0.539608  1
  Si  Si25  1  0.852322  0.472750  0.960020  1
  Si  Si26  1  0.646326  0.971944  0.041026  1
  Si  Si27  1  0.145974  0.527754  0.459691  1
  Si  Si28  1  0.979779  0.101863  0.750000  1
  Si  Si29  1  0.521786  0.603175  0.250000  1
  Si  Si30  1  0.021741  0.895514  0.250000  1
  Si  Si31  1  0.741938  0.874977  0.750000  1
  Si  Si32  1  0.228435  0.630818  0.750000  1
  Si  Si33  1  0.266700  0.126933  0.250000  1
  Si  Si34  1  0.766065  0.373090  0.250000  1
  Pt  Pt35  1  0.482582  0.406083  0.750000  1
