# generated using pymatgen
data_Er3Th(Al3Ir)6
_symmetry_space_group_name_H-M   'P 1'
_cell_length_a   7.56529044
_cell_length_b   7.57678962
_cell_length_c   9.45267600
_cell_angle_alpha   90.00000000
_cell_angle_beta   90.00000000
_cell_angle_gamma   119.48699849
_symmetry_Int_Tables_number   1
_chemical_formula_structural   Er3Th(Al3Ir)6
_chemical_formula_sum   'Er3 Th1 Al18 Ir6'
_cell_volume   471.64813814
_cell_formula_units_Z   1
loop_
 _symmetry_equiv_pos_site_id
 _symmetry_equiv_pos_as_xyz
  1  'x, y, z'
loop_
 _atom_site_type_symbol
 _atom_site_label
 _atom_site_symmetry_multiplicity
 _atom_site_fract_x
 _atom_site_fract_y
 _atom_site_fract_z
 _atom_site_occupancy
  Er  Er0  1  0.003663  0.328066  0.750000  1
  Er  Er1  1  0.673135  0.995288  0.250000  1
  Er  Er2  1  0.327292  0.004419  0.750000  1
  Th  Th3  1  0.994906  0.671245  0.250000  1
  Al  Al4  1  0.131397  0.133215  0.250000  1
  Al  Al5  1  0.871652  0.874075  0.750000  1
  Al  Al6  1  0.001322  0.330830  0.072426  1
  Al  Al7  1  0.999274  0.664118  0.917693  1
  Al  Al8  1  0.999274  0.664118  0.582307  1
  Al  Al9  1  0.340557  0.005334  0.427526  1
  Al  Al10  1  0.001322  0.330830  0.427574  1
  Al  Al11  1  0.664436  0.000433  0.576390  1
  Al  Al12  1  0.664436  0.000433  0.923610  1
  Al  Al13  1  0.340557  0.005334  0.072474  1
  Al  Al14  1  0.332205  0.332278  0.555790  1
  Al  Al15  1  0.662839  0.666662  0.453744  1
  Al  Al16  1  0.662839  0.666662  0.046256  1
  Al  Al17  1  0.332205  0.332278  0.944210  1
  Al  Al18  1  0.344747  0.549032  0.250000  1
  Al  Al19  1  0.658045  0.448544  0.750000  1
  Al  Al20  1  0.544286  0.336739  0.250000  1
  Al  Al21  1  0.449345  0.660587  0.750000  1
  Ir  Ir22  1  0.673379  0.329326  0.000222  1
  Ir  Ir23  1  0.326379  0.671730  0.000304  1
  Ir  Ir24  1  0.326379  0.671730  0.499696  1
  Ir  Ir25  1  0.673379  0.329326  0.499778  1
  Ir  Ir26  1  0.000375  0.998682  0.000482  1
  Ir  Ir27  1  0.000375  0.998682  0.499518  1
