# generated using pymatgen
data_ErHf2Sc(Al8Pt3)3
_symmetry_space_group_name_H-M   'P 1'
_cell_length_a   7.47840259
_cell_length_b   7.47958372
_cell_length_c   12.98548924
_cell_angle_alpha   84.41217855
_cell_angle_beta   101.04938187
_cell_angle_gamma   119.92829165
_symmetry_Int_Tables_number   1
_chemical_formula_structural   ErHf2Sc(Al8Pt3)3
_chemical_formula_sum   'Er1 Hf2 Sc1 Al24 Pt9'
_cell_volume   617.81906593
_cell_formula_units_Z   1
loop_
 _symmetry_equiv_pos_site_id
 _symmetry_equiv_pos_as_xyz
  1  'x, y, z'
loop_
 _atom_site_type_symbol
 _atom_site_label
 _atom_site_symmetry_multiplicity
 _atom_site_fract_x
 _atom_site_fract_y
 _atom_site_fract_z
 _atom_site_occupancy
  Er  Er0  1  0.938290  0.332196  0.808794  1
  Hf  Hf1  1  0.732287  0.999866  0.191583  1
  Hf  Hf2  1  0.267478  0.999702  0.808699  1
  Sc  Sc3  1  0.062620  0.668464  0.192599  1
  Al  Al4  1  0.812291  0.868735  0.815551  1
  Al  Al5  1  0.186620  0.127409  0.184398  1
  Al  Al6  1  0.984381  0.668904  0.943768  1
  Al  Al7  1  0.016291  0.333673  0.060848  1
  Al  Al8  1  0.399124  0.669643  0.816631  1
  Al  Al9  1  0.604731  0.333046  0.183041  1
  Al  Al10  1  0.885403  0.666904  0.674006  1
  Al  Al11  1  0.113660  0.335294  0.323148  1
  Al  Al12  1  0.597321  0.452785  0.816074  1
  Al  Al13  1  0.400395  0.548506  0.183939  1
  Al  Al14  1  0.230490  0.337825  0.672484  1
  Al  Al15  1  0.770864  0.662176  0.324544  1
  Al  Al16  1  0.852645  0.333289  0.559313  1
  Al  Al17  1  0.186709  0.999651  0.560316  1
  Al  Al18  1  0.813213  0.000279  0.439092  1
  Al  Al19  1  0.353063  0.995204  0.059531  1
  Al  Al20  1  0.645160  0.001385  0.943611  1
  Al  Al21  1  0.555286  0.993767  0.674094  1
  Al  Al22  1  0.441658  0.004142  0.323088  1
  Al  Al23  1  0.521223  0.667167  0.563021  1
  Al  Al24  1  0.478326  0.332792  0.436158  1
  Al  Al25  1  0.688194  0.671060  0.052431  1
  Al  Al26  1  0.316064  0.329514  0.951268  1
  Al  Al27  1  0.146957  0.666898  0.439151  1
  Pt  Pt28  1  0.327610  0.670926  0.999917  1
  Pt  Pt29  1  0.545090  0.323225  0.637827  1
  Pt  Pt30  1  0.455393  0.676970  0.362096  1
  Pt  Pt31  1  0.889446  0.009373  0.639423  1
  Pt  Pt32  1  0.110295  0.990793  0.360423  1
  Pt  Pt33  1  0.671929  0.328136  0.999685  1
  Pt  Pt34  1  0.203037  0.666908  0.639527  1
  Pt  Pt35  1  0.796697  0.332646  0.360087  1
  Pt  Pt36  1  0.999761  0.000749  0.999833  1
