# generated using pymatgen
data_Pr2Ho2B4I5
_symmetry_space_group_name_H-M   'P 1'
_cell_length_a   9.78573499
_cell_length_b   9.78573488
_cell_length_c   9.71568400
_cell_angle_alpha   75.61768863
_cell_angle_beta   75.61768880
_cell_angle_gamma   25.41656018
_symmetry_Int_Tables_number   1
_chemical_formula_structural   Pr2Ho2B4I5
_chemical_formula_sum   'Pr2 Ho2 B4 I5'
_cell_volume   386.15362097
_cell_formula_units_Z   1
loop_
 _symmetry_equiv_pos_site_id
 _symmetry_equiv_pos_as_xyz
  1  'x, y, z'
loop_
 _atom_site_type_symbol
 _atom_site_label
 _atom_site_symmetry_multiplicity
 _atom_site_fract_x
 _atom_site_fract_y
 _atom_site_fract_z
 _atom_site_occupancy
  Pr  Pr0  1  0.134524  0.134524  0.930590  1
  Pr  Pr1  1  0.867443  0.867443  0.067864  1
  Ho  Ho2  1  0.502825  0.502825  0.754282  1
  Ho  Ho3  1  0.499237  0.499237  0.244468  1
  B  B4  1  0.315602  0.686355  0.999405  1
  B  B5  1  0.686355  0.315602  0.999405  1
  B  B6  1  0.001097  0.001097  0.098133  1
  B  B7  1  0.000861  0.000861  0.900653  1
  I  I8  1  0.670040  0.670040  0.666303  1
  I  I9  1  0.332059  0.332059  0.332433  1
  I  I10  1  0.330824  0.330824  0.834592  1
  I  I11  1  0.671446  0.671446  0.163242  1
  I  I12  1  0.001984  0.001984  0.498830  1
