# generated using pymatgen
data_La2YCuSe5
_symmetry_space_group_name_H-M   'P 1'
_cell_length_a   12.27450000
_cell_length_b   4.14373600
_cell_length_c   17.91029100
_cell_angle_alpha   90.00000000
_cell_angle_beta   90.00000000
_cell_angle_gamma   90.00000000
_symmetry_Int_Tables_number   1
_chemical_formula_structural   La2YCuSe5
_chemical_formula_sum   'La8 Y4 Cu4 Se20'
_cell_volume   910.95837062
_cell_formula_units_Z   4
loop_
 _symmetry_equiv_pos_site_id
 _symmetry_equiv_pos_as_xyz
  1  'x, y, z'
loop_
 _atom_site_type_symbol
 _atom_site_label
 _atom_site_symmetry_multiplicity
 _atom_site_fract_x
 _atom_site_fract_y
 _atom_site_fract_z
 _atom_site_occupancy
  La  La0  1  0.356225  0.249999  0.104096  1
  La  La1  1  0.008098  0.249999  0.174938  1
  La  La2  1  0.508098  0.249999  0.325062  1
  La  La3  1  0.856225  0.249999  0.395904  1
  La  La4  1  0.143774  0.750001  0.604096  1
  La  La5  1  0.491902  0.750001  0.674938  1
  La  La6  1  0.991902  0.750001  0.825062  1
  La  La7  1  0.643775  0.750001  0.895904  1
  Y  Y8  1  0.695026  0.750001  0.134491  1
  Y  Y9  1  0.195027  0.750001  0.365510  1
  Y  Y10  1  0.804973  0.249999  0.634491  1
  Y  Y11  1  0.304974  0.249999  0.865509  1
  Cu  Cu12  1  0.821291  0.249999  0.020304  1
  Cu  Cu13  1  0.321290  0.249999  0.479696  1
  Cu  Cu14  1  0.678709  0.750001  0.520303  1
  Cu  Cu15  1  0.178709  0.750001  0.979697  1
  Se  Se16  1  0.615425  0.249999  0.030222  1
  Se  Se17  1  0.903616  0.750001  0.070347  1
  Se  Se18  1  0.177703  0.750001  0.114893  1
  Se  Se19  1  0.481433  0.750001  0.198251  1
  Se  Se20  1  0.756402  0.249999  0.231741  1
  Se  Se21  1  0.256402  0.249999  0.268259  1
  Se  Se22  1  0.981434  0.750001  0.301748  1
  Se  Se23  1  0.677702  0.750001  0.385108  1
  Se  Se24  1  0.403616  0.750001  0.429653  1
  Se  Se25  1  0.115425  0.249999  0.469778  1
  Se  Se26  1  0.884575  0.750001  0.530222  1
  Se  Se27  1  0.596384  0.249999  0.570348  1
  Se  Se28  1  0.322298  0.249999  0.614893  1
  Se  Se29  1  0.018566  0.249999  0.698251  1
  Se  Se30  1  0.743598  0.750001  0.731741  1
  Se  Se31  1  0.243598  0.750001  0.768258  1
  Se  Se32  1  0.518567  0.249999  0.801748  1
  Se  Se33  1  0.822298  0.249999  0.885108  1
  Se  Se34  1  0.096385  0.249999  0.929653  1
  Se  Se35  1  0.384575  0.750001  0.969778  1
