# generated using pymatgen
data_La7Nd2Ho3In20
_symmetry_space_group_name_H-M   'P 1'
_cell_length_a   6.78143321
_cell_length_b   10.76058143
_cell_length_c   12.48643900
_cell_angle_alpha   90.01228917
_cell_angle_beta   90.03426882
_cell_angle_gamma   90.03650874
_symmetry_Int_Tables_number   1
_chemical_formula_structural   La7Nd2Ho3In20
_chemical_formula_sum   'La7 Nd2 Ho3 In20'
_cell_volume   911.16210949
_cell_formula_units_Z   1
loop_
 _symmetry_equiv_pos_site_id
 _symmetry_equiv_pos_as_xyz
  1  'x, y, z'
loop_
 _atom_site_type_symbol
 _atom_site_label
 _atom_site_symmetry_multiplicity
 _atom_site_fract_x
 _atom_site_fract_y
 _atom_site_fract_z
 _atom_site_occupancy
  La  La0  1  0.886764  0.489236  0.143497  1
  La  La1  1  0.613374  0.012433  0.643230  1
  La  La2  1  0.110423  0.990175  0.855308  1
  La  La3  1  0.388997  0.510649  0.356887  1
  La  La4  1  0.110255  0.509912  0.855630  1
  La  La5  1  0.389582  0.989390  0.356862  1
  La  La6  1  0.886766  0.010650  0.143647  1
  Nd  Nd7  1  0.350269  0.749924  0.060738  1
  Nd  Nd8  1  0.613322  0.487324  0.643267  1
  Ho  Ho9  1  0.151162  0.750419  0.559779  1
  Ho  Ho10  1  0.649253  0.249863  0.939211  1
  Ho  Ho11  1  0.850052  0.250264  0.440179  1
  In  In12  1  0.620095  0.748373  0.506155  1
  In  In13  1  0.873556  0.749908  0.000991  1
  In  In14  1  0.382684  0.250672  0.497200  1
  In  In15  1  0.115566  0.250132  0.996821  1
  In  In16  1  0.661699  0.749683  0.245735  1
  In  In17  1  0.843886  0.748659  0.741322  1
  In  In18  1  0.344862  0.251043  0.755865  1
  In  In19  1  0.155359  0.250095  0.257078  1
  In  In20  1  0.107136  0.749964  0.288747  1
  In  In21  1  0.393539  0.749409  0.782190  1
  In  In22  1  0.893299  0.251606  0.714780  1
  In  In23  1  0.608454  0.250107  0.216111  1
  In  In24  1  0.874730  0.544685  0.406722  1
  In  In25  1  0.624378  0.955881  0.904509  1
  In  In26  1  0.126412  0.046036  0.594444  1
  In  In27  1  0.373878  0.450579  0.094498  1
  In  In28  1  0.127774  0.455130  0.594843  1
  In  In29  1  0.373662  0.049498  0.094928  1
  In  In30  1  0.875325  0.954616  0.406235  1
  In  In31  1  0.623486  0.543685  0.902587  1
