# generated using pymatgen
data_Ho3LuCu3Sb8
_symmetry_space_group_name_H-M   'P 1'
_cell_length_a   10.50393015
_cell_length_b   10.51745122
_cell_length_c   10.50849300
_cell_angle_alpha   146.34375723
_cell_angle_beta   146.32141812
_cell_angle_gamma   48.37970680
_symmetry_Int_Tables_number   1
_chemical_formula_structural   Ho3LuCu3Sb8
_chemical_formula_sum   'Ho3 Lu1 Cu3 Sb8'
_cell_volume   355.24739968
_cell_formula_units_Z   1
loop_
 _symmetry_equiv_pos_site_id
 _symmetry_equiv_pos_as_xyz
  1  'x, y, z'
loop_
 _atom_site_type_symbol
 _atom_site_label
 _atom_site_symmetry_multiplicity
 _atom_site_fract_x
 _atom_site_fract_y
 _atom_site_fract_z
 _atom_site_occupancy
  Ho  Ho0  1  0.634821  0.633654  0.509368  1
  Ho  Ho1  1  0.125453  0.124287  0.490632  1
  Ho  Ho2  1  0.874834  0.365502  0.000000  1
  Lu  Lu3  1  0.363789  0.876269  0.000000  1
  Cu  Cu4  1  0.005297  0.996218  0.000000  1
  Cu  Cu5  1  0.001418  0.505461  0.505441  1
  Cu  Cu6  1  0.495977  0.000020  0.494559  1
  Sb  Sb7  1  0.334762  0.337961  0.518071  1
  Sb  Sb8  1  0.816691  0.819889  0.481929  1
  Sb  Sb9  1  0.667843  0.181009  0.000000  1
  Sb  Sb10  1  0.181487  0.662572  0.000000  1
  Sb  Sb11  1  0.250324  0.249352  0.000000  1
  Sb  Sb12  1  0.748633  0.749504  0.000000  1
  Sb  Sb13  1  0.748762  0.248577  0.498854  1
  Sb  Sb14  1  0.249908  0.749723  0.501146  1
