# generated using pymatgen
data_Dy7Th5Fe4
_symmetry_space_group_name_H-M   'P 1'
_cell_length_a   6.95302774
_cell_length_b   9.60376729
_cell_length_c   6.29285299
_cell_angle_alpha   90.19860759
_cell_angle_beta   89.44043931
_cell_angle_gamma   89.93422516
_symmetry_Int_Tables_number   1
_chemical_formula_structural   Dy7Th5Fe4
_chemical_formula_sum   'Dy7 Th5 Fe4'
_cell_volume   420.18404002
_cell_formula_units_Z   1
loop_
 _symmetry_equiv_pos_site_id
 _symmetry_equiv_pos_as_xyz
  1  'x, y, z'
loop_
 _atom_site_type_symbol
 _atom_site_label
 _atom_site_symmetry_multiplicity
 _atom_site_fract_x
 _atom_site_fract_y
 _atom_site_fract_z
 _atom_site_occupancy
  Dy  Dy0  1  0.330458  0.934526  0.171445  1
  Dy  Dy1  1  0.830134  0.566824  0.327700  1
  Dy  Dy2  1  0.828437  0.929560  0.327717  1
  Dy  Dy3  1  0.168985  0.069978  0.672691  1
  Dy  Dy4  1  0.169759  0.430651  0.673304  1
  Dy  Dy5  1  0.670748  0.069752  0.826742  1
  Dy  Dy6  1  0.669896  0.430509  0.826922  1
  Th  Th7  1  0.060562  0.249329  0.156188  1
  Th  Th8  1  0.332598  0.572677  0.174425  1
  Th  Th9  1  0.560790  0.249038  0.346361  1
  Th  Th10  1  0.439121  0.752308  0.660314  1
  Th  Th11  1  0.941930  0.750808  0.843287  1
  Fe  Fe12  1  0.625073  0.746293  0.022253  1
  Fe  Fe13  1  0.132273  0.746501  0.472803  1
  Fe  Fe14  1  0.869318  0.248856  0.514114  1
  Fe  Fe15  1  0.369915  0.252389  0.983725  1
