# generated using pymatgen
data_Cs2Bi4Te7
_symmetry_space_group_name_H-M   'P 1'
_cell_length_a   4.54791200
_cell_length_b   14.28199637
_cell_length_c   16.68081124
_cell_angle_alpha   85.64807545
_cell_angle_beta   90.00000000
_cell_angle_gamma   90.00000000
_symmetry_Int_Tables_number   1
_chemical_formula_structural   Cs2Bi4Te7
_chemical_formula_sum   'Cs4 Bi8 Te14'
_cell_volume   1080.34921658
_cell_formula_units_Z   2
loop_
 _symmetry_equiv_pos_site_id
 _symmetry_equiv_pos_as_xyz
  1  'x, y, z'
loop_
 _atom_site_type_symbol
 _atom_site_label
 _atom_site_symmetry_multiplicity
 _atom_site_fract_x
 _atom_site_fract_y
 _atom_site_fract_z
 _atom_site_occupancy
  Cs  Cs0  1  0.250000  0.569430  0.811838  1
  Cs  Cs1  1  0.750000  0.430570  0.188162  1
  Cs  Cs2  1  0.750000  0.823518  0.628202  1
  Cs  Cs3  1  0.250000  0.176482  0.371798  1
  Bi  Bi4  1  0.250000  0.947390  0.881069  1
  Bi  Bi5  1  0.750000  0.052610  0.118931  1
  Bi  Bi6  1  0.250000  0.832090  0.274050  1
  Bi  Bi7  1  0.750000  0.167910  0.725950  1
  Bi  Bi8  1  0.750000  0.731030  0.050812  1
  Bi  Bi9  1  0.250000  0.268970  0.949188  1
  Bi  Bi10  1  0.750000  0.608803  0.428866  1
  Bi  Bi11  1  0.250000  0.391197  0.571134  1
  Te  Te12  1  0.250000  0.459161  0.392248  1
  Te  Te13  1  0.750000  0.540839  0.607752  1
  Te  Te14  1  0.250000  0.592625  0.037183  1
  Te  Te15  1  0.750000  0.407375  0.962817  1
  Te  Te16  1  0.750000  0.986825  0.296072  1
  Te  Te17  1  0.250000  0.013175  0.703928  1
  Te  Te18  1  0.750000  0.796731  0.864570  1
  Te  Te19  1  0.250000  0.203269  0.135430  1
  Te  Te20  1  0.250000  0.758805  0.453358  1
  Te  Te21  1  0.750000  0.241195  0.546642  1
  Te  Te22  1  0.750000  0.690001  0.240348  1
  Te  Te23  1  0.250000  0.309999  0.759652  1
  Te  Te24  1  0.250000  0.901506  0.082821  1
  Te  Te25  1  0.750000  0.098494  0.917179  1
