# generated using pymatgen
data_Ca3PrTi8O20
_symmetry_space_group_name_H-M   'P 1'
_cell_length_a   5.87587400
_cell_length_b   7.73544847
_cell_length_c   8.65509990
_cell_angle_alpha   90.09263532
_cell_angle_beta   90.00000000
_cell_angle_gamma   90.00000000
_symmetry_Int_Tables_number   1
_chemical_formula_structural   Ca3PrTi8O20
_chemical_formula_sum   'Ca3 Pr1 Ti8 O20'
_cell_volume   393.39559153
_cell_formula_units_Z   1
loop_
 _symmetry_equiv_pos_site_id
 _symmetry_equiv_pos_as_xyz
  1  'x, y, z'
loop_
 _atom_site_type_symbol
 _atom_site_label
 _atom_site_symmetry_multiplicity
 _atom_site_fract_x
 _atom_site_fract_y
 _atom_site_fract_z
 _atom_site_occupancy
  Ca  Ca0  1  0.000000  0.361977  0.665314  1
  Ca  Ca1  1  0.000000  0.638748  0.335764  1
  Ca  Ca2  1  0.000000  0.852202  0.830379  1
  Pr  Pr3  1  0.000000  0.136176  0.166280  1
  Ti  Ti4  1  0.500000  0.117964  0.857338  1
  Ti  Ti5  1  0.500000  0.883602  0.142369  1
  Ti  Ti6  1  0.500000  0.614855  0.639490  1
  Ti  Ti7  1  0.500000  0.383454  0.359719  1
  Ti  Ti8  1  0.241351  0.502939  0.998376  1
  Ti  Ti9  1  0.757849  0.000140  0.504847  1
  Ti  Ti10  1  0.758649  0.502939  0.998376  1
  Ti  Ti11  1  0.242151  0.000140  0.504847  1
  O  O12  1  0.258729  0.904571  0.291133  1
  O  O13  1  0.260457  0.101777  0.707342  1
  O  O14  1  0.740170  0.394050  0.205473  1
  O  O15  1  0.738798  0.601251  0.793468  1
  O  O16  1  0.739543  0.101777  0.707342  1
  O  O17  1  0.741271  0.904571  0.291133  1
  O  O18  1  0.261202  0.601251  0.793468  1
  O  O19  1  0.259830  0.394050  0.205473  1
  O  O20  1  0.500000  0.338250  0.926000  1
  O  O21  1  0.500000  0.661238  0.076568  1
  O  O22  1  0.500000  0.837290  0.572317  1
  O  O23  1  0.500000  0.162506  0.428096  1
  O  O24  1  0.285973  0.000446  0.999368  1
  O  O25  1  0.714157  0.500019  0.499209  1
  O  O26  1  0.714027  0.000446  0.999368  1
  O  O27  1  0.285843  0.500019  0.499209  1
  O  O28  1  0.000000  0.160232  0.445696  1
  O  O29  1  0.000000  0.839815  0.555402  1
  O  O30  1  0.000000  0.660574  0.057260  1
  O  O31  1  0.000000  0.340732  0.943573  1
