# generated using pymatgen
data_Pu4Ta3WN8
_symmetry_space_group_name_H-M   'P 1'
_cell_length_a   3.27536200
_cell_length_b   5.67155279
_cell_length_c   10.87209235
_cell_angle_alpha   89.88638864
_cell_angle_beta   90.00000000
_cell_angle_gamma   90.00000000
_symmetry_Int_Tables_number   1
_chemical_formula_structural   Pu4Ta3WN8
_chemical_formula_sum   'Pu4 Ta3 W1 N8'
_cell_volume   201.96381393
_cell_formula_units_Z   1
loop_
 _symmetry_equiv_pos_site_id
 _symmetry_equiv_pos_as_xyz
  1  'x, y, z'
loop_
 _atom_site_type_symbol
 _atom_site_label
 _atom_site_symmetry_multiplicity
 _atom_site_fract_x
 _atom_site_fract_y
 _atom_site_fract_z
 _atom_site_occupancy
  Pu  Pu0  1  0.250000  0.083206  0.857499  1
  Pu  Pu1  1  0.250000  0.576191  0.639307  1
  Pu  Pu2  1  0.750000  0.918500  0.140428  1
  Pu  Pu3  1  0.750000  0.420721  0.360654  1
  Ta  Ta4  1  0.250000  0.419785  0.105574  1
  Ta  Ta5  1  0.250000  0.924083  0.399797  1
  Ta  Ta6  1  0.750000  0.580943  0.893174  1
  W  W7  1  0.750000  0.074774  0.603580  1
  N  N8  1  0.250000  0.160422  0.245932  1
  N  N9  1  0.250000  0.662591  0.256631  1
  N  N10  1  0.750000  0.841494  0.752074  1
  N  N11  1  0.750000  0.337976  0.743794  1
  N  N12  1  0.250000  0.748788  0.992382  1
  N  N13  1  0.250000  0.251461  0.508293  1
  N  N14  1  0.750000  0.253025  0.006653  1
  N  N15  1  0.750000  0.746039  0.494228  1
