# generated using pymatgen
data_Be3V3N
_symmetry_space_group_name_H-M   'P 1'
_cell_length_a   7.32277993
_cell_length_b   7.32277949
_cell_length_c   7.32277900
_cell_angle_alpha   60.00000674
_cell_angle_beta   60.00000871
_cell_angle_gamma   60.00000905
_symmetry_Int_Tables_number   1
_chemical_formula_structural   Be3V3N
_chemical_formula_sum   'Be12 V12 N4'
_cell_volume   277.65976322
_cell_formula_units_Z   4
loop_
 _symmetry_equiv_pos_site_id
 _symmetry_equiv_pos_as_xyz
  1  'x, y, z'
loop_
 _atom_site_type_symbol
 _atom_site_label
 _atom_site_symmetry_multiplicity
 _atom_site_fract_x
 _atom_site_fract_y
 _atom_site_fract_z
 _atom_site_occupancy
  Be  Be0  1  0.734338  0.421888  0.421888  1
  Be  Be1  1  0.421888  0.734338  0.421888  1
  Be  Be2  1  0.421888  0.421888  0.734338  1
  Be  Be3  1  0.421888  0.421888  0.421888  1
  Be  Be4  1  0.515662  0.828112  0.828112  1
  Be  Be5  1  0.828112  0.515662  0.828112  1
  Be  Be6  1  0.828112  0.828112  0.515662  1
  Be  Be7  1  0.828112  0.828112  0.828112  1
  Be  Be8  1  0.125000  0.625000  0.625000  1
  Be  Be9  1  0.625000  0.125000  0.625000  1
  Be  Be10  1  0.625000  0.625000  0.125000  1
  Be  Be11  1  0.625000  0.625000  0.625000  1
  V  V12  1  0.811776  0.811776  0.188224  1
  V  V13  1  0.188224  0.188224  0.811776  1
  V  V14  1  0.811776  0.188224  0.811776  1
  V  V15  1  0.188224  0.811776  0.188224  1
  V  V16  1  0.188224  0.811776  0.811776  1
  V  V17  1  0.811776  0.188224  0.188224  1
  V  V18  1  0.438224  0.438224  0.061776  1
  V  V19  1  0.061776  0.061776  0.438224  1
  V  V20  1  0.438224  0.061776  0.438224  1
  V  V21  1  0.061776  0.438224  0.061776  1
  V  V22  1  0.061776  0.438224  0.438224  1
  V  V23  1  0.438224  0.061776  0.061776  1
  N  N24  1  0.625000  0.125000  0.125000  1
  N  N25  1  0.125000  0.625000  0.125000  1
  N  N26  1  0.125000  0.125000  0.625000  1
  N  N27  1  0.125000  0.125000  0.125000  1
