# generated using pymatgen
data_ErScP7(IrRu5)2
_symmetry_space_group_name_H-M   'P 1'
_cell_length_a   9.37980206
_cell_length_b   9.44211901
_cell_length_c   3.93336500
_cell_angle_alpha   90.00000000
_cell_angle_beta   90.00000000
_cell_angle_gamma   120.14597505
_symmetry_Int_Tables_number   1
_chemical_formula_structural   ErScP7(IrRu5)2
_chemical_formula_sum   'Er1 Sc1 P7 Ir2 Ru10'
_cell_volume   301.24324777
_cell_formula_units_Z   1
loop_
 _symmetry_equiv_pos_site_id
 _symmetry_equiv_pos_as_xyz
  1  'x, y, z'
loop_
 _atom_site_type_symbol
 _atom_site_label
 _atom_site_symmetry_multiplicity
 _atom_site_fract_x
 _atom_site_fract_y
 _atom_site_fract_z
 _atom_site_occupancy
  Er  Er0  1  0.330248  0.665205  0.000000  1
  Sc  Sc1  1  0.668771  0.333919  0.500000  1
  P  P2  1  0.599991  0.717484  0.500000  1
  P  P3  1  0.000637  0.000850  0.000000  1
  P  P4  1  0.277034  0.878029  0.500000  1
  P  P5  1  0.114616  0.402279  0.500000  1
  P  P6  1  0.882859  0.573472  0.000000  1
  P  P7  1  0.428549  0.304845  0.000000  1
  P  P8  1  0.696736  0.121186  0.000000  1
  Ir  Ir9  1  0.550621  0.942986  0.500000  1
  Ir  Ir10  1  0.391246  0.447038  0.500000  1
  Ru  Ru11  1  0.913956  0.125646  0.500000  1
  Ru  Ru12  1  0.214112  0.087613  0.500000  1
  Ru  Ru13  1  0.874946  0.791599  0.500000  1
  Ru  Ru14  1  0.725604  0.891947  0.000000  1
  Ru  Ru15  1  0.109534  0.837230  0.000000  1
  Ru  Ru16  1  0.167427  0.272909  0.000000  1
  Ru  Ru17  1  0.433179  0.069615  0.000000  1
  Ru  Ru18  1  0.932968  0.360519  0.000000  1
  Ru  Ru19  1  0.639338  0.568959  0.000000  1
  Ru  Ru20  1  0.047628  0.606669  0.500000  1
