# generated using pymatgen
data_Dy(VGa2)2
_symmetry_space_group_name_H-M   'P 1'
_cell_length_a   5.37000894
_cell_length_b   5.37000818
_cell_length_c   5.37000797
_cell_angle_alpha   103.84400019
_cell_angle_beta   103.84400408
_cell_angle_gamma   121.42900190
_symmetry_Int_Tables_number   1
_chemical_formula_structural   Dy(VGa2)2
_chemical_formula_sum   'Dy1 V2 Ga4'
_cell_volume   115.24779899
_cell_formula_units_Z   1
loop_
 _symmetry_equiv_pos_site_id
 _symmetry_equiv_pos_as_xyz
  1  'x, y, z'
loop_
 _atom_site_type_symbol
 _atom_site_label
 _atom_site_symmetry_multiplicity
 _atom_site_fract_x
 _atom_site_fract_y
 _atom_site_fract_z
 _atom_site_occupancy
  Dy  Dy0  1  0.000000  0.000000  0.000000  1
  V  V1  1  0.250000  0.750000  0.500000  1
  V  V2  1  0.750000  0.250000  0.500000  1
  Ga  Ga3  1  0.302939  0.302939  0.605878  1
  Ga  Ga4  1  0.697061  0.697061  0.394122  1
  Ga  Ga5  1  0.697061  0.302939  0.000000  1
  Ga  Ga6  1  0.302939  0.697061  0.000000  1
