# generated using pymatgen
data_Tm8MgAgRh2
_symmetry_space_group_name_H-M   'P 1'
_cell_length_a   9.49457950
_cell_length_b   9.49457919
_cell_length_c   9.52231800
_cell_angle_alpha   59.90330204
_cell_angle_beta   59.90330315
_cell_angle_gamma   59.88002287
_symmetry_Int_Tables_number   1
_chemical_formula_structural   Tm8MgAgRh2
_chemical_formula_sum   'Tm16 Mg2 Ag2 Rh4'
_cell_volume   605.54810975
_cell_formula_units_Z   2
loop_
 _symmetry_equiv_pos_site_id
 _symmetry_equiv_pos_as_xyz
  1  'x, y, z'
loop_
 _atom_site_type_symbol
 _atom_site_label
 _atom_site_symmetry_multiplicity
 _atom_site_fract_x
 _atom_site_fract_y
 _atom_site_fract_z
 _atom_site_occupancy
  Tm  Tm0  1  0.598507  0.598507  0.596167  1
  Tm  Tm1  1  0.598507  0.598507  0.206820  1
  Tm  Tm2  1  0.600337  0.202984  0.598339  1
  Tm  Tm3  1  0.202984  0.600337  0.598339  1
  Tm  Tm4  1  0.061429  0.437081  0.438559  1
  Tm  Tm5  1  0.437081  0.061429  0.062931  1
  Tm  Tm6  1  0.437081  0.061429  0.438559  1
  Tm  Tm7  1  0.061429  0.437081  0.062931  1
  Tm  Tm8  1  0.437008  0.437008  0.062992  1
  Tm  Tm9  1  0.059974  0.059974  0.440026  1
  Tm  Tm10  1  0.181705  0.814080  0.815197  1
  Tm  Tm11  1  0.814080  0.181705  0.189018  1
  Tm  Tm12  1  0.814080  0.181705  0.815197  1
  Tm  Tm13  1  0.181705  0.814080  0.189018  1
  Tm  Tm14  1  0.813666  0.813666  0.186334  1
  Tm  Tm15  1  0.184839  0.184839  0.815161  1
  Mg  Mg16  1  0.830954  0.520005  0.824521  1
  Mg  Mg17  1  0.520005  0.830954  0.824521  1
  Ag  Ag18  1  0.832440  0.832440  0.833065  1
  Ag  Ag19  1  0.832440  0.832440  0.502055  1
  Rh  Rh20  1  0.392270  0.392270  0.392463  1
  Rh  Rh21  1  0.392270  0.392270  0.822996  1
  Rh  Rh22  1  0.391738  0.823471  0.392395  1
  Rh  Rh23  1  0.823471  0.391738  0.392395  1
