# generated using pymatgen
data_Lu2Ti3Co9P7
_symmetry_space_group_name_H-M   'P 1'
_cell_length_a   9.16032300
_cell_length_b   9.15899873
_cell_length_c   3.62482100
_cell_angle_alpha   90.00000000
_cell_angle_beta   90.00000000
_cell_angle_gamma   119.97382307
_symmetry_Int_Tables_number   1
_chemical_formula_structural   Lu2Ti3Co9P7
_chemical_formula_sum   'Lu2 Ti3 Co9 P7'
_cell_volume   263.44531484
_cell_formula_units_Z   1
loop_
 _symmetry_equiv_pos_site_id
 _symmetry_equiv_pos_as_xyz
  1  'x, y, z'
loop_
 _atom_site_type_symbol
 _atom_site_label
 _atom_site_symmetry_multiplicity
 _atom_site_fract_x
 _atom_site_fract_y
 _atom_site_fract_z
 _atom_site_occupancy
  Lu  Lu0  1  0.666696  0.333277  0.000000  1
  Lu  Lu1  1  0.999964  0.000183  0.500000  1
  Ti  Ti2  1  0.557393  0.772919  0.500000  1
  Ti  Ti3  1  0.227261  0.784704  0.500000  1
  Ti  Ti4  1  0.215424  0.442519  0.500000  1
  Co  Co5  1  0.764083  0.730116  0.000000  1
  Co  Co6  1  0.269817  0.033908  0.000000  1
  Co  Co7  1  0.965889  0.235729  0.000000  1
  Co  Co8  1  0.495905  0.950023  0.000000  1
  Co  Co9  1  0.049787  0.545831  0.000000  1
  Co  Co10  1  0.454244  0.503942  0.000000  1
  Co  Co11  1  0.723558  0.108024  0.500000  1
  Co  Co12  1  0.892152  0.615466  0.500000  1
  Co  Co13  1  0.384504  0.276736  0.500000  1
  P  P14  1  0.459482  0.080309  0.500000  1
  P  P15  1  0.919696  0.379133  0.500000  1
  P  P16  1  0.620799  0.540500  0.500000  1
  P  P17  1  0.753031  0.973837  0.000000  1
  P  P18  1  0.026151  0.779220  0.000000  1
  P  P19  1  0.220804  0.246952  0.000000  1
  P  P20  1  0.333359  0.666672  0.000000  1
