# generated using pymatgen
data_TbHo3ScBi3
_symmetry_space_group_name_H-M   'P 1'
_cell_length_a   8.12734300
_cell_length_b   9.42318000
_cell_length_c   11.96071900
_cell_angle_alpha   90.00000000
_cell_angle_beta   90.00000000
_cell_angle_gamma   90.00000000
_symmetry_Int_Tables_number   1
_chemical_formula_structural   TbHo3ScBi3
_chemical_formula_sum   'Tb4 Ho12 Sc4 Bi12'
_cell_volume   916.01664040
_cell_formula_units_Z   4
loop_
 _symmetry_equiv_pos_site_id
 _symmetry_equiv_pos_as_xyz
  1  'x, y, z'
loop_
 _atom_site_type_symbol
 _atom_site_label
 _atom_site_symmetry_multiplicity
 _atom_site_fract_x
 _atom_site_fract_y
 _atom_site_fract_z
 _atom_site_occupancy
  Tb  Tb0  1  0.316503  0.250000  0.218923  1
  Tb  Tb1  1  0.816503  0.250000  0.281077  1
  Tb  Tb2  1  0.683497  0.750000  0.781077  1
  Tb  Tb3  1  0.183497  0.750000  0.718923  1
  Ho  Ho4  1  0.352428  0.750000  0.217078  1
  Ho  Ho5  1  0.852428  0.750000  0.282922  1
  Ho  Ho6  1  0.647572  0.250000  0.782922  1
  Ho  Ho7  1  0.147572  0.250000  0.717078  1
  Ho  Ho8  1  0.693917  0.564912  0.059524  1
  Ho  Ho9  1  0.193917  0.935088  0.440476  1
  Ho  Ho10  1  0.306083  0.064912  0.940476  1
  Ho  Ho11  1  0.806083  0.435088  0.559524  1
  Ho  Ho12  1  0.306083  0.435088  0.940476  1
  Ho  Ho13  1  0.806083  0.064912  0.559524  1
  Ho  Ho14  1  0.693917  0.935088  0.059524  1
  Ho  Ho15  1  0.193917  0.564912  0.440476  1
  Sc  Sc16  1  0.477910  0.250000  0.487230  1
  Sc  Sc17  1  0.977910  0.250000  0.012770  1
  Sc  Sc18  1  0.522090  0.750000  0.512770  1
  Sc  Sc19  1  0.022090  0.750000  0.987230  1
  Bi  Bi20  1  0.400574  0.750000  0.959444  1
  Bi  Bi21  1  0.900574  0.750000  0.540556  1
  Bi  Bi22  1  0.599426  0.250000  0.040556  1
  Bi  Bi23  1  0.099426  0.250000  0.459444  1
  Bi  Bi24  1  0.565144  0.995193  0.331428  1
  Bi  Bi25  1  0.065144  0.504807  0.168572  1
  Bi  Bi26  1  0.434856  0.495193  0.668572  1
  Bi  Bi27  1  0.934856  0.004807  0.831428  1
  Bi  Bi28  1  0.434856  0.004807  0.668572  1
  Bi  Bi29  1  0.934856  0.495193  0.831428  1
  Bi  Bi30  1  0.565144  0.504807  0.331428  1
  Bi  Bi31  1  0.065144  0.995193  0.168572  1
