# generated using pymatgen
data_Lu3Mn(TcGe3)2
_symmetry_space_group_name_H-M   'P 1'
_cell_length_a   9.66094247
_cell_length_b   5.45968858
_cell_length_c   8.38963100
_cell_angle_alpha   90.00000000
_cell_angle_beta   90.00000000
_cell_angle_gamma   106.86711306
_symmetry_Int_Tables_number   1
_chemical_formula_structural   Lu3Mn(TcGe3)2
_chemical_formula_sum   'Lu6 Mn2 Tc4 Ge12'
_cell_volume   423.48030594
_cell_formula_units_Z   2
loop_
 _symmetry_equiv_pos_site_id
 _symmetry_equiv_pos_as_xyz
  1  'x, y, z'
loop_
 _atom_site_type_symbol
 _atom_site_label
 _atom_site_symmetry_multiplicity
 _atom_site_fract_x
 _atom_site_fract_y
 _atom_site_fract_z
 _atom_site_occupancy
  Lu  Lu0  1  0.188884  0.095883  0.252931  1
  Lu  Lu1  1  0.811116  0.904117  0.252931  1
  Lu  Lu2  1  0.719380  0.359636  0.500000  1
  Lu  Lu3  1  0.280619  0.640364  0.500000  1
  Lu  Lu4  1  0.188884  0.095883  0.747068  1
  Lu  Lu5  1  0.811116  0.904117  0.747068  1
  Mn  Mn6  1  0.500000  0.000000  0.252063  1
  Mn  Mn7  1  0.500000  0.000000  0.747937  1
  Tc  Tc8  1  0.000000  0.500000  0.248528  1
  Tc  Tc9  1  0.500000  0.499999  0.252731  1
  Tc  Tc10  1  0.500000  0.499999  0.747269  1
  Tc  Tc11  1  0.000000  0.500000  0.751472  1
  Ge  Ge12  1  0.418906  0.210056  0.000000  1
  Ge  Ge13  1  0.001001  0.234236  0.000000  1
  Ge  Ge14  1  0.998999  0.765764  0.000000  1
  Ge  Ge15  1  0.581093  0.789944  0.000000  1
  Ge  Ge16  1  0.723669  0.359319  0.153887  1
  Ge  Ge17  1  0.276330  0.640681  0.153887  1
  Ge  Ge18  1  0.403563  0.201670  0.500000  1
  Ge  Ge19  1  0.001138  0.237735  0.500000  1
  Ge  Ge20  1  0.998862  0.762265  0.500000  1
  Ge  Ge21  1  0.596436  0.798330  0.500000  1
  Ge  Ge22  1  0.723669  0.359319  0.846114  1
  Ge  Ge23  1  0.276330  0.640681  0.846114  1
