# generated using pymatgen
data_Cs2Cd2SiGeAs4
_symmetry_space_group_name_H-M   'P 1'
_cell_length_a   8.88343116
_cell_length_b   8.74815233
_cell_length_c   8.88138289
_cell_angle_alpha   70.87793663
_cell_angle_beta   75.80136814
_cell_angle_gamma   72.87449491
_symmetry_Int_Tables_number   1
_chemical_formula_structural   Cs2Cd2SiGeAs4
_chemical_formula_sum   'Cs4 Cd4 Si2 Ge2 As8'
_cell_volume   614.68372648
_cell_formula_units_Z   2
loop_
 _symmetry_equiv_pos_site_id
 _symmetry_equiv_pos_as_xyz
  1  'x, y, z'
loop_
 _atom_site_type_symbol
 _atom_site_label
 _atom_site_symmetry_multiplicity
 _atom_site_fract_x
 _atom_site_fract_y
 _atom_site_fract_z
 _atom_site_occupancy
  Cs  Cs0  1  0.445719  0.765520  0.321006  1
  Cs  Cs1  1  0.554281  0.234480  0.678994  1
  Cs  Cs2  1  0.434323  0.801161  0.816189  1
  Cs  Cs3  1  0.565677  0.198839  0.183811  1
  Cd  Cd4  1  0.995831  0.896089  0.690060  1
  Cd  Cd5  1  0.004169  0.103911  0.309940  1
  Cd  Cd6  1  0.964873  0.813777  0.171196  1
  Cd  Cd7  1  0.035127  0.186223  0.828804  1
  Si  Si8  1  0.139025  0.450067  0.978717  1
  Si  Si9  1  0.860975  0.549933  0.021283  1
  Ge  Ge10  1  0.962290  0.586768  0.599229  1
  Ge  Ge11  1  0.037710  0.413232  0.400771  1
  As  As12  1  0.817451  0.872277  0.461036  1
  As  As13  1  0.182549  0.127723  0.538964  1
  As  As14  1  0.793047  0.411877  0.303342  1
  As  As15  1  0.206953  0.588123  0.696658  1
  As  As16  1  0.778396  0.848940  0.961343  1
  As  As17  1  0.221604  0.151060  0.038657  1
  As  As18  1  0.779754  0.451447  0.834738  1
  As  As19  1  0.220246  0.548553  0.165262  1
