# generated using pymatgen
data_K8Ti6BBr20
_symmetry_space_group_name_H-M   'P 1'
_cell_length_a   11.51539664
_cell_length_b   11.51476925
_cell_length_c   11.51670702
_cell_angle_alpha   59.99803893
_cell_angle_beta   59.99262245
_cell_angle_gamma   60.00912305
_symmetry_Int_Tables_number   1
_chemical_formula_structural   K8Ti6BBr20
_chemical_formula_sum   'K8 Ti6 B1 Br20'
_cell_volume   1079.80848418
_cell_formula_units_Z   1
loop_
 _symmetry_equiv_pos_site_id
 _symmetry_equiv_pos_as_xyz
  1  'x, y, z'
loop_
 _atom_site_type_symbol
 _atom_site_label
 _atom_site_symmetry_multiplicity
 _atom_site_fract_x
 _atom_site_fract_y
 _atom_site_fract_z
 _atom_site_occupancy
  K  K0  1  0.360945  0.360940  0.360965  1
  K  K1  1  0.639055  0.639060  0.639035  1
  K  K2  1  0.360938  0.360944  0.917152  1
  K  K3  1  0.360967  0.917152  0.360945  1
  K  K4  1  0.639062  0.639056  0.082848  1
  K  K5  1  0.639033  0.082848  0.639055  1
  K  K6  1  0.917150  0.360968  0.360939  1
  K  K7  1  0.082850  0.639032  0.639061  1
  Ti  Ti8  1  0.865537  0.134464  0.134464  1
  Ti  Ti9  1  0.134463  0.865536  0.865536  1
  Ti  Ti10  1  0.134446  0.865554  0.134446  1
  Ti  Ti11  1  0.865554  0.134446  0.865554  1
  Ti  Ti12  1  0.134506  0.134506  0.865494  1
  Ti  Ti13  1  0.865494  0.865494  0.134506  1
  B  B14  1  0.000000  0.000000  0.000000  1
  Br  Br15  1  0.315695  0.000050  0.999950  1
  Br  Br16  1  0.684305  0.999950  0.000050  1
  Br  Br17  1  0.000050  0.315695  0.684305  1
  Br  Br18  1  0.999950  0.684305  0.315695  1
  Br  Br19  1  0.000061  0.315710  0.999939  1
  Br  Br20  1  0.684290  0.999939  0.315710  1
  Br  Br21  1  0.999939  0.684290  0.000061  1
  Br  Br22  1  0.315710  0.000061  0.684290  1
  Br  Br23  1  0.000012  0.999989  0.315696  1
  Br  Br24  1  0.999988  0.000011  0.684304  1
  Br  Br25  1  0.684304  0.315696  0.999988  1
  Br  Br26  1  0.315696  0.684304  0.000012  1
  Br  Br27  1  0.689584  0.310416  0.310416  1
  Br  Br28  1  0.310416  0.689584  0.689584  1
  Br  Br29  1  0.310393  0.689607  0.310393  1
  Br  Br30  1  0.689607  0.310393  0.689607  1
  Br  Br31  1  0.310423  0.310423  0.689577  1
  Br  Br32  1  0.689577  0.689577  0.310423  1
  Br  Br33  1  0.250000  0.250000  0.250000  1
  Br  Br34  1  0.750000  0.750000  0.750000  1
