# generated using pymatgen
data_Lu5HfBi2Mo
_symmetry_space_group_name_H-M   'P 1'
_cell_length_a   8.06757290
_cell_length_b   8.06098133
_cell_length_c   4.26945000
_cell_angle_alpha   90.00000000
_cell_angle_beta   90.00000000
_cell_angle_gamma   119.97297147
_symmetry_Int_Tables_number   1
_chemical_formula_structural   Lu5HfBi2Mo
_chemical_formula_sum   'Lu5 Hf1 Bi2 Mo1'
_cell_volume   240.52022213
_cell_formula_units_Z   1
loop_
 _symmetry_equiv_pos_site_id
 _symmetry_equiv_pos_as_xyz
  1  'x, y, z'
loop_
 _atom_site_type_symbol
 _atom_site_label
 _atom_site_symmetry_multiplicity
 _atom_site_fract_x
 _atom_site_fract_y
 _atom_site_fract_z
 _atom_site_occupancy
  Lu  Lu0  1  0.616499  0.003962  0.500000  1
  Lu  Lu1  1  0.383501  0.387463  0.500000  1
  Lu  Lu2  1  0.000000  0.607237  0.500000  1
  Lu  Lu3  1  0.765572  0.769163  0.000000  1
  Lu  Lu4  1  0.234428  0.003591  0.000000  1
  Hf  Hf5  1  0.000000  0.224801  0.000000  1
  Bi  Bi6  1  0.671135  0.332938  0.000000  1
  Bi  Bi7  1  0.328865  0.661804  0.000000  1
  Mo  Mo8  1  0.000000  0.009042  0.500000  1
