# generated using pymatgen
data_Na4TbAuO6
_symmetry_space_group_name_H-M   'P 1'
_cell_length_a   5.74250126
_cell_length_b   5.74250543
_cell_length_c   5.87996313
_cell_angle_alpha   99.36350633
_cell_angle_beta   99.36372935
_cell_angle_gamma   120.01738483
_symmetry_Int_Tables_number   1
_chemical_formula_structural   Na4TbAuO6
_chemical_formula_sum   'Na4 Tb1 Au1 O6'
_cell_volume   158.75044106
_cell_formula_units_Z   1
loop_
 _symmetry_equiv_pos_site_id
 _symmetry_equiv_pos_as_xyz
  1  'x, y, z'
loop_
 _atom_site_type_symbol
 _atom_site_label
 _atom_site_symmetry_multiplicity
 _atom_site_fract_x
 _atom_site_fract_y
 _atom_site_fract_z
 _atom_site_occupancy
  Na  Na0  1  0.501055  0.498948  0.000003  1
  Na  Na1  1  0.982386  0.017610  0.499998  1
  Na  Na2  1  0.667853  0.332148  0.500000  1
  Na  Na3  1  0.344019  0.655982  0.500000  1
  Tb  Tb4  1  0.166803  0.833197  0.000001  1
  Au  Au5  1  0.833653  0.166348  0.999999  1
  O  O6  1  0.598330  0.946236  0.211713  1
  O  O7  1  0.921853  0.542805  0.218376  1
  O  O8  1  0.197107  0.224015  0.218772  1
  O  O9  1  0.775987  0.802894  0.781229  1
  O  O10  1  0.457193  0.078145  0.781624  1
  O  O11  1  0.053764  0.401672  0.788287  1
