# generated using pymatgen
data_SmAs2Rh3
_symmetry_space_group_name_H-M   'P 1'
_cell_length_a   8.47604625
_cell_length_b   8.47604628
_cell_length_c   9.94743320
_cell_angle_alpha   72.60766686
_cell_angle_beta   72.60766792
_cell_angle_gamma   27.59070014
_symmetry_Int_Tables_number   1
_chemical_formula_structural   SmAs2Rh3
_chemical_formula_sum   'Sm3 As6 Rh9'
_cell_volume   314.92639901
_cell_formula_units_Z   3
loop_
 _symmetry_equiv_pos_site_id
 _symmetry_equiv_pos_as_xyz
  1  'x, y, z'
loop_
 _atom_site_type_symbol
 _atom_site_label
 _atom_site_symmetry_multiplicity
 _atom_site_fract_x
 _atom_site_fract_y
 _atom_site_fract_z
 _atom_site_occupancy
  Sm  Sm0  1  0.844127  0.844127  0.695946  1
  Sm  Sm1  1  0.155873  0.155873  0.304054  1
  Sm  Sm2  1  0.000000  0.000000  0.000000  1
  As  As3  1  0.803807  0.803807  0.129117  1
  As  As4  1  0.196193  0.196193  0.870883  1
  As  As5  1  0.539631  0.539631  0.218737  1
  As  As6  1  0.460369  0.460369  0.781263  1
  As  As7  1  0.637710  0.637710  0.544828  1
  As  As8  1  0.362290  0.362290  0.455172  1
  Rh  Rh9  1  0.957983  0.957983  0.327405  1
  Rh  Rh10  1  0.042017  0.042017  0.672595  1
  Rh  Rh11  1  0.780545  0.780545  0.391927  1
  Rh  Rh12  1  0.219455  0.219455  0.608073  1
  Rh  Rh13  1  0.377460  0.377460  0.205873  1
  Rh  Rh14  1  0.622540  0.622540  0.794127  1
  Rh  Rh15  1  0.500000  0.500000  0.500000  1
  Rh  Rh16  1  0.679685  0.679685  0.038623  1
  Rh  Rh17  1  0.320315  0.320315  0.961377  1
