# generated using pymatgen
data_DyY5Al6V4O24
_symmetry_space_group_name_H-M   'P 1'
_cell_length_a   10.68199025
_cell_length_b   10.66729981
_cell_length_c   10.67506781
_cell_angle_alpha   109.49262222
_cell_angle_beta   109.54882377
_cell_angle_gamma   109.37083014
_symmetry_Int_Tables_number   1
_chemical_formula_structural   DyY5Al6V4O24
_chemical_formula_sum   'Dy2 Y10 Al12 V8 O48'
_cell_volume   936.40136132
_cell_formula_units_Z   2
loop_
 _symmetry_equiv_pos_site_id
 _symmetry_equiv_pos_as_xyz
  1  'x, y, z'
loop_
 _atom_site_type_symbol
 _atom_site_label
 _atom_site_symmetry_multiplicity
 _atom_site_fract_x
 _atom_site_fract_y
 _atom_site_fract_z
 _atom_site_occupancy
  Dy  Dy0  1  0.374174  0.750588  0.125367  1
  Dy  Dy1  1  0.251208  0.374779  0.125364  1
  Y  Y2  1  0.374464  0.124465  0.248927  1
  Y  Y3  1  0.874593  0.624575  0.249159  1
  Y  Y4  1  0.750317  0.125259  0.374623  1
  Y  Y5  1  0.124308  0.249360  0.374626  1
  Y  Y6  1  0.249631  0.874680  0.625379  1
  Y  Y7  1  0.875747  0.750701  0.625375  1
  Y  Y8  1  0.125452  0.375470  0.750932  1
  Y  Y9  1  0.625470  0.875470  0.750941  1
  Y  Y10  1  0.748936  0.625313  0.874686  1
  Y  Y11  1  0.625734  0.249370  0.874683  1
  Al  Al12  1  0.875159  0.249995  0.125056  1
  Al  Al13  1  0.749895  0.875058  0.125056  1
  Al  Al14  1  0.124650  0.874925  0.249339  1
  Al  Al15  1  0.624686  0.374417  0.249346  1
  Al  Al16  1  0.249793  0.625172  0.374358  1
  Al  Al17  1  0.624566  0.749192  0.374357  1
  Al  Al18  1  0.750238  0.374785  0.625450  1
  Al  Al19  1  0.375214  0.250661  0.625450  1
  Al  Al20  1  0.875592  0.125113  0.750804  1
  Al  Al21  1  0.375215  0.625687  0.750801  1
  Al  Al22  1  0.249940  0.124966  0.875005  1
  Al  Al23  1  0.125068  0.750043  0.875004  1
  V  V24  1  0.000133  0.000238  0.000106  1
  V  V25  1  0.499974  0.999867  0.000103  1
  V  V26  1  0.499865  0.500100  0.000148  1
  V  V27  1  0.000282  0.500049  0.000144  1
  V  V28  1  0.499928  0.999781  0.499742  1
  V  V29  1  0.000013  0.500010  0.499994  1
  V  V30  1  0.999980  0.999980  0.499989  1
  V  V31  1  0.499812  0.499958  0.499741  1
  O  O32  1  0.209585  0.123246  0.024183  1
  O  O33  1  0.314612  0.900944  0.024176  1
  O  O34  1  0.711926  0.686408  0.086868  1
  O  O35  1  0.874935  0.400454  0.086868  1
  O  O36  1  0.977194  0.684310  0.099811  1
  O  O37  1  0.622599  0.415514  0.099808  1
  O  O38  1  0.598745  0.912676  0.123917  1
  O  O39  1  0.025164  0.211230  0.123917  1
  O  O40  1  0.209261  0.585565  0.184707  1
  O  O41  1  0.475429  0.599149  0.184729  1
  O  O42  1  0.585601  0.184213  0.207761  1
  O  O43  1  0.122160  0.023549  0.207754  1
  O  O44  1  0.475206  0.375215  0.288272  1
  O  O45  1  0.313060  0.913053  0.288266  1
  O  O46  1  0.913669  0.290148  0.314659  1
  O  O47  1  0.900988  0.024526  0.314644  1
  O  O48  1  0.291792  0.476890  0.377169  1
  O  O49  1  0.585376  0.900289  0.377180  1
  O  O50  1  0.815041  0.521979  0.400016  1
  O  O51  1  0.084976  0.878047  0.400022  1
  O  O52  1  0.813831  0.789079  0.414123  1
  O  O53  1  0.100290  0.625051  0.414115  1
  O  O54  1  0.377531  0.291979  0.476491  1
  O  O55  1  0.598954  0.184514  0.476486  1
  O  O56  1  0.400957  0.815382  0.523377  1
  O  O57  1  0.622421  0.707990  0.523373  1
  O  O58  1  0.899784  0.374884  0.585793  1
  O  O59  1  0.186002  0.210893  0.585784  1
  O  O60  1  0.915099  0.122042  0.600061  1
  O  O61  1  0.184968  0.478013  0.600067  1
  O  O62  1  0.708141  0.522987  0.622392  1
  O  O63  1  0.414250  0.099393  0.622379  1
  O  O64  1  0.098914  0.975511  0.685347  1
  O  O65  1  0.086419  0.709803  0.685331  1
  O  O66  1  0.686992  0.086542  0.711276  1
  O  O67  1  0.524284  0.624733  0.711273  1
  O  O68  1  0.414379  0.815876  0.792318  1
  O  O69  1  0.877940  0.976441  0.792325  1
  O  O70  1  0.791213  0.414499  0.815179  1
  O  O71  1  0.523982  0.400674  0.815157  1
  O  O72  1  0.975367  0.789231  0.876177  1
  O  O73  1  0.400818  0.086956  0.876176  1
  O  O74  1  0.023279  0.315689  0.900633  1
  O  O75  1  0.377369  0.584932  0.900637  1
  O  O76  1  0.288018  0.313717  0.913436  1
  O  O77  1  0.125423  0.599725  0.913435  1
  O  O78  1  0.685615  0.098906  0.976043  1
  O  O79  1  0.790409  0.877124  0.976038  1
