# generated using pymatgen
data_GeIr(SeF6)4
_symmetry_space_group_name_H-M   'P 1'
_cell_length_a   6.14964100
_cell_length_b   7.84891426
_cell_length_c   9.92324654
_cell_angle_alpha   89.20129041
_cell_angle_beta   90.00000000
_cell_angle_gamma   90.00000000
_symmetry_Int_Tables_number   1
_chemical_formula_structural   GeIr(SeF6)4
_chemical_formula_sum   'Ge1 Ir1 Se4 F24'
_cell_volume   478.92877510
_cell_formula_units_Z   1
loop_
 _symmetry_equiv_pos_site_id
 _symmetry_equiv_pos_as_xyz
  1  'x, y, z'
loop_
 _atom_site_type_symbol
 _atom_site_label
 _atom_site_symmetry_multiplicity
 _atom_site_fract_x
 _atom_site_fract_y
 _atom_site_fract_z
 _atom_site_occupancy
  Ge  Ge0  1  0.500000  0.000000  0.500000  1
  Ir  Ir1  1  0.000000  0.500000  0.000000  1
  Se  Se2  1  0.500000  0.588755  0.247562  1
  Se  Se3  1  0.500000  0.411245  0.752438  1
  Se  Se4  1  0.000000  0.086662  0.259104  1
  Se  Se5  1  0.000000  0.913338  0.740896  1
  F  F6  1  0.223666  0.360828  0.915752  1
  F  F7  1  0.223666  0.639172  0.084248  1
  F  F8  1  0.289072  0.873577  0.586034  1
  F  F9  1  0.289072  0.126423  0.413966  1
  F  F10  1  0.776334  0.639172  0.084248  1
  F  F11  1  0.776334  0.360828  0.915752  1
  F  F12  1  0.795284  0.959150  0.855476  1
  F  F13  1  0.795284  0.040850  0.144524  1
  F  F14  1  0.705578  0.464577  0.640158  1
  F  F15  1  0.705578  0.535423  0.359842  1
  F  F16  1  0.204716  0.040850  0.144524  1
  F  F17  1  0.204716  0.959150  0.855476  1
  F  F18  1  0.294422  0.535423  0.359842  1
  F  F19  1  0.294422  0.464577  0.640158  1
  F  F20  1  0.000000  0.650566  0.834597  1
  F  F21  1  0.000000  0.349434  0.165403  1
  F  F22  1  0.500000  0.151327  0.640800  1
  F  F23  1  0.500000  0.848673  0.359200  1
  F  F24  1  0.500000  0.614217  0.820439  1
  F  F25  1  0.500000  0.385783  0.179561  1
  F  F26  1  0.000000  0.122972  0.679301  1
  F  F27  1  0.000000  0.877028  0.320699  1
  F  F28  1  0.710928  0.873577  0.586034  1
  F  F29  1  0.710928  0.126423  0.413966  1
