# generated using pymatgen
data_Sn5B2Ir5Rh
_symmetry_space_group_name_H-M   'P 1'
_cell_length_a   6.70290070
_cell_length_b   6.70965781
_cell_length_c   5.64861325
_cell_angle_alpha   90.15630341
_cell_angle_beta   89.92176797
_cell_angle_gamma   120.03336345
_symmetry_Int_Tables_number   1
_chemical_formula_structural   Sn5B2Ir5Rh
_chemical_formula_sum   'Sn5 B2 Ir5 Rh1'
_cell_volume   219.93173931
_cell_formula_units_Z   1
loop_
 _symmetry_equiv_pos_site_id
 _symmetry_equiv_pos_as_xyz
  1  'x, y, z'
loop_
 _atom_site_type_symbol
 _atom_site_label
 _atom_site_symmetry_multiplicity
 _atom_site_fract_x
 _atom_site_fract_y
 _atom_site_fract_z
 _atom_site_occupancy
  Sn  Sn0  1  0.403058  0.403737  0.000119  1
  Sn  Sn1  1  0.596942  0.000679  0.000119  1
  Sn  Sn2  1  0.000000  0.595195  0.000320  1
  Sn  Sn3  1  0.667181  0.333188  0.497408  1
  Sn  Sn4  1  0.332819  0.666008  0.497408  1
  B  B5  1  0.000000  0.000131  0.500025  1
  B  B6  1  0.000000  0.998898  0.001362  1
  Ir  Ir7  1  0.251576  0.001230  0.745926  1
  Ir  Ir8  1  0.747515  0.746861  0.255512  1
  Ir  Ir9  1  0.000000  0.251234  0.254564  1
  Ir  Ir10  1  0.252485  0.999346  0.255512  1
  Ir  Ir11  1  0.748424  0.749655  0.745926  1
  Rh  Rh12  1  0.000000  0.253838  0.745800  1
