# generated using pymatgen
data_Dy3Ho13Cd3AgIr4
_symmetry_space_group_name_H-M   'P 1'
_cell_length_a   9.59015925
_cell_length_b   9.58934799
_cell_length_c   9.58873894
_cell_angle_alpha   59.88331961
_cell_angle_beta   59.86590731
_cell_angle_gamma   59.87059771
_symmetry_Int_Tables_number   1
_chemical_formula_structural   Dy3Ho13Cd3AgIr4
_chemical_formula_sum   'Dy3 Ho13 Cd3 Ag1 Ir4'
_cell_volume   621.74282079
_cell_formula_units_Z   1
loop_
 _symmetry_equiv_pos_site_id
 _symmetry_equiv_pos_as_xyz
  1  'x, y, z'
loop_
 _atom_site_type_symbol
 _atom_site_label
 _atom_site_symmetry_multiplicity
 _atom_site_fract_x
 _atom_site_fract_y
 _atom_site_fract_z
 _atom_site_occupancy
  Dy  Dy0  1  0.187129  0.811418  0.187104  1
  Dy  Dy1  1  0.811816  0.812076  0.185682  1
  Dy  Dy2  1  0.186849  0.187129  0.811467  1
  Ho  Ho3  1  0.598893  0.598849  0.598923  1
  Ho  Ho4  1  0.599964  0.599808  0.202130  1
  Ho  Ho5  1  0.599888  0.201995  0.599954  1
  Ho  Ho6  1  0.202023  0.599805  0.600050  1
  Ho  Ho7  1  0.060253  0.439032  0.439302  1
  Ho  Ho8  1  0.438019  0.060490  0.060450  1
  Ho  Ho9  1  0.439275  0.060309  0.439155  1
  Ho  Ho10  1  0.060420  0.437829  0.060491  1
  Ho  Ho11  1  0.439499  0.439132  0.060127  1
  Ho  Ho12  1  0.060338  0.060451  0.438066  1
  Ho  Ho13  1  0.185983  0.811756  0.811447  1
  Ho  Ho14  1  0.811090  0.187497  0.187250  1
  Ho  Ho15  1  0.811764  0.185963  0.811731  1
  Cd  Cd16  1  0.831319  0.831516  0.508368  1
  Cd  Cd17  1  0.831265  0.508277  0.831482  1
  Cd  Cd18  1  0.508525  0.831248  0.831263  1
  Ag  Ag19  1  0.833377  0.833345  0.833001  1
  Ir  Ir20  1  0.391742  0.391508  0.391493  1
  Ir  Ir21  1  0.392698  0.392688  0.825503  1
  Ir  Ir22  1  0.392400  0.825549  0.392829  1
  Ir  Ir23  1  0.825468  0.392328  0.392730  1
