# generated using pymatgen
data_Tb3Th(HgAu2)2
_symmetry_space_group_name_H-M   'P 1'
_cell_length_a   8.10319915
_cell_length_b   8.10319904
_cell_length_c   3.72455400
_cell_angle_alpha   90.00000000
_cell_angle_beta   90.00000000
_cell_angle_gamma   89.90822127
_symmetry_Int_Tables_number   1
_chemical_formula_structural   Tb3Th(HgAu2)2
_chemical_formula_sum   'Tb3 Th1 Hg2 Au4'
_cell_volume   244.56073861
_cell_formula_units_Z   1
loop_
 _symmetry_equiv_pos_site_id
 _symmetry_equiv_pos_as_xyz
  1  'x, y, z'
loop_
 _atom_site_type_symbol
 _atom_site_label
 _atom_site_symmetry_multiplicity
 _atom_site_fract_x
 _atom_site_fract_y
 _atom_site_fract_z
 _atom_site_occupancy
  Tb  Tb0  1  0.325314  0.825314  0.500000  1
  Tb  Tb1  1  0.173124  0.330907  0.500000  1
  Tb  Tb2  1  0.830907  0.673124  0.500000  1
  Th  Th3  1  0.671344  0.171344  0.500000  1
  Hg  Hg4  1  0.497136  0.503963  0.000000  1
  Hg  Hg5  1  0.003963  0.997136  0.000000  1
  Au  Au6  1  0.127581  0.627581  0.000000  1
  Au  Au7  1  0.874980  0.374980  0.000000  1
  Au  Au8  1  0.626341  0.869311  0.000000  1
  Au  Au9  1  0.369311  0.126341  0.000000  1
