# generated using pymatgen
data_Ho6Ga7Co7Ru9
_symmetry_space_group_name_H-M   'P 1'
_cell_length_a   8.70651052
_cell_length_b   8.73084735
_cell_length_c   8.73084500
_cell_angle_alpha   59.99999754
_cell_angle_beta   59.90748842
_cell_angle_gamma   59.90749495
_symmetry_Int_Tables_number   1
_chemical_formula_structural   Ho6Ga7Co7Ru9
_chemical_formula_sum   'Ho6 Ga7 Co7 Ru9'
_cell_volume   468.63327434
_cell_formula_units_Z   1
loop_
 _symmetry_equiv_pos_site_id
 _symmetry_equiv_pos_as_xyz
  1  'x, y, z'
loop_
 _atom_site_type_symbol
 _atom_site_label
 _atom_site_symmetry_multiplicity
 _atom_site_fract_x
 _atom_site_fract_y
 _atom_site_fract_z
 _atom_site_occupancy
  Ho  Ho0  1  0.717798  0.282211  0.282211  1
  Ho  Ho1  1  0.717798  0.282211  0.717781  1
  Ho  Ho2  1  0.717798  0.717781  0.282211  1
  Ho  Ho3  1  0.283721  0.716979  0.716979  1
  Ho  Ho4  1  0.283721  0.716979  0.282320  1
  Ho  Ho5  1  0.283721  0.282320  0.716979  1
  Ga  Ga6  1  0.999386  0.000205  0.000205  1
  Ga  Ga7  1  0.499247  0.000660  0.000660  1
  Ga  Ga8  1  0.499247  0.000660  0.499433  1
  Ga  Ga9  1  0.499247  0.499433  0.000660  1
  Ga  Ga10  1  0.000067  0.503215  0.503215  1
  Ga  Ga11  1  0.000067  0.503215  0.993503  1
  Ga  Ga12  1  0.000067  0.993503  0.503215  1
  Co  Co13  1  0.322378  0.036511  0.320556  1
  Co  Co14  1  0.322378  0.320556  0.036511  1
  Co  Co15  1  0.322378  0.320556  0.320556  1
  Co  Co16  1  0.961276  0.679574  0.679574  1
  Co  Co17  1  0.679341  0.959422  0.680618  1
  Co  Co18  1  0.679341  0.680618  0.959422  1
  Co  Co19  1  0.679341  0.680618  0.680618  1
  Ru  Ru20  1  0.619734  0.126756  0.126756  1
  Ru  Ru21  1  0.127196  0.623684  0.124561  1
  Ru  Ru22  1  0.127196  0.124561  0.623684  1
  Ru  Ru23  1  0.127196  0.124561  0.124561  1
  Ru  Ru24  1  0.382633  0.872455  0.872455  1
  Ru  Ru25  1  0.871731  0.380888  0.873690  1
  Ru  Ru26  1  0.871731  0.873690  0.380888  1
  Ru  Ru27  1  0.871731  0.873690  0.873690  1
  Ru  Ru28  1  0.032533  0.322489  0.322489  1
