# generated using pymatgen
data_Hf7ZrSc(In2Co)7
_symmetry_space_group_name_H-M   'P 1'
_cell_length_a   9.40406235
_cell_length_b   9.40406166
_cell_length_c   9.40325802
_cell_angle_alpha   59.99717213
_cell_angle_beta   59.99717403
_cell_angle_gamma   59.99999837
_symmetry_Int_Tables_number   1
_chemical_formula_structural   Hf7ZrSc(In2Co)7
_chemical_formula_sum   'Hf7 Zr1 Sc1 In14 Co7'
_cell_volume   587.99787890
_cell_formula_units_Z   1
loop_
 _symmetry_equiv_pos_site_id
 _symmetry_equiv_pos_as_xyz
  1  'x, y, z'
loop_
 _atom_site_type_symbol
 _atom_site_label
 _atom_site_symmetry_multiplicity
 _atom_site_fract_x
 _atom_site_fract_y
 _atom_site_fract_z
 _atom_site_occupancy
  Hf  Hf0  1  0.119604  0.640924  0.119870  1
  Hf  Hf1  1  0.359119  0.879861  0.881158  1
  Hf  Hf2  1  0.879861  0.879861  0.881158  1
  Hf  Hf3  1  0.640924  0.119604  0.119870  1
  Hf  Hf4  1  0.880200  0.880200  0.359397  1
  Hf  Hf5  1  0.119604  0.119604  0.119870  1
  Hf  Hf6  1  0.879861  0.359119  0.881158  1
  Zr  Zr7  1  0.121566  0.121566  0.635303  1
  Sc  Sc8  1  0.500029  0.500029  0.499913  1
  In  In9  1  0.500043  0.842589  0.157324  1
  In  In10  1  0.500272  0.842248  0.500148  1
  In  In11  1  0.500272  0.157332  0.500148  1
  In  In12  1  0.499868  0.499868  0.842751  1
  In  In13  1  0.157332  0.500272  0.500148  1
  In  In14  1  0.842248  0.157332  0.500148  1
  In  In15  1  0.157332  0.842248  0.500148  1
  In  In16  1  0.499868  0.157512  0.842751  1
  In  In17  1  0.157512  0.499868  0.842751  1
  In  In18  1  0.500043  0.500043  0.157324  1
  In  In19  1  0.842248  0.500272  0.500148  1
  In  In20  1  0.842589  0.500043  0.157324  1
  In  In21  1  0.251242  0.251242  0.246275  1
  In  In22  1  0.749998  0.749998  0.750005  1
  Co  Co23  1  0.781521  0.781521  0.218516  1
  Co  Co24  1  0.999474  0.999474  0.001579  1
  Co  Co25  1  0.218441  0.781521  0.218516  1
  Co  Co26  1  0.218297  0.780812  0.782593  1
  Co  Co27  1  0.218297  0.218297  0.782593  1
  Co  Co28  1  0.780812  0.218297  0.782593  1
  Co  Co29  1  0.781521  0.218441  0.218516  1
