# generated using pymatgen
data_Dy3Lu5(ScSb3)2
_symmetry_space_group_name_H-M   'P 1'
_cell_length_a   7.89982400
_cell_length_b   9.09800000
_cell_length_c   11.64090300
_cell_angle_alpha   90.00000000
_cell_angle_beta   90.00000000
_cell_angle_gamma   90.00000000
_symmetry_Int_Tables_number   1
_chemical_formula_structural   Dy3Lu5(ScSb3)2
_chemical_formula_sum   'Dy6 Lu10 Sc4 Sb12'
_cell_volume   836.66195043
_cell_formula_units_Z   2
loop_
 _symmetry_equiv_pos_site_id
 _symmetry_equiv_pos_as_xyz
  1  'x, y, z'
loop_
 _atom_site_type_symbol
 _atom_site_label
 _atom_site_symmetry_multiplicity
 _atom_site_fract_x
 _atom_site_fract_y
 _atom_site_fract_z
 _atom_site_occupancy
  Dy  Dy0  1  0.184443  0.750000  0.721354  1
  Dy  Dy1  1  0.684443  0.750000  0.778646  1
  Dy  Dy2  1  0.816024  0.250000  0.278915  1
  Dy  Dy3  1  0.316024  0.250000  0.221085  1
  Dy  Dy4  1  0.854590  0.750000  0.285081  1
  Dy  Dy5  1  0.354590  0.750000  0.214919  1
  Lu  Lu6  1  0.196804  0.562689  0.440611  1
  Lu  Lu7  1  0.696804  0.937311  0.059389  1
  Lu  Lu8  1  0.803275  0.062879  0.560615  1
  Lu  Lu9  1  0.303275  0.437121  0.939385  1
  Lu  Lu10  1  0.803275  0.437121  0.560615  1
  Lu  Lu11  1  0.303275  0.062879  0.939385  1
  Lu  Lu12  1  0.196804  0.937311  0.440611  1
  Lu  Lu13  1  0.696804  0.562689  0.059389  1
  Lu  Lu14  1  0.144631  0.250000  0.715592  1
  Lu  Lu15  1  0.644631  0.250000  0.784408  1
  Sc  Sc16  1  0.028164  0.750000  0.988246  1
  Sc  Sc17  1  0.528164  0.750000  0.511754  1
  Sc  Sc18  1  0.972048  0.250000  0.010569  1
  Sc  Sc19  1  0.472048  0.250000  0.489431  1
  Sb  Sb20  1  0.933544  0.494414  0.831494  1
  Sb  Sb21  1  0.433544  0.005586  0.668506  1
  Sb  Sb22  1  0.066383  0.996301  0.167551  1
  Sb  Sb23  1  0.566383  0.503699  0.332449  1
  Sb  Sb24  1  0.066383  0.503699  0.167551  1
  Sb  Sb25  1  0.566383  0.996301  0.332449  1
  Sb  Sb26  1  0.933544  0.005586  0.831494  1
  Sb  Sb27  1  0.433544  0.494414  0.668506  1
  Sb  Sb28  1  0.906578  0.750000  0.541236  1
  Sb  Sb29  1  0.406578  0.750000  0.958764  1
  Sb  Sb30  1  0.093508  0.250000  0.460927  1
  Sb  Sb31  1  0.593508  0.250000  0.039073  1
