# generated using pymatgen
data_Sr6LuSc(BO3)6
_symmetry_space_group_name_H-M   'P 1'
_cell_length_a   7.78115777
_cell_length_b   7.78115763
_cell_length_c   7.78115799
_cell_angle_alpha   105.13252206
_cell_angle_beta   105.13252131
_cell_angle_gamma   105.13252282
_symmetry_Int_Tables_number   1
_chemical_formula_structural   Sr6LuSc(BO3)6
_chemical_formula_sum   'Sr6 Lu1 Sc1 B6 O18'
_cell_volume   410.70698314
_cell_formula_units_Z   1
loop_
 _symmetry_equiv_pos_site_id
 _symmetry_equiv_pos_as_xyz
  1  'x, y, z'
loop_
 _atom_site_type_symbol
 _atom_site_label
 _atom_site_symmetry_multiplicity
 _atom_site_fract_x
 _atom_site_fract_y
 _atom_site_fract_z
 _atom_site_occupancy
  Sr  Sr0  1  0.649265  0.263493  0.159613  1
  Sr  Sr1  1  0.159613  0.649265  0.263493  1
  Sr  Sr2  1  0.736506  0.840388  0.350735  1
  Sr  Sr3  1  0.263494  0.159612  0.649265  1
  Sr  Sr4  1  0.840388  0.350735  0.736507  1
  Sr  Sr5  1  0.350735  0.736507  0.840387  1
  Lu  Lu6  1  0.000000  0.000000  0.000000  1
  Sc  Sc7  1  0.500000  0.500000  0.500000  1
  B  B8  1  0.292396  0.375798  0.041777  1
  B  B9  1  0.375797  0.041777  0.292396  1
  B  B10  1  0.041777  0.292396  0.375797  1
  B  B11  1  0.958223  0.707605  0.624203  1
  B  B12  1  0.624203  0.958224  0.707604  1
  B  B13  1  0.707605  0.624203  0.958224  1
  O  O14  1  0.735061  0.818175  0.017260  1
  O  O15  1  0.807885  0.549297  0.072789  1
  O  O16  1  0.982740  0.264939  0.181823  1
  O  O17  1  0.450702  0.927211  0.192114  1
  O  O18  1  0.432351  0.495158  0.217929  1
  O  O19  1  0.181824  0.982740  0.264938  1
  O  O20  1  0.495157  0.217929  0.432351  1
  O  O21  1  0.927211  0.192114  0.450703  1
  O  O22  1  0.217929  0.432351  0.495158  1
  O  O23  1  0.782071  0.567649  0.504843  1
  O  O24  1  0.072789  0.807885  0.549297  1
  O  O25  1  0.504843  0.782071  0.567649  1
  O  O26  1  0.818175  0.017259  0.735061  1
  O  O27  1  0.567649  0.504843  0.782072  1
  O  O28  1  0.549297  0.072789  0.807886  1
  O  O29  1  0.017259  0.735060  0.818176  1
  O  O30  1  0.192114  0.450702  0.927211  1
  O  O31  1  0.264939  0.181824  0.982740  1
