# generated using pymatgen
data_Ce11Lu(Si3Ir)4
_symmetry_space_group_name_H-M   'P 1'
_cell_length_a   4.31410800
_cell_length_b   10.41783183
_cell_length_c   12.74387888
_cell_angle_alpha   89.64188914
_cell_angle_beta   90.00000000
_cell_angle_gamma   90.00000000
_symmetry_Int_Tables_number   1
_chemical_formula_structural   Ce11Lu(Si3Ir)4
_chemical_formula_sum   'Ce11 Lu1 Si12 Ir4'
_cell_volume   572.74526555
_cell_formula_units_Z   1
loop_
 _symmetry_equiv_pos_site_id
 _symmetry_equiv_pos_as_xyz
  1  'x, y, z'
loop_
 _atom_site_type_symbol
 _atom_site_label
 _atom_site_symmetry_multiplicity
 _atom_site_fract_x
 _atom_site_fract_y
 _atom_site_fract_z
 _atom_site_occupancy
  Ce  Ce0  1  0.250000  0.903001  0.026319  1
  Ce  Ce1  1  0.250000  0.597648  0.526691  1
  Ce  Ce2  1  0.750000  0.097128  0.971935  1
  Ce  Ce3  1  0.750000  0.395969  0.474375  1
  Ce  Ce4  1  0.250000  0.915018  0.593353  1
  Ce  Ce5  1  0.250000  0.585173  0.094326  1
  Ce  Ce6  1  0.750000  0.086560  0.407565  1
  Ce  Ce7  1  0.750000  0.415068  0.904127  1
  Ce  Ce8  1  0.250000  0.664443  0.805444  1
  Ce  Ce9  1  0.250000  0.836640  0.305749  1
  Ce  Ce10  1  0.750000  0.336541  0.193188  1
  Lu  Lu11  1  0.750000  0.167306  0.698692  1
  Si  Si12  1  0.250000  0.000191  0.808545  1
  Si  Si13  1  0.250000  0.500809  0.311932  1
  Si  Si14  1  0.750000  0.001218  0.190129  1
  Si  Si15  1  0.750000  0.498156  0.687607  1
  Si  Si16  1  0.250000  0.236150  0.841333  1
  Si  Si17  1  0.250000  0.263047  0.342705  1
  Si  Si18  1  0.750000  0.763955  0.156995  1
  Si  Si19  1  0.750000  0.736596  0.655981  1
  Si  Si20  1  0.250000  0.210572  0.549683  1
  Si  Si21  1  0.250000  0.283697  0.039630  1
  Si  Si22  1  0.750000  0.783820  0.458744  1
  Si  Si23  1  0.750000  0.718930  0.958043  1
  Ir  Ir24  1  0.250000  0.383235  0.688147  1
  Ir  Ir25  1  0.250000  0.116924  0.186905  1
  Ir  Ir26  1  0.750000  0.616239  0.312923  1
  Ir  Ir27  1  0.750000  0.885966  0.808934  1
