# generated using pymatgen
data_Tb8Er2Ga3CoBi2
_symmetry_space_group_name_H-M   'P 1'
_cell_length_a   8.63425560
_cell_length_b   8.80429558
_cell_length_c   8.07675237
_cell_angle_alpha   61.34513536
_cell_angle_beta   63.48350593
_cell_angle_gamma   55.17133644
_symmetry_Int_Tables_number   1
_chemical_formula_structural   Tb8Er2Ga3CoBi2
_chemical_formula_sum   'Tb8 Er2 Ga3 Co1 Bi2'
_cell_volume   429.38749169
_cell_formula_units_Z   1
loop_
 _symmetry_equiv_pos_site_id
 _symmetry_equiv_pos_as_xyz
  1  'x, y, z'
loop_
 _atom_site_type_symbol
 _atom_site_label
 _atom_site_symmetry_multiplicity
 _atom_site_fract_x
 _atom_site_fract_y
 _atom_site_fract_z
 _atom_site_occupancy
  Tb  Tb0  1  0.795990  0.482137  0.517863  1
  Tb  Tb1  1  0.452644  0.807698  0.192302  1
  Tb  Tb2  1  0.296614  0.980381  0.721863  1
  Tb  Tb3  1  0.998858  0.278137  0.019619  1
  Tb  Tb4  1  0.192302  0.547356  0.452644  1
  Tb  Tb5  1  0.517863  0.204010  0.795990  1
  Tb  Tb6  1  0.721863  0.001142  0.296614  1
  Tb  Tb7  1  0.019619  0.703386  0.998858  1
  Er  Er8  1  0.502786  0.497214  0.998655  1
  Er  Er9  1  0.998655  0.001345  0.502786  1
  Ga  Ga10  1  0.867284  0.132716  0.867284  1
  Ga  Ga11  1  0.643390  0.356610  0.356687  1
  Ga  Ga12  1  0.356687  0.643313  0.643390  1
  Co  Co13  1  0.122936  0.877064  0.122936  1
  Bi  Bi14  1  0.756253  0.743747  0.756253  1
  Bi  Bi15  1  0.256253  0.243747  0.256253  1
