# generated using pymatgen
data_Ho20Ir7RuRh4
_symmetry_space_group_name_H-M   'P 1'
_cell_length_a   10.80090821
_cell_length_b   10.79948021
_cell_length_c   6.38433900
_cell_angle_alpha   90.00101664
_cell_angle_beta   89.99827941
_cell_angle_gamma   89.92666272
_symmetry_Int_Tables_number   1
_chemical_formula_structural   Ho20Ir7RuRh4
_chemical_formula_sum   'Ho20 Ir7 Ru1 Rh4'
_cell_volume   744.69546983
_cell_formula_units_Z   1
loop_
 _symmetry_equiv_pos_site_id
 _symmetry_equiv_pos_as_xyz
  1  'x, y, z'
loop_
 _atom_site_type_symbol
 _atom_site_label
 _atom_site_symmetry_multiplicity
 _atom_site_fract_x
 _atom_site_fract_y
 _atom_site_fract_z
 _atom_site_occupancy
  Ho  Ho0  1  0.291700  0.087518  0.376778  1
  Ho  Ho1  1  0.292527  0.912506  0.881145  1
  Ho  Ho2  1  0.706861  0.087147  0.880476  1
  Ho  Ho3  1  0.707570  0.910957  0.377009  1
  Ho  Ho4  1  0.587543  0.792271  0.881623  1
  Ho  Ho5  1  0.586180  0.208349  0.376618  1
  Ho  Ho6  1  0.412279  0.791853  0.376614  1
  Ho  Ho7  1  0.412385  0.207655  0.881313  1
  Ho  Ho8  1  0.210054  0.411082  0.621121  1
  Ho  Ho9  1  0.209782  0.588637  0.120642  1
  Ho  Ho10  1  0.789966  0.412953  0.120679  1
  Ho  Ho11  1  0.790031  0.588977  0.621424  1
  Ho  Ho12  1  0.911578  0.709929  0.120513  1
  Ho  Ho13  1  0.911468  0.290804  0.622329  1
  Ho  Ho14  1  0.088895  0.709833  0.621650  1
  Ho  Ho15  1  0.090026  0.290833  0.120220  1
  Ho  Ho16  1  0.000146  0.999721  0.498956  1
  Ho  Ho17  1  0.000275  0.999859  0.998800  1
  Ho  Ho18  1  0.499927  0.499847  0.998777  1
  Ho  Ho19  1  0.500170  0.500007  0.499045  1
  Ir  Ir20  1  0.847120  0.846659  0.749640  1
  Ir  Ir21  1  0.152313  0.153854  0.749888  1
  Ir  Ir22  1  0.152839  0.845497  0.250202  1
  Ir  Ir23  1  0.654550  0.346448  0.749852  1
  Ir  Ir24  1  0.654586  0.652680  0.250096  1
  Ir  Ir25  1  0.345578  0.347077  0.250337  1
  Ir  Ir26  1  0.346071  0.653010  0.749791  1
  Ru  Ru27  1  0.500468  0.000262  0.125277  1
  Rh  Rh28  1  0.847162  0.154446  0.250256  1
  Rh  Rh29  1  0.500385  0.000217  0.623194  1
  Rh  Rh30  1  0.999797  0.499614  0.877939  1
  Rh  Rh31  1  0.999766  0.499497  0.377803  1
