# generated using pymatgen
data_Tb3Dy9Co5Hg
_symmetry_space_group_name_H-M   'P 1'
_cell_length_a   8.27828146
_cell_length_b   8.27690239
_cell_length_c   8.27690300
_cell_angle_alpha   107.88683507
_cell_angle_beta   109.90012163
_cell_angle_gamma   110.63204018
_symmetry_Int_Tables_number   1
_chemical_formula_structural   Tb3Dy9Co5Hg
_chemical_formula_sum   'Tb3 Dy9 Co5 Hg1'
_cell_volume   436.34078060
_cell_formula_units_Z   1
loop_
 _symmetry_equiv_pos_site_id
 _symmetry_equiv_pos_as_xyz
  1  'x, y, z'
loop_
 _atom_site_type_symbol
 _atom_site_label
 _atom_site_symmetry_multiplicity
 _atom_site_fract_x
 _atom_site_fract_y
 _atom_site_fract_z
 _atom_site_occupancy
  Tb  Tb0  1  0.475633  0.291552  0.184081  1
  Tb  Tb1  1  0.107976  0.291886  0.816089  1
  Tb  Tb2  1  0.892190  0.708684  0.183507  1
  Dy  Dy3  1  0.525051  0.708833  0.816218  1
  Dy  Dy4  1  0.303378  0.620567  0.317690  1
  Dy  Dy5  1  0.303378  0.985691  0.682811  1
  Dy  Dy6  1  0.696684  0.379485  0.682786  1
  Dy  Dy7  1  0.696684  0.013898  0.317199  1
  Dy  Dy8  1  0.193295  0.209561  0.402558  1
  Dy  Dy9  1  0.807082  0.791288  0.598667  1
  Dy  Dy10  1  0.193295  0.790737  0.983734  1
  Dy  Dy11  1  0.807082  0.208415  0.015795  1
  Co  Co12  1  0.499543  0.614493  0.113494  1
  Co  Co13  1  0.499543  0.386049  0.885049  1
  Co  Co14  1  0.377732  0.000095  0.377637  1
  Co  Co15  1  0.621694  0.999443  0.622252  1
  Co  Co16  1  0.999799  0.999293  0.000507  1
  Hg  Hg17  1  0.999959  0.500030  0.499929  1
