# generated using pymatgen
data_DyLu9(ThCo2)2
_symmetry_space_group_name_H-M   'P 1'
_cell_length_a   6.15707004
_cell_length_b   6.83165313
_cell_length_c   9.31419400
_cell_angle_alpha   90.00000000
_cell_angle_beta   90.00000000
_cell_angle_gamma   90.05876765
_symmetry_Int_Tables_number   1
_chemical_formula_structural   DyLu9(ThCo2)2
_chemical_formula_sum   'Dy1 Lu9 Th2 Co4'
_cell_volume   391.78242710
_cell_formula_units_Z   1
loop_
 _symmetry_equiv_pos_site_id
 _symmetry_equiv_pos_as_xyz
  1  'x, y, z'
loop_
 _atom_site_type_symbol
 _atom_site_label
 _atom_site_symmetry_multiplicity
 _atom_site_fract_x
 _atom_site_fract_y
 _atom_site_fract_z
 _atom_site_occupancy
  Dy  Dy0  1  0.858816  0.540444  0.250000  1
  Lu  Lu1  1  0.326978  0.675331  0.068521  1
  Lu  Lu2  1  0.173515  0.170286  0.432634  1
  Lu  Lu3  1  0.672927  0.327984  0.568843  1
  Lu  Lu4  1  0.824613  0.825653  0.929687  1
  Lu  Lu5  1  0.672927  0.327984  0.931157  1
  Lu  Lu6  1  0.824613  0.825653  0.570313  1
  Lu  Lu7  1  0.326978  0.675331  0.431479  1
  Lu  Lu8  1  0.173515  0.170286  0.067366  1
  Lu  Lu9  1  0.357897  0.959575  0.750000  1
  Th  Th10  1  0.651628  0.052102  0.250000  1
  Th  Th11  1  0.151171  0.449873  0.750000  1
  Co  Co12  1  0.037202  0.885883  0.250000  1
  Co  Co13  1  0.454410  0.370615  0.250000  1
  Co  Co14  1  0.958813  0.127939  0.750000  1
  Co  Co15  1  0.533999  0.615059  0.750000  1
