# generated using pymatgen
data_Zr6TaIn(Ir2N)2
_symmetry_space_group_name_H-M   'P 1'
_cell_length_a   8.70552727
_cell_length_b   8.75878327
_cell_length_c   8.75878301
_cell_angle_alpha   60.17385456
_cell_angle_beta   60.20093341
_cell_angle_gamma   60.20092942
_symmetry_Int_Tables_number   1
_chemical_formula_structural   Zr6TaIn(Ir2N)2
_chemical_formula_sum   'Zr12 Ta2 In2 Ir8 N4'
_cell_volume   474.29744618
_cell_formula_units_Z   2
loop_
 _symmetry_equiv_pos_site_id
 _symmetry_equiv_pos_as_xyz
  1  'x, y, z'
loop_
 _atom_site_type_symbol
 _atom_site_label
 _atom_site_symmetry_multiplicity
 _atom_site_fract_x
 _atom_site_fract_y
 _atom_site_fract_z
 _atom_site_occupancy
  Zr  Zr0  1  0.811457  0.813949  0.189714  1
  Zr  Zr1  1  0.184880  0.189714  0.813949  1
  Zr  Zr2  1  0.811457  0.189714  0.813949  1
  Zr  Zr3  1  0.184880  0.813949  0.189714  1
  Zr  Zr4  1  0.182115  0.817885  0.817885  1
  Zr  Zr5  1  0.811739  0.188261  0.188261  1
  Zr  Zr6  1  0.438543  0.436051  0.060286  1
  Zr  Zr7  1  0.065120  0.060286  0.436051  1
  Zr  Zr8  1  0.438543  0.060286  0.436051  1
  Zr  Zr9  1  0.065120  0.436051  0.060286  1
  Zr  Zr10  1  0.067885  0.432115  0.432115  1
  Zr  Zr11  1  0.438261  0.061739  0.061739  1
  Ta  Ta12  1  0.625000  0.125000  0.625000  1
  Ta  Ta13  1  0.625000  0.625000  0.125000  1
  In  In14  1  0.125000  0.625000  0.625000  1
  In  In15  1  0.625000  0.625000  0.625000  1
  Ir  Ir16  1  0.761489  0.407610  0.407610  1
  Ir  Ir17  1  0.420562  0.766345  0.392533  1
  Ir  Ir18  1  0.420562  0.392533  0.766345  1
  Ir  Ir19  1  0.423293  0.407610  0.407610  1
  Ir  Ir20  1  0.488511  0.842390  0.842390  1
  Ir  Ir21  1  0.829438  0.483655  0.857467  1
  Ir  Ir22  1  0.829438  0.857467  0.483655  1
  Ir  Ir23  1  0.826707  0.842390  0.842390  1
  N  N24  1  0.625000  0.125000  0.125000  1
  N  N25  1  0.125000  0.625000  0.125000  1
  N  N26  1  0.125000  0.125000  0.625000  1
  N  N27  1  0.125000  0.125000  0.125000  1
