# generated using pymatgen
data_Er12BiPb9
_symmetry_space_group_name_H-M   'P 1'
_cell_length_a   11.68142728
_cell_length_b   11.76466605
_cell_length_c   11.76466548
_cell_angle_alpha   147.57157973
_cell_angle_beta   132.66407058
_cell_angle_gamma   58.62416955
_symmetry_Int_Tables_number   1
_chemical_formula_structural   Er12BiPb9
_chemical_formula_sum   'Er12 Bi1 Pb9'
_cell_volume   632.10594525
_cell_formula_units_Z   1
loop_
 _symmetry_equiv_pos_site_id
 _symmetry_equiv_pos_as_xyz
  1  'x, y, z'
loop_
 _atom_site_type_symbol
 _atom_site_label
 _atom_site_symmetry_multiplicity
 _atom_site_fract_x
 _atom_site_fract_y
 _atom_site_fract_z
 _atom_site_occupancy
  Er  Er0  1  0.695947  0.947554  0.250008  1
  Er  Er1  1  0.248872  0.640502  0.608368  1
  Er  Er2  1  0.681585  0.942756  0.738828  1
  Er  Er3  1  0.024074  0.137987  0.886087  1
  Er  Er4  1  0.975963  0.861526  0.114437  1
  Er  Er5  1  0.789689  0.557812  0.231875  1
  Er  Er6  1  0.208021  0.441385  0.766637  1
  Er  Er7  1  0.304699  0.053775  0.750865  1
  Er  Er8  1  0.321146  0.058043  0.263104  1
  Er  Er9  1  0.304699  0.553834  0.250924  1
  Er  Er10  1  0.748764  0.359270  0.389497  1
  Er  Er11  1  0.695947  0.445939  0.748393  1
  Bi  Bi12  1  0.473833  0.576704  0.897129  1
  Pb  Pb13  1  0.602471  0.795840  0.806631  1
  Pb  Pb14  1  0.671097  0.075238  0.595859  1
  Pb  Pb15  1  0.000464  0.746408  0.747034  1
  Pb  Pb16  1  0.990854  0.295106  0.695747  1
  Pb  Pb17  1  0.525253  0.422835  0.102418  1
  Pb  Pb18  1  0.008401  0.704532  0.303870  1
  Pb  Pb19  1  0.397767  0.204370  0.193397  1
  Pb  Pb20  1  0.329991  0.925155  0.404836  1
  Pb  Pb21  1  0.000464  0.253429  0.254055  1
