# generated using pymatgen
data_YHo3IrRh3O14
_symmetry_space_group_name_H-M   'P 1'
_cell_length_a   7.23330842
_cell_length_b   7.23331001
_cell_length_c   7.23330900
_cell_angle_alpha   59.98001878
_cell_angle_beta   59.98001146
_cell_angle_gamma   59.98002166
_symmetry_Int_Tables_number   1
_chemical_formula_structural   YHo3IrRh3O14
_chemical_formula_sum   'Y1 Ho3 Ir1 Rh3 O14'
_cell_volume   267.48488936
_cell_formula_units_Z   1
loop_
 _symmetry_equiv_pos_site_id
 _symmetry_equiv_pos_as_xyz
  1  'x, y, z'
loop_
 _atom_site_type_symbol
 _atom_site_label
 _atom_site_symmetry_multiplicity
 _atom_site_fract_x
 _atom_site_fract_y
 _atom_site_fract_z
 _atom_site_occupancy
  Y  Y0  1  0.125000  0.125000  0.125000  1
  Ho  Ho1  1  0.625000  0.125000  0.125000  1
  Ho  Ho2  1  0.125000  0.625000  0.125000  1
  Ho  Ho3  1  0.125000  0.125000  0.625000  1
  Ir  Ir4  1  0.625000  0.625000  0.625000  1
  Rh  Rh5  1  0.125000  0.625000  0.625000  1
  Rh  Rh6  1  0.625000  0.125000  0.625000  1
  Rh  Rh7  1  0.625000  0.625000  0.125000  1
  O  O8  1  0.711116  0.711116  0.291514  1
  O  O9  1  0.285944  0.285944  0.710546  1
  O  O10  1  0.711116  0.291514  0.711116  1
  O  O11  1  0.285944  0.710546  0.285944  1
  O  O12  1  0.291514  0.711116  0.711116  1
  O  O13  1  0.710546  0.285944  0.285944  1
  O  O14  1  0.538884  0.538884  0.958486  1
  O  O15  1  0.964056  0.964056  0.539454  1
  O  O16  1  0.538884  0.958486  0.538884  1
  O  O17  1  0.964056  0.539454  0.964056  1
  O  O18  1  0.958486  0.538884  0.538884  1
  O  O19  1  0.539454  0.964056  0.964056  1
  O  O20  1  0.251029  0.251029  0.251029  1
  O  O21  1  0.998971  0.998971  0.998971  1
