# generated using pymatgen
data_Ho3Zn2Co9B4
_symmetry_space_group_name_H-M   'P 1'
_cell_length_a   5.11940733
_cell_length_b   5.12147295
_cell_length_c   9.70484600
_cell_angle_alpha   89.99981738
_cell_angle_beta   90.00018372
_cell_angle_gamma   119.94573089
_symmetry_Int_Tables_number   1
_chemical_formula_structural   Ho3Zn2Co9B4
_chemical_formula_sum   'Ho3 Zn2 Co9 B4'
_cell_volume   220.48095607
_cell_formula_units_Z   1
loop_
 _symmetry_equiv_pos_site_id
 _symmetry_equiv_pos_as_xyz
  1  'x, y, z'
loop_
 _atom_site_type_symbol
 _atom_site_label
 _atom_site_symmetry_multiplicity
 _atom_site_fract_x
 _atom_site_fract_y
 _atom_site_fract_z
 _atom_site_occupancy
  Ho  Ho0  1  0.999988  0.000001  0.999991  1
  Ho  Ho1  1  0.999995  0.000004  0.341926  1
  Ho  Ho2  1  0.999999  0.999997  0.658099  1
  Zn  Zn3  1  0.333376  0.666640  0.999969  1
  Zn  Zn4  1  0.666602  0.333360  0.999969  1
  Co  Co5  1  0.499995  0.999997  0.500020  1
  Co  Co6  1  0.499995  0.500002  0.500029  1
  Co  Co7  1  0.999999  0.500001  0.500030  1
  Co  Co8  1  0.499993  0.000000  0.210964  1
  Co  Co9  1  0.499994  0.500001  0.210936  1
  Co  Co10  1  0.999991  0.500002  0.210943  1
  Co  Co11  1  0.499998  0.000000  0.789049  1
  Co  Co12  1  0.499997  0.499999  0.789052  1
  Co  Co13  1  0.999996  0.499997  0.789051  1
  B  B14  1  0.333421  0.666677  0.350540  1
  B  B15  1  0.666569  0.333324  0.350539  1
  B  B16  1  0.666734  0.333413  0.649447  1
  B  B17  1  0.333258  0.666586  0.649447  1
