# generated using pymatgen
data_Ce3Dy(Ir3Rh)2
_symmetry_space_group_name_H-M   'P 1'
_cell_length_a   9.32295795
_cell_length_b   9.32295899
_cell_length_c   9.32304375
_cell_angle_alpha   33.54057978
_cell_angle_beta   33.54056835
_cell_angle_gamma   33.57496752
_symmetry_Int_Tables_number   1
_chemical_formula_structural   Ce3Dy(Ir3Rh)2
_chemical_formula_sum   'Ce3 Dy1 Ir6 Rh2'
_cell_volume   220.48232422
_cell_formula_units_Z   1
loop_
 _symmetry_equiv_pos_site_id
 _symmetry_equiv_pos_as_xyz
  1  'x, y, z'
loop_
 _atom_site_type_symbol
 _atom_site_label
 _atom_site_symmetry_multiplicity
 _atom_site_fract_x
 _atom_site_fract_y
 _atom_site_fract_z
 _atom_site_occupancy
  Ce  Ce0  1  0.186674  0.186674  0.189098  1
  Ce  Ce1  1  0.813408  0.813408  0.811892  1
  Ce  Ce2  1  0.312745  0.312745  0.311146  1
  Dy  Dy3  1  0.686729  0.686729  0.688740  1
  Ir  Ir4  1  0.000165  0.000165  0.000196  1
  Ir  Ir5  1  0.500027  0.500027  0.499744  1
  Ir  Ir6  1  0.750448  0.249397  0.249465  1
  Ir  Ir7  1  0.250349  0.750277  0.749950  1
  Ir  Ir8  1  0.249397  0.750448  0.249465  1
  Ir  Ir9  1  0.750277  0.250349  0.749950  1
  Rh  Rh10  1  0.249527  0.249527  0.750514  1
  Rh  Rh11  1  0.750257  0.750257  0.249838  1
