# generated using pymatgen
data_Lu2RuWC3
_symmetry_space_group_name_H-M   'P 1'
_cell_length_a   5.92877840
_cell_length_b   5.92877949
_cell_length_c   5.61568642
_cell_angle_alpha   111.15438002
_cell_angle_beta   111.15438662
_cell_angle_gamma   32.33554373
_symmetry_Int_Tables_number   1
_chemical_formula_structural   Lu2RuWC3
_chemical_formula_sum   'Lu2 Ru1 W1 C3'
_cell_volume   97.84472314
_cell_formula_units_Z   1
loop_
 _symmetry_equiv_pos_site_id
 _symmetry_equiv_pos_as_xyz
  1  'x, y, z'
loop_
 _atom_site_type_symbol
 _atom_site_label
 _atom_site_symmetry_multiplicity
 _atom_site_fract_x
 _atom_site_fract_y
 _atom_site_fract_z
 _atom_site_occupancy
  Lu  Lu0  1  0.390253  0.390253  0.177168  1
  Lu  Lu1  1  0.609822  0.609822  0.837847  1
  Ru  Ru2  1  0.156094  0.156094  0.319671  1
  W  W3  1  0.842177  0.842177  0.673054  1
  C  C4  1  0.000400  0.000400  0.992838  1
  C  C5  1  0.756652  0.756652  0.265624  1
  C  C6  1  0.244604  0.244604  0.733803  1
