# generated using pymatgen
data_Eu6HoLuSb6
_symmetry_space_group_name_H-M   'P 1'
_cell_length_a   8.24716449
_cell_length_b   8.24082451
_cell_length_c   8.31385400
_cell_angle_alpha   70.62661959
_cell_angle_beta   70.58117624
_cell_angle_gamma   108.96911845
_symmetry_Int_Tables_number   1
_chemical_formula_structural   Eu6HoLuSb6
_chemical_formula_sum   'Eu6 Ho1 Lu1 Sb6'
_cell_volume   438.42720363
_cell_formula_units_Z   1
loop_
 _symmetry_equiv_pos_site_id
 _symmetry_equiv_pos_as_xyz
  1  'x, y, z'
loop_
 _atom_site_type_symbol
 _atom_site_label
 _atom_site_symmetry_multiplicity
 _atom_site_fract_x
 _atom_site_fract_y
 _atom_site_fract_z
 _atom_site_occupancy
  Eu  Eu0  1  0.000880  0.361797  0.494676  1
  Eu  Eu1  1  0.495407  0.495748  0.147137  1
  Eu  Eu2  1  0.642568  0.145914  0.359384  1
  Eu  Eu3  1  0.361706  0.000946  0.994809  1
  Eu  Eu4  1  0.496056  0.495484  0.647049  1
  Eu  Eu5  1  0.145988  0.642685  0.859255  1
  Ho  Ho6  1  0.002520  0.857497  0.497252  1
  Lu  Lu7  1  0.858446  0.002305  0.997092  1
  Sb  Sb8  1  0.642605  0.875464  0.749009  1
  Sb  Sb9  1  0.875081  0.643835  0.246789  1
  Sb  Sb10  1  0.229703  0.113160  0.634298  1
  Sb  Sb11  1  0.758610  0.376273  0.871080  1
  Sb  Sb12  1  0.378243  0.758688  0.370235  1
  Sb  Sb13  1  0.112186  0.230203  0.131931  1
