# generated using pymatgen
data_NdTh2In3PdPt2
_symmetry_space_group_name_H-M   'P 1'
_cell_length_a   7.79761307
_cell_length_b   7.79761166
_cell_length_c   4.06188800
_cell_angle_alpha   90.00000000
_cell_angle_beta   90.00000000
_cell_angle_gamma   120.53576031
_symmetry_Int_Tables_number   1
_chemical_formula_structural   NdTh2In3PdPt2
_chemical_formula_sum   'Nd1 Th2 In3 Pd1 Pt2'
_cell_volume   212.72172033
_cell_formula_units_Z   1
loop_
 _symmetry_equiv_pos_site_id
 _symmetry_equiv_pos_as_xyz
  1  'x, y, z'
loop_
 _atom_site_type_symbol
 _atom_site_label
 _atom_site_symmetry_multiplicity
 _atom_site_fract_x
 _atom_site_fract_y
 _atom_site_fract_z
 _atom_site_occupancy
  Nd  Nd0  1  0.413060  0.413060  0.500000  1
  Th  Th1  1  0.000455  0.584269  0.500000  1
  Th  Th2  1  0.584269  0.000455  0.500000  1
  In  In3  1  0.007367  0.248985  0.000000  1
  In  In4  1  0.248985  0.007367  0.000000  1
  In  In5  1  0.743654  0.743654  0.000000  1
  Pd  Pd6  1  0.990500  0.990500  0.500000  1
  Pt  Pt7  1  0.679691  0.332020  0.000000  1
  Pt  Pt8  1  0.332020  0.679691  0.000000  1
