# generated using pymatgen
data_TbDy7(LuSn4)2
_symmetry_space_group_name_H-M   'P 1'
_cell_length_a   7.99566700
_cell_length_b   8.15054901
_cell_length_c   15.43805102
_cell_angle_alpha   90.00567916
_cell_angle_beta   90.00000000
_cell_angle_gamma   90.00000000
_symmetry_Int_Tables_number   1
_chemical_formula_structural   TbDy7(LuSn4)2
_chemical_formula_sum   'Tb2 Dy14 Lu4 Sn16'
_cell_volume   1006.08351136
_cell_formula_units_Z   2
loop_
 _symmetry_equiv_pos_site_id
 _symmetry_equiv_pos_as_xyz
  1  'x, y, z'
loop_
 _atom_site_type_symbol
 _atom_site_label
 _atom_site_symmetry_multiplicity
 _atom_site_fract_x
 _atom_site_fract_y
 _atom_site_fract_z
 _atom_site_occupancy
  Tb  Tb0  1  0.520202  0.320045  0.597409  1
  Tb  Tb1  1  0.020202  0.179955  0.902591  1
  Dy  Dy2  1  0.367480  0.836313  0.878140  1
  Dy  Dy3  1  0.867480  0.663687  0.621860  1
  Dy  Dy4  1  0.632561  0.163615  0.378087  1
  Dy  Dy5  1  0.132561  0.336385  0.121913  1
  Dy  Dy6  1  0.632544  0.163620  0.121886  1
  Dy  Dy7  1  0.132544  0.336380  0.378114  1
  Dy  Dy8  1  0.367453  0.836330  0.621872  1
  Dy  Dy9  1  0.867453  0.663670  0.878128  1
  Dy  Dy10  1  0.520231  0.320057  0.902513  1
  Dy  Dy11  1  0.020231  0.179943  0.597487  1
  Dy  Dy12  1  0.479787  0.679974  0.402519  1
  Dy  Dy13  1  0.979787  0.820026  0.097481  1
  Dy  Dy14  1  0.479779  0.679968  0.097466  1
  Dy  Dy15  1  0.979779  0.820032  0.402534  1
  Lu  Lu16  1  0.198320  0.502585  0.750012  1
  Lu  Lu17  1  0.698320  0.997415  0.749988  1
  Lu  Lu18  1  0.801686  0.497500  0.250012  1
  Lu  Lu19  1  0.301686  0.002500  0.249988  1
  Sn  Sn20  1  0.292634  0.034625  0.042804  1
  Sn  Sn21  1  0.792634  0.465375  0.457196  1
  Sn  Sn22  1  0.707561  0.965216  0.542724  1
  Sn  Sn23  1  0.207561  0.534784  0.957276  1
  Sn  Sn24  1  0.707313  0.965183  0.957294  1
  Sn  Sn25  1  0.207313  0.534817  0.542706  1
  Sn  Sn26  1  0.292502  0.034680  0.457258  1
  Sn  Sn27  1  0.792502  0.465320  0.042742  1
  Sn  Sn28  1  0.563938  0.618661  0.750007  1
  Sn  Sn29  1  0.063938  0.881339  0.749993  1
  Sn  Sn30  1  0.436077  0.381398  0.249993  1
  Sn  Sn31  1  0.936077  0.118602  0.250007  1
  Sn  Sn32  1  0.328754  0.147791  0.750054  1
  Sn  Sn33  1  0.828754  0.352209  0.749946  1
  Sn  Sn34  1  0.671175  0.852077  0.249993  1
  Sn  Sn35  1  0.171175  0.647923  0.250007  1
