# generated using pymatgen
data_Er3Al3FeSiGe
_symmetry_space_group_name_H-M   'P 1'
_cell_length_a   6.87833900
_cell_length_b   6.87833898
_cell_length_c   4.15029900
_cell_angle_alpha   90.00000000
_cell_angle_beta   90.00000000
_cell_angle_gamma   120.00000490
_symmetry_Int_Tables_number   1
_chemical_formula_structural   Er3Al3FeSiGe
_chemical_formula_sum   'Er3 Al3 Fe1 Si1 Ge1'
_cell_volume   170.05020013
_cell_formula_units_Z   1
loop_
 _symmetry_equiv_pos_site_id
 _symmetry_equiv_pos_as_xyz
  1  'x, y, z'
loop_
 _atom_site_type_symbol
 _atom_site_label
 _atom_site_symmetry_multiplicity
 _atom_site_fract_x
 _atom_site_fract_y
 _atom_site_fract_z
 _atom_site_occupancy
  Er  Er0  1  0.408210  0.002234  0.000000  1
  Er  Er1  1  0.997766  0.405976  0.000000  1
  Er  Er2  1  0.594023  0.591789  0.000000  1
  Al  Al3  1  0.774538  0.002454  0.499999  1
  Al  Al4  1  0.227915  0.225463  0.499999  1
  Al  Al5  1  0.997546  0.772085  0.499999  1
  Fe  Fe6  1  0.000000  0.000000  0.000000  1
  Si  Si7  1  0.666666  0.333333  0.499999  1
  Ge  Ge8  1  0.333333  0.666666  0.499999  1
