# generated using pymatgen
data_Ta2ZnGaCo4
_symmetry_space_group_name_H-M   'P 1'
_cell_length_a   4.20242400
_cell_length_b   5.94783200
_cell_length_c   12.62321700
_cell_angle_alpha   90.00000000
_cell_angle_beta   90.00155329
_cell_angle_gamma   90.00000000
_symmetry_Int_Tables_number   1
_chemical_formula_structural   Ta2ZnGaCo4
_chemical_formula_sum   'Ta6 Zn3 Ga3 Co12'
_cell_volume   315.52124660
_cell_formula_units_Z   3
loop_
 _symmetry_equiv_pos_site_id
 _symmetry_equiv_pos_as_xyz
  1  'x, y, z'
loop_
 _atom_site_type_symbol
 _atom_site_label
 _atom_site_symmetry_multiplicity
 _atom_site_fract_x
 _atom_site_fract_y
 _atom_site_fract_z
 _atom_site_occupancy
  Ta  Ta0  1  0.000011  0.000000  0.997576  1
  Ta  Ta1  1  0.500085  0.500000  0.166667  1
  Ta  Ta2  1  0.000121  0.000000  0.335732  1
  Ta  Ta3  1  0.500020  0.500000  0.502486  1
  Ta  Ta4  1  0.999866  0.000000  0.666716  1
  Ta  Ta5  1  0.499906  0.500000  0.830841  1
  Zn  Zn6  1  0.500012  0.000000  0.499863  1
  Zn  Zn7  1  0.999847  0.500000  0.666629  1
  Zn  Zn8  1  0.499853  0.000000  0.833433  1
  Ga  Ga9  1  0.000011  0.500000  0.999431  1
  Ga  Ga10  1  0.500072  0.000000  0.166730  1
  Ga  Ga11  1  0.000176  0.500000  0.333883  1
  Co  Co12  1  0.500019  0.250903  0.000661  1
  Co  Co13  1  0.500019  0.749097  0.000661  1
  Co  Co14  1  0.000079  0.249753  0.166605  1
  Co  Co15  1  0.000079  0.750247  0.166605  1
  Co  Co16  1  0.500148  0.250975  0.332647  1
  Co  Co17  1  0.500148  0.749025  0.332647  1
  Co  Co18  1  0.000017  0.251401  0.500035  1
  Co  Co19  1  0.000017  0.748599  0.500035  1
  Co  Co20  1  0.499854  0.249292  0.666690  1
  Co  Co21  1  0.499854  0.750708  0.666690  1
  Co  Co22  1  0.999892  0.251523  0.833367  1
  Co  Co23  1  0.999892  0.748477  0.833367  1
