# generated using pymatgen
data_Lu12Co8Pd
_symmetry_space_group_name_H-M   'P 1'
_cell_length_a   3.95534800
_cell_length_b   11.10053410
_cell_length_c   11.09958706
_cell_angle_alpha   59.99853517
_cell_angle_beta   90.00099207
_cell_angle_gamma   89.99966932
_symmetry_Int_Tables_number   1
_chemical_formula_structural   Lu12Co8Pd
_chemical_formula_sum   'Lu12 Co8 Pd1'
_cell_volume   422.04583441
_cell_formula_units_Z   1
loop_
 _symmetry_equiv_pos_site_id
 _symmetry_equiv_pos_as_xyz
  1  'x, y, z'
loop_
 _atom_site_type_symbol
 _atom_site_label
 _atom_site_symmetry_multiplicity
 _atom_site_fract_x
 _atom_site_fract_y
 _atom_site_fract_z
 _atom_site_occupancy
  Lu  Lu0  1  0.749186  0.619794  0.864246  1
  Lu  Lu1  1  0.749179  0.515975  0.619829  1
  Lu  Lu2  1  0.749181  0.864210  0.515955  1
  Lu  Lu3  1  0.250814  0.380206  0.135754  1
  Lu  Lu4  1  0.250821  0.484025  0.380171  1
  Lu  Lu5  1  0.250819  0.135790  0.484045  1
  Lu  Lu6  1  0.751135  0.768829  0.255131  1
  Lu  Lu7  1  0.751173  0.976043  0.768850  1
  Lu  Lu8  1  0.751169  0.255116  0.976029  1
  Lu  Lu9  1  0.248865  0.231171  0.744869  1
  Lu  Lu10  1  0.248827  0.023957  0.231150  1
  Lu  Lu11  1  0.248831  0.744884  0.023971  1
  Co  Co12  1  0.749938  0.333327  0.333325  1
  Co  Co13  1  0.250062  0.666673  0.666675  1
  Co  Co14  1  0.748217  0.281565  0.562349  1
  Co  Co15  1  0.748216  0.156117  0.281558  1
  Co  Co16  1  0.748223  0.562342  0.156091  1
  Co  Co17  1  0.251783  0.718435  0.437651  1
  Co  Co18  1  0.251784  0.843883  0.718442  1
  Co  Co19  1  0.251777  0.437658  0.843909  1
  Pd  Pd20  1  0.500000  0.000000  0.000000  1
