# generated using pymatgen
data_Yb(CrN)4
_symmetry_space_group_name_H-M   'P 1'
_cell_length_a   5.75710325
_cell_length_b   5.75710289
_cell_length_c   5.75710313
_cell_angle_alpha   93.77224850
_cell_angle_beta   93.77224697
_cell_angle_gamma   150.27538600
_symmetry_Int_Tables_number   1
_chemical_formula_structural   Yb(CrN)4
_chemical_formula_sum   'Yb1 Cr4 N4'
_cell_volume   91.44680287
_cell_formula_units_Z   1
loop_
 _symmetry_equiv_pos_site_id
 _symmetry_equiv_pos_as_xyz
  1  'x, y, z'
loop_
 _atom_site_type_symbol
 _atom_site_label
 _atom_site_symmetry_multiplicity
 _atom_site_fract_x
 _atom_site_fract_y
 _atom_site_fract_z
 _atom_site_occupancy
  Yb  Yb0  1  0.000000  0.000000  0.000000  1
  Cr  Cr1  1  0.816795  0.363567  0.180362  1
  Cr  Cr2  1  0.636434  0.816795  0.453228  1
  Cr  Cr3  1  0.363567  0.183206  0.546773  1
  Cr  Cr4  1  0.183206  0.636434  0.819638  1
  N  N5  1  0.408115  0.737440  0.145554  1
  N  N6  1  0.737440  0.591886  0.329325  1
  N  N7  1  0.262561  0.408115  0.670676  1
  N  N8  1  0.591886  0.262561  0.854447  1
