# generated using pymatgen
data_HfZr4SnBSb2
_symmetry_space_group_name_H-M   'P 1'
_cell_length_a   8.51015730
_cell_length_b   8.51819386
_cell_length_c   5.80286600
_cell_angle_alpha   90.00000000
_cell_angle_beta   90.00000000
_cell_angle_gamma   119.99411236
_symmetry_Int_Tables_number   1
_chemical_formula_structural   HfZr4SnBSb2
_chemical_formula_sum   'Hf2 Zr8 Sn2 B2 Sb4'
_cell_volume   364.32086405
_cell_formula_units_Z   2
loop_
 _symmetry_equiv_pos_site_id
 _symmetry_equiv_pos_as_xyz
  1  'x, y, z'
loop_
 _atom_site_type_symbol
 _atom_site_label
 _atom_site_symmetry_multiplicity
 _atom_site_fract_x
 _atom_site_fract_y
 _atom_site_fract_z
 _atom_site_occupancy
  Hf  Hf0  1  0.230206  0.230310  0.250000  1
  Hf  Hf1  1  0.770151  0.001171  0.250000  1
  Zr  Zr2  1  0.666351  0.334386  0.000667  1
  Zr  Zr3  1  0.334764  0.666492  0.000681  1
  Zr  Zr4  1  0.334764  0.666492  0.499319  1
  Zr  Zr5  1  0.666351  0.334386  0.499333  1
  Zr  Zr6  1  0.767241  0.767762  0.750000  1
  Zr  Zr7  1  0.230955  0.999679  0.750000  1
  Zr  Zr8  1  0.999081  0.230734  0.750000  1
  Zr  Zr9  1  0.000767  0.767178  0.250000  1
  Sn  Sn10  1  0.399799  0.000623  0.250000  1
  Sn  Sn11  1  0.000155  0.398396  0.250000  1
  B  B12  1  0.000003  0.001118  0.002682  1
  B  B13  1  0.000003  0.001118  0.497318  1
  Sb  Sb14  1  0.397849  0.397867  0.750000  1
  Sb  Sb15  1  0.599158  0.000904  0.750000  1
  Sb  Sb16  1  0.000898  0.599353  0.750000  1
  Sb  Sb17  1  0.601502  0.602029  0.250000  1
