# generated using pymatgen
data_LiSc3(TiPt5)4
_symmetry_space_group_name_H-M   'P 1'
_cell_length_a   5.62567000
_cell_length_b   5.61241582
_cell_length_c   16.06692969
_cell_angle_alpha   89.74142497
_cell_angle_beta   90.00000000
_cell_angle_gamma   120.07815132
_symmetry_Int_Tables_number   1
_chemical_formula_structural   LiSc3(TiPt5)4
_chemical_formula_sum   'Li1 Sc3 Ti4 Pt20'
_cell_volume   438.97436954
_cell_formula_units_Z   1
loop_
 _symmetry_equiv_pos_site_id
 _symmetry_equiv_pos_as_xyz
  1  'x, y, z'
loop_
 _atom_site_type_symbol
 _atom_site_label
 _atom_site_symmetry_multiplicity
 _atom_site_fract_x
 _atom_site_fract_y
 _atom_site_fract_z
 _atom_site_occupancy
  Li  Li0  1  0.834193  0.668385  0.569162  1
  Sc  Sc1  1  0.003094  0.006188  0.719416  1
  Sc  Sc2  1  0.667248  0.334495  0.855861  1
  Sc  Sc3  1  0.333113  0.666227  0.143406  1
  Ti  Ti4  1  0.999466  0.998933  0.278721  1
  Ti  Ti5  1  0.660093  0.320184  0.425642  1
  Ti  Ti6  1  0.999712  0.999424  0.998318  1
  Ti  Ti7  1  0.332740  0.665482  0.572158  1
  Pt  Pt8  1  0.339864  0.172670  0.567829  1
  Pt  Pt9  1  0.166609  0.333219  0.859746  1
  Pt  Pt10  1  0.165008  0.330016  0.430882  1
  Pt  Pt11  1  0.160207  0.823151  0.432633  1
  Pt  Pt12  1  0.501301  0.002601  0.708206  1
  Pt  Pt13  1  0.662944  0.823151  0.432633  1
  Pt  Pt14  1  0.169612  0.829322  0.857308  1
  Pt  Pt15  1  0.659708  0.829322  0.857308  1
  Pt  Pt16  1  0.833221  0.167389  0.144785  1
  Pt  Pt17  1  0.832806  0.172670  0.567829  1
  Pt  Pt18  1  0.503248  0.507528  0.706933  1
  Pt  Pt19  1  0.334168  0.167389  0.144785  1
  Pt  Pt20  1  0.832940  0.665879  0.145134  1
  Pt  Pt21  1  0.501755  0.500037  0.290175  1
  Pt  Pt22  1  0.501568  0.003138  0.289624  1
  Pt  Pt23  1  0.500894  0.001788  0.001213  1
  Pt  Pt24  1  0.998280  0.500037  0.290175  1
  Pt  Pt25  1  0.004281  0.507528  0.706933  1
  Pt  Pt26  1  0.502112  0.501924  0.001594  1
  Pt  Pt27  1  0.999812  0.501924  0.001594  1
