# generated using pymatgen
data_Pr5YRh18
_symmetry_space_group_name_H-M   'P 1'
_cell_length_a   5.35402200
_cell_length_b   5.35402368
_cell_length_c   17.69814900
_cell_angle_alpha   90.00000000
_cell_angle_beta   90.00000000
_cell_angle_gamma   119.99998964
_symmetry_Int_Tables_number   1
_chemical_formula_structural   Pr5YRh18
_chemical_formula_sum   'Pr5 Y1 Rh18'
_cell_volume   439.35842921
_cell_formula_units_Z   1
loop_
 _symmetry_equiv_pos_site_id
 _symmetry_equiv_pos_as_xyz
  1  'x, y, z'
loop_
 _atom_site_type_symbol
 _atom_site_label
 _atom_site_symmetry_multiplicity
 _atom_site_fract_x
 _atom_site_fract_y
 _atom_site_fract_z
 _atom_site_occupancy
  Pr  Pr0  1  0.333333  0.666667  0.958067  1
  Pr  Pr1  1  0.666667  0.333333  0.042368  1
  Pr  Pr2  1  0.666667  0.333333  0.458897  1
  Pr  Pr3  1  0.333333  0.666667  0.749389  1
  Pr  Pr4  1  0.666667  0.333333  0.249844  1
  Y  Y5  1  0.333333  0.666667  0.543575  1
  Rh  Rh6  1  0.167118  0.832882  0.373167  1
  Rh  Rh7  1  0.167118  0.334236  0.373167  1
  Rh  Rh8  1  0.665764  0.832882  0.373167  1
  Rh  Rh9  1  0.833010  0.166990  0.626331  1
  Rh  Rh10  1  0.833010  0.666020  0.626331  1
  Rh  Rh11  1  0.333980  0.166990  0.626331  1
  Rh  Rh12  1  0.833306  0.166694  0.872262  1
  Rh  Rh13  1  0.833306  0.666612  0.872262  1
  Rh  Rh14  1  0.333388  0.166694  0.872262  1
  Rh  Rh15  1  0.166667  0.833333  0.127680  1
  Rh  Rh16  1  0.166667  0.333334  0.127680  1
  Rh  Rh17  1  0.666666  0.833333  0.127680  1
  Rh  Rh18  1  0.333333  0.666667  0.249892  1
  Rh  Rh19  1  0.666667  0.333333  0.749418  1
  Rh  Rh20  1  0.000000  0.000000  0.250295  1
  Rh  Rh21  1  0.000000  0.000000  0.749257  1
  Rh  Rh22  1  0.000000  0.000000  0.500392  1
  Rh  Rh23  1  0.000000  0.000000  0.000289  1
