# generated using pymatgen
data_CsDy6Er4(C2Br9)2
_symmetry_space_group_name_H-M   'P 1'
_cell_length_a   10.67009915
_cell_length_b   10.75177634
_cell_length_c   10.86820858
_cell_angle_alpha   113.36669505
_cell_angle_beta   87.45897116
_cell_angle_gamma   118.89079937
_symmetry_Int_Tables_number   1
_chemical_formula_structural   CsDy6Er4(C2Br9)2
_chemical_formula_sum   'Cs1 Dy6 Er4 C4 Br18'
_cell_volume   985.14933881
_cell_formula_units_Z   1
loop_
 _symmetry_equiv_pos_site_id
 _symmetry_equiv_pos_as_xyz
  1  'x, y, z'
loop_
 _atom_site_type_symbol
 _atom_site_label
 _atom_site_symmetry_multiplicity
 _atom_site_fract_x
 _atom_site_fract_y
 _atom_site_fract_z
 _atom_site_occupancy
  Cs  Cs0  1  0.499989  0.999959  0.499992  1
  Dy  Dy1  1  0.907305  0.594195  0.699774  1
  Dy  Dy2  1  0.111574  0.942085  0.001132  1
  Dy  Dy3  1  0.040249  0.963945  0.667130  1
  Dy  Dy4  1  0.336662  0.282285  0.296960  1
  Dy  Dy5  1  0.717549  0.636184  0.988303  1
  Dy  Dy6  1  0.888493  0.058325  0.999115  1
  Er  Er7  1  0.664734  0.718486  0.704316  1
  Er  Er8  1  0.281108  0.362659  0.012587  1
  Er  Er9  1  0.093035  0.404074  0.298916  1
  Er  Er10  1  0.960429  0.036712  0.331428  1
  C  C11  1  0.156856  0.228289  0.123482  1
  C  C12  1  0.842204  0.772119  0.876454  1
  C  C13  1  0.921564  0.851647  0.795617  1
  C  C14  1  0.077421  0.148663  0.204348  1
  Br  Br15  1  0.450973  0.530770  0.833118  1
  Br  Br16  1  0.383992  0.039351  0.159325  1
  Br  Br17  1  0.777799  0.857314  0.501567  1
  Br  Br18  1  0.839219  0.312098  0.155263  1
  Br  Br19  1  0.547402  0.468789  0.165860  1
  Br  Br20  1  0.220536  0.142229  0.497427  1
  Br  Br21  1  0.315457  0.100478  0.829984  1
  Br  Br22  1  0.685981  0.901817  0.172117  1
  Br  Br23  1  0.974551  0.761549  0.173583  1
  Br  Br24  1  0.933860  0.301069  0.499213  1
  Br  Br25  1  0.026959  0.240939  0.828613  1
  Br  Br26  1  0.067113  0.697499  0.498733  1
  Br  Br27  1  0.259339  0.620196  0.185899  1
  Br  Br28  1  0.739992  0.377204  0.813621  1
  Br  Br29  1  0.639270  0.435838  0.501285  1
  Br  Br30  1  0.162555  0.688936  0.845998  1
  Br  Br31  1  0.616293  0.958647  0.839531  1
  Br  Br32  1  0.359538  0.565654  0.499308  1
