# generated using pymatgen
data_Rb6Tl2Sb3
_symmetry_space_group_name_H-M   'P 1'
_cell_length_a   10.30652544
_cell_length_b   10.30652564
_cell_length_c   20.54512200
_cell_angle_alpha   82.96631770
_cell_angle_beta   82.96631756
_cell_angle_gamma   119.49550722
_symmetry_Int_Tables_number   1
_chemical_formula_structural   Rb6Tl2Sb3
_chemical_formula_sum   'Rb24 Tl8 Sb12'
_cell_volume   1842.58153260
_cell_formula_units_Z   4
loop_
 _symmetry_equiv_pos_site_id
 _symmetry_equiv_pos_as_xyz
  1  'x, y, z'
loop_
 _atom_site_type_symbol
 _atom_site_label
 _atom_site_symmetry_multiplicity
 _atom_site_fract_x
 _atom_site_fract_y
 _atom_site_fract_z
 _atom_site_occupancy
  Rb  Rb0  1  0.485839  0.336165  0.945970  1
  Rb  Rb1  1  0.663835  0.514161  0.554030  1
  Rb  Rb2  1  0.514161  0.663835  0.054030  1
  Rb  Rb3  1  0.336165  0.485839  0.445970  1
  Rb  Rb4  1  0.217219  0.672351  0.946157  1
  Rb  Rb5  1  0.327649  0.782781  0.553843  1
  Rb  Rb6  1  0.782781  0.327649  0.053843  1
  Rb  Rb7  1  0.672351  0.217219  0.446157  1
  Rb  Rb8  1  0.587656  0.075939  0.822333  1
  Rb  Rb9  1  0.924061  0.412344  0.677667  1
  Rb  Rb10  1  0.412344  0.924061  0.177667  1
  Rb  Rb11  1  0.075939  0.587656  0.322333  1
  Rb  Rb12  1  0.243955  0.413227  0.822316  1
  Rb  Rb13  1  0.586773  0.756045  0.677684  1
  Rb  Rb14  1  0.756045  0.586773  0.177684  1
  Rb  Rb15  1  0.413227  0.243955  0.322316  1
  Rb  Rb16  1  0.126371  0.938358  0.054510  1
  Rb  Rb17  1  0.061642  0.873629  0.445490  1
  Rb  Rb18  1  0.873629  0.061642  0.945490  1
  Rb  Rb19  1  0.938358  0.126371  0.554510  1
  Rb  Rb20  1  0.975672  0.024328  0.750000  1
  Rb  Rb21  1  0.024328  0.975672  0.250000  1
  Rb  Rb22  1  0.200905  0.799095  0.750000  1
  Rb  Rb23  1  0.799095  0.200905  0.250000  1
  Tl  Tl24  1  0.876261  0.706191  0.926542  1
  Tl  Tl25  1  0.293809  0.123739  0.573458  1
  Tl  Tl26  1  0.123739  0.293809  0.073458  1
  Tl  Tl27  1  0.706191  0.876261  0.426542  1
  Tl  Tl28  1  0.733706  0.562406  0.773456  1
  Tl  Tl29  1  0.437594  0.266294  0.726544  1
  Tl  Tl30  1  0.266294  0.437594  0.226544  1
  Tl  Tl31  1  0.562406  0.733706  0.273456  1
  Sb  Sb32  1  0.608945  0.725129  0.861839  1
  Sb  Sb33  1  0.274871  0.391055  0.638161  1
  Sb  Sb34  1  0.391055  0.274871  0.138161  1
  Sb  Sb35  1  0.725129  0.608945  0.361839  1
  Sb  Sb36  1  0.968703  0.791242  0.630589  1
  Sb  Sb37  1  0.208758  0.031297  0.869411  1
  Sb  Sb38  1  0.031297  0.208758  0.369411  1
  Sb  Sb39  1  0.791242  0.968703  0.130589  1
  Sb  Sb40  1  0.884911  0.432807  0.864755  1
  Sb  Sb41  1  0.567193  0.115089  0.635245  1
  Sb  Sb42  1  0.115089  0.567193  0.135245  1
  Sb  Sb43  1  0.432807  0.884911  0.364755  1
