# generated using pymatgen
data_Ti10AlSi5O
_symmetry_space_group_name_H-M   'P 1'
_cell_length_a   7.49061413
_cell_length_b   7.47637477
_cell_length_c   5.13376606
_cell_angle_alpha   90.04939847
_cell_angle_beta   89.90139083
_cell_angle_gamma   120.06301860
_symmetry_Int_Tables_number   1
_chemical_formula_structural   Ti10AlSi5O
_chemical_formula_sum   'Ti10 Al1 Si5 O1'
_cell_volume   248.82752322
_cell_formula_units_Z   1
loop_
 _symmetry_equiv_pos_site_id
 _symmetry_equiv_pos_as_xyz
  1  'x, y, z'
loop_
 _atom_site_type_symbol
 _atom_site_label
 _atom_site_symmetry_multiplicity
 _atom_site_fract_x
 _atom_site_fract_y
 _atom_site_fract_z
 _atom_site_occupancy
  Ti  Ti0  1  0.999844  0.757529  0.255811  1
  Ti  Ti1  1  0.242316  0.242471  0.255811  1
  Ti  Ti2  1  0.763122  0.000000  0.255950  1
  Ti  Ti3  1  0.004889  0.244149  0.743344  1
  Ti  Ti4  1  0.760740  0.755851  0.743344  1
  Ti  Ti5  1  0.236526  0.000000  0.745392  1
  Ti  Ti6  1  0.328515  0.661146  0.498699  1
  Ti  Ti7  1  0.667370  0.338854  0.498699  1
  Ti  Ti8  1  0.667078  0.338505  0.001475  1
  Ti  Ti9  1  0.328572  0.661495  0.001475  1
  Al  Al10  1  0.599446  0.000000  0.754777  1
  Si  Si11  1  0.997715  0.396700  0.244119  1
  Si  Si12  1  0.601014  0.603300  0.244119  1
  Si  Si13  1  0.401695  0.000000  0.245277  1
  Si  Si14  1  0.000515  0.600871  0.755911  1
  Si  Si15  1  0.399643  0.399129  0.755911  1
  O  O16  1  0.000999  0.000000  0.499887  1
