# generated using pymatgen
data_Sc6Ti4Al12Ru2Pt4Rh
_symmetry_space_group_name_H-M   'P 1'
_cell_length_a   8.81459008
_cell_length_b   8.82288597
_cell_length_c   8.82288700
_cell_angle_alpha   59.82638968
_cell_angle_beta   60.03109897
_cell_angle_gamma   60.03109680
_symmetry_Int_Tables_number   1
_chemical_formula_structural   Sc6Ti4Al12Ru2Pt4Rh
_chemical_formula_sum   'Sc6 Ti4 Al12 Ru2 Pt4 Rh1'
_cell_volume   484.77351949
_cell_formula_units_Z   1
loop_
 _symmetry_equiv_pos_site_id
 _symmetry_equiv_pos_as_xyz
  1  'x, y, z'
loop_
 _atom_site_type_symbol
 _atom_site_label
 _atom_site_symmetry_multiplicity
 _atom_site_fract_x
 _atom_site_fract_y
 _atom_site_fract_z
 _atom_site_occupancy
  Sc  Sc0  1  0.704905  0.295110  0.296124  1
  Sc  Sc1  1  0.697107  0.299728  0.700318  1
  Sc  Sc2  1  0.698330  0.702427  0.298391  1
  Sc  Sc3  1  0.297881  0.702434  0.701463  1
  Sc  Sc4  1  0.302223  0.701011  0.300308  1
  Sc  Sc5  1  0.300579  0.297920  0.702892  1
  Ti  Ti6  1  0.643265  0.115114  0.116020  1
  Ti  Ti7  1  0.118173  0.644562  0.118225  1
  Ti  Ti8  1  0.117019  0.116425  0.644339  1
  Ti  Ti9  1  0.123406  0.114472  0.118840  1
  Al  Al10  1  0.355308  0.884346  0.883381  1
  Al  Al11  1  0.882180  0.354260  0.881693  1
  Al  Al12  1  0.883091  0.883422  0.354951  1
  Al  Al13  1  0.878618  0.884960  0.880571  1
  Al  Al14  1  0.994579  0.332834  0.336483  1
  Al  Al15  1  0.332153  0.997958  0.333998  1
  Al  Al16  1  0.334690  0.333014  0.997287  1
  Al  Al17  1  0.335361  0.335554  0.336098  1
  Al  Al18  1  0.999265  0.670441  0.665397  1
  Al  Al19  1  0.670298  0.993578  0.670492  1
  Al  Al20  1  0.666946  0.672130  0.994454  1
  Al  Al21  1  0.666272  0.666783  0.666180  1
  Ru  Ru22  1  0.000349  0.998630  0.999687  1
  Ru  Ru23  1  0.498139  0.002231  0.001866  1
  Pt  Pt24  1  0.499357  0.001205  0.499315  1
  Pt  Pt25  1  0.499656  0.499205  0.001200  1
  Pt  Pt26  1  0.000427  0.499504  0.499750  1
  Pt  Pt27  1  0.000097  0.498959  0.001244  1
  Rh  Rh28  1  0.000326  0.001785  0.499036  1
