# generated using pymatgen
data_Nd3Y5Co3Si12Pd
_symmetry_space_group_name_H-M   'P 1'
_cell_length_a   8.08245200
_cell_length_b   8.06962301
_cell_length_c   8.22812622
_cell_angle_alpha   89.97683153
_cell_angle_beta   90.00000000
_cell_angle_gamma   120.05260370
_symmetry_Int_Tables_number   1
_chemical_formula_structural   Nd3Y5Co3Si12Pd
_chemical_formula_sum   'Nd3 Y5 Co3 Si12 Pd1'
_cell_volume   464.51255805
_cell_formula_units_Z   1
loop_
 _symmetry_equiv_pos_site_id
 _symmetry_equiv_pos_as_xyz
  1  'x, y, z'
loop_
 _atom_site_type_symbol
 _atom_site_label
 _atom_site_symmetry_multiplicity
 _atom_site_fract_x
 _atom_site_fract_y
 _atom_site_fract_z
 _atom_site_occupancy
  Nd  Nd0  1  0.500206  0.000411  0.247928  1
  Nd  Nd1  1  0.999911  0.999822  0.750400  1
  Nd  Nd2  1  0.999990  0.999981  0.248548  1
  Y  Y3  1  0.495122  0.504588  0.753448  1
  Y  Y4  1  0.498676  0.501003  0.247600  1
  Y  Y5  1  0.009466  0.504588  0.753448  1
  Y  Y6  1  0.002327  0.501003  0.247600  1
  Y  Y7  1  0.494916  0.989832  0.753641  1
  Co  Co8  1  0.666699  0.333396  0.985567  1
  Co  Co9  1  0.333148  0.666298  0.009742  1
  Co  Co10  1  0.333282  0.666566  0.489997  1
  Si  Si11  1  0.828410  0.174547  0.998064  1
  Si  Si12  1  0.170888  0.826737  0.996892  1
  Si  Si13  1  0.346137  0.174547  0.998064  1
  Si  Si14  1  0.171877  0.825695  0.504933  1
  Si  Si15  1  0.655848  0.826737  0.996892  1
  Si  Si16  1  0.836434  0.165482  0.498976  1
  Si  Si17  1  0.826090  0.652180  0.001171  1
  Si  Si18  1  0.653818  0.825695  0.504933  1
  Si  Si19  1  0.172687  0.345375  0.998183  1
  Si  Si20  1  0.329047  0.165482  0.498976  1
  Si  Si21  1  0.173681  0.347363  0.503184  1
  Si  Si22  1  0.834668  0.669335  0.496609  1
  Pd  Pd23  1  0.666670  0.333339  0.515203  1
