# generated using pymatgen
data_Y17Er3IrRh11
_symmetry_space_group_name_H-M   'P 1'
_cell_length_a   10.96534500
_cell_length_b   10.96540817
_cell_length_c   6.38480200
_cell_angle_alpha   89.99630060
_cell_angle_beta   89.99862056
_cell_angle_gamma   90.06541344
_symmetry_Int_Tables_number   1
_chemical_formula_structural   Y17Er3IrRh11
_chemical_formula_sum   'Y17 Er3 Ir1 Rh11'
_cell_volume   767.70479370
_cell_formula_units_Z   1
loop_
 _symmetry_equiv_pos_site_id
 _symmetry_equiv_pos_as_xyz
  1  'x, y, z'
loop_
 _atom_site_type_symbol
 _atom_site_label
 _atom_site_symmetry_multiplicity
 _atom_site_fract_x
 _atom_site_fract_y
 _atom_site_fract_z
 _atom_site_occupancy
  Y  Y0  1  0.290973  0.088902  0.379354  1
  Y  Y1  1  0.291237  0.909678  0.879334  1
  Y  Y2  1  0.709035  0.088398  0.879238  1
  Y  Y3  1  0.708723  0.910981  0.379003  1
  Y  Y4  1  0.586897  0.790266  0.878998  1
  Y  Y5  1  0.588959  0.209120  0.379704  1
  Y  Y6  1  0.410701  0.790352  0.380439  1
  Y  Y7  1  0.411133  0.208801  0.879033  1
  Y  Y8  1  0.209755  0.412910  0.621159  1
  Y  Y9  1  0.209630  0.589100  0.119456  1
  Y  Y10  1  0.790885  0.411255  0.120182  1
  Y  Y11  1  0.791180  0.589083  0.621112  1
  Y  Y12  1  0.911380  0.709228  0.120619  1
  Y  Y13  1  0.911333  0.291168  0.620821  1
  Y  Y14  1  0.090590  0.708572  0.620734  1
  Y  Y15  1  0.088726  0.291077  0.120953  1
  Y  Y16  1  0.999751  0.999936  0.500146  1
  Er  Er17  1  0.000121  0.000291  0.999846  1
  Er  Er18  1  0.499626  0.499872  0.000072  1
  Er  Er19  1  0.500116  0.500357  0.499953  1
  Ir  Ir20  1  0.348037  0.651836  0.749949  1
  Rh  Rh21  1  0.846772  0.153350  0.248334  1
  Rh  Rh22  1  0.846292  0.846961  0.751879  1
  Rh  Rh23  1  0.153180  0.153568  0.751426  1
  Rh  Rh24  1  0.152433  0.847415  0.248324  1
  Rh  Rh25  1  0.652564  0.347513  0.749872  1
  Rh  Rh26  1  0.653466  0.652672  0.250103  1
  Rh  Rh27  1  0.347367  0.346462  0.249922  1
  Rh  Rh28  1  0.500092  0.000549  0.126567  1
  Rh  Rh29  1  0.500307  0.000710  0.625582  1
  Rh  Rh30  1  0.999293  0.499711  0.874187  1
  Rh  Rh31  1  0.999448  0.499901  0.373699  1
