# generated using pymatgen
data_NdY(ScIr)2
_symmetry_space_group_name_H-M   'P 1'
_cell_length_a   7.20341100
_cell_length_b   4.30561100
_cell_length_c   8.81382700
_cell_angle_alpha   90.00000000
_cell_angle_beta   90.00000000
_cell_angle_gamma   90.00000000
_symmetry_Int_Tables_number   1
_chemical_formula_structural   NdY(ScIr)2
_chemical_formula_sum   'Nd2 Y2 Sc4 Ir4'
_cell_volume   273.36159921
_cell_formula_units_Z   2
loop_
 _symmetry_equiv_pos_site_id
 _symmetry_equiv_pos_as_xyz
  1  'x, y, z'
loop_
 _atom_site_type_symbol
 _atom_site_label
 _atom_site_symmetry_multiplicity
 _atom_site_fract_x
 _atom_site_fract_y
 _atom_site_fract_z
 _atom_site_occupancy
  Nd  Nd0  1  0.014740  0.750000  0.826376  1
  Nd  Nd1  1  0.514740  0.750000  0.673624  1
  Y  Y2  1  0.980161  0.250000  0.176821  1
  Y  Y3  1  0.480161  0.250000  0.323179  1
  Sc  Sc4  1  0.862177  0.250000  0.558458  1
  Sc  Sc5  1  0.362177  0.250000  0.941542  1
  Sc  Sc6  1  0.141506  0.750000  0.430502  1
  Sc  Sc7  1  0.641506  0.750000  0.069498  1
  Ir  Ir8  1  0.734891  0.250000  0.901005  1
  Ir  Ir9  1  0.234891  0.250000  0.598995  1
  Ir  Ir10  1  0.266526  0.750000  0.109825  1
  Ir  Ir11  1  0.766526  0.750000  0.390175  1
