# generated using pymatgen
data_Sc2AlNi2Os
_symmetry_space_group_name_H-M   'P 1'
_cell_length_a   5.18257354
_cell_length_b   5.18257277
_cell_length_c   7.93770000
_cell_angle_alpha   90.00000000
_cell_angle_beta   90.00000000
_cell_angle_gamma   120.28793787
_symmetry_Int_Tables_number   1
_chemical_formula_structural   Sc2AlNi2Os
_chemical_formula_sum   'Sc4 Al2 Ni4 Os2'
_cell_volume   184.09787842
_cell_formula_units_Z   2
loop_
 _symmetry_equiv_pos_site_id
 _symmetry_equiv_pos_as_xyz
  1  'x, y, z'
loop_
 _atom_site_type_symbol
 _atom_site_label
 _atom_site_symmetry_multiplicity
 _atom_site_fract_x
 _atom_site_fract_y
 _atom_site_fract_z
 _atom_site_occupancy
  Sc  Sc0  1  0.333354  0.666646  0.188643  1
  Sc  Sc1  1  0.664995  0.335005  0.314011  1
  Sc  Sc2  1  0.664995  0.335005  0.685989  1
  Sc  Sc3  1  0.333354  0.666646  0.811357  1
  Al  Al4  1  0.996836  0.003164  0.260350  1
  Al  Al5  1  0.996836  0.003164  0.739650  1
  Ni  Ni6  1  0.834981  0.165019  0.000000  1
  Ni  Ni7  1  0.170302  0.345029  0.500000  1
  Ni  Ni8  1  0.654971  0.829698  0.500000  1
  Ni  Ni9  1  0.172725  0.827275  0.500000  1
  Os  Os10  1  0.830518  0.653916  0.000000  1
  Os  Os11  1  0.346084  0.169482  0.000000  1
