# generated using pymatgen
data_SrEu(InPb)3
_symmetry_space_group_name_H-M   'P 1'
_cell_length_a   4.95834300
_cell_length_b   4.87011400
_cell_length_c   9.76923000
_cell_angle_alpha   90.00000000
_cell_angle_beta   90.00000000
_cell_angle_gamma   90.00000000
_symmetry_Int_Tables_number   1
_chemical_formula_structural   SrEu(InPb)3
_chemical_formula_sum   'Sr1 Eu1 In3 Pb3'
_cell_volume   235.90439288
_cell_formula_units_Z   1
loop_
 _symmetry_equiv_pos_site_id
 _symmetry_equiv_pos_as_xyz
  1  'x, y, z'
loop_
 _atom_site_type_symbol
 _atom_site_label
 _atom_site_symmetry_multiplicity
 _atom_site_fract_x
 _atom_site_fract_y
 _atom_site_fract_z
 _atom_site_occupancy
  Sr  Sr0  1  0.000000  0.000000  0.500000  1
  Eu  Eu1  1  0.000000  0.000000  0.000000  1
  In  In2  1  0.500000  0.000000  0.239214  1
  In  In3  1  0.500000  0.000000  0.760786  1
  In  In4  1  0.500000  0.500000  0.000000  1
  Pb  Pb5  1  0.000000  0.500000  0.240772  1
  Pb  Pb6  1  0.000000  0.500000  0.759228  1
  Pb  Pb7  1  0.500000  0.500000  0.500000  1
