# generated using pymatgen
data_Rb4Zr7VSe16
_symmetry_space_group_name_H-M   'P 1'
_cell_length_a   6.58786810
_cell_length_b   7.63174500
_cell_length_c   17.16409218
_cell_angle_alpha   90.00000000
_cell_angle_beta   90.14230655
_cell_angle_gamma   90.00000000
_symmetry_Int_Tables_number   1
_chemical_formula_structural   Rb4Zr7VSe16
_chemical_formula_sum   'Rb4 Zr7 V1 Se16'
_cell_volume   862.95518975
_cell_formula_units_Z   1
loop_
 _symmetry_equiv_pos_site_id
 _symmetry_equiv_pos_as_xyz
  1  'x, y, z'
loop_
 _atom_site_type_symbol
 _atom_site_label
 _atom_site_symmetry_multiplicity
 _atom_site_fract_x
 _atom_site_fract_y
 _atom_site_fract_z
 _atom_site_occupancy
  Rb  Rb0  1  0.351097  0.000000  0.002195  1
  Rb  Rb1  1  0.652983  0.500000  0.497932  1
  Rb  Rb2  1  0.025712  0.000000  0.498042  1
  Rb  Rb3  1  0.973985  0.500000  0.002268  1
  Zr  Zr4  1  0.001428  0.000000  0.750848  1
  Zr  Zr5  1  0.998719  0.500000  0.251202  1
  Zr  Zr6  1  0.998713  0.500000  0.749088  1
  Zr  Zr7  1  0.499771  0.240837  0.249502  1
  Zr  Zr8  1  0.499993  0.750001  0.749949  1
  Zr  Zr9  1  0.499771  0.759163  0.249502  1
  Zr  Zr10  1  0.499993  0.249999  0.749949  1
  V  V11  1  0.001088  0.000000  0.249607  1
  Se  Se12  1  0.836700  0.243666  0.341447  1
  Se  Se13  1  0.833210  0.751563  0.654887  1
  Se  Se14  1  0.161156  0.754588  0.158760  1
  Se  Se15  1  0.166868  0.251554  0.845056  1
  Se  Se16  1  0.161156  0.245412  0.158760  1
  Se  Se17  1  0.166868  0.748446  0.845056  1
  Se  Se18  1  0.836700  0.756334  0.341447  1
  Se  Se19  1  0.833210  0.248437  0.654887  1
  Se  Se20  1  0.678784  0.000000  0.158212  1
  Se  Se21  1  0.669804  0.000000  0.843988  1
  Se  Se22  1  0.331577  0.500000  0.341813  1
  Se  Se23  1  0.330336  0.500000  0.655869  1
  Se  Se24  1  0.327568  0.000000  0.341010  1
  Se  Se25  1  0.335562  0.000000  0.656554  1
  Se  Se26  1  0.662769  0.500000  0.158796  1
  Se  Se27  1  0.664477  0.500000  0.843374  1
