# generated using pymatgen
data_Nb6Al8Cu3Os
_symmetry_space_group_name_H-M   'P 1'
_cell_length_a   8.76502638
_cell_length_b   8.82440172
_cell_length_c   8.29166400
_cell_angle_alpha   90.00000000
_cell_angle_beta   90.00000000
_cell_angle_gamma   120.95806669
_symmetry_Int_Tables_number   1
_chemical_formula_structural   Nb6Al8Cu3Os
_chemical_formula_sum   'Nb12 Al16 Cu6 Os2'
_cell_volume   549.96697698
_cell_formula_units_Z   2
loop_
 _symmetry_equiv_pos_site_id
 _symmetry_equiv_pos_as_xyz
  1  'x, y, z'
loop_
 _atom_site_type_symbol
 _atom_site_label
 _atom_site_symmetry_multiplicity
 _atom_site_fract_x
 _atom_site_fract_y
 _atom_site_fract_z
 _atom_site_occupancy
  Nb  Nb0  1  0.325844  0.991638  0.065711  1
  Nb  Nb1  1  0.674156  0.008362  0.934289  1
  Nb  Nb2  1  0.997032  0.327237  0.068779  1
  Nb  Nb3  1  0.674156  0.008362  0.565711  1
  Nb  Nb4  1  0.997032  0.327237  0.431221  1
  Nb  Nb5  1  0.002968  0.672763  0.931221  1
  Nb  Nb6  1  0.325844  0.991638  0.434289  1
  Nb  Nb7  1  0.002968  0.672763  0.568779  1
  Nb  Nb8  1  0.671123  0.668642  0.065506  1
  Nb  Nb9  1  0.328877  0.331358  0.934494  1
  Nb  Nb10  1  0.328877  0.331358  0.565506  1
  Nb  Nb11  1  0.671123  0.668642  0.434494  1
  Al  Al12  1  0.344648  0.846993  0.750000  1
  Al  Al13  1  0.651143  0.503796  0.750000  1
  Al  Al14  1  0.655352  0.153007  0.250000  1
  Al  Al15  1  0.348857  0.496204  0.250000  1
  Al  Al16  1  0.844658  0.343128  0.750000  1
  Al  Al17  1  0.155342  0.656872  0.250000  1
  Al  Al18  1  0.340307  0.664781  0.505293  1
  Al  Al19  1  0.659693  0.335219  0.494707  1
  Al  Al20  1  0.659693  0.335219  0.005293  1
  Al  Al21  1  0.340307  0.664781  0.994707  1
  Al  Al22  1  0.178368  0.008891  0.750000  1
  Al  Al23  1  0.821632  0.991109  0.250000  1
  Al  Al24  1  0.009248  0.179954  0.750000  1
  Al  Al25  1  0.990752  0.820046  0.250000  1
  Al  Al26  1  0.824730  0.834330  0.750000  1
  Al  Al27  1  0.175270  0.165670  0.250000  1
  Cu  Cu28  1  0.168219  0.501633  0.750000  1
  Cu  Cu29  1  0.831781  0.498367  0.250000  1
  Cu  Cu30  1  0.504592  0.672866  0.750000  1
  Cu  Cu31  1  0.503818  0.171502  0.750000  1
  Cu  Cu32  1  0.495408  0.327134  0.250000  1
  Cu  Cu33  1  0.496182  0.828498  0.250000  1
  Os  Os34  1  0.000000  0.000000  0.500000  1
  Os  Os35  1  0.000000  0.000000  0.000000  1
