# generated using pymatgen
data_Rb4LiAgAs2
_symmetry_space_group_name_H-M   'P 1'
_cell_length_a   6.76194009
_cell_length_b   6.76194043
_cell_length_c   6.20989633
_cell_angle_alpha   89.81715751
_cell_angle_beta   89.81714289
_cell_angle_gamma   104.46282207
_symmetry_Int_Tables_number   1
_chemical_formula_structural   Rb4LiAgAs2
_chemical_formula_sum   'Rb4 Li1 Ag1 As2'
_cell_volume   274.93845412
_cell_formula_units_Z   1
loop_
 _symmetry_equiv_pos_site_id
 _symmetry_equiv_pos_as_xyz
  1  'x, y, z'
loop_
 _atom_site_type_symbol
 _atom_site_label
 _atom_site_symmetry_multiplicity
 _atom_site_fract_x
 _atom_site_fract_y
 _atom_site_fract_z
 _atom_site_occupancy
  Rb  Rb0  1  0.969439  0.309034  0.754492  1
  Rb  Rb1  1  0.309034  0.969439  0.754492  1
  Rb  Rb2  1  0.030561  0.690966  0.245508  1
  Rb  Rb3  1  0.690966  0.030561  0.245508  1
  Li  Li4  1  0.500000  0.500000  0.500000  1
  Ag  Ag5  1  0.500000  0.500000  0.000000  1
  As  As6  1  0.742829  0.742829  0.744077  1
  As  As7  1  0.257171  0.257171  0.255923  1
