# generated using pymatgen
data_Pr(Tc2As)2
_symmetry_space_group_name_H-M   'P 1'
_cell_length_a   7.57437399
_cell_length_b   7.57437382
_cell_length_c   4.09445000
_cell_angle_alpha   90.00000000
_cell_angle_beta   90.00000000
_cell_angle_gamma   148.20195590
_symmetry_Int_Tables_number   1
_chemical_formula_structural   Pr(Tc2As)2
_chemical_formula_sum   'Pr1 Tc4 As2'
_cell_volume   123.77682124
_cell_formula_units_Z   1
loop_
 _symmetry_equiv_pos_site_id
 _symmetry_equiv_pos_as_xyz
  1  'x, y, z'
loop_
 _atom_site_type_symbol
 _atom_site_label
 _atom_site_symmetry_multiplicity
 _atom_site_fract_x
 _atom_site_fract_y
 _atom_site_fract_z
 _atom_site_occupancy
  Pr  Pr0  1  0.000000  0.000000  0.000000  1
  Tc  Tc1  1  0.808943  0.191057  0.500000  1
  Tc  Tc2  1  0.191057  0.808943  0.500000  1
  Tc  Tc3  1  0.697547  0.302453  0.000000  1
  Tc  Tc4  1  0.302453  0.697547  0.000000  1
  As  As5  1  0.591298  0.408702  0.500000  1
  As  As6  1  0.408702  0.591298  0.500000  1
