# generated using pymatgen
data_CaPrB4Ir5
_symmetry_space_group_name_H-M   'P 1'
_cell_length_a   7.57166748
_cell_length_b   6.33576724
_cell_length_c   5.71187939
_cell_angle_alpha   77.68492964
_cell_angle_beta   54.83714506
_cell_angle_gamma   47.47791967
_symmetry_Int_Tables_number   1
_chemical_formula_structural   CaPrB4Ir5
_chemical_formula_sum   'Ca1 Pr1 B4 Ir5'
_cell_volume   157.90274645
_cell_formula_units_Z   1
loop_
 _symmetry_equiv_pos_site_id
 _symmetry_equiv_pos_as_xyz
  1  'x, y, z'
loop_
 _atom_site_type_symbol
 _atom_site_label
 _atom_site_symmetry_multiplicity
 _atom_site_fract_x
 _atom_site_fract_y
 _atom_site_fract_z
 _atom_site_occupancy
  Ca  Ca0  1  0.145166  0.145166  0.854834  1
  Pr  Pr1  1  0.861734  0.861734  0.138266  1
  B  B2  1  0.788547  0.471351  0.528649  1
  B  B3  1  0.208052  0.528418  0.471582  1
  B  B4  1  0.528418  0.208052  0.791948  1
  B  B5  1  0.471351  0.788547  0.211453  1
  Ir  Ir6  1  0.499506  0.499506  0.500494  1
  Ir  Ir7  1  0.500310  0.500310  0.999690  1
  Ir  Ir8  1  0.000310  0.000310  0.499690  1
  Ir  Ir9  1  0.748303  0.748303  0.751697  1
  Ir  Ir10  1  0.248303  0.248303  0.251697  1
