# generated using pymatgen
data_Hf6Ga6Ir3PdRh2
_symmetry_space_group_name_H-M   'P 1'
_cell_length_a   7.20527500
_cell_length_b   7.20527372
_cell_length_c   6.86079700
_cell_angle_alpha   90.00000000
_cell_angle_beta   90.00000000
_cell_angle_gamma   120.00000129
_symmetry_Int_Tables_number   1
_chemical_formula_structural   Hf6Ga6Ir3PdRh2
_chemical_formula_sum   'Hf6 Ga6 Ir3 Pd1 Rh2'
_cell_volume   308.46524591
_cell_formula_units_Z   1
loop_
 _symmetry_equiv_pos_site_id
 _symmetry_equiv_pos_as_xyz
  1  'x, y, z'
loop_
 _atom_site_type_symbol
 _atom_site_label
 _atom_site_symmetry_multiplicity
 _atom_site_fract_x
 _atom_site_fract_y
 _atom_site_fract_z
 _atom_site_occupancy
  Hf  Hf0  1  0.606565  0.601776  0.250308  1
  Hf  Hf1  1  0.005278  0.410081  0.749780  1
  Hf  Hf2  1  0.398224  0.004789  0.250308  1
  Hf  Hf3  1  0.995211  0.393435  0.250308  1
  Hf  Hf4  1  0.404803  0.994722  0.749780  1
  Hf  Hf5  1  0.589919  0.595197  0.749780  1
  Ga  Ga6  1  0.267954  0.267991  0.497885  1
  Ga  Ga7  1  0.732009  0.999964  0.497885  1
  Ga  Ga8  1  0.000036  0.732046  0.497885  1
  Ga  Ga9  1  0.732048  0.000596  0.002114  1
  Ga  Ga10  1  0.268548  0.267952  0.002114  1
  Ga  Ga11  1  0.999404  0.731452  0.002114  1
  Ir  Ir12  1  0.333333  0.666667  0.493304  1
  Ir  Ir13  1  0.333333  0.666667  0.006833  1
  Ir  Ir14  1  0.666667  0.333333  0.506039  1
  Pd  Pd15  1  0.000000  0.000000  0.750002  1
  Rh  Rh16  1  0.000000  0.000000  0.250016  1
  Rh  Rh17  1  0.666667  0.333333  0.993543  1
