# generated using pymatgen
data_Na4Li2AlCrH12
_symmetry_space_group_name_H-M   'P 1'
_cell_length_a   5.20531427
_cell_length_b   5.21842530
_cell_length_c   7.35158303
_cell_angle_alpha   90.00773486
_cell_angle_beta   89.96862766
_cell_angle_gamma   90.03819297
_symmetry_Int_Tables_number   1
_chemical_formula_structural   Na4Li2AlCrH12
_chemical_formula_sum   'Na4 Li2 Al1 Cr1 H12'
_cell_volume   199.69497083
_cell_formula_units_Z   1
loop_
 _symmetry_equiv_pos_site_id
 _symmetry_equiv_pos_as_xyz
  1  'x, y, z'
loop_
 _atom_site_type_symbol
 _atom_site_label
 _atom_site_symmetry_multiplicity
 _atom_site_fract_x
 _atom_site_fract_y
 _atom_site_fract_z
 _atom_site_occupancy
  Na  Na0  1  0.503600  0.983105  0.250157  1
  Na  Na1  1  0.998661  0.484331  0.249985  1
  Na  Na2  1  0.001340  0.515668  0.750016  1
  Na  Na3  1  0.496400  0.016894  0.749844  1
  Li  Li4  1  0.499999  0.500000  0.000001  1
  Li  Li5  1  0.000000  0.000001  0.500000  1
  Al  Al6  1  0.500000  0.500000  0.500000  1
  Cr  Cr7  1  0.000000  0.999999  0.000000  1
  H  H8  1  0.742951  0.207515  0.026811  1
  H  H9  1  0.794425  0.741700  0.027952  1
  H  H10  1  0.053161  0.009099  0.232479  1
  H  H11  1  0.451875  0.508838  0.263095  1
  H  H12  1  0.705024  0.233253  0.474444  1
  H  H13  1  0.765950  0.706793  0.475652  1
  H  H14  1  0.234050  0.293207  0.524348  1
  H  H15  1  0.294976  0.766747  0.525556  1
  H  H16  1  0.548125  0.491163  0.736906  1
  H  H17  1  0.946838  0.990900  0.767522  1
  H  H18  1  0.205575  0.258299  0.972049  1
  H  H19  1  0.257049  0.792486  0.973190  1
