# generated using pymatgen
data_Er16In4Ir2PdPt
_symmetry_space_group_name_H-M   'P 1'
_cell_length_a   9.59345564
_cell_length_b   9.60623369
_cell_length_c   9.60623513
_cell_angle_alpha   60.35502414
_cell_angle_beta   60.18930683
_cell_angle_gamma   60.18929788
_symmetry_Int_Tables_number   1
_chemical_formula_structural   Er16In4Ir2PdPt
_chemical_formula_sum   'Er16 In4 Ir2 Pd1 Pt1'
_cell_volume   629.45046571
_cell_formula_units_Z   1
loop_
 _symmetry_equiv_pos_site_id
 _symmetry_equiv_pos_as_xyz
  1  'x, y, z'
loop_
 _atom_site_type_symbol
 _atom_site_label
 _atom_site_symmetry_multiplicity
 _atom_site_fract_x
 _atom_site_fract_y
 _atom_site_fract_z
 _atom_site_occupancy
  Er  Er0  1  0.061114  0.060005  0.436568  1
  Er  Er1  1  0.650176  0.056256  0.643951  1
  Er  Er2  1  0.186088  0.808599  0.194854  1
  Er  Er3  1  0.440883  0.062327  0.434540  1
  Er  Er4  1  0.186088  0.194854  0.808599  1
  Er  Er5  1  0.655286  0.649247  0.649247  1
  Er  Er6  1  0.049073  0.648476  0.648476  1
  Er  Er7  1  0.439315  0.061403  0.061403  1
  Er  Er8  1  0.650176  0.643951  0.056256  1
  Er  Er9  1  0.190013  0.808914  0.808914  1
  Er  Er10  1  0.810723  0.193456  0.808596  1
  Er  Er11  1  0.809818  0.189997  0.189997  1
  Er  Er12  1  0.810723  0.808596  0.193456  1
  Er  Er13  1  0.063116  0.437532  0.437532  1
  Er  Er14  1  0.440883  0.434540  0.062327  1
  Er  Er15  1  0.061114  0.436568  0.060005  1
  In  In16  1  0.750289  0.416860  0.416860  1
  In  In17  1  0.416536  0.417182  0.749799  1
  In  In18  1  0.416536  0.749799  0.417182  1
  In  In19  1  0.415736  0.416809  0.416809  1
  Ir  Ir20  1  0.856768  0.860714  0.426762  1
  Ir  Ir21  1  0.856768  0.426762  0.860714  1
  Pd  Pd22  1  0.427693  0.858810  0.858810  1
  Pt  Pt23  1  0.855087  0.858345  0.858345  1
