# generated using pymatgen
data_Gd2MgTe2(SO7)2
_symmetry_space_group_name_H-M   'P 1'
_cell_length_a   5.35949455
_cell_length_b   7.95293094
_cell_length_c   8.22599534
_cell_angle_alpha   115.40735445
_cell_angle_beta   106.85263762
_cell_angle_gamma   85.88626564
_symmetry_Int_Tables_number   1
_chemical_formula_structural   Gd2MgTe2(SO7)2
_chemical_formula_sum   'Gd2 Mg1 Te2 S2 O14'
_cell_volume   302.54592529
_cell_formula_units_Z   1
loop_
 _symmetry_equiv_pos_site_id
 _symmetry_equiv_pos_as_xyz
  1  'x, y, z'
loop_
 _atom_site_type_symbol
 _atom_site_label
 _atom_site_symmetry_multiplicity
 _atom_site_fract_x
 _atom_site_fract_y
 _atom_site_fract_z
 _atom_site_occupancy
  Gd  Gd0  1  0.087167  0.252396  0.983610  1
  Gd  Gd1  1  0.912833  0.747604  0.016390  1
  Mg  Mg2  1  0.000000  0.000000  0.500000  1
  Te  Te3  1  0.521568  0.269797  0.661402  1
  Te  Te4  1  0.478432  0.730203  0.338598  1
  S  S5  1  0.768406  0.244154  0.249664  1
  S  S6  1  0.231594  0.755846  0.750336  1
  O  O7  1  0.907375  0.404153  0.258869  1
  O  O8  1  0.092625  0.595847  0.741131  1
  O  O9  1  0.869599  0.217870  0.424118  1
  O  O10  1  0.130401  0.782130  0.575882  1
  O  O11  1  0.483914  0.270884  0.217033  1
  O  O12  1  0.516086  0.729116  0.782967  1
  O  O13  1  0.819639  0.077112  0.085276  1
  O  O14  1  0.180361  0.922888  0.914724  1
  O  O15  1  0.750375  0.436344  0.895566  1
  O  O16  1  0.249625  0.563656  0.104434  1
  O  O17  1  0.276415  0.191148  0.745543  1
  O  O18  1  0.723585  0.808852  0.254457  1
  O  O19  1  0.753196  0.076404  0.666552  1
  O  O20  1  0.246804  0.923596  0.333448  1
