# generated using pymatgen
data_Er4As6Ru6Pt
_symmetry_space_group_name_H-M   'P 1'
_cell_length_a   7.23277136
_cell_length_b   7.23277114
_cell_length_c   7.23277081
_cell_angle_alpha   109.71619709
_cell_angle_beta   108.98237599
_cell_angle_gamma   109.71619454
_symmetry_Int_Tables_number   1
_chemical_formula_structural   Er4As6Ru6Pt
_chemical_formula_sum   'Er4 As6 Ru6 Pt1'
_cell_volume   291.25176901
_cell_formula_units_Z   1
loop_
 _symmetry_equiv_pos_site_id
 _symmetry_equiv_pos_as_xyz
  1  'x, y, z'
loop_
 _atom_site_type_symbol
 _atom_site_label
 _atom_site_symmetry_multiplicity
 _atom_site_fract_x
 _atom_site_fract_y
 _atom_site_fract_z
 _atom_site_occupancy
  Er  Er0  1  0.000405  0.000811  0.500405  1
  Er  Er1  1  0.499595  0.999189  0.999595  1
  Er  Er2  1  0.000405  0.500000  0.999595  1
  Er  Er3  1  0.499595  0.500000  0.500405  1
  As  As4  1  0.319289  0.000000  0.319289  1
  As  As5  1  0.006684  0.314876  0.321560  1
  As  As6  1  0.006684  0.685124  0.691808  1
  As  As7  1  0.308192  0.314876  0.993316  1
  As  As8  1  0.678440  0.685124  0.993316  1
  As  As9  1  0.680711  0.000000  0.680711  1
  Ru  Ru10  1  0.498230  0.749332  0.247562  1
  Ru  Ru11  1  0.498230  0.250668  0.748899  1
  Ru  Ru12  1  0.752438  0.250668  0.501770  1
  Ru  Ru13  1  0.251101  0.749332  0.501770  1
  Ru  Ru14  1  0.250000  0.500000  0.750000  1
  Ru  Ru15  1  0.000000  0.000000  0.000000  1
  Pt  Pt16  1  0.750000  0.500000  0.250000  1
