# generated using pymatgen
data_LaGdSe2
_symmetry_space_group_name_H-M   'P 1'
_cell_length_a   7.39979942
_cell_length_b   7.39979986
_cell_length_c   7.39979900
_cell_angle_alpha   32.83354054
_cell_angle_beta   32.83353529
_cell_angle_gamma   32.83354250
_symmetry_Int_Tables_number   1
_chemical_formula_structural   LaGdSe2
_chemical_formula_sum   'La1 Gd1 Se2'
_cell_volume   105.97666755
_cell_formula_units_Z   1
loop_
 _symmetry_equiv_pos_site_id
 _symmetry_equiv_pos_as_xyz
  1  'x, y, z'
loop_
 _atom_site_type_symbol
 _atom_site_label
 _atom_site_symmetry_multiplicity
 _atom_site_fract_x
 _atom_site_fract_y
 _atom_site_fract_z
 _atom_site_occupancy
  La  La0  1  0.000000  0.000000  0.000000  1
  Gd  Gd1  1  0.500000  0.500000  0.500000  1
  Se  Se2  1  0.245019  0.245019  0.245019  1
  Se  Se3  1  0.754981  0.754981  0.754981  1
