# generated using pymatgen
data_TbY3Pd4F28
_symmetry_space_group_name_H-M   'P 1'
_cell_length_a   5.52678929
_cell_length_b   8.88850290
_cell_length_c   11.97854560
_cell_angle_alpha   62.35086378
_cell_angle_beta   90.01730533
_cell_angle_gamma   90.00247510
_symmetry_Int_Tables_number   1
_chemical_formula_structural   TbY3Pd4F28
_chemical_formula_sum   'Tb1 Y3 Pd4 F28'
_cell_volume   521.24773411
_cell_formula_units_Z   1
loop_
 _symmetry_equiv_pos_site_id
 _symmetry_equiv_pos_as_xyz
  1  'x, y, z'
loop_
 _atom_site_type_symbol
 _atom_site_label
 _atom_site_symmetry_multiplicity
 _atom_site_fract_x
 _atom_site_fract_y
 _atom_site_fract_z
 _atom_site_occupancy
  Tb  Tb0  1  0.237396  0.813936  0.763874  1
  Y  Y1  1  0.262905  0.814168  0.263714  1
  Y  Y2  1  0.737053  0.186136  0.736260  1
  Y  Y3  1  0.762938  0.185883  0.236273  1
  Pd  Pd4  1  0.758995  0.726629  0.043112  1
  Pd  Pd5  1  0.240837  0.273064  0.957196  1
  Pd  Pd6  1  0.259239  0.273415  0.457029  1
  Pd  Pd7  1  0.741091  0.726602  0.542655  1
  F  F8  1  0.933580  0.704227  0.415264  1
  F  F9  1  0.066757  0.295884  0.584361  1
  F  F10  1  0.433421  0.295597  0.084545  1
  F  F11  1  0.566237  0.704774  0.915508  1
  F  F12  1  0.465738  0.726136  0.133437  1
  F  F13  1  0.534182  0.273720  0.866778  1
  F  F14  1  0.965871  0.273737  0.366675  1
  F  F15  1  0.034120  0.726452  0.633074  1
  F  F16  1  0.947318  0.741895  0.175612  1
  F  F17  1  0.052473  0.257743  0.824650  1
  F  F18  1  0.447522  0.257779  0.324614  1
  F  F19  1  0.552800  0.742135  0.674964  1
  F  F20  1  0.770396  0.479507  0.141027  1
  F  F21  1  0.229518  0.519996  0.859335  1
  F  F22  1  0.270679  0.520419  0.358870  1
  F  F23  1  0.729710  0.479552  0.640835  1
  F  F24  1  0.941693  0.281227  0.041109  1
  F  F25  1  0.057807  0.718764  0.958983  1
  F  F26  1  0.441721  0.718512  0.458819  1
  F  F27  1  0.558415  0.281522  0.540968  1
  F  F28  1  0.741648  0.973179  0.450909  1
  F  F29  1  0.258515  0.026838  0.549267  1
  F  F30  1  0.241501  0.026459  0.049036  1
  F  F31  1  0.758404  0.973165  0.951278  1
  F  F32  1  0.590391  0.968754  0.231183  1
  F  F33  1  0.409621  0.031896  0.768814  1
  F  F34  1  0.090474  0.031299  0.268830  1
  F  F35  1  0.909035  0.969001  0.731145  1
