# generated using pymatgen
data_LiYb3Bi2H
_symmetry_space_group_name_H-M   'P 1'
_cell_length_a   4.62207000
_cell_length_b   12.31929800
_cell_length_c   12.40869700
_cell_angle_alpha   90.00000000
_cell_angle_beta   90.00000000
_cell_angle_gamma   90.00000000
_symmetry_Int_Tables_number   1
_chemical_formula_structural   LiYb3Bi2H
_chemical_formula_sum   'Li4 Yb12 Bi8 H4'
_cell_volume   706.55936847
_cell_formula_units_Z   4
loop_
 _symmetry_equiv_pos_site_id
 _symmetry_equiv_pos_as_xyz
  1  'x, y, z'
loop_
 _atom_site_type_symbol
 _atom_site_label
 _atom_site_symmetry_multiplicity
 _atom_site_fract_x
 _atom_site_fract_y
 _atom_site_fract_z
 _atom_site_occupancy
  Li  Li0  1  0.250000  0.135531  0.860365  1
  Li  Li1  1  0.250000  0.635531  0.639635  1
  Li  Li2  1  0.750000  0.864469  0.139635  1
  Li  Li3  1  0.750000  0.364469  0.360365  1
  Yb  Yb4  1  0.250000  0.060931  0.625127  1
  Yb  Yb5  1  0.250000  0.560931  0.874873  1
  Yb  Yb6  1  0.750000  0.939069  0.374873  1
  Yb  Yb7  1  0.750000  0.439069  0.125127  1
  Yb  Yb8  1  0.250000  0.360878  0.564297  1
  Yb  Yb9  1  0.250000  0.860878  0.935703  1
  Yb  Yb10  1  0.750000  0.639122  0.435703  1
  Yb  Yb11  1  0.750000  0.139122  0.064297  1
  Yb  Yb12  1  0.250000  0.218950  0.287727  1
  Yb  Yb13  1  0.250000  0.718950  0.212273  1
  Yb  Yb14  1  0.750000  0.781050  0.712273  1
  Yb  Yb15  1  0.750000  0.281050  0.787727  1
  Bi  Bi16  1  0.250000  0.484501  0.322650  1
  Bi  Bi17  1  0.250000  0.984501  0.177350  1
  Bi  Bi18  1  0.750000  0.515499  0.677350  1
  Bi  Bi19  1  0.750000  0.015499  0.822650  1
  Bi  Bi20  1  0.250000  0.317196  0.989753  1
  Bi  Bi21  1  0.250000  0.817196  0.510247  1
  Bi  Bi22  1  0.750000  0.682804  0.010247  1
  Bi  Bi23  1  0.750000  0.182804  0.489753  1
  H  H24  1  0.250000  0.232941  0.721149  1
  H  H25  1  0.250000  0.732941  0.778851  1
  H  H26  1  0.750000  0.767059  0.278851  1
  H  H27  1  0.750000  0.267059  0.221149  1
