# generated using pymatgen
data_K4Sc2AlCrF16
_symmetry_space_group_name_H-M   'P 1'
_cell_length_a   7.75014073
_cell_length_b   6.65349369
_cell_length_c   7.93380018
_cell_angle_alpha   72.48836845
_cell_angle_beta   89.99027527
_cell_angle_gamma   90.05811480
_symmetry_Int_Tables_number   1
_chemical_formula_structural   K4Sc2AlCrF16
_chemical_formula_sum   'K4 Sc2 Al1 Cr1 F16'
_cell_volume   390.15036030
_cell_formula_units_Z   1
loop_
 _symmetry_equiv_pos_site_id
 _symmetry_equiv_pos_as_xyz
  1  'x, y, z'
loop_
 _atom_site_type_symbol
 _atom_site_label
 _atom_site_symmetry_multiplicity
 _atom_site_fract_x
 _atom_site_fract_y
 _atom_site_fract_z
 _atom_site_occupancy
  K  K0  1  0.245994  0.538795  0.868868  1
  K  K1  1  0.249838  0.552143  0.361963  1
  K  K2  1  0.754006  0.461205  0.131132  1
  K  K3  1  0.750162  0.447857  0.638037  1
  Sc  Sc4  1  0.500000  0.000000  0.000000  1
  Sc  Sc5  1  0.000000  0.000000  0.500000  1
  Al  Al6  1  0.000000  0.000000  0.000000  1
  Cr  Cr7  1  0.500000  0.000000  0.500000  1
  F  F8  1  0.256022  0.069373  0.508754  1
  F  F9  1  0.040335  0.723039  0.065038  1
  F  F10  1  0.453539  0.702560  0.580691  1
  F  F11  1  0.529415  0.004036  0.743284  1
  F  F12  1  0.763590  0.945002  0.034945  1
  F  F13  1  0.458103  0.691201  0.073694  1
  F  F14  1  0.959665  0.276961  0.934962  1
  F  F15  1  0.236410  0.054998  0.965055  1
  F  F16  1  0.546461  0.297440  0.419309  1
  F  F17  1  0.954961  0.308391  0.417270  1
  F  F18  1  0.022307  0.997399  0.237857  1
  F  F19  1  0.470585  0.995964  0.256716  1
  F  F20  1  0.977693  0.002601  0.762143  1
  F  F21  1  0.045039  0.691609  0.582730  1
  F  F22  1  0.541897  0.308799  0.926306  1
  F  F23  1  0.743978  0.930627  0.491246  1
