# generated using pymatgen
data_Nd3HoAl18ZnIr5
_symmetry_space_group_name_H-M   'P 1'
_cell_length_a   7.62730514
_cell_length_b   7.62420010
_cell_length_c   9.54910138
_cell_angle_alpha   90.00279479
_cell_angle_beta   89.91416703
_cell_angle_gamma   119.40259012
_symmetry_Int_Tables_number   1
_chemical_formula_structural   Nd3HoAl18ZnIr5
_chemical_formula_sum   'Nd3 Ho1 Al18 Zn1 Ir5'
_cell_volume   483.77227750
_cell_formula_units_Z   1
loop_
 _symmetry_equiv_pos_site_id
 _symmetry_equiv_pos_as_xyz
  1  'x, y, z'
loop_
 _atom_site_type_symbol
 _atom_site_label
 _atom_site_symmetry_multiplicity
 _atom_site_fract_x
 _atom_site_fract_y
 _atom_site_fract_z
 _atom_site_occupancy
  Nd  Nd0  1  0.004705  0.325076  0.751242  1
  Nd  Nd1  1  0.675793  0.995176  0.248670  1
  Nd  Nd2  1  0.324361  0.004675  0.751117  1
  Ho  Ho3  1  0.995330  0.675413  0.249787  1
  Al  Al4  1  0.137924  0.135970  0.257168  1
  Al  Al5  1  0.861867  0.861188  0.742092  1
  Al  Al6  1  0.004034  0.347841  0.079764  1
  Al  Al7  1  0.995817  0.654987  0.924855  1
  Al  Al8  1  0.999553  0.664017  0.567967  1
  Al  Al9  1  0.334093  0.998529  0.427852  1
  Al  Al10  1  0.000564  0.337564  0.427901  1
  Al  Al11  1  0.664073  0.999417  0.569882  1
  Al  Al12  1  0.653982  0.995470  0.922854  1
  Al  Al13  1  0.343081  0.002237  0.079304  1
  Al  Al14  1  0.333603  0.333453  0.545961  1
  Al  Al15  1  0.667779  0.666332  0.450908  1
  Al  Al16  1  0.658026  0.656264  0.058650  1
  Al  Al17  1  0.344450  0.344407  0.944377  1
  Al  Al18  1  0.337496  0.549738  0.251540  1
  Al  Al19  1  0.661073  0.450795  0.748434  1
  Al  Al20  1  0.552060  0.341616  0.251585  1
  Al  Al21  1  0.450592  0.660640  0.748410  1
  Zn  Zn22  1  0.000015  0.999687  0.000566  1
  Ir  Ir23  1  0.671813  0.329251  0.001047  1
  Ir  Ir24  1  0.328110  0.671091  0.001062  1
  Ir  Ir25  1  0.328872  0.670846  0.499192  1
  Ir  Ir26  1  0.671411  0.329682  0.499010  1
  Ir  Ir27  1  0.999524  0.998639  0.498803  1
