# generated using pymatgen
data_Li4ZrNi9As7
_symmetry_space_group_name_H-M   'P 1'
_cell_length_a   9.38451100
_cell_length_b   9.38450958
_cell_length_c   3.80421300
_cell_angle_alpha   90.00000000
_cell_angle_beta   90.00000000
_cell_angle_gamma   120.00000853
_symmetry_Int_Tables_number   1
_chemical_formula_structural   Li4ZrNi9As7
_chemical_formula_sum   'Li4 Zr1 Ni9 As7'
_cell_volume   290.14737741
_cell_formula_units_Z   1
loop_
 _symmetry_equiv_pos_site_id
 _symmetry_equiv_pos_as_xyz
  1  'x, y, z'
loop_
 _atom_site_type_symbol
 _atom_site_label
 _atom_site_symmetry_multiplicity
 _atom_site_fract_x
 _atom_site_fract_y
 _atom_site_fract_z
 _atom_site_occupancy
  Li  Li0  1  0.770297  0.546430  0.500000  1
  Li  Li1  1  0.453570  0.223867  0.500000  1
  Li  Li2  1  0.776133  0.229703  0.500000  1
  Li  Li3  1  0.000000  0.000000  0.500000  1
  Zr  Zr4  1  0.333333  0.666667  0.000000  1
  Ni  Ni5  1  0.274731  0.375122  0.500000  1
  Ni  Ni6  1  0.624878  0.899608  0.500000  1
  Ni  Ni7  1  0.100392  0.725269  0.500000  1
  Ni  Ni8  1  0.494308  0.453067  0.000000  1
  Ni  Ni9  1  0.546933  0.041240  0.000000  1
  Ni  Ni10  1  0.958760  0.505692  0.000000  1
  Ni  Ni11  1  0.714167  0.762318  0.000000  1
  Ni  Ni12  1  0.237682  0.951849  0.000000  1
  Ni  Ni13  1  0.048151  0.285833  0.000000  1
  As  As14  1  0.961143  0.756196  0.000000  1
  As  As15  1  0.243804  0.204947  0.000000  1
  As  As16  1  0.795053  0.038857  0.000000  1
  As  As17  1  0.666667  0.333333  0.000000  1
  As  As18  1  0.538904  0.619993  0.500000  1
  As  As19  1  0.380007  0.918911  0.500000  1
  As  As20  1  0.081089  0.461096  0.500000  1
