# generated using pymatgen
data_KRb(FeP)2
_symmetry_space_group_name_H-M   'P 1'
_cell_length_a   3.82012900
_cell_length_b   3.82012900
_cell_length_c   10.90053300
_cell_angle_alpha   90.00000000
_cell_angle_beta   90.00000000
_cell_angle_gamma   90.00000000
_symmetry_Int_Tables_number   1
_chemical_formula_structural   KRb(FeP)2
_chemical_formula_sum   'K1 Rb1 Fe2 P2'
_cell_volume   159.07568106
_cell_formula_units_Z   1
loop_
 _symmetry_equiv_pos_site_id
 _symmetry_equiv_pos_as_xyz
  1  'x, y, z'
loop_
 _atom_site_type_symbol
 _atom_site_label
 _atom_site_symmetry_multiplicity
 _atom_site_fract_x
 _atom_site_fract_y
 _atom_site_fract_z
 _atom_site_occupancy
  K  K0  1  0.499999  0.000000  0.277067  1
  Rb  Rb1  1  0.000000  0.499999  0.711960  1
  Fe  Fe2  1  0.000000  0.000000  0.002897  1
  Fe  Fe3  1  0.499999  0.499999  0.002897  1
  P  P4  1  0.000000  0.499999  0.104086  1
  P  P5  1  0.499999  0.000000  0.901093  1
