# generated using pymatgen
data_SrLa2OsO8
_symmetry_space_group_name_H-M   'P 1'
_cell_length_a   6.31655300
_cell_length_b   7.67252771
_cell_length_c   7.66821161
_cell_angle_alpha   70.34072092
_cell_angle_beta   90.00000000
_cell_angle_gamma   90.00000000
_symmetry_Int_Tables_number   1
_chemical_formula_structural   SrLa2OsO8
_chemical_formula_sum   'Sr2 La4 Os2 O16'
_cell_volume   349.96920269
_cell_formula_units_Z   2
loop_
 _symmetry_equiv_pos_site_id
 _symmetry_equiv_pos_as_xyz
  1  'x, y, z'
loop_
 _atom_site_type_symbol
 _atom_site_label
 _atom_site_symmetry_multiplicity
 _atom_site_fract_x
 _atom_site_fract_y
 _atom_site_fract_z
 _atom_site_occupancy
  Sr  Sr0  1  0.750000  0.102804  0.669563  1
  Sr  Sr1  1  0.250000  0.897196  0.330437  1
  La  La2  1  0.250000  0.408473  0.403382  1
  La  La3  1  0.750000  0.591527  0.596618  1
  La  La4  1  0.250000  0.338173  0.891566  1
  La  La5  1  0.750000  0.661827  0.108434  1
  Os  Os6  1  0.250000  0.817235  0.814164  1
  Os  Os7  1  0.750000  0.182765  0.185836  1
  O  O8  1  0.009431  0.343617  0.664496  1
  O  O9  1  0.509431  0.656383  0.335504  1
  O  O10  1  0.990569  0.656383  0.335504  1
  O  O11  1  0.490569  0.343617  0.664496  1
  O  O12  1  0.954270  0.799980  0.808620  1
  O  O13  1  0.454270  0.200020  0.191380  1
  O  O14  1  0.045730  0.200020  0.191380  1
  O  O15  1  0.545730  0.799980  0.808620  1
  O  O16  1  0.750000  0.974793  0.398716  1
  O  O17  1  0.250000  0.025207  0.601284  1
  O  O18  1  0.750000  0.337784  0.334497  1
  O  O19  1  0.250000  0.662216  0.665503  1
  O  O20  1  0.750000  0.403994  0.973405  1
  O  O21  1  0.250000  0.596006  0.026595  1
  O  O22  1  0.750000  0.037862  0.037626  1
  O  O23  1  0.250000  0.962138  0.962374  1
