# generated using pymatgen
data_TbDyIn(AsRh2)6
_symmetry_space_group_name_H-M   'P 1'
_cell_length_a   10.05119100
_cell_length_b   10.05119147
_cell_length_c   4.00138700
_cell_angle_alpha   90.00000000
_cell_angle_beta   90.00000000
_cell_angle_gamma   120.00000174
_symmetry_Int_Tables_number   1
_chemical_formula_structural   TbDyIn(AsRh2)6
_chemical_formula_sum   'Tb1 Dy1 In1 As6 Rh12'
_cell_volume   350.08721672
_cell_formula_units_Z   1
loop_
 _symmetry_equiv_pos_site_id
 _symmetry_equiv_pos_as_xyz
  1  'x, y, z'
loop_
 _atom_site_type_symbol
 _atom_site_label
 _atom_site_symmetry_multiplicity
 _atom_site_fract_x
 _atom_site_fract_y
 _atom_site_fract_z
 _atom_site_occupancy
  Tb  Tb0  1  0.333333  0.666667  0.756576  1
  Dy  Dy1  1  0.666667  0.333333  0.244442  1
  In  In2  1  0.000000  0.000000  0.586880  1
  As  As3  1  0.882645  0.595067  0.746996  1
  As  As4  1  0.404933  0.287577  0.746996  1
  As  As5  1  0.712423  0.117355  0.746996  1
  As  As6  1  0.116077  0.404096  0.254834  1
  As  As7  1  0.595904  0.711981  0.254834  1
  As  As8  1  0.288019  0.883923  0.254834  1
  Rh  Rh9  1  0.616829  0.549864  0.749972  1
  Rh  Rh10  1  0.450136  0.066965  0.749972  1
  Rh  Rh11  1  0.933035  0.383171  0.749972  1
  Rh  Rh12  1  0.387158  0.450168  0.252110  1
  Rh  Rh13  1  0.549832  0.936990  0.252110  1
  Rh  Rh14  1  0.063010  0.612842  0.252110  1
  Rh  Rh15  1  0.128872  0.836269  0.757443  1
  Rh  Rh16  1  0.163731  0.292602  0.757443  1
  Rh  Rh17  1  0.707398  0.871128  0.757443  1
  Rh  Rh18  1  0.875997  0.154364  0.244106  1
  Rh  Rh19  1  0.845636  0.721633  0.244106  1
  Rh  Rh20  1  0.278367  0.124003  0.244106  1
