# generated using pymatgen
data_ErSc3Ni4(BO4)4
_symmetry_space_group_name_H-M   'P 1'
_cell_length_a   4.57490093
_cell_length_b   6.04483800
_cell_length_c   10.22435870
_cell_angle_alpha   90.00000000
_cell_angle_beta   90.14841741
_cell_angle_gamma   90.00000000
_symmetry_Int_Tables_number   1
_chemical_formula_structural   ErSc3Ni4(BO4)4
_chemical_formula_sum   'Er1 Sc3 Ni4 B4 O16'
_cell_volume   282.74893644
_cell_formula_units_Z   1
loop_
 _symmetry_equiv_pos_site_id
 _symmetry_equiv_pos_as_xyz
  1  'x, y, z'
loop_
 _atom_site_type_symbol
 _atom_site_label
 _atom_site_symmetry_multiplicity
 _atom_site_fract_x
 _atom_site_fract_y
 _atom_site_fract_z
 _atom_site_occupancy
  Er  Er0  1  0.484166  0.750001  0.778936  1
  Sc  Sc1  1  0.511114  0.249999  0.224033  1
  Sc  Sc2  1  0.014400  0.750001  0.278274  1
  Sc  Sc3  1  0.986234  0.249999  0.720490  1
  Ni  Ni4  1  0.999483  0.002504  0.003801  1
  Ni  Ni5  1  0.999483  0.497496  0.003801  1
  Ni  Ni6  1  0.501080  0.001249  0.497367  1
  Ni  Ni7  1  0.501080  0.498751  0.497367  1
  B  B8  1  0.580874  0.750001  0.096020  1
  B  B9  1  0.076843  0.249999  0.408013  1
  B  B10  1  0.926114  0.750001  0.584667  1
  B  B11  1  0.415741  0.249999  0.910515  1
  O  O12  1  0.287920  0.249999  0.046552  1
  O  O13  1  0.263855  0.750001  0.095397  1
  O  O14  1  0.714227  0.550528  0.165437  1
  O  O15  1  0.714227  0.949472  0.165437  1
  O  O16  1  0.212296  0.051949  0.337950  1
  O  O17  1  0.212296  0.448051  0.337950  1
  O  O18  1  0.760579  0.249999  0.405422  1
  O  O19  1  0.783558  0.750001  0.452490  1
  O  O20  1  0.214502  0.249999  0.543044  1
  O  O21  1  0.241031  0.750001  0.583726  1
  O  O22  1  0.797478  0.548676  0.655635  1
  O  O23  1  0.797478  0.951324  0.655635  1
  O  O24  1  0.274081  0.055937  0.841751  1
  O  O25  1  0.274081  0.444063  0.841751  1
  O  O26  1  0.732714  0.249999  0.905038  1
  O  O27  1  0.723069  0.750001  0.963505  1
