# generated using pymatgen
data_CaFeCoSi2
_symmetry_space_group_name_H-M   'P 1'
_cell_length_a   5.62762699
_cell_length_b   5.62762704
_cell_length_c   5.62762642
_cell_angle_alpha   138.91033677
_cell_angle_beta   138.91034518
_cell_angle_gamma   59.51159579
_symmetry_Int_Tables_number   1
_chemical_formula_structural   CaFeCoSi2
_chemical_formula_sum   'Ca1 Fe1 Co1 Si2'
_cell_volume   76.22475528
_cell_formula_units_Z   1
loop_
 _symmetry_equiv_pos_site_id
 _symmetry_equiv_pos_as_xyz
  1  'x, y, z'
loop_
 _atom_site_type_symbol
 _atom_site_label
 _atom_site_symmetry_multiplicity
 _atom_site_fract_x
 _atom_site_fract_y
 _atom_site_fract_z
 _atom_site_occupancy
  Ca  Ca0  1  0.000000  0.000000  0.000000  1
  Fe  Fe1  1  0.750000  0.250000  0.500000  1
  Co  Co2  1  0.250000  0.750000  0.500000  1
  Si  Si3  1  0.635671  0.635671  0.000000  1
  Si  Si4  1  0.364329  0.364329  0.000000  1
