# generated using pymatgen
data_DyInNiH
_symmetry_space_group_name_H-M   'P 1'
_cell_length_a   3.97755700
_cell_length_b   7.35001500
_cell_length_c   8.66292800
_cell_angle_alpha   90.00000000
_cell_angle_beta   90.00000000
_cell_angle_gamma   90.00000000
_symmetry_Int_Tables_number   1
_chemical_formula_structural   DyInNiH
_chemical_formula_sum   'Dy4 In4 Ni4 H4'
_cell_volume   253.26159768
_cell_formula_units_Z   4
loop_
 _symmetry_equiv_pos_site_id
 _symmetry_equiv_pos_as_xyz
  1  'x, y, z'
loop_
 _atom_site_type_symbol
 _atom_site_label
 _atom_site_symmetry_multiplicity
 _atom_site_fract_x
 _atom_site_fract_y
 _atom_site_fract_z
 _atom_site_occupancy
  Dy  Dy0  1  0.750000  0.024443  0.682460  1
  Dy  Dy1  1  0.250000  0.975557  0.317540  1
  Dy  Dy2  1  0.250000  0.475557  0.182460  1
  Dy  Dy3  1  0.750000  0.524443  0.817540  1
  In  In4  1  0.750000  0.642420  0.438354  1
  In  In5  1  0.250000  0.357580  0.561646  1
  In  In6  1  0.250000  0.857580  0.938354  1
  In  In7  1  0.750000  0.142420  0.061646  1
  Ni  Ni8  1  0.750000  0.760550  0.131858  1
  Ni  Ni9  1  0.250000  0.239450  0.868142  1
  Ni  Ni10  1  0.250000  0.739450  0.631858  1
  Ni  Ni11  1  0.750000  0.260550  0.368142  1
  H  H12  1  0.250000  0.446718  0.927694  1
  H  H13  1  0.750000  0.553282  0.072306  1
  H  H14  1  0.750000  0.053282  0.427694  1
  H  H15  1  0.250000  0.946718  0.572306  1
