# generated using pymatgen
data_Nd4Lu16BiSb11
_symmetry_space_group_name_H-M   'P 1'
_cell_length_a   8.01703862
_cell_length_b   9.19335725
_cell_length_c   11.69715000
_cell_angle_alpha   90.04598816
_cell_angle_beta   89.91598276
_cell_angle_gamma   90.01451390
_symmetry_Int_Tables_number   1
_chemical_formula_structural   Nd4Lu16BiSb11
_chemical_formula_sum   'Nd4 Lu16 Bi1 Sb11'
_cell_volume   862.11966470
_cell_formula_units_Z   1
loop_
 _symmetry_equiv_pos_site_id
 _symmetry_equiv_pos_as_xyz
  1  'x, y, z'
loop_
 _atom_site_type_symbol
 _atom_site_label
 _atom_site_symmetry_multiplicity
 _atom_site_fract_x
 _atom_site_fract_y
 _atom_site_fract_z
 _atom_site_occupancy
  Nd  Nd0  1  0.320381  0.253661  0.220336  1
  Nd  Nd1  1  0.817092  0.252377  0.280527  1
  Nd  Nd2  1  0.681392  0.750095  0.779891  1
  Nd  Nd3  1  0.181999  0.750035  0.719987  1
  Lu  Lu4  1  0.356186  0.746680  0.219155  1
  Lu  Lu5  1  0.848068  0.746375  0.282661  1
  Lu  Lu6  1  0.647553  0.250351  0.781314  1
  Lu  Lu7  1  0.147610  0.249874  0.718044  1
  Lu  Lu8  1  0.690149  0.562372  0.061790  1
  Lu  Lu9  1  0.193556  0.937101  0.440145  1
  Lu  Lu10  1  0.309784  0.063244  0.935194  1
  Lu  Lu11  1  0.808496  0.437820  0.562779  1
  Lu  Lu12  1  0.309395  0.437899  0.936801  1
  Lu  Lu13  1  0.808547  0.062519  0.562773  1
  Lu  Lu14  1  0.689254  0.936534  0.062010  1
  Lu  Lu15  1  0.191341  0.562217  0.437899  1
  Lu  Lu16  1  0.475333  0.250015  0.489274  1
  Lu  Lu17  1  0.975191  0.252552  0.009862  1
  Lu  Lu18  1  0.525024  0.749967  0.511775  1
  Lu  Lu19  1  0.023416  0.747540  0.986836  1
  Bi  Bi20  1  0.067629  0.990087  0.171902  1
  Sb  Sb21  1  0.403998  0.750613  0.966315  1
  Sb  Sb22  1  0.905880  0.750239  0.533707  1
  Sb  Sb23  1  0.594973  0.249576  0.033243  1
  Sb  Sb24  1  0.094403  0.249749  0.466066  1
  Sb  Sb25  1  0.566193  0.990485  0.329692  1
  Sb  Sb26  1  0.066230  0.510412  0.170232  1
  Sb  Sb27  1  0.433658  0.490197  0.670311  1
  Sb  Sb28  1  0.933547  0.009945  0.829924  1
  Sb  Sb29  1  0.434019  0.009907  0.670373  1
  Sb  Sb30  1  0.933157  0.490173  0.828284  1
  Sb  Sb31  1  0.566545  0.509387  0.330896  1
