# generated using pymatgen
data_Li3La3InGeSb
_symmetry_space_group_name_H-M   'P 1'
_cell_length_a   7.73008000
_cell_length_b   7.73008080
_cell_length_c   4.55458100
_cell_angle_alpha   90.00000000
_cell_angle_beta   90.00000000
_cell_angle_gamma   120.00000513
_symmetry_Int_Tables_number   1
_chemical_formula_structural   Li3La3InGeSb
_chemical_formula_sum   'Li3 La3 In1 Ge1 Sb1'
_cell_volume   235.69320462
_cell_formula_units_Z   1
loop_
 _symmetry_equiv_pos_site_id
 _symmetry_equiv_pos_as_xyz
  1  'x, y, z'
loop_
 _atom_site_type_symbol
 _atom_site_label
 _atom_site_symmetry_multiplicity
 _atom_site_fract_x
 _atom_site_fract_y
 _atom_site_fract_z
 _atom_site_occupancy
  Li  Li0  1  0.245289  0.004795  0.500000  1
  Li  Li1  1  0.759506  0.754711  0.500000  1
  Li  Li2  1  0.995205  0.240494  0.500000  1
  La  La3  1  0.985945  0.562539  0.000000  1
  La  La4  1  0.576595  0.014055  0.000000  1
  La  La5  1  0.437461  0.423405  0.000000  1
  In  In6  1  0.000000  0.000000  0.000000  1
  Ge  Ge7  1  0.666667  0.333333  0.500000  1
  Sb  Sb8  1  0.333333  0.666667  0.500000  1
