# generated using pymatgen
data_Gd4PtRh3O14
_symmetry_space_group_name_H-M   'P 1'
_cell_length_a   7.27885124
_cell_length_b   7.27885114
_cell_length_c   7.27885100
_cell_angle_alpha   60.12435043
_cell_angle_beta   60.12435090
_cell_angle_gamma   60.12435029
_symmetry_Int_Tables_number   1
_chemical_formula_structural   Gd4PtRh3O14
_chemical_formula_sum   'Gd4 Pt1 Rh3 O14'
_cell_volume   273.46090862
_cell_formula_units_Z   1
loop_
 _symmetry_equiv_pos_site_id
 _symmetry_equiv_pos_as_xyz
  1  'x, y, z'
loop_
 _atom_site_type_symbol
 _atom_site_label
 _atom_site_symmetry_multiplicity
 _atom_site_fract_x
 _atom_site_fract_y
 _atom_site_fract_z
 _atom_site_occupancy
  Gd  Gd0  1  0.625000  0.125000  0.125000  1
  Gd  Gd1  1  0.125000  0.125000  0.125000  1
  Gd  Gd2  1  0.125000  0.625000  0.125000  1
  Gd  Gd3  1  0.125000  0.125000  0.625000  1
  Pt  Pt4  1  0.625000  0.625000  0.625000  1
  Rh  Rh5  1  0.625000  0.625000  0.125000  1
  Rh  Rh6  1  0.625000  0.125000  0.625000  1
  Rh  Rh7  1  0.125000  0.625000  0.625000  1
  O  O8  1  0.710885  0.290365  0.290365  1
  O  O9  1  0.712700  0.712700  0.287476  1
  O  O10  1  0.290365  0.710885  0.290365  1
  O  O11  1  0.000115  0.000115  0.000115  1
  O  O12  1  0.712700  0.287476  0.712700  1
  O  O13  1  0.962524  0.537300  0.537300  1
  O  O14  1  0.287476  0.712700  0.712700  1
  O  O15  1  0.537300  0.962524  0.537300  1
  O  O16  1  0.249885  0.249885  0.249885  1
  O  O17  1  0.959635  0.539115  0.959635  1
  O  O18  1  0.537300  0.537300  0.962524  1
  O  O19  1  0.959635  0.959635  0.539115  1
  O  O20  1  0.539115  0.959635  0.959635  1
  O  O21  1  0.290365  0.290365  0.710885  1
