# generated using pymatgen
data_LaY4Pb3Se
_symmetry_space_group_name_H-M   'P 1'
_cell_length_a   9.35630230
_cell_length_b   9.35626167
_cell_length_c   6.88784200
_cell_angle_alpha   90.00000000
_cell_angle_beta   90.00000000
_cell_angle_gamma   120.15277698
_symmetry_Int_Tables_number   1
_chemical_formula_structural   LaY4Pb3Se
_chemical_formula_sum   'La2 Y8 Pb6 Se2'
_cell_volume   521.37447258
_cell_formula_units_Z   2
loop_
 _symmetry_equiv_pos_site_id
 _symmetry_equiv_pos_as_xyz
  1  'x, y, z'
loop_
 _atom_site_type_symbol
 _atom_site_label
 _atom_site_symmetry_multiplicity
 _atom_site_fract_x
 _atom_site_fract_y
 _atom_site_fract_z
 _atom_site_occupancy
  La  La0  1  0.747462  0.999610  0.250000  1
  La  La1  1  0.999615  0.747467  0.250000  1
  Y  Y2  1  0.749744  0.749744  0.750000  1
  Y  Y3  1  0.252237  0.000889  0.750000  1
  Y  Y4  1  0.000888  0.252233  0.750000  1
  Y  Y5  1  0.248847  0.248845  0.250000  1
  Y  Y6  1  0.664918  0.332799  0.997986  1
  Y  Y7  1  0.332799  0.664919  0.997987  1
  Y  Y8  1  0.332799  0.664919  0.502013  1
  Y  Y9  1  0.664918  0.332799  0.502014  1
  Pb  Pb10  1  0.397056  0.397049  0.750000  1
  Pb  Pb11  1  0.603216  0.999869  0.750000  1
  Pb  Pb12  1  0.999864  0.603215  0.750000  1
  Pb  Pb13  1  0.595825  0.595824  0.250000  1
  Pb  Pb14  1  0.396776  0.004853  0.250000  1
  Pb  Pb15  1  0.004837  0.396768  0.250000  1
  Se  Se16  1  0.004101  0.004100  0.993110  1
  Se  Se17  1  0.004101  0.004100  0.506890  1
