# generated using pymatgen
data_Tb3SmV4F28
_symmetry_space_group_name_H-M   'P 1'
_cell_length_a   5.55184103
_cell_length_b   8.89881451
_cell_length_c   11.88235259
_cell_angle_alpha   63.26191912
_cell_angle_beta   89.99487291
_cell_angle_gamma   89.98760234
_symmetry_Int_Tables_number   1
_chemical_formula_structural   Tb3SmV4F28
_chemical_formula_sum   'Tb3 Sm1 V4 F28'
_cell_volume   524.27403067
_cell_formula_units_Z   1
loop_
 _symmetry_equiv_pos_site_id
 _symmetry_equiv_pos_as_xyz
  1  'x, y, z'
loop_
 _atom_site_type_symbol
 _atom_site_label
 _atom_site_symmetry_multiplicity
 _atom_site_fract_x
 _atom_site_fract_y
 _atom_site_fract_z
 _atom_site_occupancy
  Tb  Tb0  1  0.741671  0.192651  0.729974  1
  Tb  Tb1  1  0.758758  0.195860  0.229117  1
  Tb  Tb2  1  0.241752  0.808678  0.769574  1
  Sm  Sm3  1  0.257997  0.809039  0.269563  1
  V  V4  1  0.753076  0.726043  0.042807  1
  V  V5  1  0.245388  0.275148  0.954094  1
  V  V6  1  0.253824  0.271981  0.455864  1
  V  V7  1  0.745818  0.725743  0.547193  1
  F  F8  1  0.948731  0.705643  0.426435  1
  F  F9  1  0.048254  0.292168  0.575695  1
  F  F10  1  0.450762  0.294227  0.074434  1
  F  F11  1  0.549466  0.706075  0.922565  1
  F  F12  1  0.480252  0.731081  0.136850  1
  F  F13  1  0.516820  0.267186  0.859207  1
  F  F14  1  0.981061  0.267347  0.360754  1
  F  F15  1  0.018529  0.732649  0.641478  1
  F  F16  1  0.953522  0.745052  0.166566  1
  F  F17  1  0.041015  0.253003  0.832332  1
  F  F18  1  0.458407  0.251086  0.333402  1
  F  F19  1  0.542575  0.746999  0.669456  1
  F  F20  1  0.765199  0.494589  0.135684  1
  F  F21  1  0.234876  0.505793  0.861560  1
  F  F22  1  0.266268  0.502510  0.363210  1
  F  F23  1  0.736227  0.494246  0.639571  1
  F  F24  1  0.965922  0.286611  0.044596  1
  F  F25  1  0.034330  0.714196  0.953348  1
  F  F26  1  0.466121  0.712627  0.458015  1
  F  F27  1  0.533381  0.284313  0.546324  1
  F  F28  1  0.741760  0.953834  0.455765  1
  F  F29  1  0.257690  0.043289  0.546629  1
  F  F30  1  0.241724  0.046122  0.045218  1
  F  F31  1  0.757724  0.954759  0.952812  1
  F  F32  1  0.586136  0.975668  0.230417  1
  F  F33  1  0.423089  0.026556  0.768495  1
  F  F34  1  0.078938  0.032728  0.269512  1
  F  F35  1  0.922938  0.974502  0.731485  1
