# generated using pymatgen
data_Ho2Zn3Ag4
_symmetry_space_group_name_H-M   'P 1'
_cell_length_a   5.28157705
_cell_length_b   5.28157629
_cell_length_c   13.98351800
_cell_angle_alpha   90.00000000
_cell_angle_beta   90.00000000
_cell_angle_gamma   119.32485859
_symmetry_Int_Tables_number   1
_chemical_formula_structural   Ho2Zn3Ag4
_chemical_formula_sum   'Ho4 Zn6 Ag8'
_cell_volume   340.08604741
_cell_formula_units_Z   2
loop_
 _symmetry_equiv_pos_site_id
 _symmetry_equiv_pos_as_xyz
  1  'x, y, z'
loop_
 _atom_site_type_symbol
 _atom_site_label
 _atom_site_symmetry_multiplicity
 _atom_site_fract_x
 _atom_site_fract_y
 _atom_site_fract_z
 _atom_site_occupancy
  Ho  Ho0  1  0.821123  0.821123  0.117041  1
  Ho  Ho1  1  0.178877  0.178877  0.882959  1
  Ho  Ho2  1  0.821123  0.821123  0.382959  1
  Ho  Ho3  1  0.178877  0.178877  0.617041  1
  Zn  Zn4  1  0.169115  0.673818  0.750000  1
  Zn  Zn5  1  0.673818  0.169115  0.750000  1
  Zn  Zn6  1  0.675413  0.675413  0.750000  1
  Zn  Zn7  1  0.326182  0.830885  0.250000  1
  Zn  Zn8  1  0.830885  0.326182  0.250000  1
  Zn  Zn9  1  0.324587  0.324587  0.250000  1
  Ag  Ag10  1  0.162519  0.488288  0.078654  1
  Ag  Ag11  1  0.511712  0.837481  0.921346  1
  Ag  Ag12  1  0.488288  0.162519  0.078654  1
  Ag  Ag13  1  0.837481  0.511712  0.578654  1
  Ag  Ag14  1  0.488288  0.162519  0.421346  1
  Ag  Ag15  1  0.837481  0.511712  0.921346  1
  Ag  Ag16  1  0.511712  0.837481  0.578654  1
  Ag  Ag17  1  0.162519  0.488288  0.421346  1
