# generated using pymatgen
data_Tb3Y4Th(ReB6)4
_symmetry_space_group_name_H-M   'P 1'
_cell_length_a   3.71330600
_cell_length_b   9.21379253
_cell_length_c   11.61912001
_cell_angle_alpha   89.94807167
_cell_angle_beta   90.00000000
_cell_angle_gamma   90.00000000
_symmetry_Int_Tables_number   1
_chemical_formula_structural   Tb3Y4Th(ReB6)4
_chemical_formula_sum   'Tb3 Y4 Th1 Re4 B24'
_cell_volume   397.53212201
_cell_formula_units_Z   1
loop_
 _symmetry_equiv_pos_site_id
 _symmetry_equiv_pos_as_xyz
  1  'x, y, z'
loop_
 _atom_site_type_symbol
 _atom_site_label
 _atom_site_symmetry_multiplicity
 _atom_site_fract_x
 _atom_site_fract_y
 _atom_site_fract_z
 _atom_site_occupancy
  Tb  Tb0  1  0.000000  0.177666  0.912861  1
  Tb  Tb1  1  0.000000  0.323471  0.414749  1
  Tb  Tb2  1  0.000000  0.676008  0.585977  1
  Y  Y3  1  0.000000  0.441665  0.130390  1
  Y  Y4  1  0.000000  0.556339  0.868898  1
  Y  Y5  1  0.000000  0.943192  0.371638  1
  Y  Y6  1  0.000000  0.057649  0.629556  1
  Th  Th7  1  0.000000  0.822651  0.085858  1
  Re  Re8  1  0.000000  0.138601  0.179288  1
  Re  Re9  1  0.000000  0.862065  0.820145  1
  Re  Re10  1  0.000000  0.638243  0.321429  1
  Re  Re11  1  0.000000  0.361809  0.678945  1
  B  B12  1  0.500000  0.055430  0.068070  1
  B  B13  1  0.500000  0.946798  0.930505  1
  B  B14  1  0.500000  0.553073  0.433100  1
  B  B15  1  0.500000  0.446623  0.567406  1
  B  B16  1  0.500000  0.249295  0.082126  1
  B  B17  1  0.500000  0.751481  0.915145  1
  B  B18  1  0.500000  0.748096  0.419155  1
  B  B19  1  0.500000  0.251551  0.582017  1
  B  B20  1  0.500000  0.291225  0.234737  1
  B  B21  1  0.500000  0.708917  0.764333  1
  B  B22  1  0.500000  0.789854  0.267514  1
  B  B23  1  0.500000  0.208849  0.734286  1
  B  B24  1  0.500000  0.131633  0.314992  1
  B  B25  1  0.500000  0.869777  0.685336  1
  B  B26  1  0.500000  0.629318  0.187723  1
  B  B27  1  0.500000  0.369147  0.813586  1
  B  B28  1  0.500000  0.482247  0.288884  1
  B  B29  1  0.500000  0.517027  0.711408  1
  B  B30  1  0.500000  0.985298  0.213455  1
  B  B31  1  0.500000  0.017899  0.786818  1
  B  B32  1  0.500000  0.101316  0.472211  1
  B  B33  1  0.500000  0.899264  0.528600  1
  B  B34  1  0.500000  0.597816  0.027333  1
  B  B35  1  0.500000  0.398708  0.971528  1
