# generated using pymatgen
data_Dy7CoSn23IrRu4
_symmetry_space_group_name_H-M   'P 1'
_cell_length_a   9.83175889
_cell_length_b   9.82297204
_cell_length_c   10.08404104
_cell_angle_alpha   90.09210747
_cell_angle_beta   89.92182348
_cell_angle_gamma   120.03808318
_symmetry_Int_Tables_number   1
_chemical_formula_structural   Dy7CoSn23IrRu4
_chemical_formula_sum   'Dy7 Co1 Sn23 Ir1 Ru4'
_cell_volume   843.08608805
_cell_formula_units_Z   1
loop_
 _symmetry_equiv_pos_site_id
 _symmetry_equiv_pos_as_xyz
  1  'x, y, z'
loop_
 _atom_site_type_symbol
 _atom_site_label
 _atom_site_symmetry_multiplicity
 _atom_site_fract_x
 _atom_site_fract_y
 _atom_site_fract_z
 _atom_site_occupancy
  Dy  Dy0  1  0.012674  0.003577  0.004042  1
  Dy  Dy1  1  0.482423  0.518746  0.305068  1
  Dy  Dy2  1  0.516827  0.481216  0.694389  1
  Dy  Dy3  1  0.482447  0.964497  0.304893  1
  Dy  Dy4  1  0.516825  0.035252  0.694194  1
  Dy  Dy5  1  0.033453  0.517314  0.304418  1
  Dy  Dy6  1  0.963590  0.482035  0.695087  1
  Co  Co7  1  0.659100  0.828281  0.799555  1
  Sn  Sn8  1  0.350932  0.998770  0.999829  1
  Sn  Sn9  1  0.649499  0.993443  0.994758  1
  Sn  Sn10  1  0.003536  0.352567  0.999107  1
  Sn  Sn11  1  0.999362  0.650887  0.999877  1
  Sn  Sn12  1  0.653197  0.655452  0.995525  1
  Sn  Sn13  1  0.350575  0.351762  0.999441  1
  Sn  Sn14  1  0.335254  0.667188  0.816758  1
  Sn  Sn15  1  0.664594  0.335112  0.179017  1
  Sn  Sn16  1  0.000358  0.999813  0.501463  1
  Sn  Sn17  1  0.777918  0.221204  0.460110  1
  Sn  Sn18  1  0.219726  0.779982  0.541262  1
  Sn  Sn19  1  0.779428  0.560477  0.459082  1
  Sn  Sn20  1  0.219866  0.441412  0.541011  1
  Sn  Sn21  1  0.440602  0.220452  0.457706  1
  Sn  Sn22  1  0.562710  0.781560  0.546852  1
  Sn  Sn23  1  0.332460  0.665931  0.123483  1
  Sn  Sn24  1  0.665936  0.332475  0.875180  1
  Sn  Sn25  1  0.118609  0.881346  0.275695  1
  Sn  Sn26  1  0.877680  0.110366  0.728698  1
  Sn  Sn27  1  0.117726  0.235026  0.279270  1
  Sn  Sn28  1  0.878273  0.766564  0.727294  1
  Sn  Sn29  1  0.763018  0.881294  0.277862  1
  Sn  Sn30  1  0.238003  0.117903  0.723843  1
  Ir  Ir31  1  0.828724  0.169557  0.198815  1
  Ru  Ru32  1  0.168407  0.830198  0.799773  1
  Ru  Ru33  1  0.830178  0.662463  0.199890  1
  Ru  Ru34  1  0.168632  0.336985  0.798082  1
  Ru  Ru35  1  0.337459  0.168897  0.198664  1
