# generated using pymatgen
data_DyEr4(In2Rh)2
_symmetry_space_group_name_H-M   'P 1'
_cell_length_a   3.61039400
_cell_length_b   7.97710200
_cell_length_c   18.27141300
_cell_angle_alpha   90.00000000
_cell_angle_beta   90.00000000
_cell_angle_gamma   90.00000000
_symmetry_Int_Tables_number   1
_chemical_formula_structural   DyEr4(In2Rh)2
_chemical_formula_sum   'Dy2 Er8 In8 Rh4'
_cell_volume   526.22548657
_cell_formula_units_Z   2
loop_
 _symmetry_equiv_pos_site_id
 _symmetry_equiv_pos_as_xyz
  1  'x, y, z'
loop_
 _atom_site_type_symbol
 _atom_site_label
 _atom_site_symmetry_multiplicity
 _atom_site_fract_x
 _atom_site_fract_y
 _atom_site_fract_z
 _atom_site_occupancy
  Dy  Dy0  1  0.500000  0.500000  0.000000  1
  Dy  Dy1  1  0.500000  0.000000  0.500000  1
  Er  Er2  1  0.500000  0.382994  0.588377  1
  Er  Er3  1  0.500000  0.882994  0.911623  1
  Er  Er4  1  0.500000  0.117006  0.088377  1
  Er  Er5  1  0.500000  0.753558  0.721419  1
  Er  Er6  1  0.500000  0.253558  0.778581  1
  Er  Er7  1  0.500000  0.746442  0.221419  1
  Er  Er8  1  0.500000  0.246442  0.278581  1
  Er  Er9  1  0.500000  0.617006  0.411623  1
  In  In10  1  0.000000  0.792873  0.068745  1
  In  In11  1  0.000000  0.927408  0.349126  1
  In  In12  1  0.000000  0.072592  0.650874  1
  In  In13  1  0.000000  0.572592  0.849126  1
  In  In14  1  0.000000  0.707127  0.568745  1
  In  In15  1  0.000000  0.207127  0.931255  1
  In  In16  1  0.000000  0.292873  0.431255  1
  In  In17  1  0.000000  0.427408  0.150874  1
  Rh  Rh18  1  0.000000  0.975560  0.805342  1
  Rh  Rh19  1  0.000000  0.524440  0.305342  1
  Rh  Rh20  1  0.000000  0.475560  0.694658  1
  Rh  Rh21  1  0.000000  0.024440  0.194658  1
