# generated using pymatgen
data_Sn3Sb16
_symmetry_space_group_name_H-M   'P 1'
_cell_length_a   4.37317221
_cell_length_b   4.37316290
_cell_length_c   36.90841600
_cell_angle_alpha   86.60290625
_cell_angle_beta   93.39639090
_cell_angle_gamma   120.00006448
_symmetry_Int_Tables_number   1
_chemical_formula_structural   Sn3Sb16
_chemical_formula_sum   'Sn3 Sb16'
_cell_volume   609.85867673
_cell_formula_units_Z   1
loop_
 _symmetry_equiv_pos_site_id
 _symmetry_equiv_pos_as_xyz
  1  'x, y, z'
loop_
 _atom_site_type_symbol
 _atom_site_label
 _atom_site_symmetry_multiplicity
 _atom_site_fract_x
 _atom_site_fract_y
 _atom_site_fract_z
 _atom_site_occupancy
  Sn  Sn0  1  0.000000  0.000000  0.000000  1
  Sn  Sn1  1  0.364393  0.636122  0.092664  1
  Sn  Sn2  1  0.635606  0.363877  0.907336  1
  Sb  Sb3  1  0.683647  0.317039  0.050254  1
  Sb  Sb4  1  0.053795  0.945897  0.161697  1
  Sb  Sb5  1  0.733699  0.266027  0.201372  1
  Sb  Sb6  1  0.423039  0.576743  0.269334  1
  Sb  Sb7  1  0.103070  0.897278  0.308863  1
  Sb  Sb8  1  0.791724  0.207955  0.375496  1
  Sb  Sb9  1  0.471796  0.528766  0.414826  1
  Sb  Sb10  1  0.159966  0.839569  0.480366  1
  Sb  Sb11  1  0.840031  0.160430  0.519634  1
  Sb  Sb12  1  0.528201  0.471231  0.585174  1
  Sb  Sb13  1  0.208273  0.792045  0.624504  1
  Sb  Sb14  1  0.896929  0.102723  0.691137  1
  Sb  Sb15  1  0.576964  0.423257  0.730666  1
  Sb  Sb16  1  0.266300  0.733974  0.798628  1
  Sb  Sb17  1  0.946202  0.054102  0.838303  1
  Sb  Sb18  1  0.316353  0.682962  0.949746  1
