# generated using pymatgen
data_Nd8Zn8Pt3Rh5
_symmetry_space_group_name_H-M   'P 1'
_cell_length_a   4.03322800
_cell_length_b   7.40034421
_cell_length_c   16.65597651
_cell_angle_alpha   90.02777500
_cell_angle_beta   90.00000000
_cell_angle_gamma   90.00000000
_symmetry_Int_Tables_number   1
_chemical_formula_structural   Nd8Zn8Pt3Rh5
_chemical_formula_sum   'Nd8 Zn8 Pt3 Rh5'
_cell_volume   497.13546071
_cell_formula_units_Z   1
loop_
 _symmetry_equiv_pos_site_id
 _symmetry_equiv_pos_as_xyz
  1  'x, y, z'
loop_
 _atom_site_type_symbol
 _atom_site_label
 _atom_site_symmetry_multiplicity
 _atom_site_fract_x
 _atom_site_fract_y
 _atom_site_fract_z
 _atom_site_occupancy
  Nd  Nd0  1  0.250000  0.169121  0.942190  1
  Nd  Nd1  1  0.250000  0.670152  0.563440  1
  Nd  Nd2  1  0.750000  0.330347  0.442717  1
  Nd  Nd3  1  0.750000  0.948429  0.281122  1
  Nd  Nd4  1  0.750000  0.828227  0.060143  1
  Nd  Nd5  1  0.750000  0.451577  0.213414  1
  Nd  Nd6  1  0.250000  0.047693  0.714495  1
  Nd  Nd7  1  0.250000  0.553649  0.785227  1
  Zn  Zn8  1  0.750000  0.002894  0.562457  1
  Zn  Zn9  1  0.250000  0.621539  0.346401  1
  Zn  Zn10  1  0.750000  0.380197  0.650653  1
  Zn  Zn11  1  0.250000  0.498692  0.059563  1
  Zn  Zn12  1  0.750000  0.503240  0.940593  1
  Zn  Zn13  1  0.250000  0.999271  0.440302  1
  Zn  Zn14  1  0.250000  0.120914  0.149169  1
  Zn  Zn15  1  0.750000  0.876079  0.849287  1
  Pt  Pt16  1  0.750000  0.753800  0.434166  1
  Pt  Pt17  1  0.250000  0.246173  0.314021  1
  Pt  Pt18  1  0.750000  0.253963  0.813808  1
  Rh  Rh19  1  0.750000  0.752786  0.685350  1
  Rh  Rh20  1  0.250000  0.242968  0.565395  1
  Rh  Rh21  1  0.250000  0.746971  0.185739  1
  Rh  Rh22  1  0.750000  0.255782  0.065502  1
  Rh  Rh23  1  0.250000  0.745536  0.934847  1
