# generated using pymatgen
data_Ta6Cr2FeOs3C2
_symmetry_space_group_name_H-M   'P 1'
_cell_length_a   8.23632322
_cell_length_b   8.23664481
_cell_length_c   8.23669938
_cell_angle_alpha   119.98703122
_cell_angle_beta   120.02666281
_cell_angle_gamma   89.98994418
_symmetry_Int_Tables_number   1
_chemical_formula_structural   Ta6Cr2FeOs3C2
_chemical_formula_sum   'Ta12 Cr4 Fe2 Os6 C4'
_cell_volume   395.06639904
_cell_formula_units_Z   2
loop_
 _symmetry_equiv_pos_site_id
 _symmetry_equiv_pos_as_xyz
  1  'x, y, z'
loop_
 _atom_site_type_symbol
 _atom_site_label
 _atom_site_symmetry_multiplicity
 _atom_site_fract_x
 _atom_site_fract_y
 _atom_site_fract_z
 _atom_site_occupancy
  Ta  Ta0  1  0.180206  0.180108  0.999909  1
  Ta  Ta1  1  0.567991  0.567925  0.999927  1
  Ta  Ta2  1  0.180539  0.567831  0.000687  1
  Ta  Ta3  1  0.567109  0.179824  0.999190  1
  Ta  Ta4  1  0.180623  0.179832  0.612726  1
  Ta  Ta5  1  0.567116  0.567840  0.387274  1
  Ta  Ta6  1  0.318256  0.818165  0.499990  1
  Ta  Ta7  1  0.933239  0.433331  0.500138  1
  Ta  Ta8  1  0.314089  0.428956  0.497520  1
  Ta  Ta9  1  0.931416  0.816593  0.502512  1
  Ta  Ta10  1  0.314132  0.816586  0.885209  1
  Ta  Ta11  1  0.931446  0.428931  0.114859  1
  Cr  Cr12  1  0.756529  0.005719  0.249187  1
  Cr  Cr13  1  0.756538  0.507398  0.750870  1
  Cr  Cr14  1  0.761113  0.999840  0.761359  1
  Cr  Cr15  1  0.238440  0.999772  0.238819  1
  Fe  Fe16  1  0.958026  0.798295  0.840090  1
  Fe  Fe17  1  0.957996  0.118196  0.160111  1
  Os  Os18  1  0.959000  0.796093  0.162849  1
  Os  Os19  1  0.633304  0.796110  0.837127  1
  Os  Os20  1  0.542748  0.206457  0.663711  1
  Os  Os21  1  0.542676  0.878904  0.336223  1
  Os  Os22  1  0.542643  0.205890  0.336657  1
  Os  Os23  1  0.869210  0.205905  0.663186  1
  C  C24  1  0.248921  0.498416  0.249475  1
  C  C25  1  0.248939  0.999335  0.750406  1
  C  C26  1  0.248932  0.498876  0.750049  1
  C  C27  1  0.748821  0.498874  0.249941  1
