# generated using pymatgen
data_SmTm(Si7Rh3)2
_symmetry_space_group_name_H-M   'P 1'
_cell_length_a   8.01115051
_cell_length_b   8.01115055
_cell_length_c   8.01115166
_cell_angle_alpha   57.08703383
_cell_angle_beta   57.08702920
_cell_angle_gamma   57.08703063
_symmetry_Int_Tables_number   1
_chemical_formula_structural   SmTm(Si7Rh3)2
_chemical_formula_sum   'Sm1 Tm1 Si14 Rh6'
_cell_volume   339.14658531
_cell_formula_units_Z   1
loop_
 _symmetry_equiv_pos_site_id
 _symmetry_equiv_pos_as_xyz
  1  'x, y, z'
loop_
 _atom_site_type_symbol
 _atom_site_label
 _atom_site_symmetry_multiplicity
 _atom_site_fract_x
 _atom_site_fract_y
 _atom_site_fract_z
 _atom_site_occupancy
  Sm  Sm0  1  0.000000  0.000000  0.000000  1
  Tm  Tm1  1  0.500000  0.500000  0.500000  1
  Si  Si2  1  0.749983  0.749983  0.749983  1
  Si  Si3  1  0.250017  0.250017  0.250017  1
  Si  Si4  1  0.850911  0.065647  0.671772  1
  Si  Si5  1  0.671772  0.850911  0.065647  1
  Si  Si6  1  0.065647  0.671772  0.850911  1
  Si  Si7  1  0.647626  0.827204  0.435641  1
  Si  Si8  1  0.435641  0.647626  0.827204  1
  Si  Si9  1  0.827204  0.435641  0.647626  1
  Si  Si10  1  0.172796  0.564359  0.352374  1
  Si  Si11  1  0.564359  0.352374  0.172796  1
  Si  Si12  1  0.352374  0.172796  0.564359  1
  Si  Si13  1  0.934353  0.328228  0.149089  1
  Si  Si14  1  0.328228  0.149089  0.934353  1
  Si  Si15  1  0.149089  0.934353  0.328228  1
  Rh  Rh16  1  0.071028  0.431937  0.748178  1
  Rh  Rh17  1  0.251822  0.928972  0.568063  1
  Rh  Rh18  1  0.568063  0.251822  0.928972  1
  Rh  Rh19  1  0.928972  0.568063  0.251822  1
  Rh  Rh20  1  0.431937  0.748178  0.071028  1
  Rh  Rh21  1  0.748178  0.071028  0.431937  1
