# generated using pymatgen
data_Tb3Ga2Si3
_symmetry_space_group_name_H-M   'P 1'
_cell_length_a   5.95434757
_cell_length_b   5.95434680
_cell_length_c   9.39181200
_cell_angle_alpha   90.00000000
_cell_angle_beta   90.00000000
_cell_angle_gamma   102.77517264
_symmetry_Int_Tables_number   1
_chemical_formula_structural   Tb3Ga2Si3
_chemical_formula_sum   'Tb6 Ga4 Si6'
_cell_volume   324.73683132
_cell_formula_units_Z   2
loop_
 _symmetry_equiv_pos_site_id
 _symmetry_equiv_pos_as_xyz
  1  'x, y, z'
loop_
 _atom_site_type_symbol
 _atom_site_label
 _atom_site_symmetry_multiplicity
 _atom_site_fract_x
 _atom_site_fract_y
 _atom_site_fract_z
 _atom_site_occupancy
  Tb  Tb0  1  0.658855  0.658855  0.250000  1
  Tb  Tb1  1  0.341145  0.341145  0.750000  1
  Tb  Tb2  1  0.800636  0.199364  0.000000  1
  Tb  Tb3  1  0.199364  0.800636  0.000000  1
  Tb  Tb4  1  0.199364  0.800636  0.500000  1
  Tb  Tb5  1  0.800636  0.199364  0.500000  1
  Ga  Ga6  1  0.319213  0.319213  0.055407  1
  Ga  Ga7  1  0.680787  0.680787  0.944593  1
  Ga  Ga8  1  0.680787  0.680787  0.555407  1
  Ga  Ga9  1  0.319213  0.319213  0.444593  1
  Si  Si10  1  0.091923  0.483532  0.250000  1
  Si  Si11  1  0.908077  0.516468  0.750000  1
  Si  Si12  1  0.483532  0.091923  0.250000  1
  Si  Si13  1  0.516468  0.908077  0.750000  1
  Si  Si14  1  0.053705  0.053705  0.250000  1
  Si  Si15  1  0.946295  0.946295  0.750000  1
