# generated using pymatgen
data_DyHoTm4(B7W)2
_symmetry_space_group_name_H-M   'P 1'
_cell_length_a   8.07558344
_cell_length_b   8.07558406
_cell_length_c   9.45745200
_cell_angle_alpha   90.00000000
_cell_angle_beta   90.00000000
_cell_angle_gamma   155.46534145
_symmetry_Int_Tables_number   1
_chemical_formula_structural   DyHoTm4(B7W)2
_chemical_formula_sum   'Dy1 Ho1 Tm4 B14 W2'
_cell_volume   256.10906606
_cell_formula_units_Z   1
loop_
 _symmetry_equiv_pos_site_id
 _symmetry_equiv_pos_as_xyz
  1  'x, y, z'
loop_
 _atom_site_type_symbol
 _atom_site_label
 _atom_site_symmetry_multiplicity
 _atom_site_fract_x
 _atom_site_fract_y
 _atom_site_fract_z
 _atom_site_occupancy
  Dy  Dy0  1  0.246668  0.753332  0.250000  1
  Ho  Ho1  1  0.753797  0.246203  0.750000  1
  Tm  Tm2  1  0.892928  0.107072  0.441232  1
  Tm  Tm3  1  0.107195  0.892805  0.559016  1
  Tm  Tm4  1  0.892928  0.107072  0.058768  1
  Tm  Tm5  1  0.107195  0.892805  0.940984  1
  B  B6  1  0.727638  0.272362  0.467705  1
  B  B7  1  0.272321  0.727679  0.532819  1
  B  B8  1  0.727638  0.272362  0.032295  1
  B  B9  1  0.272321  0.727679  0.967181  1
  B  B10  1  0.635090  0.364910  0.146900  1
  B  B11  1  0.364698  0.635302  0.853082  1
  B  B12  1  0.635090  0.364910  0.353100  1
  B  B13  1  0.364698  0.635302  0.646918  1
  B  B14  1  0.518861  0.481139  0.091255  1
  B  B15  1  0.481162  0.518838  0.908719  1
  B  B16  1  0.518861  0.481139  0.408745  1
  B  B17  1  0.481162  0.518838  0.591281  1
  B  B18  1  0.452429  0.547571  0.250000  1
  B  B19  1  0.547518  0.452482  0.750000  1
  W  W20  1  0.052420  0.947580  0.250000  1
  W  W21  1  0.947382  0.052618  0.750000  1
