# generated using pymatgen
data_Dy3Y(Co3Si5)2
_symmetry_space_group_name_H-M   'P 1'
_cell_length_a   7.85641164
_cell_length_b   7.85624045
_cell_length_c   5.51606694
_cell_angle_alpha   70.71434038
_cell_angle_beta   70.71538220
_cell_angle_gamma   93.32195268
_symmetry_Int_Tables_number   1
_chemical_formula_structural   Dy3Y(Co3Si5)2
_chemical_formula_sum   'Dy3 Y1 Co6 Si10'
_cell_volume   297.94693076
_cell_formula_units_Z   1
loop_
 _symmetry_equiv_pos_site_id
 _symmetry_equiv_pos_as_xyz
  1  'x, y, z'
loop_
 _atom_site_type_symbol
 _atom_site_label
 _atom_site_symmetry_multiplicity
 _atom_site_fract_x
 _atom_site_fract_y
 _atom_site_fract_z
 _atom_site_occupancy
  Dy  Dy0  1  0.869548  0.597980  0.763559  1
  Dy  Dy1  1  0.402061  0.130295  0.736587  1
  Dy  Dy2  1  0.130382  0.402115  0.236214  1
  Y  Y3  1  0.598249  0.869555  0.263392  1
  Co  Co4  1  0.262314  0.538946  0.625760  1
  Co  Co5  1  0.460849  0.737371  0.874789  1
  Co  Co6  1  0.737228  0.460968  0.374368  1
  Co  Co7  1  0.539095  0.262778  0.125604  1
  Co  Co8  1  0.003610  0.996624  0.749824  1
  Co  Co9  1  0.996764  0.003468  0.249870  1
  Si  Si10  1  0.063674  0.261551  0.835210  1
  Si  Si11  1  0.738554  0.936436  0.664475  1
  Si  Si12  1  0.936653  0.738319  0.164490  1
  Si  Si13  1  0.261485  0.063733  0.335457  1
  Si  Si14  1  0.214725  0.785100  0.750165  1
  Si  Si15  1  0.785455  0.214954  0.249887  1
  Si  Si16  1  0.510961  0.488691  0.750252  1
  Si  Si17  1  0.488487  0.510990  0.250281  1
  Si  Si18  1  0.770611  0.229719  0.749665  1
  Si  Si19  1  0.229294  0.770407  0.250150  1
