# generated using pymatgen
data_LiDy8InIr2
_symmetry_space_group_name_H-M   'P 1'
_cell_length_a   9.65258602
_cell_length_b   9.65258642
_cell_length_c   9.66885900
_cell_angle_alpha   59.94421420
_cell_angle_beta   59.94421285
_cell_angle_gamma   59.86536483
_symmetry_Int_Tables_number   1
_chemical_formula_structural   LiDy8InIr2
_chemical_formula_sum   'Li2 Dy16 In2 Ir4'
_cell_volume   635.82527779
_cell_formula_units_Z   2
loop_
 _symmetry_equiv_pos_site_id
 _symmetry_equiv_pos_as_xyz
  1  'x, y, z'
loop_
 _atom_site_type_symbol
 _atom_site_label
 _atom_site_symmetry_multiplicity
 _atom_site_fract_x
 _atom_site_fract_y
 _atom_site_fract_z
 _atom_site_occupancy
  Li  Li0  1  0.822843  0.822843  0.826098  1
  Li  Li1  1  0.822843  0.822843  0.528215  1
  Dy  Dy2  1  0.598583  0.598583  0.600204  1
  Dy  Dy3  1  0.598583  0.598583  0.202630  1
  Dy  Dy4  1  0.596645  0.208722  0.597317  1
  Dy  Dy5  1  0.208722  0.596645  0.597317  1
  Dy  Dy6  1  0.060988  0.438722  0.440470  1
  Dy  Dy7  1  0.438722  0.060988  0.059820  1
  Dy  Dy8  1  0.438722  0.060988  0.440470  1
  Dy  Dy9  1  0.060988  0.438722  0.059820  1
  Dy  Dy10  1  0.442575  0.442575  0.057425  1
  Dy  Dy11  1  0.065728  0.065728  0.434272  1
  Dy  Dy12  1  0.189239  0.810845  0.811843  1
  Dy  Dy13  1  0.810845  0.189239  0.188073  1
  Dy  Dy14  1  0.810845  0.189239  0.811843  1
  Dy  Dy15  1  0.189239  0.810845  0.188073  1
  Dy  Dy16  1  0.810301  0.810301  0.189699  1
  Dy  Dy17  1  0.187188  0.187188  0.812812  1
  In  In18  1  0.834852  0.505493  0.829827  1
  In  In19  1  0.505493  0.834852  0.829827  1
  Ir  Ir20  1  0.393312  0.393312  0.388432  1
  Ir  Ir21  1  0.393312  0.393312  0.824944  1
  Ir  Ir22  1  0.393978  0.825454  0.390285  1
  Ir  Ir23  1  0.825454  0.393978  0.390285  1
