# generated using pymatgen
data_CaErU2(B4Ru)4
_symmetry_space_group_name_H-M   'P 1'
_cell_length_a   3.54591400
_cell_length_b   5.96495479
_cell_length_c   11.53127126
_cell_angle_alpha   89.91955211
_cell_angle_beta   90.00000000
_cell_angle_gamma   90.00000000
_symmetry_Int_Tables_number   1
_chemical_formula_structural   CaErU2(B4Ru)4
_chemical_formula_sum   'Ca1 Er1 U2 B16 Ru4'
_cell_volume   243.90017671
_cell_formula_units_Z   1
loop_
 _symmetry_equiv_pos_site_id
 _symmetry_equiv_pos_as_xyz
  1  'x, y, z'
loop_
 _atom_site_type_symbol
 _atom_site_label
 _atom_site_symmetry_multiplicity
 _atom_site_fract_x
 _atom_site_fract_y
 _atom_site_fract_z
 _atom_site_occupancy
  Ca  Ca0  1  0.000000  0.128401  0.148222  1
  Er  Er1  1  0.000000  0.871637  0.851825  1
  U  U2  1  0.000000  0.628467  0.348448  1
  U  U3  1  0.000000  0.372002  0.651037  1
  B  B4  1  0.500000  0.787492  0.186872  1
  B  B5  1  0.500000  0.209690  0.813288  1
  B  B6  1  0.500000  0.291695  0.314022  1
  B  B7  1  0.500000  0.708580  0.687220  1
  B  B8  1  0.500000  0.863195  0.030372  1
  B  B9  1  0.500000  0.136516  0.968448  1
  B  B10  1  0.500000  0.368860  0.467288  1
  B  B11  1  0.500000  0.631814  0.532504  1
  B  B12  1  0.500000  0.885943  0.452798  1
  B  B13  1  0.500000  0.114712  0.547316  1
  B  B14  1  0.500000  0.386539  0.045853  1
  B  B15  1  0.500000  0.613150  0.954196  1
  B  B16  1  0.500000  0.973881  0.308705  1
  B  B17  1  0.500000  0.025050  0.692437  1
  B  B18  1  0.500000  0.476678  0.191811  1
  B  B19  1  0.500000  0.526596  0.808014  1
  Ru  Ru20  1  0.000000  0.637720  0.093473  1
  Ru  Ru21  1  0.000000  0.361928  0.903907  1
  Ru  Ru22  1  0.000000  0.141778  0.408376  1
  Ru  Ru23  1  0.000000  0.857676  0.593568  1
