# generated using pymatgen
data_Tm2As2Cl2O5
_symmetry_space_group_name_H-M   'P 1'
_cell_length_a   6.99026551
_cell_length_b   7.65201585
_cell_length_c   9.42075943
_cell_angle_alpha   108.94266753
_cell_angle_beta   104.22418568
_cell_angle_gamma   102.47993749
_symmetry_Int_Tables_number   1
_chemical_formula_structural   Tm2As2Cl2O5
_chemical_formula_sum   'Tm4 As4 Cl4 O10'
_cell_volume   437.29409368
_cell_formula_units_Z   2
loop_
 _symmetry_equiv_pos_site_id
 _symmetry_equiv_pos_as_xyz
  1  'x, y, z'
loop_
 _atom_site_type_symbol
 _atom_site_label
 _atom_site_symmetry_multiplicity
 _atom_site_fract_x
 _atom_site_fract_y
 _atom_site_fract_z
 _atom_site_occupancy
  Tm  Tm0  1  0.400830  0.696771  0.519336  1
  Tm  Tm1  1  0.599170  0.303229  0.480664  1
  Tm  Tm2  1  0.849984  0.769834  0.336678  1
  Tm  Tm3  1  0.150016  0.230166  0.663322  1
  As  As4  1  0.885417  0.846694  0.744137  1
  As  As5  1  0.114583  0.153306  0.255863  1
  As  As6  1  0.705259  0.228872  0.793996  1
  As  As7  1  0.294741  0.771128  0.206004  1
  Cl  Cl8  1  0.234088  0.618932  0.725575  1
  Cl  Cl9  1  0.765912  0.381068  0.274425  1
  Cl  Cl10  1  0.772284  0.725221  0.043223  1
  Cl  Cl11  1  0.227716  0.274779  0.956777  1
  O  O12  1  0.841224  0.269269  0.660197  1
  O  O13  1  0.158776  0.730731  0.339803  1
  O  O14  1  0.537664  0.786945  0.344870  1
  O  O15  1  0.462336  0.213055  0.655130  1
  O  O16  1  0.660208  0.958116  0.722870  1
  O  O17  1  0.339792  0.041884  0.277130  1
  O  O18  1  0.689900  0.619258  0.596680  1
  O  O19  1  0.310100  0.380742  0.403320  1
  O  O20  1  0.987618  0.917450  0.605255  1
  O  O21  1  0.012382  0.082550  0.394745  1
