# generated using pymatgen
data_LiZr2PS2
_symmetry_space_group_name_H-M   'P 1'
_cell_length_a   3.69848501
_cell_length_b   3.69700902
_cell_length_c   29.45138800
_cell_angle_alpha   90.00000000
_cell_angle_beta   90.00329973
_cell_angle_gamma   119.98678485
_symmetry_Int_Tables_number   1
_chemical_formula_structural   LiZr2PS2
_chemical_formula_sum   'Li3 Zr6 P3 S6'
_cell_volume   348.79366494
_cell_formula_units_Z   3
loop_
 _symmetry_equiv_pos_site_id
 _symmetry_equiv_pos_as_xyz
  1  'x, y, z'
loop_
 _atom_site_type_symbol
 _atom_site_label
 _atom_site_symmetry_multiplicity
 _atom_site_fract_x
 _atom_site_fract_y
 _atom_site_fract_z
 _atom_site_occupancy
  Li  Li0  1  0.333421  0.666711  0.166718  1
  Li  Li1  1  0.000110  0.000056  0.499962  1
  Li  Li2  1  0.666593  0.333296  0.833342  1
  Zr  Zr3  1  0.333489  0.666744  0.050616  1
  Zr  Zr4  1  0.333160  0.666579  0.282730  1
  Zr  Zr5  1  0.000076  0.000038  0.383933  1
  Zr  Zr6  1  0.000088  0.000044  0.616025  1
  Zr  Zr7  1  0.666703  0.333352  0.717279  1
  Zr  Zr8  1  0.666370  0.333185  0.949391  1
  P  P9  1  0.999927  0.999964  0.000012  1
  P  P10  1  0.666616  0.333309  0.333344  1
  P  P11  1  0.333388  0.666694  0.666650  1
  S  S12  1  0.666868  0.333434  0.106133  1
  S  S13  1  0.999777  0.999889  0.227246  1
  S  S14  1  0.333554  0.666776  0.439430  1
  S  S15  1  0.666428  0.333215  0.560518  1
  S  S16  1  0.000397  0.000199  0.772783  1
  S  S17  1  0.333028  0.666513  0.893921  1
