# generated using pymatgen
data_Ti5VRh10
_symmetry_space_group_name_H-M   'P 1'
_cell_length_a   4.12504900
_cell_length_b   5.40451834
_cell_length_c   10.49418501
_cell_angle_alpha   90.56324609
_cell_angle_beta   90.00000000
_cell_angle_gamma   90.00000000
_symmetry_Int_Tables_number   1
_chemical_formula_structural   Ti5VRh10
_chemical_formula_sum   'Ti5 V1 Rh10'
_cell_volume   233.94503800
_cell_formula_units_Z   1
loop_
 _symmetry_equiv_pos_site_id
 _symmetry_equiv_pos_as_xyz
  1  'x, y, z'
loop_
 _atom_site_type_symbol
 _atom_site_label
 _atom_site_symmetry_multiplicity
 _atom_site_fract_x
 _atom_site_fract_y
 _atom_site_fract_z
 _atom_site_occupancy
  Ti  Ti0  1  0.000000  0.500000  0.500000  1
  Ti  Ti1  1  0.500000  0.337379  0.143325  1
  Ti  Ti2  1  0.500000  0.662621  0.856675  1
  Ti  Ti3  1  0.500000  0.836211  0.355734  1
  Ti  Ti4  1  0.500000  0.163789  0.644266  1
  V  V5  1  0.000000  0.000000  0.000000  1
  Rh  Rh6  1  0.000000  0.000000  0.500000  1
  Rh  Rh7  1  0.000000  0.500000  0.000000  1
  Rh  Rh8  1  0.000000  0.098864  0.231560  1
  Rh  Rh9  1  0.000000  0.901136  0.768440  1
  Rh  Rh10  1  0.000000  0.599630  0.263560  1
  Rh  Rh11  1  0.000000  0.400370  0.736440  1
  Rh  Rh12  1  0.500000  0.311174  0.392312  1
  Rh  Rh13  1  0.500000  0.688826  0.607688  1
  Rh  Rh14  1  0.500000  0.814616  0.102837  1
  Rh  Rh15  1  0.500000  0.185384  0.897163  1
