# generated using pymatgen
data_DyEr4Tm3(P3Ir4)4
_symmetry_space_group_name_H-M   'P 1'
_cell_length_a   12.95054500
_cell_length_b   12.95054615
_cell_length_c   3.99026000
_cell_angle_alpha   90.00000000
_cell_angle_beta   90.00000000
_cell_angle_gamma   119.99999962
_symmetry_Int_Tables_number   1
_chemical_formula_structural   DyEr4Tm3(P3Ir4)4
_chemical_formula_sum   'Dy1 Er4 Tm3 P12 Ir16'
_cell_volume   579.57274895
_cell_formula_units_Z   1
loop_
 _symmetry_equiv_pos_site_id
 _symmetry_equiv_pos_as_xyz
  1  'x, y, z'
loop_
 _atom_site_type_symbol
 _atom_site_label
 _atom_site_symmetry_multiplicity
 _atom_site_fract_x
 _atom_site_fract_y
 _atom_site_fract_z
 _atom_site_occupancy
  Dy  Dy0  1  0.666667  0.333333  0.500000  1
  Er  Er1  1  0.333333  0.666667  0.500000  1
  Er  Er2  1  0.000005  0.814269  0.000000  1
  Er  Er3  1  0.185731  0.185735  0.000000  1
  Er  Er4  1  0.814265  0.999995  0.000000  1
  Tm  Tm5  1  0.000037  0.446240  0.500000  1
  Tm  Tm6  1  0.553760  0.553797  0.500000  1
  Tm  Tm7  1  0.446203  0.999963  0.500000  1
  P  P8  1  0.999958  0.652244  0.500000  1
  P  P9  1  0.347756  0.347713  0.500000  1
  P  P10  1  0.652287  0.000042  0.500000  1
  P  P11  1  0.516517  0.688242  0.000000  1
  P  P12  1  0.311758  0.828275  0.000000  1
  P  P13  1  0.171725  0.483483  0.000000  1
  P  P14  1  0.483216  0.171485  0.000000  1
  P  P15  1  0.688269  0.516784  0.000000  1
  P  P16  1  0.828515  0.311731  0.000000  1
  P  P17  1  0.000003  0.176238  0.500000  1
  P  P18  1  0.823762  0.823765  0.500000  1
  P  P19  1  0.176235  0.999997  0.500000  1
  Ir  Ir20  1  0.509083  0.865712  0.000000  1
  Ir  Ir21  1  0.134288  0.643371  0.000000  1
  Ir  Ir22  1  0.356629  0.490917  0.000000  1
  Ir  Ir23  1  0.490510  0.356689  0.000000  1
  Ir  Ir24  1  0.866179  0.509490  0.000000  1
  Ir  Ir25  1  0.643311  0.133821  0.000000  1
  Ir  Ir26  1  0.000003  0.274862  0.000000  1
  Ir  Ir27  1  0.725138  0.725140  0.000000  1
  Ir  Ir28  1  0.274860  0.999997  0.000000  1
  Ir  Ir29  1  0.630309  0.809210  0.500000  1
  Ir  Ir30  1  0.190790  0.821099  0.500000  1
  Ir  Ir31  1  0.178901  0.369691  0.500000  1
  Ir  Ir32  1  0.369620  0.178862  0.500000  1
  Ir  Ir33  1  0.809241  0.630380  0.500000  1
  Ir  Ir34  1  0.821138  0.190759  0.500000  1
  Ir  Ir35  1  0.000000  0.000000  0.500000  1
