# generated using pymatgen
data_Ho7Er(SiPd)8
_symmetry_space_group_name_H-M   'P 1'
_cell_length_a   4.32663300
_cell_length_b   7.48920300
_cell_length_c   13.87180400
_cell_angle_alpha   89.99934060
_cell_angle_beta   90.00000000
_cell_angle_gamma   90.00000000
_symmetry_Int_Tables_number   1
_chemical_formula_structural   Ho7Er(SiPd)8
_chemical_formula_sum   'Ho7 Er1 Si8 Pd8'
_cell_volume   449.48852060
_cell_formula_units_Z   1
loop_
 _symmetry_equiv_pos_site_id
 _symmetry_equiv_pos_as_xyz
  1  'x, y, z'
loop_
 _atom_site_type_symbol
 _atom_site_label
 _atom_site_symmetry_multiplicity
 _atom_site_fract_x
 _atom_site_fract_y
 _atom_site_fract_z
 _atom_site_occupancy
  Ho  Ho0  1  0.000000  0.299820  0.999945  1
  Ho  Ho1  1  0.500000  0.700221  0.500097  1
  Ho  Ho2  1  0.000000  0.291607  0.500014  1
  Ho  Ho3  1  0.500000  0.708466  0.999932  1
  Ho  Ho4  1  0.000000  0.209743  0.248921  1
  Ho  Ho5  1  0.500000  0.790250  0.251063  1
  Ho  Ho6  1  0.000000  0.209529  0.751090  1
  Er  Er7  1  0.500000  0.789834  0.748932  1
  Si  Si8  1  0.000000  0.908915  0.593445  1
  Si  Si9  1  0.500000  0.090993  0.906602  1
  Si  Si10  1  0.000000  0.908923  0.406760  1
  Si  Si11  1  0.500000  0.091051  0.093261  1
  Si  Si12  1  0.000000  0.591676  0.144473  1
  Si  Si13  1  0.500000  0.408328  0.355528  1
  Si  Si14  1  0.000000  0.591996  0.855417  1
  Si  Si15  1  0.500000  0.408403  0.644481  1
  Pd  Pd16  1  0.500000  0.075770  0.608692  1
  Pd  Pd17  1  0.000000  0.923694  0.891262  1
  Pd  Pd18  1  0.500000  0.076130  0.391551  1
  Pd  Pd19  1  0.000000  0.923890  0.108454  1
  Pd  Pd20  1  0.500000  0.419968  0.156500  1
  Pd  Pd21  1  0.000000  0.580048  0.343484  1
  Pd  Pd22  1  0.500000  0.420302  0.843393  1
  Pd  Pd23  1  0.000000  0.580441  0.656701  1
