# generated using pymatgen
data_Tb3Y9Ga20
_symmetry_space_group_name_H-M   'P 1'
_cell_length_a   6.13504002
_cell_length_b   9.69880603
_cell_length_c   11.49875502
_cell_angle_alpha   89.99560889
_cell_angle_beta   90.00470050
_cell_angle_gamma   90.00802958
_symmetry_Int_Tables_number   1
_chemical_formula_structural   Tb3Y9Ga20
_chemical_formula_sum   'Tb3 Y9 Ga20'
_cell_volume   684.20538556
_cell_formula_units_Z   1
loop_
 _symmetry_equiv_pos_site_id
 _symmetry_equiv_pos_as_xyz
  1  'x, y, z'
loop_
 _atom_site_type_symbol
 _atom_site_label
 _atom_site_symmetry_multiplicity
 _atom_site_fract_x
 _atom_site_fract_y
 _atom_site_fract_z
 _atom_site_occupancy
  Tb  Tb0  1  0.389742  0.009781  0.148018  1
  Tb  Tb1  1  0.889765  0.990182  0.351981  1
  Tb  Tb2  1  0.610234  0.509799  0.851891  1
  Y  Y3  1  0.848910  0.750049  0.074075  1
  Y  Y4  1  0.651151  0.749967  0.574118  1
  Y  Y5  1  0.151049  0.250056  0.925856  1
  Y  Y6  1  0.348907  0.249991  0.425944  1
  Y  Y7  1  0.889744  0.509780  0.351902  1
  Y  Y8  1  0.610252  0.990230  0.851828  1
  Y  Y9  1  0.110259  0.009815  0.648166  1
  Y  Y10  1  0.389701  0.490189  0.148155  1
  Y  Y11  1  0.110314  0.490165  0.648067  1
  Ga  Ga12  1  0.874348  0.053349  0.090853  1
  Ga  Ga13  1  0.625777  0.446657  0.590835  1
  Ga  Ga14  1  0.125663  0.553339  0.909158  1
  Ga  Ga15  1  0.374351  0.946665  0.409163  1
  Ga  Ga16  1  0.125770  0.946656  0.909200  1
  Ga  Ga17  1  0.374229  0.553320  0.409139  1
  Ga  Ga18  1  0.874209  0.446657  0.090816  1
  Ga  Ga19  1  0.625767  0.053358  0.590820  1
  Ga  Ga20  1  0.175736  0.750021  0.252311  1
  Ga  Ga21  1  0.324210  0.749961  0.752272  1
  Ga  Ga22  1  0.824196  0.250021  0.747704  1
  Ga  Ga23  1  0.675738  0.249971  0.247696  1
  Ga  Ga24  1  0.370312  0.749993  0.004611  1
  Ga  Ga25  1  0.129641  0.749981  0.504694  1
  Ga  Ga26  1  0.629688  0.249997  0.995377  1
  Ga  Ga27  1  0.870310  0.249986  0.495321  1
  Ga  Ga28  1  0.601365  0.750031  0.299268  1
  Ga  Ga29  1  0.898650  0.750031  0.799302  1
  Ga  Ga30  1  0.398684  0.250020  0.700739  1
  Ga  Ga31  1  0.101329  0.249983  0.200719  1
