# generated using pymatgen
data_Ce4CdIr3Pb2
_symmetry_space_group_name_H-M   'P 1'
_cell_length_a   8.04185797
_cell_length_b   8.04185842
_cell_length_c   3.71483100
_cell_angle_alpha   90.00000000
_cell_angle_beta   90.00000000
_cell_angle_gamma   88.27264481
_symmetry_Int_Tables_number   1
_chemical_formula_structural   Ce4CdIr3Pb2
_chemical_formula_sum   'Ce4 Cd1 Ir3 Pb2'
_cell_volume   240.13445989
_cell_formula_units_Z   1
loop_
 _symmetry_equiv_pos_site_id
 _symmetry_equiv_pos_as_xyz
  1  'x, y, z'
loop_
 _atom_site_type_symbol
 _atom_site_label
 _atom_site_symmetry_multiplicity
 _atom_site_fract_x
 _atom_site_fract_y
 _atom_site_fract_z
 _atom_site_occupancy
  Ce  Ce0  1  0.641605  0.141605  0.500000  1
  Ce  Ce1  1  0.202296  0.340625  0.500000  1
  Ce  Ce2  1  0.840625  0.702296  0.500000  1
  Ce  Ce3  1  0.323856  0.823856  0.500000  1
  Cd  Cd4  1  0.870925  0.370925  0.000000  1
  Ir  Ir5  1  0.362640  0.125948  0.000000  1
  Ir  Ir6  1  0.117277  0.617277  0.000000  1
  Ir  Ir7  1  0.625948  0.862640  0.000000  1
  Pb  Pb8  1  0.007517  0.007310  0.000000  1
  Pb  Pb9  1  0.507310  0.507517  0.000000  1
