# generated using pymatgen
data_TmCd3(IO6)2
_symmetry_space_group_name_H-M   'P 1'
_cell_length_a   4.94844900
_cell_length_b   4.93581395
_cell_length_c   9.81451000
_cell_angle_alpha   90.00000000
_cell_angle_beta   90.00000000
_cell_angle_gamma   89.75546150
_symmetry_Int_Tables_number   1
_chemical_formula_structural   TmCd3(IO6)2
_chemical_formula_sum   'Tm1 Cd3 I2 O12'
_cell_volume   239.71352955
_cell_formula_units_Z   1
loop_
 _symmetry_equiv_pos_site_id
 _symmetry_equiv_pos_as_xyz
  1  'x, y, z'
loop_
 _atom_site_type_symbol
 _atom_site_label
 _atom_site_symmetry_multiplicity
 _atom_site_fract_x
 _atom_site_fract_y
 _atom_site_fract_z
 _atom_site_occupancy
  Tm  Tm0  1  0.000000  0.000000  0.339011  1
  Cd  Cd1  1  0.500000  0.500000  0.163601  1
  Cd  Cd2  1  0.000000  0.000000  0.666068  1
  Cd  Cd3  1  0.500000  0.500000  0.833832  1
  I  I4  1  0.500000  0.500000  0.499746  1
  I  I5  1  0.000000  0.000000  0.000580  1
  O  O6  1  0.682510  0.682981  0.640234  1
  O  O7  1  0.317490  0.317019  0.640234  1
  O  O8  1  0.816601  0.183843  0.859413  1
  O  O9  1  0.183399  0.816157  0.859413  1
  O  O10  1  0.313984  0.313730  0.357752  1
  O  O11  1  0.686016  0.686270  0.357752  1
  O  O12  1  0.178882  0.820769  0.148102  1
  O  O13  1  0.821118  0.179231  0.148102  1
  O  O14  1  0.730740  0.730396  0.001060  1
  O  O15  1  0.269260  0.269604  0.001060  1
  O  O16  1  0.771861  0.227909  0.492018  1
  O  O17  1  0.228139  0.772091  0.492018  1
