# generated using pymatgen
data_DyHo3Co18(TcP6)2
_symmetry_space_group_name_H-M   'P 1'
_cell_length_a   3.68001000
_cell_length_b   10.31560203
_cell_length_c   11.76064004
_cell_angle_alpha   89.99060883
_cell_angle_beta   90.00000000
_cell_angle_gamma   90.00000000
_symmetry_Int_Tables_number   1
_chemical_formula_structural   DyHo3Co18(TcP6)2
_chemical_formula_sum   'Dy1 Ho3 Co18 Tc2 P12'
_cell_volume   446.45175012
_cell_formula_units_Z   1
loop_
 _symmetry_equiv_pos_site_id
 _symmetry_equiv_pos_as_xyz
  1  'x, y, z'
loop_
 _atom_site_type_symbol
 _atom_site_label
 _atom_site_symmetry_multiplicity
 _atom_site_fract_x
 _atom_site_fract_y
 _atom_site_fract_z
 _atom_site_occupancy
  Dy  Dy0  1  0.250000  0.917506  0.202899  1
  Ho  Ho1  1  0.250000  0.582433  0.702860  1
  Ho  Ho2  1  0.750000  0.415274  0.295573  1
  Ho  Ho3  1  0.750000  0.084786  0.795537  1
  Co  Co4  1  0.750000  0.284950  0.009722  1
  Co  Co5  1  0.750000  0.215182  0.509931  1
  Co  Co6  1  0.250000  0.405938  0.487972  1
  Co  Co7  1  0.250000  0.094212  0.987852  1
  Co  Co8  1  0.750000  0.591880  0.511072  1
  Co  Co9  1  0.750000  0.908142  0.010587  1
  Co  Co10  1  0.250000  0.220982  0.176705  1
  Co  Co11  1  0.250000  0.279157  0.676724  1
  Co  Co12  1  0.750000  0.778297  0.822644  1
  Co  Co13  1  0.750000  0.721360  0.322873  1
  Co  Co14  1  0.250000  0.886216  0.701667  1
  Co  Co15  1  0.250000  0.613589  0.201563  1
  Co  Co16  1  0.750000  0.116853  0.301011  1
  Co  Co17  1  0.750000  0.383474  0.800741  1
  Co  Co18  1  0.250000  0.464204  0.932391  1
  Co  Co19  1  0.250000  0.035923  0.432753  1
  Co  Co20  1  0.750000  0.532498  0.068529  1
  Co  Co21  1  0.750000  0.967320  0.568852  1
  Tc  Tc22  1  0.250000  0.710307  0.989248  1
  Tc  Tc23  1  0.250000  0.789581  0.489447  1
  P  P24  1  0.250000  0.417359  0.112670  1
  P  P25  1  0.250000  0.082653  0.612915  1
  P  P26  1  0.750000  0.578499  0.886361  1
  P  P27  1  0.750000  0.921476  0.386811  1
  P  P28  1  0.250000  0.269309  0.868240  1
  P  P29  1  0.250000  0.230749  0.368286  1
  P  P30  1  0.750000  0.729057  0.133175  1
  P  P31  1  0.750000  0.770426  0.633325  1
  P  P32  1  0.250000  0.595536  0.391072  1
  P  P33  1  0.250000  0.904463  0.891061  1
  P  P34  1  0.750000  0.397767  0.608547  1
  P  P35  1  0.750000  0.102641  0.108383  1
