# generated using pymatgen
data_Ho8Cd2PdPt
_symmetry_space_group_name_H-M   'P 1'
_cell_length_a   9.65542675
_cell_length_b   9.65542758
_cell_length_c   9.64546200
_cell_angle_alpha   60.03413645
_cell_angle_beta   60.03413361
_cell_angle_gamma   60.05330772
_symmetry_Int_Tables_number   1
_chemical_formula_structural   Ho8Cd2PdPt
_chemical_formula_sum   'Ho16 Cd4 Pd2 Pt2'
_cell_volume   636.42868120
_cell_formula_units_Z   2
loop_
 _symmetry_equiv_pos_site_id
 _symmetry_equiv_pos_as_xyz
  1  'x, y, z'
loop_
 _atom_site_type_symbol
 _atom_site_label
 _atom_site_symmetry_multiplicity
 _atom_site_fract_x
 _atom_site_fract_y
 _atom_site_fract_z
 _atom_site_occupancy
  Ho  Ho0  1  0.603368  0.603368  0.599098  1
  Ho  Ho1  1  0.603368  0.603368  0.194167  1
  Ho  Ho2  1  0.607274  0.187345  0.602690  1
  Ho  Ho3  1  0.187345  0.607274  0.602690  1
  Ho  Ho4  1  0.059284  0.439702  0.440033  1
  Ho  Ho5  1  0.439702  0.059284  0.060981  1
  Ho  Ho6  1  0.439702  0.059284  0.440033  1
  Ho  Ho7  1  0.059284  0.439702  0.060981  1
  Ho  Ho8  1  0.440765  0.440765  0.059235  1
  Ho  Ho9  1  0.060745  0.060745  0.439255  1
  Ho  Ho10  1  0.184796  0.815675  0.815075  1
  Ho  Ho11  1  0.815675  0.184796  0.184453  1
  Ho  Ho12  1  0.815675  0.184796  0.815075  1
  Ho  Ho13  1  0.184796  0.815675  0.184453  1
  Ho  Ho14  1  0.816023  0.816023  0.183977  1
  Ho  Ho15  1  0.184871  0.184871  0.815129  1
  Cd  Cd16  1  0.831694  0.831694  0.832734  1
  Cd  Cd17  1  0.831694  0.831694  0.503879  1
  Cd  Cd18  1  0.831236  0.503924  0.832420  1
  Cd  Cd19  1  0.503924  0.831236  0.832420  1
  Pd  Pd20  1  0.393523  0.393523  0.395912  1
  Pd  Pd21  1  0.393523  0.393523  0.817040  1
  Pt  Pt22  1  0.391775  0.819956  0.394134  1
  Pt  Pt23  1  0.819956  0.391775  0.394134  1
