# generated using pymatgen
data_Tb19Er(Ga2Bi)4
_symmetry_space_group_name_H-M   'P 1'
_cell_length_a   8.29632300
_cell_length_b   8.29632300
_cell_length_c   12.69244300
_cell_angle_alpha   90.00000000
_cell_angle_beta   90.00000000
_cell_angle_gamma   90.00000000
_symmetry_Int_Tables_number   1
_chemical_formula_structural   Tb19Er(Ga2Bi)4
_chemical_formula_sum   'Tb19 Er1 Ga8 Bi4'
_cell_volume   873.60784600
_cell_formula_units_Z   1
loop_
 _symmetry_equiv_pos_site_id
 _symmetry_equiv_pos_as_xyz
  1  'x, y, z'
loop_
 _atom_site_type_symbol
 _atom_site_label
 _atom_site_symmetry_multiplicity
 _atom_site_fract_x
 _atom_site_fract_y
 _atom_site_fract_z
 _atom_site_occupancy
  Tb  Tb0  1  0.000000  0.500000  0.750459  1
  Tb  Tb1  1  0.000000  0.500000  0.250567  1
  Tb  Tb2  1  0.500000  0.000000  0.249538  1
  Tb  Tb3  1  0.651850  0.652524  0.608325  1
  Tb  Tb4  1  0.652519  0.347988  0.108192  1
  Tb  Tb5  1  0.847455  0.847949  0.391825  1
  Tb  Tb6  1  0.152934  0.848636  0.891606  1
  Tb  Tb7  1  0.348150  0.347476  0.608325  1
  Tb  Tb8  1  0.347481  0.652012  0.108192  1
  Tb  Tb9  1  0.152545  0.152051  0.391825  1
  Tb  Tb10  1  0.847066  0.151364  0.891606  1
  Tb  Tb11  1  0.652051  0.347455  0.391825  1
  Tb  Tb12  1  0.348636  0.347066  0.891606  1
  Tb  Tb13  1  0.152524  0.848150  0.608325  1
  Tb  Tb14  1  0.847988  0.847481  0.108192  1
  Tb  Tb15  1  0.347949  0.652545  0.391825  1
  Tb  Tb16  1  0.651364  0.652934  0.891606  1
  Tb  Tb17  1  0.847476  0.151850  0.608325  1
  Tb  Tb18  1  0.152012  0.152519  0.108192  1
  Er  Er19  1  0.500000  0.000000  0.749652  1
  Ga  Ga20  1  0.850841  0.851666  0.749928  1
  Ga  Ga21  1  0.851764  0.147945  0.250045  1
  Ga  Ga22  1  0.647945  0.648236  0.250045  1
  Ga  Ga23  1  0.351666  0.649159  0.749928  1
  Ga  Ga24  1  0.149159  0.148334  0.749928  1
  Ga  Ga25  1  0.148236  0.852055  0.250045  1
  Ga  Ga26  1  0.352055  0.351764  0.250045  1
  Ga  Ga27  1  0.648334  0.350841  0.749928  1
  Bi  Bi28  1  0.000000  0.500000  0.500412  1
  Bi  Bi29  1  0.000000  0.500000  0.000262  1
  Bi  Bi30  1  0.500000  0.000000  0.500756  1
  Bi  Bi31  1  0.500000  0.000000  0.998671  1
