# generated using pymatgen
data_Sm2Tm3Sn3Sb
_symmetry_space_group_name_H-M   'P 1'
_cell_length_a   8.10581600
_cell_length_b   8.15112800
_cell_length_c   15.36096500
_cell_angle_alpha   90.00000000
_cell_angle_beta   90.00000000
_cell_angle_gamma   90.00000000
_symmetry_Int_Tables_number   1
_chemical_formula_structural   Sm2Tm3Sn3Sb
_chemical_formula_sum   'Sm8 Tm12 Sn12 Sb4'
_cell_volume   1014.92267120
_cell_formula_units_Z   4
loop_
 _symmetry_equiv_pos_site_id
 _symmetry_equiv_pos_as_xyz
  1  'x, y, z'
loop_
 _atom_site_type_symbol
 _atom_site_label
 _atom_site_symmetry_multiplicity
 _atom_site_fract_x
 _atom_site_fract_y
 _atom_site_fract_z
 _atom_site_occupancy
  Sm  Sm0  1  0.530032  0.324778  0.899718  1
  Sm  Sm1  1  0.030032  0.175222  0.600282  1
  Sm  Sm2  1  0.469968  0.675222  0.399718  1
  Sm  Sm3  1  0.969968  0.824778  0.100282  1
  Sm  Sm4  1  0.476508  0.678040  0.098876  1
  Sm  Sm5  1  0.976508  0.821960  0.401124  1
  Sm  Sm6  1  0.523492  0.321960  0.598876  1
  Sm  Sm7  1  0.023492  0.178040  0.901124  1
  Tm  Tm8  1  0.369722  0.839276  0.876760  1
  Tm  Tm9  1  0.869722  0.660724  0.623240  1
  Tm  Tm10  1  0.630278  0.160724  0.376760  1
  Tm  Tm11  1  0.130278  0.339276  0.123240  1
  Tm  Tm12  1  0.634021  0.162082  0.123083  1
  Tm  Tm13  1  0.134021  0.337918  0.376917  1
  Tm  Tm14  1  0.365979  0.837918  0.623083  1
  Tm  Tm15  1  0.865979  0.662082  0.876917  1
  Tm  Tm16  1  0.197206  0.502210  0.748194  1
  Tm  Tm17  1  0.697206  0.997790  0.751806  1
  Tm  Tm18  1  0.802794  0.497790  0.248194  1
  Tm  Tm19  1  0.302794  0.002210  0.251806  1
  Sn  Sn20  1  0.708239  0.963299  0.956855  1
  Sn  Sn21  1  0.208239  0.536701  0.543145  1
  Sn  Sn22  1  0.291761  0.036701  0.456855  1
  Sn  Sn23  1  0.791761  0.463299  0.043145  1
  Sn  Sn24  1  0.564193  0.624758  0.749006  1
  Sn  Sn25  1  0.064193  0.875242  0.750994  1
  Sn  Sn26  1  0.435807  0.375242  0.249006  1
  Sn  Sn27  1  0.935807  0.124758  0.250994  1
  Sn  Sn28  1  0.334407  0.145668  0.750824  1
  Sn  Sn29  1  0.834407  0.354332  0.749176  1
  Sn  Sn30  1  0.665593  0.854332  0.250824  1
  Sn  Sn31  1  0.165593  0.645668  0.249176  1
  Sb  Sb32  1  0.290938  0.037212  0.043737  1
  Sb  Sb33  1  0.790938  0.462788  0.456263  1
  Sb  Sb34  1  0.709062  0.962788  0.543737  1
  Sb  Sb35  1  0.209062  0.537212  0.956263  1
