# generated using pymatgen
data_LaDyCd(Si3Pd10)2
_symmetry_space_group_name_H-M   'P 1'
_cell_length_a   8.71136086
_cell_length_b   8.71125658
_cell_length_c   8.71073000
_cell_angle_alpha   59.99775415
_cell_angle_beta   59.99901597
_cell_angle_gamma   60.00044436
_symmetry_Int_Tables_number   1
_chemical_formula_structural   LaDyCd(Si3Pd10)2
_chemical_formula_sum   'La1 Dy1 Cd1 Si6 Pd20'
_cell_volume   467.40916251
_cell_formula_units_Z   1
loop_
 _symmetry_equiv_pos_site_id
 _symmetry_equiv_pos_as_xyz
  1  'x, y, z'
loop_
 _atom_site_type_symbol
 _atom_site_label
 _atom_site_symmetry_multiplicity
 _atom_site_fract_x
 _atom_site_fract_y
 _atom_site_fract_z
 _atom_site_occupancy
  La  La0  1  0.250038  0.250000  0.249967  1
  Dy  Dy1  1  0.749994  0.750009  0.750026  1
  Cd  Cd2  1  0.999997  0.999996  0.000006  1
  Si  Si3  1  0.733048  0.733073  0.266924  1
  Si  Si4  1  0.266946  0.266920  0.733079  1
  Si  Si5  1  0.733026  0.266951  0.733090  1
  Si  Si6  1  0.266976  0.733050  0.266906  1
  Si  Si7  1  0.266957  0.733043  0.733084  1
  Si  Si8  1  0.733044  0.266957  0.266914  1
  Pd  Pd9  1  0.616952  0.616947  0.616959  1
  Pd  Pd10  1  0.385795  0.385815  0.385807  1
  Pd  Pd11  1  0.149148  0.616953  0.616956  1
  Pd  Pd12  1  0.616950  0.149165  0.616939  1
  Pd  Pd13  1  0.842603  0.385804  0.385790  1
  Pd  Pd14  1  0.385798  0.842583  0.385796  1
  Pd  Pd15  1  0.616919  0.616911  0.149248  1
  Pd  Pd16  1  0.385821  0.385840  0.842492  1
  Pd  Pd17  1  0.998690  0.998703  0.656838  1
  Pd  Pd18  1  0.998666  0.998652  0.345801  1
  Pd  Pd19  1  0.345797  0.656875  0.998667  1
  Pd  Pd20  1  0.656835  0.345759  0.998695  1
  Pd  Pd21  1  0.998710  0.656815  0.998691  1
  Pd  Pd22  1  0.656862  0.998698  0.345755  1
  Pd  Pd23  1  0.998673  0.345804  0.998680  1
  Pd  Pd24  1  0.345779  0.998657  0.656892  1
  Pd  Pd25  1  0.656800  0.998738  0.998709  1
  Pd  Pd26  1  0.345816  0.998646  0.998659  1
  Pd  Pd27  1  0.998684  0.656862  0.345786  1
  Pd  Pd28  1  0.998678  0.345772  0.656847  1
