# generated using pymatgen
data_ErPu3(NbN2)4
_symmetry_space_group_name_H-M   'P 1'
_cell_length_a   3.27228000
_cell_length_b   5.66670658
_cell_length_c   10.94525527
_cell_angle_alpha   90.05172329
_cell_angle_beta   90.00000000
_cell_angle_gamma   90.00000000
_symmetry_Int_Tables_number   1
_chemical_formula_structural   ErPu3(NbN2)4
_chemical_formula_sum   'Er1 Pu3 Nb4 N8'
_cell_volume   202.95833961
_cell_formula_units_Z   1
loop_
 _symmetry_equiv_pos_site_id
 _symmetry_equiv_pos_as_xyz
  1  'x, y, z'
loop_
 _atom_site_type_symbol
 _atom_site_label
 _atom_site_symmetry_multiplicity
 _atom_site_fract_x
 _atom_site_fract_y
 _atom_site_fract_z
 _atom_site_occupancy
  Er  Er0  1  0.250000  0.580025  0.857138  1
  Pu  Pu1  1  0.750000  0.423426  0.138190  1
  Pu  Pu2  1  0.750000  0.921551  0.358779  1
  Pu  Pu3  1  0.250000  0.080305  0.641332  1
  Nb  Nb4  1  0.250000  0.918575  0.103130  1
  Nb  Nb5  1  0.750000  0.079057  0.898438  1
  Nb  Nb6  1  0.750000  0.580545  0.604620  1
  Nb  Nb7  1  0.250000  0.420263  0.396442  1
  N  N8  1  0.250000  0.653268  0.242313  1
  N  N9  1  0.750000  0.340752  0.756737  1
  N  N10  1  0.750000  0.841872  0.746393  1
  N  N11  1  0.250000  0.160801  0.253717  1
  N  N12  1  0.250000  0.755874  0.505603  1
  N  N13  1  0.750000  0.244362  0.494368  1
  N  N14  1  0.750000  0.740236  0.006536  1
  N  N15  1  0.250000  0.259086  0.996262  1
