# generated using pymatgen
data_NaY3(Ir2O7)2
_symmetry_space_group_name_H-M   'P 1'
_cell_length_a   7.22086786
_cell_length_b   7.22086755
_cell_length_c   7.22086853
_cell_angle_alpha   60.60981863
_cell_angle_beta   60.60981956
_cell_angle_gamma   60.60981861
_symmetry_Int_Tables_number   1
_chemical_formula_structural   NaY3(Ir2O7)2
_chemical_formula_sum   'Na1 Y3 Ir4 O14'
_cell_volume   269.89415201
_cell_formula_units_Z   1
loop_
 _symmetry_equiv_pos_site_id
 _symmetry_equiv_pos_as_xyz
  1  'x, y, z'
loop_
 _atom_site_type_symbol
 _atom_site_label
 _atom_site_symmetry_multiplicity
 _atom_site_fract_x
 _atom_site_fract_y
 _atom_site_fract_z
 _atom_site_occupancy
  Na  Na0  1  0.000000  0.000000  0.000000  1
  Y  Y1  1  0.000000  0.500000  0.000000  1
  Y  Y2  1  0.500000  0.000000  0.000000  1
  Y  Y3  1  0.000000  0.000000  0.500000  1
  Ir  Ir4  1  0.500000  0.500000  0.500000  1
  Ir  Ir5  1  0.500000  0.000000  0.500000  1
  Ir  Ir6  1  0.000000  0.500000  0.500000  1
  Ir  Ir7  1  0.500000  0.500000  0.000000  1
  O  O8  1  0.416640  0.416640  0.831527  1
  O  O9  1  0.831527  0.416640  0.416640  1
  O  O10  1  0.416640  0.831527  0.416640  1
  O  O11  1  0.826727  0.826727  0.432122  1
  O  O12  1  0.432122  0.826727  0.826727  1
  O  O13  1  0.826727  0.432122  0.826727  1
  O  O14  1  0.583360  0.583360  0.168473  1
  O  O15  1  0.168473  0.583360  0.583360  1
  O  O16  1  0.583360  0.168473  0.583360  1
  O  O17  1  0.173273  0.173273  0.567878  1
  O  O18  1  0.567878  0.173273  0.173273  1
  O  O19  1  0.173273  0.567878  0.173273  1
  O  O20  1  0.130331  0.130331  0.130331  1
  O  O21  1  0.869669  0.869669  0.869669  1
