# generated using pymatgen
data_Ti6NbGa5Ru12
_symmetry_space_group_name_H-M   'P 1'
_cell_length_a   4.32583400
_cell_length_b   6.18322500
_cell_length_c   12.99784001
_cell_angle_alpha   90.00000000
_cell_angle_beta   89.99670897
_cell_angle_gamma   90.00000000
_symmetry_Int_Tables_number   1
_chemical_formula_structural   Ti6NbGa5Ru12
_chemical_formula_sum   'Ti6 Nb1 Ga5 Ru12'
_cell_volume   347.66108904
_cell_formula_units_Z   1
loop_
 _symmetry_equiv_pos_site_id
 _symmetry_equiv_pos_as_xyz
  1  'x, y, z'
loop_
 _atom_site_type_symbol
 _atom_site_label
 _atom_site_symmetry_multiplicity
 _atom_site_fract_x
 _atom_site_fract_y
 _atom_site_fract_z
 _atom_site_occupancy
  Ti  Ti0  1  0.000000  0.500000  0.000000  1
  Ti  Ti1  1  0.499838  0.000000  0.176244  1
  Ti  Ti2  1  0.999828  0.500000  0.336232  1
  Ti  Ti3  1  0.500001  0.000000  0.500000  1
  Ti  Ti4  1  0.000172  0.500000  0.663769  1
  Ti  Ti5  1  0.500162  0.000000  0.823756  1
  Nb  Nb6  1  0.000000  0.000000  0.000000  1
  Ga  Ga7  1  0.499822  0.500000  0.167863  1
  Ga  Ga8  1  0.999797  0.000000  0.334750  1
  Ga  Ga9  1  0.500001  0.500000  0.500000  1
  Ga  Ga10  1  0.000203  0.000000  0.665250  1
  Ga  Ga11  1  0.500178  0.500000  0.832138  1
  Ru  Ru12  1  0.500001  0.250394  0.000000  1
  Ru  Ru13  1  0.500001  0.749606  0.000000  1
  Ru  Ru14  1  0.999834  0.249565  0.165148  1
  Ru  Ru15  1  0.999834  0.750435  0.165148  1
  Ru  Ru16  1  0.499789  0.251070  0.333297  1
  Ru  Ru17  1  0.499789  0.748930  0.333297  1
  Ru  Ru18  1  0.000000  0.251616  0.500000  1
  Ru  Ru19  1  0.000000  0.748384  0.500000  1
  Ru  Ru20  1  0.500211  0.251070  0.666703  1
  Ru  Ru21  1  0.500211  0.748930  0.666703  1
  Ru  Ru22  1  0.000166  0.249565  0.834852  1
  Ru  Ru23  1  0.000166  0.750435  0.834852  1
