# generated using pymatgen
data_Ac3Tb(GePt)4
_symmetry_space_group_name_H-M   'P 1'
_cell_length_a   4.42805300
_cell_length_b   8.30266429
_cell_length_c   7.71276081
_cell_angle_alpha   89.94550853
_cell_angle_beta   90.00000000
_cell_angle_gamma   90.00000000
_symmetry_Int_Tables_number   1
_chemical_formula_structural   Ac3Tb(GePt)4
_chemical_formula_sum   'Ac3 Tb1 Ge4 Pt4'
_cell_volume   283.55672735
_cell_formula_units_Z   1
loop_
 _symmetry_equiv_pos_site_id
 _symmetry_equiv_pos_as_xyz
  1  'x, y, z'
loop_
 _atom_site_type_symbol
 _atom_site_label
 _atom_site_symmetry_multiplicity
 _atom_site_fract_x
 _atom_site_fract_y
 _atom_site_fract_z
 _atom_site_occupancy
  Ac  Ac0  1  0.750000  0.501370  0.780648  1
  Ac  Ac1  1  0.250000  0.987053  0.258601  1
  Ac  Ac2  1  0.750000  0.006949  0.734668  1
  Tb  Tb3  1  0.250000  0.497772  0.223660  1
  Ge  Ge4  1  0.250000  0.770324  0.915119  1
  Ge  Ge5  1  0.250000  0.262224  0.571574  1
  Ge  Ge6  1  0.750000  0.237133  0.101067  1
  Ge  Ge7  1  0.750000  0.682026  0.412340  1
  Pt  Pt8  1  0.250000  0.733707  0.574910  1
  Pt  Pt9  1  0.250000  0.252231  0.923555  1
  Pt  Pt10  1  0.750000  0.743695  0.088757  1
  Pt  Pt11  1  0.750000  0.325515  0.415102  1
