# generated using pymatgen
data_Rb2Na16Ga6AsP11
_symmetry_space_group_name_H-M   'P 1'
_cell_length_a   4.72464900
_cell_length_b   16.46801700
_cell_length_c   22.43702500
_cell_angle_alpha   90.00000000
_cell_angle_beta   90.00000000
_cell_angle_gamma   90.00000000
_symmetry_Int_Tables_number   1
_chemical_formula_structural   Rb2Na16Ga6AsP11
_chemical_formula_sum   'Rb4 Na32 Ga12 As2 P22'
_cell_volume   1745.72619349
_cell_formula_units_Z   2
loop_
 _symmetry_equiv_pos_site_id
 _symmetry_equiv_pos_as_xyz
  1  'x, y, z'
loop_
 _atom_site_type_symbol
 _atom_site_label
 _atom_site_symmetry_multiplicity
 _atom_site_fract_x
 _atom_site_fract_y
 _atom_site_fract_z
 _atom_site_occupancy
  Rb  Rb0  1  0.250000  0.808092  0.500572  1
  Rb  Rb1  1  0.250000  0.691908  0.000572  1
  Rb  Rb2  1  0.750000  0.191852  0.498431  1
  Rb  Rb3  1  0.750000  0.308148  0.998431  1
  Na  Na4  1  0.250000  0.031254  0.551542  1
  Na  Na5  1  0.250000  0.468746  0.051542  1
  Na  Na6  1  0.750000  0.967490  0.447983  1
  Na  Na7  1  0.750000  0.532510  0.947983  1
  Na  Na8  1  0.250000  0.352573  0.556291  1
  Na  Na9  1  0.250000  0.147427  0.056291  1
  Na  Na10  1  0.750000  0.649029  0.443140  1
  Na  Na11  1  0.750000  0.850971  0.943140  1
  Na  Na12  1  0.250000  0.921727  0.680651  1
  Na  Na13  1  0.250000  0.578273  0.180651  1
  Na  Na14  1  0.750000  0.078115  0.319343  1
  Na  Na15  1  0.750000  0.421885  0.819343  1
  Na  Na16  1  0.250000  0.692681  0.680887  1
  Na  Na17  1  0.250000  0.807319  0.180887  1
  Na  Na18  1  0.750000  0.307325  0.319294  1
  Na  Na19  1  0.750000  0.192675  0.819294  1
  Na  Na20  1  0.250000  0.456961  0.691845  1
  Na  Na21  1  0.250000  0.043039  0.191845  1
  Na  Na22  1  0.750000  0.543197  0.308155  1
  Na  Na23  1  0.750000  0.956803  0.808155  1
  Na  Na24  1  0.250000  0.799793  0.837036  1
  Na  Na25  1  0.250000  0.700207  0.337036  1
  Na  Na26  1  0.750000  0.199600  0.163238  1
  Na  Na27  1  0.750000  0.300400  0.663238  1
  Na  Na28  1  0.250000  0.580366  0.840613  1
  Na  Na29  1  0.250000  0.919634  0.340613  1
  Na  Na30  1  0.750000  0.420270  0.159626  1
  Na  Na31  1  0.750000  0.079730  0.659626  1
  Na  Na32  1  0.250000  0.943306  0.039728  1
  Na  Na33  1  0.250000  0.556694  0.539728  1
  Na  Na34  1  0.750000  0.056599  0.960315  1
  Na  Na35  1  0.750000  0.443401  0.460315  1
  Ga  Ga36  1  0.250000  0.190822  0.718366  1
  Ga  Ga37  1  0.250000  0.309178  0.218366  1
  Ga  Ga38  1  0.750000  0.809149  0.283706  1
  Ga  Ga39  1  0.750000  0.690851  0.783706  1
  Ga  Ga40  1  0.250000  0.068923  0.864690  1
  Ga  Ga41  1  0.250000  0.431077  0.364690  1
  Ga  Ga42  1  0.750000  0.930845  0.135497  1
  Ga  Ga43  1  0.750000  0.569155  0.635497  1
  Ga  Ga44  1  0.250000  0.309677  0.873142  1
  Ga  Ga45  1  0.250000  0.190323  0.373142  1
  Ga  Ga46  1  0.750000  0.690547  0.127043  1
  Ga  Ga47  1  0.750000  0.809453  0.627043  1
  As  As48  1  0.250000  0.191959  0.613462  1
  As  As49  1  0.250000  0.308041  0.113462  1
  P  P50  1  0.750000  0.808002  0.384459  1
  P  P51  1  0.750000  0.691998  0.884459  1
  P  P52  1  0.250000  0.063520  0.761761  1
  P  P53  1  0.250000  0.436480  0.261761  1
  P  P54  1  0.750000  0.935958  0.238629  1
  P  P55  1  0.750000  0.564042  0.738629  1
  P  P56  1  0.250000  0.313873  0.768743  1
  P  P57  1  0.250000  0.186127  0.268743  1
  P  P58  1  0.750000  0.686630  0.231741  1
  P  P59  1  0.750000  0.813370  0.731741  1
  P  P60  1  0.250000  0.945438  0.910315  1
  P  P61  1  0.250000  0.554562  0.410315  1
  P  P62  1  0.750000  0.054302  0.089833  1
  P  P63  1  0.750000  0.445698  0.589833  1
  P  P64  1  0.250000  0.434608  0.916874  1
  P  P65  1  0.250000  0.065392  0.416874  1
  P  P66  1  0.750000  0.565726  0.083131  1
  P  P67  1  0.750000  0.934274  0.583131  1
  P  P68  1  0.250000  0.184493  0.923845  1
  P  P69  1  0.250000  0.315507  0.423845  1
  P  P70  1  0.750000  0.815449  0.076074  1
  P  P71  1  0.750000  0.684551  0.576074  1
