# generated using pymatgen
data_Nd4FeCo17(P6Ru)2
_symmetry_space_group_name_H-M   'P 1'
_cell_length_a   3.72089900
_cell_length_b   10.45345431
_cell_length_c   11.87422786
_cell_angle_alpha   89.92049682
_cell_angle_beta   90.00000000
_cell_angle_gamma   90.00000000
_symmetry_Int_Tables_number   1
_chemical_formula_structural   Nd4FeCo17(P6Ru)2
_chemical_formula_sum   'Nd4 Fe1 Co17 P12 Ru2'
_cell_volume   461.86246306
_cell_formula_units_Z   1
loop_
 _symmetry_equiv_pos_site_id
 _symmetry_equiv_pos_as_xyz
  1  'x, y, z'
loop_
 _atom_site_type_symbol
 _atom_site_label
 _atom_site_symmetry_multiplicity
 _atom_site_fract_x
 _atom_site_fract_y
 _atom_site_fract_z
 _atom_site_occupancy
  Nd  Nd0  1  0.250000  0.582861  0.700232  1
  Nd  Nd1  1  0.250000  0.913740  0.205159  1
  Nd  Nd2  1  0.750000  0.414152  0.295663  1
  Nd  Nd3  1  0.750000  0.082944  0.799035  1
  Fe  Fe4  1  0.250000  0.709704  0.987878  1
  Co  Co5  1  0.750000  0.215067  0.507705  1
  Co  Co6  1  0.250000  0.405545  0.489379  1
  Co  Co7  1  0.250000  0.093416  0.991752  1
  Co  Co8  1  0.750000  0.592351  0.508182  1
  Co  Co9  1  0.750000  0.905201  0.011687  1
  Co  Co10  1  0.250000  0.220320  0.175824  1
  Co  Co11  1  0.250000  0.279030  0.675793  1
  Co  Co12  1  0.750000  0.778867  0.823810  1
  Co  Co13  1  0.750000  0.720365  0.325052  1
  Co  Co14  1  0.250000  0.886614  0.700092  1
  Co  Co15  1  0.250000  0.616834  0.198470  1
  Co  Co16  1  0.750000  0.116612  0.301387  1
  Co  Co17  1  0.750000  0.386028  0.799929  1
  Co  Co18  1  0.250000  0.468495  0.932637  1
  Co  Co19  1  0.250000  0.034919  0.433049  1
  Co  Co20  1  0.750000  0.535087  0.066117  1
  Co  Co21  1  0.750000  0.969008  0.567775  1
  P  P22  1  0.250000  0.420248  0.110772  1
  P  P23  1  0.250000  0.082861  0.610204  1
  P  P24  1  0.750000  0.582601  0.888638  1
  P  P25  1  0.750000  0.920502  0.390077  1
  P  P26  1  0.250000  0.276183  0.866004  1
  P  P27  1  0.250000  0.225706  0.369706  1
  P  P28  1  0.750000  0.725568  0.132027  1
  P  P29  1  0.750000  0.777136  0.633757  1
  P  P30  1  0.250000  0.598742  0.391226  1
  P  P31  1  0.250000  0.894445  0.894541  1
  P  P32  1  0.750000  0.394250  0.605611  1
  P  P33  1  0.750000  0.098838  0.109020  1
  Ru  Ru34  1  0.250000  0.786995  0.490580  1
  Ru  Ru35  1  0.750000  0.288765  0.011231  1
