# generated using pymatgen
data_Ce3Pr5(BeSi3)4
_symmetry_space_group_name_H-M   'P 1'
_cell_length_a   7.96293600
_cell_length_b   7.96293562
_cell_length_c   8.58902600
_cell_angle_alpha   90.00000000
_cell_angle_beta   90.00000000
_cell_angle_gamma   119.99999328
_symmetry_Int_Tables_number   1
_chemical_formula_structural   Ce3Pr5(BeSi3)4
_chemical_formula_sum   'Ce3 Pr5 Be4 Si12'
_cell_volume   471.65126985
_cell_formula_units_Z   1
loop_
 _symmetry_equiv_pos_site_id
 _symmetry_equiv_pos_as_xyz
  1  'x, y, z'
loop_
 _atom_site_type_symbol
 _atom_site_label
 _atom_site_symmetry_multiplicity
 _atom_site_fract_x
 _atom_site_fract_y
 _atom_site_fract_z
 _atom_site_occupancy
  Ce  Ce0  1  0.500117  0.499883  0.750000  1
  Ce  Ce1  1  0.500117  0.000235  0.750000  1
  Ce  Ce2  1  0.999765  0.499883  0.750000  1
  Pr  Pr3  1  0.000000  0.000000  0.250000  1
  Pr  Pr4  1  0.000000  0.000000  0.750000  1
  Pr  Pr5  1  0.499976  0.500024  0.250000  1
  Pr  Pr6  1  0.499976  0.999953  0.250000  1
  Pr  Pr7  1  0.000047  0.500024  0.250000  1
  Be  Be8  1  0.333333  0.666667  0.500747  1
  Be  Be9  1  0.666667  0.333333  0.501069  1
  Be  Be10  1  0.666667  0.333333  0.998931  1
  Be  Be11  1  0.333333  0.666667  0.999253  1
  Si  Si12  1  0.172832  0.827168  0.504212  1
  Si  Si13  1  0.172832  0.345666  0.504212  1
  Si  Si14  1  0.654334  0.827168  0.504212  1
  Si  Si15  1  0.827210  0.172790  0.504172  1
  Si  Si16  1  0.827210  0.654419  0.504172  1
  Si  Si17  1  0.345581  0.172790  0.504172  1
  Si  Si18  1  0.827210  0.172790  0.995828  1
  Si  Si19  1  0.827210  0.654419  0.995828  1
  Si  Si20  1  0.345581  0.172790  0.995828  1
  Si  Si21  1  0.172832  0.827168  0.995788  1
  Si  Si22  1  0.172832  0.345666  0.995788  1
  Si  Si23  1  0.654334  0.827168  0.995788  1
