# generated using pymatgen
data_Sr6Sc3Fe(WO9)2
_symmetry_space_group_name_H-M   'P 1'
_cell_length_a   9.92286931
_cell_length_b   9.92286868
_cell_length_c   5.70722300
_cell_angle_alpha   73.41614992
_cell_angle_beta   73.41614271
_cell_angle_gamma   48.75114833
_symmetry_Int_Tables_number   1
_chemical_formula_structural   Sr6Sc3Fe(WO9)2
_chemical_formula_sum   'Sr6 Sc3 Fe1 W2 O18'
_cell_volume   401.22703694
_cell_formula_units_Z   1
loop_
 _symmetry_equiv_pos_site_id
 _symmetry_equiv_pos_as_xyz
  1  'x, y, z'
loop_
 _atom_site_type_symbol
 _atom_site_label
 _atom_site_symmetry_multiplicity
 _atom_site_fract_x
 _atom_site_fract_y
 _atom_site_fract_z
 _atom_site_occupancy
  Sr  Sr0  1  0.918263  0.394286  0.846604  1
  Sr  Sr1  1  0.228201  0.771799  0.500000  1
  Sr  Sr2  1  0.605714  0.081737  0.153396  1
  Sr  Sr3  1  0.771799  0.228201  0.500000  1
  Sr  Sr4  1  0.081737  0.605714  0.153396  1
  Sr  Sr5  1  0.394286  0.918263  0.846604  1
  Sc  Sc6  1  0.500000  0.500000  0.000000  1
  Sc  Sc7  1  0.833931  0.833931  0.666431  1
  Sc  Sc8  1  0.166069  0.166069  0.333569  1
  Fe  Fe9  1  0.000000  0.000000  0.000000  1
  W  W10  1  0.333204  0.333204  0.664143  1
  W  W11  1  0.666796  0.666796  0.335857  1
  O  O12  1  0.429527  0.906978  0.330910  1
  O  O13  1  0.749836  0.250164  0.000000  1
  O  O14  1  0.093022  0.570473  0.669090  1
  O  O15  1  0.906978  0.429527  0.330910  1
  O  O16  1  0.250164  0.749836  0.000000  1
  O  O17  1  0.570473  0.093022  0.669090  1
  O  O18  1  0.074178  0.074178  0.203609  1
  O  O19  1  0.397315  0.397315  0.885444  1
  O  O20  1  0.728647  0.728647  0.560350  1
  O  O21  1  0.602685  0.602685  0.114556  1
  O  O22  1  0.925822  0.925822  0.796391  1
  O  O23  1  0.271353  0.271353  0.439650  1
  O  O24  1  0.572192  0.572192  0.619587  1
  O  O25  1  0.904581  0.904581  0.315038  1
  O  O26  1  0.239295  0.239295  0.948975  1
  O  O27  1  0.095419  0.095419  0.684962  1
  O  O28  1  0.427808  0.427808  0.380413  1
  O  O29  1  0.760705  0.760705  0.051025  1
