# generated using pymatgen
data_SrTbDy2(Mo2O7)2
_symmetry_space_group_name_H-M   'P 1'
_cell_length_a   7.37713830
_cell_length_b   7.47886167
_cell_length_c   7.37713778
_cell_angle_alpha   60.41129834
_cell_angle_beta   59.95260644
_cell_angle_gamma   60.41129473
_symmetry_Int_Tables_number   1
_chemical_formula_structural   SrTbDy2(Mo2O7)2
_chemical_formula_sum   'Sr1 Tb1 Dy2 Mo4 O14'
_cell_volume   289.47478112
_cell_formula_units_Z   1
loop_
 _symmetry_equiv_pos_site_id
 _symmetry_equiv_pos_as_xyz
  1  'x, y, z'
loop_
 _atom_site_type_symbol
 _atom_site_label
 _atom_site_symmetry_multiplicity
 _atom_site_fract_x
 _atom_site_fract_y
 _atom_site_fract_z
 _atom_site_occupancy
  Sr  Sr0  1  0.125000  0.625000  0.125000  1
  Tb  Tb1  1  0.125000  0.125000  0.125000  1
  Dy  Dy2  1  0.625000  0.125000  0.125000  1
  Dy  Dy3  1  0.125000  0.125000  0.625000  1
  Mo  Mo4  1  0.125000  0.625000  0.625000  1
  Mo  Mo5  1  0.625000  0.125000  0.625000  1
  Mo  Mo6  1  0.625000  0.625000  0.125000  1
  Mo  Mo7  1  0.625000  0.625000  0.625000  1
  O  O8  1  0.692184  0.726216  0.290801  1
  O  O9  1  0.299028  0.286742  0.706954  1
  O  O10  1  0.707214  0.286689  0.707214  1
  O  O11  1  0.290954  0.725828  0.290954  1
  O  O12  1  0.290801  0.726216  0.692184  1
  O  O13  1  0.706954  0.286742  0.299028  1
  O  O14  1  0.557816  0.523784  0.959199  1
  O  O15  1  0.950972  0.963258  0.543046  1
  O  O16  1  0.542786  0.963311  0.542786  1
  O  O17  1  0.959046  0.524172  0.959046  1
  O  O18  1  0.959199  0.523784  0.557816  1
  O  O19  1  0.543046  0.963258  0.950972  1
  O  O20  1  0.258002  0.227427  0.258002  1
  O  O21  1  0.991998  0.022573  0.991998  1
