# generated using pymatgen
data_Er9U(Sn3C)2
_symmetry_space_group_name_H-M   'P 1'
_cell_length_a   8.90551400
_cell_length_b   8.90551428
_cell_length_c   6.48571900
_cell_angle_alpha   90.00000000
_cell_angle_beta   90.00000000
_cell_angle_gamma   120.44866975
_symmetry_Int_Tables_number   1
_chemical_formula_structural   Er9U(Sn3C)2
_chemical_formula_sum   'Er9 U1 Sn6 C2'
_cell_volume   443.43039754
_cell_formula_units_Z   1
loop_
 _symmetry_equiv_pos_site_id
 _symmetry_equiv_pos_as_xyz
  1  'x, y, z'
loop_
 _atom_site_type_symbol
 _atom_site_label
 _atom_site_symmetry_multiplicity
 _atom_site_fract_x
 _atom_site_fract_y
 _atom_site_fract_z
 _atom_site_occupancy
  Er  Er0  1  0.666664  0.335547  0.500500  1
  Er  Er1  1  0.335547  0.666664  0.500500  1
  Er  Er2  1  0.335547  0.666664  0.999500  1
  Er  Er3  1  0.666664  0.335547  0.999500  1
  Er  Er4  1  0.226200  0.004113  0.250000  1
  Er  Er5  1  0.004113  0.226200  0.250000  1
  Er  Er6  1  0.218049  0.218049  0.750000  1
  Er  Er7  1  0.780899  0.997708  0.750000  1
  Er  Er8  1  0.997708  0.780899  0.750000  1
  U  U9  1  0.803425  0.803425  0.250000  1
  Sn  Sn10  1  0.407664  0.407664  0.250000  1
  Sn  Sn11  1  0.598156  0.001487  0.250000  1
  Sn  Sn12  1  0.001487  0.598156  0.250000  1
  Sn  Sn13  1  0.592784  0.592784  0.750000  1
  Sn  Sn14  1  0.400890  0.999505  0.750000  1
  Sn  Sn15  1  0.999505  0.400890  0.750000  1
  C  C16  1  0.982348  0.982348  0.487711  1
  C  C17  1  0.982348  0.982348  0.012289  1
