# generated using pymatgen
data_YbY7ReTc3C8
_symmetry_space_group_name_H-M   'P 1'
_cell_length_a   5.11534600
_cell_length_b   6.57431894
_cell_length_c   9.95899753
_cell_angle_alpha   89.24564800
_cell_angle_beta   90.00000000
_cell_angle_gamma   90.00000000
_symmetry_Int_Tables_number   1
_chemical_formula_structural   YbY7ReTc3C8
_chemical_formula_sum   'Yb1 Y7 Re1 Tc3 C8'
_cell_volume   334.89122405
_cell_formula_units_Z   1
loop_
 _symmetry_equiv_pos_site_id
 _symmetry_equiv_pos_as_xyz
  1  'x, y, z'
loop_
 _atom_site_type_symbol
 _atom_site_label
 _atom_site_symmetry_multiplicity
 _atom_site_fract_x
 _atom_site_fract_y
 _atom_site_fract_z
 _atom_site_occupancy
  Yb  Yb0  1  0.750000  0.534167  0.781826  1
  Y  Y1  1  0.250000  0.966051  0.282401  1
  Y  Y2  1  0.750000  0.676713  0.444686  1
  Y  Y3  1  0.250000  0.817704  0.943149  1
  Y  Y4  1  0.750000  0.182804  0.055984  1
  Y  Y5  1  0.250000  0.320960  0.557485  1
  Y  Y6  1  0.250000  0.464627  0.217735  1
  Y  Y7  1  0.750000  0.032196  0.719448  1
  Re  Re8  1  0.750000  0.723425  0.135822  1
  Tc  Tc9  1  0.250000  0.279749  0.863897  1
  Tc  Tc10  1  0.250000  0.781261  0.636295  1
  Tc  Tc11  1  0.750000  0.219219  0.362690  1
  C  C12  1  0.250000  0.679004  0.455633  1
  C  C13  1  0.250000  0.546999  0.758609  1
  C  C14  1  0.750000  0.455739  0.239080  1
  C  C15  1  0.750000  0.824634  0.954531  1
  C  C16  1  0.250000  0.047816  0.741928  1
  C  C17  1  0.250000  0.183699  0.047226  1
  C  C18  1  0.750000  0.310961  0.542480  1
  C  C19  1  0.750000  0.952270  0.259092  1
