# generated using pymatgen
data_Tb3Er5Cd2OsPd
_symmetry_space_group_name_H-M   'P 1'
_cell_length_a   9.61271105
_cell_length_b   9.61271031
_cell_length_c   9.69167400
_cell_angle_alpha   59.72789217
_cell_angle_beta   59.72789474
_cell_angle_gamma   59.54372100
_symmetry_Int_Tables_number   1
_chemical_formula_structural   Tb3Er5Cd2OsPd
_chemical_formula_sum   'Tb6 Er10 Cd4 Os2 Pd2'
_cell_volume   628.44804564
_cell_formula_units_Z   2
loop_
 _symmetry_equiv_pos_site_id
 _symmetry_equiv_pos_as_xyz
  1  'x, y, z'
loop_
 _atom_site_type_symbol
 _atom_site_label
 _atom_site_symmetry_multiplicity
 _atom_site_fract_x
 _atom_site_fract_y
 _atom_site_fract_z
 _atom_site_occupancy
  Tb  Tb0  1  0.937807  0.556229  0.567182  1
  Tb  Tb1  1  0.556229  0.937807  0.938783  1
  Tb  Tb2  1  0.556229  0.937807  0.567182  1
  Tb  Tb3  1  0.937807  0.556229  0.938783  1
  Tb  Tb4  1  0.563771  0.563771  0.936229  1
  Tb  Tb5  1  0.940073  0.940073  0.559927  1
  Er  Er6  1  0.349867  0.349867  0.354316  1
  Er  Er7  1  0.349867  0.349867  0.945949  1
  Er  Er8  1  0.345433  0.954726  0.349921  1
  Er  Er9  1  0.954726  0.345433  0.349921  1
  Er  Er10  1  0.816940  0.186365  0.189935  1
  Er  Er11  1  0.186365  0.816940  0.806761  1
  Er  Er12  1  0.186365  0.816940  0.189935  1
  Er  Er13  1  0.816940  0.186365  0.806761  1
  Er  Er14  1  0.187226  0.187226  0.812774  1
  Er  Er15  1  0.809759  0.809759  0.190241  1
  Cd  Cd16  1  0.579827  0.579827  0.581104  1
  Cd  Cd17  1  0.579827  0.579827  0.259241  1
  Cd  Cd18  1  0.580654  0.256266  0.581539  1
  Cd  Cd19  1  0.256266  0.580654  0.581539  1
  Os  Os20  1  0.144891  0.144891  0.137995  1
  Os  Os21  1  0.144891  0.144891  0.572224  1
  Pd  Pd22  1  0.145733  0.572511  0.140879  1
  Pd  Pd23  1  0.572511  0.145733  0.140879  1
