# generated using pymatgen
data_MnCd3Ni2(BO3)4
_symmetry_space_group_name_H-M   'P 1'
_cell_length_a   4.65448400
_cell_length_b   5.77403200
_cell_length_c   9.18598600
_cell_angle_alpha   90.00049020
_cell_angle_beta   89.99941075
_cell_angle_gamma   90.00286792
_symmetry_Int_Tables_number   1
_chemical_formula_structural   MnCd3Ni2(BO3)4
_chemical_formula_sum   'Mn1 Cd3 Ni2 B4 O12'
_cell_volume   246.87465563
_cell_formula_units_Z   1
loop_
 _symmetry_equiv_pos_site_id
 _symmetry_equiv_pos_as_xyz
  1  'x, y, z'
loop_
 _atom_site_type_symbol
 _atom_site_label
 _atom_site_symmetry_multiplicity
 _atom_site_fract_x
 _atom_site_fract_y
 _atom_site_fract_z
 _atom_site_occupancy
  Mn  Mn0  1  0.500041  0.999992  0.312632  1
  Cd  Cd1  1  0.499994  0.999997  0.687583  1
  Cd  Cd2  1  0.000003  0.500005  0.188859  1
  Cd  Cd3  1  0.999993  0.500009  0.812611  1
  Ni  Ni4  1  0.000011  0.000027  0.004290  1
  Ni  Ni5  1  0.500006  0.499963  0.496539  1
  B  B6  1  0.050212  0.255477  0.495725  1
  B  B7  1  0.453232  0.761939  0.004427  1
  B  B8  1  0.949792  0.744506  0.495726  1
  B  B9  1  0.546756  0.238078  0.004430  1
  O  O10  1  0.261387  0.299631  0.002045  1
  O  O11  1  0.763212  0.198849  0.492753  1
  O  O12  1  0.236790  0.801132  0.492753  1
  O  O13  1  0.738603  0.700392  0.002043  1
  O  O14  1  0.301238  0.809664  0.132867  1
  O  O15  1  0.785326  0.706806  0.369713  1
  O  O16  1  0.293140  0.806100  0.877542  1
  O  O17  1  0.706848  0.193919  0.877542  1
  O  O18  1  0.794550  0.696239  0.623672  1
  O  O19  1  0.205443  0.303753  0.623672  1
  O  O20  1  0.698745  0.190349  0.132868  1
  O  O21  1  0.214678  0.293170  0.369710  1
