# generated using pymatgen
data_Y4Ho3Sn23Os6
_symmetry_space_group_name_H-M   'P 1'
_cell_length_a   9.86290800
_cell_length_b   9.86290624
_cell_length_c   10.13063200
_cell_angle_alpha   90.00000000
_cell_angle_beta   90.00000000
_cell_angle_gamma   119.99999250
_symmetry_Int_Tables_number   1
_chemical_formula_structural   Y4Ho3Sn23Os6
_chemical_formula_sum   'Y4 Ho3 Sn23 Os6'
_cell_volume   853.44805046
_cell_formula_units_Z   1
loop_
 _symmetry_equiv_pos_site_id
 _symmetry_equiv_pos_as_xyz
  1  'x, y, z'
loop_
 _atom_site_type_symbol
 _atom_site_label
 _atom_site_symmetry_multiplicity
 _atom_site_fract_x
 _atom_site_fract_y
 _atom_site_fract_z
 _atom_site_occupancy
  Y  Y0  1  0.000000  0.000000  0.999994  1
  Y  Y1  1  0.514992  0.485008  0.697775  1
  Y  Y2  1  0.514992  0.029983  0.697775  1
  Y  Y3  1  0.970017  0.485008  0.697775  1
  Ho  Ho4  1  0.029340  0.514670  0.301945  1
  Ho  Ho5  1  0.485330  0.970660  0.301945  1
  Ho  Ho6  1  0.485330  0.514670  0.301945  1
  Sn  Sn7  1  0.666667  0.333333  0.175277  1
  Sn  Sn8  1  0.666667  0.333333  0.870515  1
  Sn  Sn9  1  0.333333  0.666667  0.130095  1
  Sn  Sn10  1  0.349776  0.349815  0.000084  1
  Sn  Sn11  1  0.000039  0.650224  0.000084  1
  Sn  Sn12  1  0.650185  0.999961  0.000084  1
  Sn  Sn13  1  0.650185  0.650224  0.000084  1
  Sn  Sn14  1  0.333333  0.666667  0.824781  1
  Sn  Sn15  1  0.439674  0.219837  0.462804  1
  Sn  Sn16  1  0.219816  0.780184  0.536758  1
  Sn  Sn17  1  0.219816  0.439630  0.536758  1
  Sn  Sn18  1  0.560370  0.780184  0.536758  1
  Sn  Sn19  1  0.117818  0.882182  0.275794  1
  Sn  Sn20  1  0.780163  0.560326  0.462804  1
  Sn  Sn21  1  0.780163  0.219837  0.462804  1
  Sn  Sn22  1  0.349776  0.999961  0.000084  1
  Sn  Sn23  1  0.117818  0.235638  0.275794  1
  Sn  Sn24  1  0.764362  0.882182  0.275794  1
  Sn  Sn25  1  0.235337  0.117668  0.724294  1
  Sn  Sn26  1  0.882332  0.764663  0.724294  1
  Sn  Sn27  1  0.882332  0.117668  0.724294  1
  Sn  Sn28  1  0.000000  0.000000  0.500008  1
  Sn  Sn29  1  0.000039  0.349815  0.000084  1
  Os  Os30  1  0.170185  0.829815  0.797868  1
  Os  Os31  1  0.170185  0.340368  0.797868  1
  Os  Os32  1  0.659632  0.829815  0.797868  1
  Os  Os33  1  0.340785  0.170393  0.202370  1
  Os  Os34  1  0.829607  0.659215  0.202370  1
  Os  Os35  1  0.829607  0.170393  0.202370  1
