# generated using pymatgen
data_La7Ni2Ag
_symmetry_space_group_name_H-M   'P 1'
_cell_length_a   12.51693400
_cell_length_b   12.51693400
_cell_length_c   3.82162000
_cell_angle_alpha   90.00000000
_cell_angle_beta   90.00000000
_cell_angle_gamma   90.00000000
_symmetry_Int_Tables_number   1
_chemical_formula_structural   La7Ni2Ag
_chemical_formula_sum   'La14 Ni4 Ag2'
_cell_volume   598.74710372
_cell_formula_units_Z   2
loop_
 _symmetry_equiv_pos_site_id
 _symmetry_equiv_pos_as_xyz
  1  'x, y, z'
loop_
 _atom_site_type_symbol
 _atom_site_label
 _atom_site_symmetry_multiplicity
 _atom_site_fract_x
 _atom_site_fract_y
 _atom_site_fract_z
 _atom_site_occupancy
  La  La0  1  0.679879  0.179879  0.000000  1
  La  La1  1  0.179879  0.320121  0.000000  1
  La  La2  1  0.820121  0.679879  0.000000  1
  La  La3  1  0.320121  0.820121  0.000000  1
  La  La4  1  0.500000  0.000000  0.500001  1
  La  La5  1  0.210635  0.060624  0.500001  1
  La  La6  1  0.939376  0.210635  0.500001  1
  La  La7  1  0.439376  0.289365  0.500001  1
  La  La8  1  0.710635  0.439376  0.500001  1
  La  La9  1  0.000000  0.500000  0.500001  1
  La  La10  1  0.289365  0.560624  0.500001  1
  La  La11  1  0.560624  0.710635  0.500001  1
  La  La12  1  0.060624  0.789365  0.500001  1
  La  La13  1  0.789365  0.939376  0.500001  1
  Ni  Ni14  1  0.370745  0.129255  0.000000  1
  Ni  Ni15  1  0.870745  0.370745  0.000000  1
  Ni  Ni16  1  0.129255  0.629255  0.000000  1
  Ni  Ni17  1  0.629255  0.870745  0.000000  1
  Ag  Ag18  1  0.000000  0.000000  0.000000  1
  Ag  Ag19  1  0.500000  0.500000  0.000000  1
