# generated using pymatgen
data_K6CuAuSe26
_symmetry_space_group_name_H-M   'P 1'
_cell_length_a   5.10122898
_cell_length_b   13.80392334
_cell_length_c   15.20152028
_cell_angle_alpha   85.59821856
_cell_angle_beta   90.40118753
_cell_angle_gamma   90.23337529
_symmetry_Int_Tables_number   1
_chemical_formula_structural   K6CuAuSe26
_chemical_formula_sum   'K6 Cu1 Au1 Se26'
_cell_volume   1067.25476029
_cell_formula_units_Z   1
loop_
 _symmetry_equiv_pos_site_id
 _symmetry_equiv_pos_as_xyz
  1  'x, y, z'
loop_
 _atom_site_type_symbol
 _atom_site_label
 _atom_site_symmetry_multiplicity
 _atom_site_fract_x
 _atom_site_fract_y
 _atom_site_fract_z
 _atom_site_occupancy
  K  K0  1  0.197998  0.164624  0.721153  1
  K  K1  1  0.206905  0.338464  0.279029  1
  K  K2  1  0.163411  0.249723  0.000174  1
  K  K3  1  0.836589  0.750277  0.999826  1
  K  K4  1  0.802002  0.835376  0.278847  1
  K  K5  1  0.793095  0.661536  0.720971  1
  Cu  Cu6  1  0.000000  0.500000  0.500000  1
  Au  Au7  1  0.000000  0.000000  0.500000  1
  Se  Se8  1  0.280915  0.549146  0.614489  1
  Se  Se9  1  0.647439  0.576329  0.270833  1
  Se  Se10  1  0.356450  0.078380  0.268325  1
  Se  Se11  1  0.352561  0.423671  0.729167  1
  Se  Se12  1  0.922916  0.536503  0.150409  1
  Se  Se13  1  0.923462  0.963971  0.851273  1
  Se  Se14  1  0.077084  0.463497  0.849591  1
  Se  Se15  1  0.076538  0.036029  0.148727  1
  Se  Se16  1  0.680276  0.420424  0.072754  1
  Se  Se17  1  0.643550  0.921620  0.731675  1
  Se  Se18  1  0.319724  0.579576  0.927246  1
  Se  Se19  1  0.319594  0.920725  0.072187  1
  Se  Se20  1  0.690239  0.265232  0.151161  1
  Se  Se21  1  0.688785  0.234310  0.848943  1
  Se  Se22  1  0.309761  0.734768  0.848839  1
  Se  Se23  1  0.311215  0.765690  0.151057  1
  Se  Se24  1  0.083041  0.650295  0.417864  1
  Se  Se25  1  0.096646  0.841542  0.587992  1
  Se  Se26  1  0.916959  0.349705  0.582136  1
  Se  Se27  1  0.903354  0.158458  0.412008  1
  Se  Se28  1  0.631873  0.252533  0.499984  1
  Se  Se29  1  0.368127  0.747467  0.500016  1
  Se  Se30  1  0.719085  0.450854  0.385511  1
  Se  Se31  1  0.701493  0.051143  0.620013  1
  Se  Se32  1  0.680406  0.079275  0.927813  1
  Se  Se33  1  0.298507  0.948857  0.379987  1
