# generated using pymatgen
data_DyTm15(LuPt4)4
_symmetry_space_group_name_H-M   'P 1'
_cell_length_a   7.36318852
_cell_length_b   7.45135225
_cell_length_c   14.66324872
_cell_angle_alpha   89.98015848
_cell_angle_beta   90.02148680
_cell_angle_gamma   89.99395003
_symmetry_Int_Tables_number   1
_chemical_formula_structural   DyTm15(LuPt4)4
_chemical_formula_sum   'Dy1 Tm15 Lu4 Pt16'
_cell_volume   804.50946258
_cell_formula_units_Z   1
loop_
 _symmetry_equiv_pos_site_id
 _symmetry_equiv_pos_as_xyz
  1  'x, y, z'
loop_
 _atom_site_type_symbol
 _atom_site_label
 _atom_site_symmetry_multiplicity
 _atom_site_fract_x
 _atom_site_fract_y
 _atom_site_fract_z
 _atom_site_occupancy
  Dy  Dy0  1  0.977646  0.825916  0.595740  1
  Tm  Tm1  1  0.633457  0.168498  0.621365  1
  Tm  Tm2  1  0.133937  0.331858  0.878476  1
  Tm  Tm3  1  0.366268  0.831783  0.121289  1
  Tm  Tm4  1  0.866734  0.668019  0.378638  1
  Tm  Tm5  1  0.366400  0.831803  0.378638  1
  Tm  Tm6  1  0.866133  0.668314  0.121403  1
  Tm  Tm7  1  0.633861  0.168295  0.878544  1
  Tm  Tm8  1  0.133707  0.331808  0.621331  1
  Tm  Tm9  1  0.478267  0.674382  0.595671  1
  Tm  Tm10  1  0.978776  0.825544  0.904320  1
  Tm  Tm11  1  0.521264  0.325661  0.095544  1
  Tm  Tm12  1  0.021368  0.173919  0.404431  1
  Tm  Tm13  1  0.521973  0.325555  0.404253  1
  Tm  Tm14  1  0.021294  0.174612  0.095570  1
  Tm  Tm15  1  0.478828  0.674456  0.904250  1
  Lu  Lu16  1  0.796143  0.509641  0.749978  1
  Lu  Lu17  1  0.296691  0.990420  0.750002  1
  Lu  Lu18  1  0.203633  0.489983  0.250079  1
  Lu  Lu19  1  0.703638  0.009865  0.249996  1
  Pt  Pt20  1  0.699673  0.973931  0.457514  1
  Pt  Pt21  1  0.199850  0.525753  0.042588  1
  Pt  Pt22  1  0.300023  0.025665  0.957106  1
  Pt  Pt23  1  0.799504  0.474504  0.543022  1
  Pt  Pt24  1  0.299919  0.025639  0.542727  1
  Pt  Pt25  1  0.800165  0.474245  0.957224  1
  Pt  Pt26  1  0.700124  0.974495  0.042734  1
  Pt  Pt27  1  0.200860  0.524901  0.457042  1
  Pt  Pt28  1  0.429608  0.385555  0.749811  1
  Pt  Pt29  1  0.929666  0.114723  0.750124  1
  Pt  Pt30  1  0.570450  0.615033  0.250193  1
  Pt  Pt31  1  0.070330  0.885354  0.249982  1
  Pt  Pt32  1  0.655807  0.856013  0.750089  1
  Pt  Pt33  1  0.156167  0.643838  0.750175  1
  Pt  Pt34  1  0.344025  0.143993  0.249997  1
  Pt  Pt35  1  0.843811  0.356028  0.250153  1
