# generated using pymatgen
data_Y9Tm(In3Se)2
_symmetry_space_group_name_H-M   'P 1'
_cell_length_a   9.19450000
_cell_length_b   9.19450037
_cell_length_c   6.72983600
_cell_angle_alpha   90.00000000
_cell_angle_beta   90.00000000
_cell_angle_gamma   119.99999868
_symmetry_Int_Tables_number   1
_chemical_formula_structural   Y9Tm(In3Se)2
_chemical_formula_sum   'Y9 Tm1 In6 Se2'
_cell_volume   492.70999247
_cell_formula_units_Z   1
loop_
 _symmetry_equiv_pos_site_id
 _symmetry_equiv_pos_as_xyz
  1  'x, y, z'
loop_
 _atom_site_type_symbol
 _atom_site_label
 _atom_site_symmetry_multiplicity
 _atom_site_fract_x
 _atom_site_fract_y
 _atom_site_fract_z
 _atom_site_occupancy
  Y  Y0  1  0.333333  0.666667  0.500000  1
  Y  Y1  1  0.666667  0.333333  0.500000  1
  Y  Y2  1  0.666667  0.333333  0.000000  1
  Y  Y3  1  0.251574  0.999760  0.750218  1
  Y  Y4  1  0.748186  0.999760  0.249782  1
  Y  Y5  1  0.000240  0.251814  0.750218  1
  Y  Y6  1  0.000240  0.748426  0.249782  1
  Y  Y7  1  0.748186  0.748426  0.750218  1
  Y  Y8  1  0.251574  0.251814  0.249782  1
  Tm  Tm9  1  0.333333  0.666667  0.000000  1
  In  In10  1  0.597889  0.999388  0.751178  1
  In  In11  1  0.401500  0.999388  0.248822  1
  In  In12  1  0.000612  0.598500  0.751178  1
  In  In13  1  0.000612  0.402111  0.248822  1
  In  In14  1  0.401500  0.402111  0.751178  1
  In  In15  1  0.597889  0.598500  0.248822  1
  Se  Se16  1  0.000000  0.000000  0.500000  1
  Se  Se17  1  0.000000  0.000000  0.000000  1
