# generated using pymatgen
data_NdHg4Se2Cl5
_symmetry_space_group_name_H-M   'P 1'
_cell_length_a   8.52166175
_cell_length_b   10.81067100
_cell_length_c   9.22998855
_cell_angle_alpha   90.00000000
_cell_angle_beta   113.37532002
_cell_angle_gamma   90.00000000
_symmetry_Int_Tables_number   1
_chemical_formula_structural   NdHg4Se2Cl5
_chemical_formula_sum   'Nd2 Hg8 Se4 Cl10'
_cell_volume   780.52279624
_cell_formula_units_Z   2
loop_
 _symmetry_equiv_pos_site_id
 _symmetry_equiv_pos_as_xyz
  1  'x, y, z'
loop_
 _atom_site_type_symbol
 _atom_site_label
 _atom_site_symmetry_multiplicity
 _atom_site_fract_x
 _atom_site_fract_y
 _atom_site_fract_z
 _atom_site_occupancy
  Nd  Nd0  1  0.500921  0.431617  0.504829  1
  Nd  Nd1  1  0.499079  0.931617  0.495171  1
  Hg  Hg2  1  0.927277  0.182328  0.331060  1
  Hg  Hg3  1  0.072723  0.682328  0.668940  1
  Hg  Hg4  1  0.952546  0.666558  0.359407  1
  Hg  Hg5  1  0.047454  0.166558  0.640593  1
  Hg  Hg6  1  0.497539  0.182058  0.989230  1
  Hg  Hg7  1  0.502461  0.682058  0.010770  1
  Hg  Hg8  1  0.805824  0.432064  0.016256  1
  Hg  Hg9  1  0.194176  0.932064  0.983744  1
  Se  Se10  1  0.805989  0.195667  0.022717  1
  Se  Se11  1  0.194011  0.695667  0.977283  1
  Se  Se12  1  0.187448  0.166823  0.949146  1
  Se  Se13  1  0.812552  0.666823  0.050854  1
  Cl  Cl14  1  0.840155  0.925659  0.684091  1
  Cl  Cl15  1  0.159845  0.425659  0.315909  1
  Cl  Cl16  1  0.842213  0.438995  0.707940  1
  Cl  Cl17  1  0.157787  0.938995  0.292060  1
  Cl  Cl18  1  0.415632  0.458422  0.763951  1
  Cl  Cl19  1  0.584368  0.958422  0.236049  1
  Cl  Cl20  1  0.595390  0.392676  0.258593  1
  Cl  Cl21  1  0.404610  0.892676  0.741407  1
  Cl  Cl22  1  0.496457  0.180733  0.560426  1
  Cl  Cl23  1  0.503543  0.680733  0.439574  1
