# generated using pymatgen
data_Tb3Ho7Cd2In2(HgPd)4
_symmetry_space_group_name_H-M   'P 1'
_cell_length_a   3.61791600
_cell_length_b   8.01646650
_cell_length_c   18.31895700
_cell_angle_alpha   89.93927686
_cell_angle_beta   90.00000000
_cell_angle_gamma   90.00000000
_symmetry_Int_Tables_number   1
_chemical_formula_structural   Tb3Ho7Cd2In2(HgPd)4
_chemical_formula_sum   'Tb3 Ho7 Cd2 In2 Hg4 Pd4'
_cell_volume   531.30262395
_cell_formula_units_Z   1
loop_
 _symmetry_equiv_pos_site_id
 _symmetry_equiv_pos_as_xyz
  1  'x, y, z'
loop_
 _atom_site_type_symbol
 _atom_site_label
 _atom_site_symmetry_multiplicity
 _atom_site_fract_x
 _atom_site_fract_y
 _atom_site_fract_z
 _atom_site_occupancy
  Tb  Tb0  1  0.000000  0.499983  0.500022  1
  Tb  Tb1  1  0.000000  0.000047  0.999862  1
  Tb  Tb2  1  0.000000  0.741218  0.284013  1
  Ho  Ho3  1  0.000000  0.258402  0.716195  1
  Ho  Ho4  1  0.000000  0.755977  0.783326  1
  Ho  Ho5  1  0.000000  0.243781  0.216660  1
  Ho  Ho6  1  0.000000  0.609670  0.083584  1
  Ho  Ho7  1  0.000000  0.390022  0.916114  1
  Ho  Ho8  1  0.000000  0.889617  0.583660  1
  Ho  Ho9  1  0.000000  0.110909  0.416801  1
  Cd  Cd10  1  0.500000  0.580232  0.649290  1
  Cd  Cd11  1  0.500000  0.418976  0.350770  1
  In  In12  1  0.500000  0.921173  0.149152  1
  In  In13  1  0.500000  0.079578  0.850338  1
  Hg  Hg14  1  0.500000  0.712461  0.932962  1
  Hg  Hg15  1  0.500000  0.287325  0.066850  1
  Hg  Hg16  1  0.500000  0.786629  0.433557  1
  Hg  Hg17  1  0.500000  0.213720  0.567134  1
  Pd  Pd18  1  0.500000  0.529282  0.196766  1
  Pd  Pd19  1  0.500000  0.469089  0.802748  1
  Pd  Pd20  1  0.500000  0.969461  0.697876  1
  Pd  Pd21  1  0.500000  0.032448  0.302318  1
