# generated using pymatgen
data_Tb2Y2ErPaAl18
_symmetry_space_group_name_H-M   'P 1'
_cell_length_a   14.61050134
_cell_length_b   14.61050112
_cell_length_c   14.61050107
_cell_angle_alpha   24.37043898
_cell_angle_beta   24.37044004
_cell_angle_gamma   24.37044104
_symmetry_Int_Tables_number   1
_chemical_formula_structural   Tb2Y2ErPaAl18
_chemical_formula_sum   'Tb2 Y2 Er1 Pa1 Al18'
_cell_volume   466.82261512
_cell_formula_units_Z   1
loop_
 _symmetry_equiv_pos_site_id
 _symmetry_equiv_pos_as_xyz
  1  'x, y, z'
loop_
 _atom_site_type_symbol
 _atom_site_label
 _atom_site_symmetry_multiplicity
 _atom_site_fract_x
 _atom_site_fract_y
 _atom_site_fract_z
 _atom_site_occupancy
  Tb  Tb0  1  0.999799  0.999799  0.999799  1
  Tb  Tb1  1  0.499940  0.499940  0.499940  1
  Y  Y2  1  0.890785  0.890785  0.890785  1
  Y  Y3  1  0.390961  0.390961  0.390961  1
  Er  Er4  1  0.609174  0.609174  0.609174  1
  Pa  Pa5  1  0.108858  0.108858  0.108858  1
  Al  Al6  1  0.924320  0.371308  0.371308  1
  Al  Al7  1  0.421862  0.870844  0.870844  1
  Al  Al8  1  0.371308  0.371308  0.924320  1
  Al  Al9  1  0.870844  0.870844  0.421862  1
  Al  Al10  1  0.371308  0.924320  0.371308  1
  Al  Al11  1  0.870844  0.421862  0.870844  1
  Al  Al12  1  0.576175  0.129380  0.129380  1
  Al  Al13  1  0.076843  0.629202  0.629202  1
  Al  Al14  1  0.129380  0.129380  0.576175  1
  Al  Al15  1  0.629202  0.629202  0.076843  1
  Al  Al16  1  0.129380  0.576175  0.129380  1
  Al  Al17  1  0.629202  0.076843  0.629202  1
  Al  Al18  1  0.500174  0.500174  0.998426  1
  Al  Al19  1  0.002059  0.002059  0.496924  1
  Al  Al20  1  0.500174  0.998426  0.500174  1
  Al  Al21  1  0.002059  0.496924  0.002059  1
  Al  Al22  1  0.998426  0.500174  0.500174  1
  Al  Al23  1  0.496924  0.002059  0.002059  1
