# generated using pymatgen
data_Tb4DyTm7Co4
_symmetry_space_group_name_H-M   'P 1'
_cell_length_a   6.18361770
_cell_length_b   6.89844116
_cell_length_c   9.32830102
_cell_angle_alpha   89.98494388
_cell_angle_beta   89.78840910
_cell_angle_gamma   90.00524543
_symmetry_Int_Tables_number   1
_chemical_formula_structural   Tb4DyTm7Co4
_chemical_formula_sum   'Tb4 Dy1 Tm7 Co4'
_cell_volume   397.91761895
_cell_formula_units_Z   1
loop_
 _symmetry_equiv_pos_site_id
 _symmetry_equiv_pos_as_xyz
  1  'x, y, z'
loop_
 _atom_site_type_symbol
 _atom_site_label
 _atom_site_symmetry_multiplicity
 _atom_site_fract_x
 _atom_site_fract_y
 _atom_site_fract_z
 _atom_site_occupancy
  Tb  Tb0  1  0.860946  0.543410  0.250408  1
  Tb  Tb1  1  0.639044  0.041538  0.251419  1
  Tb  Tb2  1  0.136981  0.457474  0.748866  1
  Tb  Tb3  1  0.362474  0.956759  0.748779  1
  Dy  Dy4  1  0.177282  0.175067  0.067818  1
  Tm  Tm5  1  0.325160  0.674714  0.068249  1
  Tm  Tm6  1  0.174684  0.175437  0.433893  1
  Tm  Tm7  1  0.674150  0.325658  0.567202  1
  Tm  Tm8  1  0.823994  0.824176  0.930870  1
  Tm  Tm9  1  0.675335  0.324730  0.930571  1
  Tm  Tm10  1  0.824320  0.824538  0.567710  1
  Tm  Tm11  1  0.323520  0.675628  0.431600  1
  Co  Co12  1  0.052547  0.887766  0.252340  1
  Co  Co13  1  0.451140  0.388606  0.252424  1
  Co  Co14  1  0.947561  0.112243  0.746735  1
  Co  Co15  1  0.550861  0.612253  0.751117  1
