# generated using pymatgen
data_ZrTi5BBr12
_symmetry_space_group_name_H-M   'P 1'
_cell_length_a   8.56252091
_cell_length_b   8.45511927
_cell_length_c   8.54887941
_cell_angle_alpha   106.95065365
_cell_angle_beta   106.93909431
_cell_angle_gamma   106.57425981
_symmetry_Int_Tables_number   1
_chemical_formula_structural   ZrTi5BBr12
_chemical_formula_sum   'Zr1 Ti5 B1 Br12'
_cell_volume   517.92380372
_cell_formula_units_Z   1
loop_
 _symmetry_equiv_pos_site_id
 _symmetry_equiv_pos_as_xyz
  1  'x, y, z'
loop_
 _atom_site_type_symbol
 _atom_site_label
 _atom_site_symmetry_multiplicity
 _atom_site_fract_x
 _atom_site_fract_y
 _atom_site_fract_z
 _atom_site_occupancy
  Zr  Zr0  1  0.030150  0.296601  0.096485  1
  Ti  Ti1  1  0.972635  0.727945  0.909225  1
  Ti  Ti2  1  0.271522  0.087420  0.027244  1
  Ti  Ti3  1  0.088856  0.026664  0.271716  1
  Ti  Ti4  1  0.910767  0.972197  0.727959  1
  Ti  Ti5  1  0.729871  0.909426  0.972430  1
  B  B6  1  0.001149  0.004578  0.001517  1
  Br  Br7  1  0.917131  0.296029  0.766808  1
  Br  Br8  1  0.689464  0.211306  0.075248  1
  Br  Br9  1  0.422877  0.131075  0.353358  1
  Br  Br10  1  0.863789  0.644742  0.573503  1
  Br  Br11  1  0.214447  0.073431  0.703383  1
  Br  Br12  1  0.648467  0.571747  0.863228  1
  Br  Br13  1  0.368947  0.431790  0.138121  1
  Br  Br14  1  0.785024  0.921223  0.295110  1
  Br  Br15  1  0.141662  0.357579  0.441571  1
  Br  Br16  1  0.575561  0.863688  0.647011  1
  Br  Br17  1  0.292395  0.778841  0.922483  1
  Br  Br18  1  0.075289  0.693719  0.213600  1
