# generated using pymatgen
data_Tb7Dy9Cd4OsPt3
_symmetry_space_group_name_H-M   'P 1'
_cell_length_a   9.72104512
_cell_length_b   9.72104571
_cell_length_c   9.72197133
_cell_angle_alpha   59.50233929
_cell_angle_beta   59.50233585
_cell_angle_gamma   59.52607098
_symmetry_Int_Tables_number   1
_chemical_formula_structural   Tb7Dy9Cd4OsPt3
_chemical_formula_sum   'Tb7 Dy9 Cd4 Os1 Pt3'
_cell_volume   642.39345987
_cell_formula_units_Z   1
loop_
 _symmetry_equiv_pos_site_id
 _symmetry_equiv_pos_as_xyz
  1  'x, y, z'
loop_
 _atom_site_type_symbol
 _atom_site_label
 _atom_site_symmetry_multiplicity
 _atom_site_fract_x
 _atom_site_fract_y
 _atom_site_fract_z
 _atom_site_occupancy
  Tb  Tb0  1  0.809733  0.809733  0.187799  1
  Tb  Tb1  1  0.936028  0.564924  0.565344  1
  Tb  Tb2  1  0.557865  0.937953  0.937838  1
  Tb  Tb3  1  0.564924  0.936028  0.565344  1
  Tb  Tb4  1  0.937953  0.557865  0.937838  1
  Tb  Tb5  1  0.565060  0.565060  0.935826  1
  Tb  Tb6  1  0.937912  0.937912  0.557931  1
  Dy  Dy7  1  0.351643  0.351643  0.351674  1
  Dy  Dy8  1  0.349629  0.349629  0.949066  1
  Dy  Dy9  1  0.349366  0.949307  0.349760  1
  Dy  Dy10  1  0.949307  0.349366  0.349760  1
  Dy  Dy11  1  0.814444  0.189160  0.188782  1
  Dy  Dy12  1  0.188042  0.809716  0.809570  1
  Dy  Dy13  1  0.189160  0.814444  0.188782  1
  Dy  Dy14  1  0.809716  0.188042  0.809570  1
  Dy  Dy15  1  0.188777  0.188777  0.814598  1
  Cd  Cd16  1  0.580043  0.580043  0.580307  1
  Cd  Cd17  1  0.580772  0.580772  0.254834  1
  Cd  Cd18  1  0.580861  0.254806  0.580860  1
  Cd  Cd19  1  0.254806  0.580861  0.580860  1
  Os  Os20  1  0.143274  0.143274  0.143628  1
  Pt  Pt21  1  0.143815  0.143815  0.572782  1
  Pt  Pt22  1  0.144570  0.572304  0.143626  1
  Pt  Pt23  1  0.572304  0.144570  0.143626  1
