# generated using pymatgen
data_Ti6AsPb2
_symmetry_space_group_name_H-M   'P 1'
_cell_length_a   7.35649500
_cell_length_b   7.35649514
_cell_length_c   3.60476300
_cell_angle_alpha   90.00000000
_cell_angle_beta   90.00000000
_cell_angle_gamma   119.99999489
_symmetry_Int_Tables_number   1
_chemical_formula_structural   Ti6AsPb2
_chemical_formula_sum   'Ti6 As1 Pb2'
_cell_volume   168.94652648
_cell_formula_units_Z   1
loop_
 _symmetry_equiv_pos_site_id
 _symmetry_equiv_pos_as_xyz
  1  'x, y, z'
loop_
 _atom_site_type_symbol
 _atom_site_label
 _atom_site_symmetry_multiplicity
 _atom_site_fract_x
 _atom_site_fract_y
 _atom_site_fract_z
 _atom_site_occupancy
  Ti  Ti0  1  0.000000  0.241569  0.500000  1
  Ti  Ti1  1  0.241569  0.000000  0.500000  1
  Ti  Ti2  1  0.758431  0.758431  0.500000  1
  Ti  Ti3  1  0.632084  0.000000  0.000000  1
  Ti  Ti4  1  0.367916  0.367916  0.000000  1
  Ti  Ti5  1  0.000000  0.632084  0.000000  1
  As  As6  1  0.000000  0.000000  0.000000  1
  Pb  Pb7  1  0.666667  0.333333  0.500000  1
  Pb  Pb8  1  0.333333  0.666667  0.500000  1
