# generated using pymatgen
data_Lu2Co8Si3P3Ru2
_symmetry_space_group_name_H-M   'P 1'
_cell_length_a   3.69656600
_cell_length_b   10.37662600
_cell_length_c   11.82479100
_cell_angle_alpha   90.00000000
_cell_angle_beta   90.00000000
_cell_angle_gamma   90.00000000
_symmetry_Int_Tables_number   1
_chemical_formula_structural   Lu2Co8Si3P3Ru2
_chemical_formula_sum   'Lu4 Co16 Si6 P6 Ru4'
_cell_volume   453.57394810
_cell_formula_units_Z   2
loop_
 _symmetry_equiv_pos_site_id
 _symmetry_equiv_pos_as_xyz
  1  'x, y, z'
loop_
 _atom_site_type_symbol
 _atom_site_label
 _atom_site_symmetry_multiplicity
 _atom_site_fract_x
 _atom_site_fract_y
 _atom_site_fract_z
 _atom_site_occupancy
  Lu  Lu0  1  0.250000  0.583824  0.702672  1
  Lu  Lu1  1  0.250000  0.916176  0.202672  1
  Lu  Lu2  1  0.750000  0.417955  0.296832  1
  Lu  Lu3  1  0.750000  0.082045  0.796832  1
  Co  Co4  1  0.250000  0.412603  0.489587  1
  Co  Co5  1  0.250000  0.087397  0.989587  1
  Co  Co6  1  0.750000  0.592588  0.512459  1
  Co  Co7  1  0.750000  0.907412  0.012459  1
  Co  Co8  1  0.250000  0.212765  0.173659  1
  Co  Co9  1  0.250000  0.287235  0.673659  1
  Co  Co10  1  0.750000  0.785395  0.823130  1
  Co  Co11  1  0.750000  0.714605  0.323130  1
  Co  Co12  1  0.250000  0.884036  0.702713  1
  Co  Co13  1  0.250000  0.615964  0.202713  1
  Co  Co14  1  0.750000  0.112454  0.295944  1
  Co  Co15  1  0.750000  0.387546  0.795944  1
  Co  Co16  1  0.250000  0.468499  0.931331  1
  Co  Co17  1  0.250000  0.031501  0.431331  1
  Co  Co18  1  0.750000  0.537182  0.071091  1
  Co  Co19  1  0.750000  0.962818  0.571091  1
  Si  Si20  1  0.250000  0.416728  0.113190  1
  Si  Si21  1  0.250000  0.083272  0.613190  1
  Si  Si22  1  0.750000  0.583091  0.886840  1
  Si  Si23  1  0.750000  0.916909  0.386840  1
  Si  Si24  1  0.250000  0.269950  0.866093  1
  Si  Si25  1  0.250000  0.230050  0.366093  1
  P  P26  1  0.750000  0.730643  0.135291  1
  P  P27  1  0.750000  0.769357  0.635291  1
  P  P28  1  0.250000  0.595999  0.388890  1
  P  P29  1  0.250000  0.904001  0.888890  1
  P  P30  1  0.750000  0.403816  0.610027  1
  P  P31  1  0.750000  0.096184  0.110027  1
  Ru  Ru32  1  0.250000  0.714602  0.990356  1
  Ru  Ru33  1  0.250000  0.785398  0.490356  1
  Ru  Ru34  1  0.750000  0.287918  0.009897  1
  Ru  Ru35  1  0.750000  0.212082  0.509897  1
