# generated using pymatgen
data_Ba4Mn2NiO10
_symmetry_space_group_name_H-M   'P 1'
_cell_length_a   7.20375069
_cell_length_b   7.20375113
_cell_length_c   12.98290800
_cell_angle_alpha   90.00000000
_cell_angle_beta   90.00000000
_cell_angle_gamma   132.88062575
_symmetry_Int_Tables_number   1
_chemical_formula_structural   Ba4Mn2NiO10
_chemical_formula_sum   'Ba8 Mn4 Ni2 O20'
_cell_volume   493.69512190
_cell_formula_units_Z   2
loop_
 _symmetry_equiv_pos_site_id
 _symmetry_equiv_pos_as_xyz
  1  'x, y, z'
loop_
 _atom_site_type_symbol
 _atom_site_label
 _atom_site_symmetry_multiplicity
 _atom_site_fract_x
 _atom_site_fract_y
 _atom_site_fract_z
 _atom_site_occupancy
  Ba  Ba0  1  0.242469  0.757531  0.887757  1
  Ba  Ba1  1  0.757531  0.242469  0.112243  1
  Ba  Ba2  1  0.257531  0.742469  0.387757  1
  Ba  Ba3  1  0.742469  0.257531  0.612243  1
  Ba  Ba4  1  0.036800  0.963200  0.640830  1
  Ba  Ba5  1  0.963200  0.036800  0.359170  1
  Ba  Ba6  1  0.463200  0.536800  0.140830  1
  Ba  Ba7  1  0.536800  0.463200  0.859170  1
  Mn  Mn8  1  0.375987  0.624013  0.651808  1
  Mn  Mn9  1  0.624013  0.375987  0.348192  1
  Mn  Mn10  1  0.124013  0.875987  0.151808  1
  Mn  Mn11  1  0.875987  0.124013  0.848192  1
  Ni  Ni12  1  0.500000  0.500000  0.500000  1
  Ni  Ni13  1  0.000000  0.000000  0.000000  1
  O  O14  1  0.136561  0.363439  0.750000  1
  O  O15  1  0.363439  0.136561  0.250000  1
  O  O16  1  0.863439  0.636561  0.250000  1
  O  O17  1  0.636561  0.863439  0.750000  1
  O  O18  1  0.385122  0.180616  0.462959  1
  O  O19  1  0.180616  0.385122  0.537041  1
  O  O20  1  0.114878  0.319384  0.962959  1
  O  O21  1  0.319384  0.114878  0.037041  1
  O  O22  1  0.614878  0.819384  0.537041  1
  O  O23  1  0.819384  0.614878  0.462959  1
  O  O24  1  0.885122  0.680616  0.037041  1
  O  O25  1  0.680616  0.885122  0.962959  1
  O  O26  1  0.236405  0.763595  0.649351  1
  O  O27  1  0.763595  0.236405  0.350649  1
  O  O28  1  0.966546  0.033454  0.142424  1
  O  O29  1  0.033454  0.966546  0.857576  1
  O  O30  1  0.533454  0.466546  0.642424  1
  O  O31  1  0.466546  0.533454  0.357576  1
  O  O32  1  0.736405  0.263595  0.850649  1
  O  O33  1  0.263595  0.736405  0.149351  1
