# generated using pymatgen
data_Ho8Tm4InCo4Rh
_symmetry_space_group_name_H-M   'P 1'
_cell_length_a   8.25716039
_cell_length_b   8.25722036
_cell_length_c   8.25716103
_cell_angle_alpha   110.92373704
_cell_angle_beta   110.62854953
_cell_angle_gamma   106.89161616
_symmetry_Int_Tables_number   1
_chemical_formula_structural   Ho8Tm4InCo4Rh
_chemical_formula_sum   'Ho8 Tm4 In1 Co4 Rh1'
_cell_volume   432.72804250
_cell_formula_units_Z   1
loop_
 _symmetry_equiv_pos_site_id
 _symmetry_equiv_pos_as_xyz
  1  'x, y, z'
loop_
 _atom_site_type_symbol
 _atom_site_label
 _atom_site_symmetry_multiplicity
 _atom_site_fract_x
 _atom_site_fract_y
 _atom_site_fract_z
 _atom_site_occupancy
  Ho  Ho0  1  0.186035  0.290116  0.476152  1
  Ho  Ho1  1  0.813965  0.709884  0.523848  1
  Ho  Ho2  1  0.186036  0.709884  0.895920  1
  Ho  Ho3  1  0.813964  0.290116  0.104080  1
  Ho  Ho4  1  0.409638  0.214557  0.195078  1
  Ho  Ho5  1  0.590362  0.785443  0.804922  1
  Ho  Ho6  1  0.019479  0.214557  0.804921  1
  Ho  Ho7  1  0.980521  0.785443  0.195079  1
  Tm  Tm8  1  0.314936  0.621162  0.306225  1
  Tm  Tm9  1  0.685064  0.378838  0.693775  1
  Tm  Tm10  1  0.314929  0.008708  0.693779  1
  Tm  Tm11  1  0.685071  0.991292  0.306221  1
  In  In12  1  0.500000  0.500000  0.000000  1
  Co  Co13  1  0.112529  0.612531  0.500002  1
  Co  Co14  1  0.887471  0.387469  0.499998  1
  Co  Co15  1  0.379395  0.000000  0.379395  1
  Co  Co16  1  0.620605  0.000000  0.620605  1
  Rh  Rh17  1  0.000000  0.000000  0.000000  1
