# generated using pymatgen
data_La2CeIn3Ru2
_symmetry_space_group_name_H-M   'P 1'
_cell_length_a   8.75112862
_cell_length_b   8.75112812
_cell_length_c   5.04247638
_cell_angle_alpha   83.24767188
_cell_angle_beta   83.24767920
_cell_angle_gamma   32.40521822
_symmetry_Int_Tables_number   1
_chemical_formula_structural   La2CeIn3Ru2
_chemical_formula_sum   'La2 Ce1 In3 Ru2'
_cell_volume   205.38969822
_cell_formula_units_Z   1
loop_
 _symmetry_equiv_pos_site_id
 _symmetry_equiv_pos_as_xyz
  1  'x, y, z'
loop_
 _atom_site_type_symbol
 _atom_site_label
 _atom_site_symmetry_multiplicity
 _atom_site_fract_x
 _atom_site_fract_y
 _atom_site_fract_z
 _atom_site_occupancy
  La  La0  1  0.831590  0.831590  0.577204  1
  La  La1  1  0.000127  0.000127  0.000328  1
  Ce  Ce2  1  0.176407  0.176407  0.429252  1
  In  In3  1  0.362956  0.362956  0.061127  1
  In  In4  1  0.504302  0.504302  0.499970  1
  In  In5  1  0.631831  0.631831  0.947746  1
  Ru  Ru6  1  0.784527  0.784527  0.105905  1
  Ru  Ru7  1  0.208261  0.208261  0.878468  1
