# generated using pymatgen
data_Na2YbCu4(SeS)2
_symmetry_space_group_name_H-M   'P 1'
_cell_length_a   3.91600100
_cell_length_b   7.01982800
_cell_length_c   14.87149600
_cell_angle_alpha   90.00000000
_cell_angle_beta   90.00000000
_cell_angle_gamma   90.00000000
_symmetry_Int_Tables_number   1
_chemical_formula_structural   Na2YbCu4(SeS)2
_chemical_formula_sum   'Na4 Yb2 Cu8 Se4 S4'
_cell_volume   408.81227159
_cell_formula_units_Z   2
loop_
 _symmetry_equiv_pos_site_id
 _symmetry_equiv_pos_as_xyz
  1  'x, y, z'
loop_
 _atom_site_type_symbol
 _atom_site_label
 _atom_site_symmetry_multiplicity
 _atom_site_fract_x
 _atom_site_fract_y
 _atom_site_fract_z
 _atom_site_occupancy
  Na  Na0  1  0.000000  0.480215  0.743149  1
  Na  Na1  1  0.000000  0.519785  0.256851  1
  Na  Na2  1  0.000000  0.019785  0.243149  1
  Na  Na3  1  0.000000  0.980215  0.756851  1
  Yb  Yb4  1  0.500000  0.500000  0.500000  1
  Yb  Yb5  1  0.500000  0.000000  0.000000  1
  Cu  Cu6  1  0.500000  0.905390  0.580456  1
  Cu  Cu7  1  0.000000  0.342014  0.054747  1
  Cu  Cu8  1  0.500000  0.405390  0.919544  1
  Cu  Cu9  1  0.000000  0.842014  0.445253  1
  Cu  Cu10  1  0.500000  0.094610  0.419544  1
  Cu  Cu11  1  0.000000  0.157986  0.554747  1
  Cu  Cu12  1  0.000000  0.657986  0.945253  1
  Cu  Cu13  1  0.500000  0.594610  0.080456  1
  Se  Se14  1  0.500000  0.776568  0.347230  1
  Se  Se15  1  0.500000  0.723432  0.847230  1
  Se  Se16  1  0.500000  0.276568  0.152770  1
  Se  Se17  1  0.500000  0.223432  0.652770  1
  S  S18  1  0.000000  0.726519  0.588666  1
  S  S19  1  0.000000  0.226519  0.911334  1
  S  S20  1  0.000000  0.273481  0.411334  1
  S  S21  1  0.000000  0.773481  0.088666  1
