# generated using pymatgen
data_TmU3(TcB4)4
_symmetry_space_group_name_H-M   'P 1'
_cell_length_a   3.60202600
_cell_length_b   5.92727219
_cell_length_c   11.47408827
_cell_angle_alpha   89.87627802
_cell_angle_beta   90.00000000
_cell_angle_gamma   90.00000000
_symmetry_Int_Tables_number   1
_chemical_formula_structural   TmU3(TcB4)4
_chemical_formula_sum   'Tm1 U3 Tc4 B16'
_cell_volume   244.97337680
_cell_formula_units_Z   1
loop_
 _symmetry_equiv_pos_site_id
 _symmetry_equiv_pos_as_xyz
  1  'x, y, z'
loop_
 _atom_site_type_symbol
 _atom_site_label
 _atom_site_symmetry_multiplicity
 _atom_site_fract_x
 _atom_site_fract_y
 _atom_site_fract_z
 _atom_site_occupancy
  Tm  Tm0  1  0.500000  0.872735  0.350628  1
  U  U1  1  0.500000  0.372819  0.150435  1
  U  U2  1  0.500000  0.627932  0.849806  1
  U  U3  1  0.500000  0.127871  0.650004  1
  Tc  Tc4  1  0.500000  0.361930  0.409647  1
  Tc  Tc5  1  0.500000  0.638027  0.595000  1
  Tc  Tc6  1  0.500000  0.139633  0.905146  1
  Tc  Tc7  1  0.500000  0.860251  0.091044  1
  B  B8  1  0.000000  0.113624  0.047109  1
  B  B9  1  0.000000  0.884432  0.953481  1
  B  B10  1  0.000000  0.385821  0.546666  1
  B  B11  1  0.000000  0.615068  0.452859  1
  B  B12  1  0.000000  0.135605  0.468766  1
  B  B13  1  0.000000  0.866558  0.532605  1
  B  B14  1  0.000000  0.366432  0.967619  1
  B  B15  1  0.000000  0.631005  0.032391  1
  B  B16  1  0.000000  0.026972  0.192005  1
  B  B17  1  0.000000  0.972553  0.806954  1
  B  B18  1  0.000000  0.473067  0.692542  1
  B  B19  1  0.000000  0.524399  0.307445  1
  B  B20  1  0.000000  0.213533  0.312128  1
  B  B21  1  0.000000  0.790512  0.688069  1
  B  B22  1  0.000000  0.290112  0.811387  1
  B  B23  1  0.000000  0.709110  0.186263  1
