# generated using pymatgen
data_CaInSn5Ir4
_symmetry_space_group_name_H-M   'P 1'
_cell_length_a   7.07141728
_cell_length_b   6.96676340
_cell_length_c   6.98916415
_cell_angle_alpha   119.78104401
_cell_angle_beta   120.27819260
_cell_angle_gamma   90.19374952
_symmetry_Int_Tables_number   1
_chemical_formula_structural   CaInSn5Ir4
_chemical_formula_sum   'Ca1 In1 Sn5 Ir4'
_cell_volume   242.83267841
_cell_formula_units_Z   1
loop_
 _symmetry_equiv_pos_site_id
 _symmetry_equiv_pos_as_xyz
  1  'x, y, z'
loop_
 _atom_site_type_symbol
 _atom_site_label
 _atom_site_symmetry_multiplicity
 _atom_site_fract_x
 _atom_site_fract_y
 _atom_site_fract_z
 _atom_site_occupancy
  Ca  Ca0  1  0.999830  0.998903  0.000000  1
  In  In1  1  0.879259  0.536468  0.000000  1
  Sn  Sn2  1  0.539306  0.872220  0.000000  1
  Sn  Sn3  1  0.461296  0.462333  0.335877  1
  Sn  Sn4  1  0.500113  0.001798  0.501839  1
  Sn  Sn5  1  0.998274  0.499957  0.498159  1
  Sn  Sn6  1  0.125419  0.126455  0.664122  1
  Ir  Ir7  1  0.597292  0.242960  0.000000  1
  Ir  Ir8  1  0.249583  0.602999  0.000000  1
  Ir  Ir9  1  0.755841  0.758980  0.362057  1
  Ir  Ir10  1  0.393783  0.396922  0.637942  1
