# generated using pymatgen
data_Ho2Tm2TcOsC4
_symmetry_space_group_name_H-M   'P 1'
_cell_length_a   5.05175800
_cell_length_b   6.50048450
_cell_length_c   9.72071618
_cell_angle_alpha   89.67788891
_cell_angle_beta   90.00000000
_cell_angle_gamma   90.00000000
_symmetry_Int_Tables_number   1
_chemical_formula_structural   Ho2Tm2TcOsC4
_chemical_formula_sum   'Ho4 Tm4 Tc2 Os2 C8'
_cell_volume   319.21233473
_cell_formula_units_Z   2
loop_
 _symmetry_equiv_pos_site_id
 _symmetry_equiv_pos_as_xyz
  1  'x, y, z'
loop_
 _atom_site_type_symbol
 _atom_site_label
 _atom_site_symmetry_multiplicity
 _atom_site_fract_x
 _atom_site_fract_y
 _atom_site_fract_z
 _atom_site_occupancy
  Ho  Ho0  1  0.250000  0.532174  0.216044  1
  Ho  Ho1  1  0.750000  0.467826  0.783956  1
  Ho  Ho2  1  0.750000  0.969823  0.713866  1
  Ho  Ho3  1  0.250000  0.030177  0.286134  1
  Tm  Tm4  1  0.250000  0.676041  0.556641  1
  Tm  Tm5  1  0.750000  0.323959  0.443359  1
  Tm  Tm6  1  0.750000  0.824950  0.057006  1
  Tm  Tm7  1  0.250000  0.175050  0.942994  1
  Tc  Tc8  1  0.250000  0.720722  0.866878  1
  Tc  Tc9  1  0.750000  0.279278  0.133122  1
  Os  Os10  1  0.750000  0.777856  0.366512  1
  Os  Os11  1  0.250000  0.222144  0.633488  1
  C  C12  1  0.250000  0.454100  0.759085  1
  C  C13  1  0.750000  0.545900  0.240915  1
  C  C14  1  0.750000  0.045127  0.259700  1
  C  C15  1  0.250000  0.954873  0.740300  1
  C  C16  1  0.250000  0.827098  0.052873  1
  C  C17  1  0.750000  0.172902  0.947127  1
  C  C18  1  0.750000  0.671518  0.553169  1
  C  C19  1  0.250000  0.328482  0.446831  1
