# generated using pymatgen
data_YbY(Al3Ni)3
_symmetry_space_group_name_H-M   'P 1'
_cell_length_a   7.43566903
_cell_length_b   7.43206671
_cell_length_c   9.27656800
_cell_angle_alpha   90.00000000
_cell_angle_beta   90.00000000
_cell_angle_gamma   119.43130673
_symmetry_Int_Tables_number   1
_chemical_formula_structural   YbY(Al3Ni)3
_chemical_formula_sum   'Yb2 Y2 Al18 Ni6'
_cell_volume   446.48609300
_cell_formula_units_Z   2
loop_
 _symmetry_equiv_pos_site_id
 _symmetry_equiv_pos_as_xyz
  1  'x, y, z'
loop_
 _atom_site_type_symbol
 _atom_site_label
 _atom_site_symmetry_multiplicity
 _atom_site_fract_x
 _atom_site_fract_y
 _atom_site_fract_z
 _atom_site_occupancy
  Yb  Yb0  1  0.992771  0.669949  0.250000  1
  Yb  Yb1  1  0.007229  0.330051  0.750000  1
  Y  Y2  1  0.671843  0.994474  0.250000  1
  Y  Y3  1  0.328157  0.005526  0.750000  1
  Al  Al4  1  0.125077  0.126639  0.250000  1
  Al  Al5  1  0.874923  0.873361  0.750000  1
  Al  Al6  1  0.331815  0.331748  0.547704  1
  Al  Al7  1  0.668185  0.668252  0.047704  1
  Al  Al8  1  0.331815  0.331748  0.952296  1
  Al  Al9  1  0.668185  0.668252  0.452296  1
  Al  Al10  1  0.342959  0.554883  0.250000  1
  Al  Al11  1  0.657041  0.445117  0.750000  1
  Al  Al12  1  0.551141  0.338555  0.250000  1
  Al  Al13  1  0.448859  0.661445  0.750000  1
  Al  Al14  1  0.998736  0.335767  0.072473  1
  Al  Al15  1  0.001264  0.664233  0.572473  1
  Al  Al16  1  0.334185  0.996555  0.426485  1
  Al  Al17  1  0.665815  0.003445  0.926485  1
  Al  Al18  1  0.001264  0.664233  0.927527  1
  Al  Al19  1  0.998736  0.335767  0.427527  1
  Al  Al20  1  0.665815  0.003445  0.573515  1
  Al  Al21  1  0.334185  0.996555  0.073515  1
  Ni  Ni22  1  0.000000  0.000000  0.000000  1
  Ni  Ni23  1  0.000000  0.000000  0.500000  1
  Ni  Ni24  1  0.670899  0.329503  0.000529  1
  Ni  Ni25  1  0.329101  0.670497  0.500529  1
  Ni  Ni26  1  0.329101  0.670497  0.999471  1
  Ni  Ni27  1  0.670899  0.329503  0.499471  1
