# generated using pymatgen
data_Gd3Tm(MoN3)4
_symmetry_space_group_name_H-M   'P 1'
_cell_length_a   7.34431061
_cell_length_b   7.34431064
_cell_length_c   6.29716949
_cell_angle_alpha   73.81006901
_cell_angle_beta   73.81006642
_cell_angle_gamma   82.08396775
_symmetry_Int_Tables_number   1
_chemical_formula_structural   Gd3Tm(MoN3)4
_chemical_formula_sum   'Gd3 Tm1 Mo4 N12'
_cell_volume   312.59319827
_cell_formula_units_Z   1
loop_
 _symmetry_equiv_pos_site_id
 _symmetry_equiv_pos_as_xyz
  1  'x, y, z'
loop_
 _atom_site_type_symbol
 _atom_site_label
 _atom_site_symmetry_multiplicity
 _atom_site_fract_x
 _atom_site_fract_y
 _atom_site_fract_z
 _atom_site_occupancy
  Gd  Gd0  1  0.705527  0.294473  0.250000  1
  Gd  Gd1  1  0.087597  0.912403  0.250000  1
  Gd  Gd2  1  0.294872  0.705128  0.750000  1
  Tm  Tm3  1  0.911367  0.088633  0.750000  1
  Mo  Mo4  1  0.800442  0.619657  0.769778  1
  Mo  Mo5  1  0.199683  0.378862  0.232991  1
  Mo  Mo6  1  0.621138  0.800317  0.267009  1
  Mo  Mo7  1  0.380343  0.199558  0.730222  1
  N  N8  1  0.215608  0.002610  0.843127  1
  N  N9  1  0.364888  0.349106  0.437790  1
  N  N10  1  0.640106  0.653893  0.559075  1
  N  N11  1  0.623553  0.112501  0.665604  1
  N  N12  1  0.997390  0.784392  0.656873  1
  N  N13  1  0.782113  0.000498  0.145836  1
  N  N14  1  0.112511  0.621142  0.160810  1
  N  N15  1  0.887499  0.376447  0.834396  1
  N  N16  1  0.999502  0.217887  0.354164  1
  N  N17  1  0.346107  0.359894  0.940925  1
  N  N18  1  0.650894  0.635112  0.062210  1
  N  N19  1  0.378858  0.887489  0.339190  1
