# generated using pymatgen
data_CeHo7(TmRu2)2
_symmetry_space_group_name_H-M   'P 1'
_cell_length_a   6.34471688
_cell_length_b   7.20598949
_cell_length_c   8.51440400
_cell_angle_alpha   97.07607554
_cell_angle_beta   111.75133173
_cell_angle_gamma   88.75578989
_symmetry_Int_Tables_number   1
_chemical_formula_structural   CeHo7(TmRu2)2
_chemical_formula_sum   'Ce1 Ho7 Tm2 Ru4'
_cell_volume   358.68712939
_cell_formula_units_Z   1
loop_
 _symmetry_equiv_pos_site_id
 _symmetry_equiv_pos_as_xyz
  1  'x, y, z'
loop_
 _atom_site_type_symbol
 _atom_site_label
 _atom_site_symmetry_multiplicity
 _atom_site_fract_x
 _atom_site_fract_y
 _atom_site_fract_z
 _atom_site_occupancy
  Ce  Ce0  1  0.802135  0.598791  0.810328  1
  Ho  Ho1  1  0.982675  0.916722  0.191224  1
  Ho  Ho2  1  0.207828  0.415847  0.185192  1
  Ho  Ho3  1  0.025877  0.083321  0.816513  1
  Ho  Ho4  1  0.202739  0.683371  0.563540  1
  Ho  Ho5  1  0.638857  0.814334  0.430256  1
  Ho  Ho6  1  0.786363  0.312012  0.430458  1
  Ho  Ho7  1  0.356715  0.186996  0.565081  1
  Tm  Tm8  1  0.428389  0.751007  0.002644  1
  Tm  Tm9  1  0.579264  0.251651  0.998859  1
  Ru  Ru10  1  0.616090  0.903335  0.780474  1
  Ru  Ru11  1  0.825873  0.573667  0.221371  1
  Ru  Ru12  1  0.398138  0.074950  0.220930  1
  Ru  Ru13  1  0.149059  0.433997  0.783130  1
