# generated using pymatgen
data_Tb15Th(InCo)4
_symmetry_space_group_name_H-M   'P 1'
_cell_length_a   9.60495732
_cell_length_b   9.60495744
_cell_length_c   9.60495700
_cell_angle_alpha   60.05304946
_cell_angle_beta   60.05304906
_cell_angle_gamma   60.05305556
_symmetry_Int_Tables_number   1
_chemical_formula_structural   Tb15Th(InCo)4
_chemical_formula_sum   'Tb15 Th1 In4 Co4'
_cell_volume   627.32586624
_cell_formula_units_Z   1
loop_
 _symmetry_equiv_pos_site_id
 _symmetry_equiv_pos_as_xyz
  1  'x, y, z'
loop_
 _atom_site_type_symbol
 _atom_site_label
 _atom_site_symmetry_multiplicity
 _atom_site_fract_x
 _atom_site_fract_y
 _atom_site_fract_z
 _atom_site_occupancy
  Tb  Tb0  1  0.597715  0.597715  0.205334  1
  Tb  Tb1  1  0.597715  0.205334  0.597715  1
  Tb  Tb2  1  0.205334  0.597715  0.597715  1
  Tb  Tb3  1  0.064269  0.437854  0.437854  1
  Tb  Tb4  1  0.439222  0.062286  0.062286  1
  Tb  Tb5  1  0.437854  0.064269  0.437854  1
  Tb  Tb6  1  0.062286  0.439222  0.062286  1
  Tb  Tb7  1  0.437854  0.437854  0.064269  1
  Tb  Tb8  1  0.062286  0.062286  0.439222  1
  Tb  Tb9  1  0.188037  0.811840  0.811840  1
  Tb  Tb10  1  0.811466  0.189805  0.189805  1
  Tb  Tb11  1  0.811840  0.188037  0.811840  1
  Tb  Tb12  1  0.189805  0.811466  0.189805  1
  Tb  Tb13  1  0.811840  0.811840  0.188037  1
  Tb  Tb14  1  0.189805  0.189805  0.811466  1
  Th  Th15  1  0.591017  0.591017  0.591017  1
  In  In16  1  0.832384  0.832384  0.832384  1
  In  In17  1  0.832233  0.832233  0.502757  1
  In  In18  1  0.832233  0.502757  0.832233  1
  In  In19  1  0.502757  0.832233  0.832233  1
  Co  Co20  1  0.391452  0.391452  0.391452  1
  Co  Co21  1  0.394030  0.394030  0.822537  1
  Co  Co22  1  0.394030  0.822537  0.394030  1
  Co  Co23  1  0.822537  0.394030  0.394030  1
