# generated using pymatgen
data_Ce3TiAs2P3
_symmetry_space_group_name_H-M   'P 1'
_cell_length_a   8.58909900
_cell_length_b   8.58909968
_cell_length_c   5.72038800
_cell_angle_alpha   90.00000000
_cell_angle_beta   90.00000000
_cell_angle_gamma   119.99999354
_symmetry_Int_Tables_number   1
_chemical_formula_structural   Ce3TiAs2P3
_chemical_formula_sum   'Ce6 Ti2 As4 P6'
_cell_volume   365.46971809
_cell_formula_units_Z   2
loop_
 _symmetry_equiv_pos_site_id
 _symmetry_equiv_pos_as_xyz
  1  'x, y, z'
loop_
 _atom_site_type_symbol
 _atom_site_label
 _atom_site_symmetry_multiplicity
 _atom_site_fract_x
 _atom_site_fract_y
 _atom_site_fract_z
 _atom_site_occupancy
  Ce  Ce0  1  0.625409  0.000000  0.250000  1
  Ce  Ce1  1  0.374591  0.000000  0.750000  1
  Ce  Ce2  1  0.000000  0.625409  0.250000  1
  Ce  Ce3  1  0.000000  0.374591  0.750000  1
  Ce  Ce4  1  0.374591  0.374591  0.250000  1
  Ce  Ce5  1  0.625409  0.625409  0.750000  1
  Ti  Ti6  1  0.000000  0.000000  0.000000  1
  Ti  Ti7  1  0.000000  0.000000  0.500000  1
  As  As8  1  0.333333  0.666667  0.000000  1
  As  As9  1  0.666667  0.333333  0.000000  1
  As  As10  1  0.666667  0.333333  0.500000  1
  As  As11  1  0.333333  0.666667  0.500000  1
  P  P12  1  0.249809  0.000000  0.250000  1
  P  P13  1  0.750191  0.000000  0.750000  1
  P  P14  1  0.000000  0.249809  0.250000  1
  P  P15  1  0.000000  0.750191  0.750000  1
  P  P16  1  0.750191  0.750191  0.250000  1
  P  P17  1  0.249809  0.249809  0.750000  1
