# generated using pymatgen
data_ScNbGeB2Ru5
_symmetry_space_group_name_H-M   'P 1'
_cell_length_a   9.37917384
_cell_length_b   9.37917384
_cell_length_c   3.00132600
_cell_angle_alpha   90.00000000
_cell_angle_beta   90.00000000
_cell_angle_gamma   89.95142258
_symmetry_Int_Tables_number   1
_chemical_formula_structural   ScNbGeB2Ru5
_chemical_formula_sum   'Sc2 Nb2 Ge2 B4 Ru10'
_cell_volume   264.02325779
_cell_formula_units_Z   2
loop_
 _symmetry_equiv_pos_site_id
 _symmetry_equiv_pos_as_xyz
  1  'x, y, z'
loop_
 _atom_site_type_symbol
 _atom_site_label
 _atom_site_symmetry_multiplicity
 _atom_site_fract_x
 _atom_site_fract_y
 _atom_site_fract_z
 _atom_site_occupancy
  Sc  Sc0  1  0.826083  0.673917  0.000000  1
  Sc  Sc1  1  0.173917  0.326083  0.000000  1
  Nb  Nb2  1  0.324866  0.824866  0.000000  1
  Nb  Nb3  1  0.675134  0.175134  0.000000  1
  Ge  Ge4  1  0.500000  0.500000  0.000000  1
  Ge  Ge5  1  0.000000  0.000000  0.000000  1
  B  B6  1  0.624870  0.875130  0.000000  1
  B  B7  1  0.375130  0.124870  0.000000  1
  B  B8  1  0.122623  0.622623  0.000000  1
  B  B9  1  0.877377  0.377377  0.000000  1
  Ru  Ru10  1  0.563578  0.715489  0.500000  1
  Ru  Ru11  1  0.436422  0.284511  0.500000  1
  Ru  Ru12  1  0.074644  0.788421  0.500000  1
  Ru  Ru13  1  0.925356  0.211579  0.500000  1
  Ru  Ru14  1  0.288421  0.574644  0.500000  1
  Ru  Ru15  1  0.711579  0.425356  0.500000  1
  Ru  Ru16  1  0.215489  0.063578  0.500000  1
  Ru  Ru17  1  0.784511  0.936422  0.500000  1
  Ru  Ru18  1  0.500000  0.000000  0.500000  1
  Ru  Ru19  1  0.000000  0.500000  0.500000  1
