# generated using pymatgen
data_Na4Zr6SiBr18
_symmetry_space_group_name_H-M   'P 1'
_cell_length_a   10.40258423
_cell_length_b   10.33481354
_cell_length_c   10.37770726
_cell_angle_alpha   118.60696501
_cell_angle_beta   100.37042202
_cell_angle_gamma   102.36787254
_symmetry_Int_Tables_number   1
_chemical_formula_structural   Na4Zr6SiBr18
_chemical_formula_sum   'Na4 Zr6 Si1 Br18'
_cell_volume   903.33380954
_cell_formula_units_Z   1
loop_
 _symmetry_equiv_pos_site_id
 _symmetry_equiv_pos_as_xyz
  1  'x, y, z'
loop_
 _atom_site_type_symbol
 _atom_site_label
 _atom_site_symmetry_multiplicity
 _atom_site_fract_x
 _atom_site_fract_y
 _atom_site_fract_z
 _atom_site_occupancy
  Na  Na0  1  0.622579  0.526364  0.213892  1
  Na  Na1  1  0.377421  0.473636  0.786108  1
  Na  Na2  1  0.649925  0.214743  0.547669  1
  Na  Na3  1  0.350075  0.785257  0.452331  1
  Zr  Zr4  1  0.160293  0.055984  0.244642  1
  Zr  Zr5  1  0.839707  0.944016  0.755358  1
  Zr  Zr6  1  0.859556  0.144209  0.149599  1
  Zr  Zr7  1  0.140444  0.855791  0.850401  1
  Zr  Zr8  1  0.151513  0.249436  0.043442  1
  Zr  Zr9  1  0.848487  0.750564  0.956558  1
  Si  Si10  1  0.000000  0.000000  0.000000  1
  Br  Br11  1  0.012807  0.427614  0.207648  1
  Br  Br12  1  0.987193  0.572386  0.792352  1
  Br  Br13  1  0.335569  0.336424  0.317471  1
  Br  Br14  1  0.664431  0.663576  0.682529  1
  Br  Br15  1  0.337381  0.530637  0.097570  1
  Br  Br16  1  0.662619  0.469363  0.902430  1
  Br  Br17  1  0.009382  0.790153  0.219504  1
  Br  Br18  1  0.990618  0.209847  0.780496  1
  Br  Br19  1  0.703078  0.307110  0.316784  1
  Br  Br20  1  0.296922  0.692890  0.683216  1
  Br  Br21  1  0.316736  0.116562  0.886972  1
  Br  Br22  1  0.683264  0.883438  0.113028  1
  Br  Br23  1  0.022210  0.215497  0.428613  1
  Br  Br24  1  0.977790  0.784503  0.571387  1
  Br  Br25  1  0.326666  0.908587  0.105525  1
  Br  Br26  1  0.673334  0.091413  0.894475  1
  Br  Br27  1  0.350873  0.119079  0.520479  1
  Br  Br28  1  0.649127  0.880921  0.479521  1
