# generated using pymatgen
data_Cs2NaScP2
_symmetry_space_group_name_H-M   'P 1'
_cell_length_a   9.55381536
_cell_length_b   9.55381580
_cell_length_c   9.55381588
_cell_angle_alpha   138.36957264
_cell_angle_beta   137.25659498
_cell_angle_gamma   61.19395799
_symmetry_Int_Tables_number   1
_chemical_formula_structural   Cs2NaScP2
_chemical_formula_sum   'Cs4 Na2 Sc2 P4'
_cell_volume   388.81075940
_cell_formula_units_Z   2
loop_
 _symmetry_equiv_pos_site_id
 _symmetry_equiv_pos_as_xyz
  1  'x, y, z'
loop_
 _atom_site_type_symbol
 _atom_site_label
 _atom_site_symmetry_multiplicity
 _atom_site_fract_x
 _atom_site_fract_y
 _atom_site_fract_z
 _atom_site_occupancy
  Cs  Cs0  1  0.546201  0.322444  0.223756  1
  Cs  Cs1  1  0.453799  0.677556  0.776244  1
  Cs  Cs2  1  0.098689  0.822444  0.276244  1
  Cs  Cs3  1  0.901311  0.177556  0.723756  1
  Na  Na4  1  0.500000  0.250000  0.750000  1
  Na  Na5  1  0.500000  0.750000  0.250000  1
  Sc  Sc6  1  0.000000  0.250000  0.250000  1
  Sc  Sc7  1  0.000000  0.750000  0.750000  1
  P  P8  1  0.290347  0.082926  0.207421  1
  P  P9  1  0.709653  0.917074  0.792579  1
  P  P10  1  0.875505  0.582926  0.292579  1
  P  P11  1  0.124495  0.417074  0.707421  1
