# generated using pymatgen
data_DyY3TcRu7
_symmetry_space_group_name_H-M   'P 1'
_cell_length_a   5.22169242
_cell_length_b   5.40894377
_cell_length_c   9.00985617
_cell_angle_alpha   89.99999793
_cell_angle_beta   90.01928901
_cell_angle_gamma   121.19351635
_symmetry_Int_Tables_number   1
_chemical_formula_structural   DyY3TcRu7
_chemical_formula_sum   'Dy1 Y3 Tc1 Ru7'
_cell_volume   217.68195883
_cell_formula_units_Z   1
loop_
 _symmetry_equiv_pos_site_id
 _symmetry_equiv_pos_as_xyz
  1  'x, y, z'
loop_
 _atom_site_type_symbol
 _atom_site_label
 _atom_site_symmetry_multiplicity
 _atom_site_fract_x
 _atom_site_fract_y
 _atom_site_fract_z
 _atom_site_occupancy
  Dy  Dy0  1  0.329128  0.664565  0.432841  1
  Y  Y1  1  0.656727  0.328363  0.565681  1
  Y  Y2  1  0.656831  0.328415  0.933952  1
  Y  Y3  1  0.329502  0.664752  0.067410  1
  Tc  Tc4  1  0.684846  0.842423  0.749928  1
  Ru  Ru5  1  0.979193  0.989596  0.499656  1
  Ru  Ru6  1  0.980229  0.990114  0.000136  1
  Ru  Ru7  1  0.835686  0.167360  0.250245  1
  Ru  Ru8  1  0.835686  0.668326  0.250245  1
  Ru  Ru9  1  0.354192  0.177096  0.250215  1
  Ru  Ru10  1  0.178990  0.825911  0.749845  1
  Ru  Ru11  1  0.178990  0.353079  0.749845  1
