# generated using pymatgen
data_Tb15NdCd4RuPt3
_symmetry_space_group_name_H-M   'P 1'
_cell_length_a   9.74395021
_cell_length_b   9.74395038
_cell_length_c   9.75474702
_cell_angle_alpha   59.72515257
_cell_angle_beta   59.72515980
_cell_angle_gamma   59.47807709
_symmetry_Int_Tables_number   1
_chemical_formula_structural   Tb15NdCd4RuPt3
_chemical_formula_sum   'Tb15 Nd1 Cd4 Ru1 Pt3'
_cell_volume   649.57047981
_cell_formula_units_Z   1
loop_
 _symmetry_equiv_pos_site_id
 _symmetry_equiv_pos_as_xyz
  1  'x, y, z'
loop_
 _atom_site_type_symbol
 _atom_site_label
 _atom_site_symmetry_multiplicity
 _atom_site_fract_x
 _atom_site_fract_y
 _atom_site_fract_z
 _atom_site_occupancy
  Tb  Tb0  1  0.351663  0.351663  0.351301  1
  Tb  Tb1  1  0.349253  0.349253  0.950073  1
  Tb  Tb2  1  0.350028  0.950151  0.348391  1
  Tb  Tb3  1  0.950151  0.350028  0.348391  1
  Tb  Tb4  1  0.814793  0.190036  0.187495  1
  Tb  Tb5  1  0.189272  0.809405  0.810064  1
  Tb  Tb6  1  0.190036  0.814793  0.187495  1
  Tb  Tb7  1  0.809405  0.189272  0.810064  1
  Tb  Tb8  1  0.188813  0.188813  0.815378  1
  Tb  Tb9  1  0.809836  0.809836  0.187730  1
  Tb  Tb10  1  0.935682  0.562754  0.565626  1
  Tb  Tb11  1  0.558903  0.936421  0.937880  1
  Tb  Tb12  1  0.562754  0.935682  0.565626  1
  Tb  Tb13  1  0.936421  0.558903  0.937880  1
  Tb  Tb14  1  0.565356  0.565356  0.935909  1
  Nd  Nd15  1  0.935244  0.935244  0.561754  1
  Cd  Cd16  1  0.580828  0.580828  0.580196  1
  Cd  Cd17  1  0.581437  0.581437  0.253847  1
  Cd  Cd18  1  0.578416  0.256550  0.581600  1
  Cd  Cd19  1  0.256550  0.578416  0.581600  1
  Ru  Ru20  1  0.143724  0.143724  0.141543  1
  Pt  Pt21  1  0.144700  0.144700  0.572638  1
  Pt  Pt22  1  0.144311  0.572424  0.143759  1
  Pt  Pt23  1  0.572424  0.144311  0.143759  1
