# generated using pymatgen
data_TbYbZr2(Al3Ir)6
_symmetry_space_group_name_H-M   'P 1'
_cell_length_a   7.52644548
_cell_length_b   7.51234430
_cell_length_c   9.38071300
_cell_angle_alpha   90.00000000
_cell_angle_beta   90.00000000
_cell_angle_gamma   119.68149976
_symmetry_Int_Tables_number   1
_chemical_formula_structural   TbYbZr2(Al3Ir)6
_chemical_formula_sum   'Tb1 Yb1 Zr2 Al18 Ir6'
_cell_volume   460.80458320
_cell_formula_units_Z   1
loop_
 _symmetry_equiv_pos_site_id
 _symmetry_equiv_pos_as_xyz
  1  'x, y, z'
loop_
 _atom_site_type_symbol
 _atom_site_label
 _atom_site_symmetry_multiplicity
 _atom_site_fract_x
 _atom_site_fract_y
 _atom_site_fract_z
 _atom_site_occupancy
  Tb  Tb0  1  0.330681  0.006182  0.750000  1
  Yb  Yb1  1  0.670438  0.993996  0.250000  1
  Zr  Zr2  1  0.993953  0.671099  0.250000  1
  Zr  Zr3  1  0.004604  0.327848  0.750000  1
  Al  Al4  1  0.126198  0.123775  0.250000  1
  Al  Al5  1  0.873370  0.875449  0.750000  1
  Al  Al6  1  0.999476  0.336515  0.075035  1
  Al  Al7  1  0.999743  0.662956  0.925788  1
  Al  Al8  1  0.999743  0.662956  0.574212  1
  Al  Al9  1  0.333104  0.998400  0.421495  1
  Al  Al10  1  0.999476  0.336515  0.424965  1
  Al  Al11  1  0.667617  0.000839  0.576284  1
  Al  Al12  1  0.667617  0.000839  0.923716  1
  Al  Al13  1  0.333104  0.998400  0.078505  1
  Al  Al14  1  0.331290  0.333814  0.555065  1
  Al  Al15  1  0.668686  0.667288  0.444066  1
  Al  Al16  1  0.668686  0.667288  0.055934  1
  Al  Al17  1  0.331290  0.333814  0.944935  1
  Al  Al18  1  0.333773  0.548340  0.250000  1
  Al  Al19  1  0.665852  0.452373  0.750000  1
  Al  Al20  1  0.555271  0.345572  0.250000  1
  Al  Al21  1  0.446012  0.655814  0.750000  1
  Ir  Ir22  1  0.672363  0.328427  0.998324  1
  Ir  Ir23  1  0.326885  0.671160  0.999767  1
  Ir  Ir24  1  0.326885  0.671160  0.500233  1
  Ir  Ir25  1  0.672363  0.328427  0.501676  1
  Ir  Ir26  1  0.000760  0.000376  0.999342  1
  Ir  Ir27  1  0.000760  0.000376  0.500658  1
