# generated using pymatgen
data_Dy2Tm2(Al8Pt3)3
_symmetry_space_group_name_H-M   'P 1'
_cell_length_a   7.52094987
_cell_length_b   7.54009102
_cell_length_c   13.15292234
_cell_angle_alpha   84.58690569
_cell_angle_beta   79.10252306
_cell_angle_gamma   59.99240534
_symmetry_Int_Tables_number   1
_chemical_formula_structural   Dy2Tm2(Al8Pt3)3
_chemical_formula_sum   'Dy2 Tm2 Al24 Pt9'
_cell_volume   634.25781290
_cell_formula_units_Z   1
loop_
 _symmetry_equiv_pos_site_id
 _symmetry_equiv_pos_as_xyz
  1  'x, y, z'
loop_
 _atom_site_type_symbol
 _atom_site_label
 _atom_site_symmetry_multiplicity
 _atom_site_fract_x
 _atom_site_fract_y
 _atom_site_fract_z
 _atom_site_occupancy
  Dy  Dy0  1  0.393525  0.168764  0.807893  1
  Dy  Dy1  1  0.606475  0.831236  0.192107  1
  Tm  Tm2  1  0.734330  0.498673  0.807107  1
  Tm  Tm3  1  0.265670  0.501327  0.192893  1
  Al  Al4  1  0.684482  0.833414  0.944165  1
  Al  Al5  1  0.315518  0.166586  0.055835  1
  Al  Al6  1  0.146568  0.832421  0.561361  1
  Al  Al7  1  0.853432  0.167579  0.438639  1
  Al  Al8  1  0.479432  0.166598  0.558497  1
  Al  Al9  1  0.520568  0.833402  0.441503  1
  Al  Al10  1  0.217249  0.165580  0.329238  1
  Al  Al11  1  0.782751  0.834420  0.670762  1
  Al  Al12  1  0.437733  0.506465  0.670903  1
  Al  Al13  1  0.562267  0.493535  0.329097  1
  Al  Al14  1  0.109074  0.160217  0.669794  1
  Al  Al15  1  0.890926  0.839783  0.330206  1
  Al  Al16  1  0.353568  0.499562  0.944495  1
  Al  Al17  1  0.646432  0.500438  0.055505  1
  Al  Al18  1  0.015287  0.168012  0.952393  1
  Al  Al19  1  0.984713  0.831988  0.047607  1
  Al  Al20  1  0.186834  0.499279  0.441309  1
  Al  Al21  1  0.813166  0.500721  0.558691  1
  Al  Al22  1  0.733579  0.164477  0.183374  1
  Al  Al23  1  0.266421  0.835523  0.816626  1
  Al  Al24  1  0.061302  0.631307  0.815514  1
  Al  Al25  1  0.938698  0.368693  0.184486  1
  Al  Al26  1  0.855326  0.042142  0.816065  1
  Al  Al27  1  0.144674  0.957858  0.183935  1
  Pt  Pt28  1  0.119080  0.491577  0.639207  1
  Pt  Pt29  1  0.880920  0.508423  0.360793  1
  Pt  Pt30  1  0.657153  0.171581  0.999839  1
  Pt  Pt31  1  0.342847  0.828419  0.000161  1
  Pt  Pt32  1  0.537151  0.167396  0.360987  1
  Pt  Pt33  1  0.462849  0.832604  0.639013  1
  Pt  Pt34  1  0.778267  0.175632  0.637653  1
  Pt  Pt35  1  0.221733  0.824368  0.362347  1
  Pt  Pt36  1  0.000000  0.500000  0.000000  1
