# generated using pymatgen
data_Ho12InTcNi4
_symmetry_space_group_name_H-M   'P 1'
_cell_length_a   8.28952516
_cell_length_b   8.28952532
_cell_length_c   8.28952593
_cell_angle_alpha   111.43548786
_cell_angle_beta   109.68039428
_cell_angle_gamma   107.32392781
_symmetry_Int_Tables_number   1
_chemical_formula_structural   Ho12InTcNi4
_chemical_formula_sum   'Ho12 In1 Tc1 Ni4'
_cell_volume   437.93073726
_cell_formula_units_Z   1
loop_
 _symmetry_equiv_pos_site_id
 _symmetry_equiv_pos_as_xyz
  1  'x, y, z'
loop_
 _atom_site_type_symbol
 _atom_site_label
 _atom_site_symmetry_multiplicity
 _atom_site_fract_x
 _atom_site_fract_y
 _atom_site_fract_z
 _atom_site_occupancy
  Ho  Ho0  1  0.413218  0.221871  0.191347  1
  Ho  Ho1  1  0.586782  0.778129  0.808653  1
  Ho  Ho2  1  0.030524  0.221871  0.808653  1
  Ho  Ho3  1  0.969476  0.778129  0.191347  1
  Ho  Ho4  1  0.180539  0.281626  0.462165  1
  Ho  Ho5  1  0.819461  0.718374  0.537835  1
  Ho  Ho6  1  0.180539  0.718374  0.898915  1
  Ho  Ho7  1  0.819461  0.281626  0.101085  1
  Ho  Ho8  1  0.320915  0.625320  0.304404  1
  Ho  Ho9  1  0.679085  0.374680  0.695596  1
  Ho  Ho10  1  0.320915  0.016510  0.695596  1
  Ho  Ho11  1  0.679085  0.983490  0.304404  1
  In  In12  1  0.500000  0.500000  0.000000  1
  Tc  Tc13  1  0.000000  0.000000  0.000000  1
  Ni  Ni14  1  0.360811  0.000000  0.360811  1
  Ni  Ni15  1  0.639189  0.000000  0.639189  1
  Ni  Ni16  1  0.117949  0.617949  0.500000  1
  Ni  Ni17  1  0.882051  0.382051  0.500000  1
