# generated using pymatgen
data_Zr16Ir2Pd5RhO4
_symmetry_space_group_name_H-M   'P 1'
_cell_length_a   8.91165781
_cell_length_b   8.87374516
_cell_length_c   8.89884234
_cell_angle_alpha   59.84813935
_cell_angle_beta   59.95234202
_cell_angle_gamma   59.85856525
_symmetry_Int_Tables_number   1
_chemical_formula_structural   Zr16Ir2Pd5RhO4
_chemical_formula_sum   'Zr16 Ir2 Pd5 Rh1 O4'
_cell_volume   496.32000418
_cell_formula_units_Z   1
loop_
 _symmetry_equiv_pos_site_id
 _symmetry_equiv_pos_as_xyz
  1  'x, y, z'
loop_
 _atom_site_type_symbol
 _atom_site_label
 _atom_site_symmetry_multiplicity
 _atom_site_fract_x
 _atom_site_fract_y
 _atom_site_fract_z
 _atom_site_occupancy
  Zr  Zr0  1  0.316982  0.682916  0.316964  1
  Zr  Zr1  1  0.933423  0.568621  0.933071  1
  Zr  Zr2  1  0.682505  0.316567  0.683688  1
  Zr  Zr3  1  0.680804  0.318899  0.319495  1
  Zr  Zr4  1  0.315078  0.684274  0.685570  1
  Zr  Zr5  1  0.636817  0.118605  0.123007  1
  Zr  Zr6  1  0.933418  0.932519  0.566736  1
  Zr  Zr7  1  0.683139  0.682916  0.316964  1
  Zr  Zr8  1  0.117499  0.646548  0.118454  1
  Zr  Zr9  1  0.122399  0.119297  0.635905  1
  Zr  Zr10  1  0.317240  0.316567  0.683688  1
  Zr  Zr11  1  0.121569  0.118605  0.123007  1
  Zr  Zr12  1  0.564885  0.568621  0.933071  1
  Zr  Zr13  1  0.566606  0.933013  0.933775  1
  Zr  Zr14  1  0.933131  0.569083  0.564656  1
  Zr  Zr15  1  0.567327  0.932519  0.566736  1
  Ir  Ir16  1  0.296362  0.904322  0.899364  1
  Ir  Ir17  1  0.899953  0.904322  0.899364  1
  Pd  Pd18  1  0.339605  0.981770  0.339019  1
  Pd  Pd19  1  0.338160  0.340377  0.337864  1
  Pd  Pd20  1  0.983597  0.340377  0.337864  1
  Pd  Pd21  1  0.338231  0.339881  0.983656  1
  Pd  Pd22  1  0.907379  0.278017  0.907226  1
  Rh  Rh23  1  0.901216  0.905176  0.292394  1
  O  O24  1  0.625264  0.623715  0.624584  1
  O  O25  1  0.126438  0.623715  0.624584  1
  O  O26  1  0.625595  0.624001  0.124808  1
  O  O27  1  0.625378  0.124758  0.624485  1
