# generated using pymatgen
data_LiCa2ZnSi3
_symmetry_space_group_name_H-M   'P 1'
_cell_length_a   9.46447006
_cell_length_b   9.46446957
_cell_length_c   6.83311800
_cell_angle_alpha   90.00000000
_cell_angle_beta   90.00000000
_cell_angle_gamma   153.52015294
_symmetry_Int_Tables_number   1
_chemical_formula_structural   LiCa2ZnSi3
_chemical_formula_sum   'Li2 Ca4 Zn2 Si6'
_cell_volume   272.91815172
_cell_formula_units_Z   2
loop_
 _symmetry_equiv_pos_site_id
 _symmetry_equiv_pos_as_xyz
  1  'x, y, z'
loop_
 _atom_site_type_symbol
 _atom_site_label
 _atom_site_symmetry_multiplicity
 _atom_site_fract_x
 _atom_site_fract_y
 _atom_site_fract_z
 _atom_site_occupancy
  Li  Li0  1  0.812078  0.187922  0.940659  1
  Li  Li1  1  0.187922  0.812078  0.440659  1
  Ca  Ca2  1  0.445484  0.554516  0.754338  1
  Ca  Ca3  1  0.554516  0.445484  0.254338  1
  Ca  Ca4  1  0.656311  0.343689  0.742125  1
  Ca  Ca5  1  0.343689  0.656311  0.242125  1
  Zn  Zn6  1  0.192331  0.807669  0.052884  1
  Zn  Zn7  1  0.807669  0.192331  0.552884  1
  Si  Si8  1  0.277428  0.722572  0.749924  1
  Si  Si9  1  0.722572  0.277428  0.249924  1
  Si  Si10  1  0.940598  0.059402  0.428314  1
  Si  Si11  1  0.055252  0.944748  0.581758  1
  Si  Si12  1  0.944748  0.055252  0.081758  1
  Si  Si13  1  0.059402  0.940598  0.928314  1
