# generated using pymatgen
data_La3Pr2Sm(RuI3)2
_symmetry_space_group_name_H-M   'P 1'
_cell_length_a   4.35331400
_cell_length_b   9.57581280
_cell_length_c   12.51285358
_cell_angle_alpha   87.75718516
_cell_angle_beta   90.00000000
_cell_angle_gamma   90.00000000
_symmetry_Int_Tables_number   1
_chemical_formula_structural   La3Pr2Sm(RuI3)2
_chemical_formula_sum   'La3 Pr2 Sm1 Ru2 I6'
_cell_volume   521.21773589
_cell_formula_units_Z   1
loop_
 _symmetry_equiv_pos_site_id
 _symmetry_equiv_pos_as_xyz
  1  'x, y, z'
loop_
 _atom_site_type_symbol
 _atom_site_label
 _atom_site_symmetry_multiplicity
 _atom_site_fract_x
 _atom_site_fract_y
 _atom_site_fract_z
 _atom_site_occupancy
  La  La0  1  0.250000  0.314749  0.882656  1
  La  La1  1  0.250000  0.883394  0.327873  1
  La  La2  1  0.750000  0.114636  0.670420  1
  Pr  Pr3  1  0.250000  0.900459  0.897549  1
  Pr  Pr4  1  0.750000  0.095485  0.104043  1
  Sm  Sm5  1  0.750000  0.689424  0.118859  1
  Ru  Ru6  1  0.250000  0.884639  0.129149  1
  Ru  Ru7  1  0.750000  0.115860  0.869166  1
  I  I8  1  0.250000  0.864372  0.620207  1
  I  I9  1  0.750000  0.133566  0.379752  1
  I  I10  1  0.750000  0.631531  0.372231  1
  I  I11  1  0.250000  0.366012  0.622686  1
  I  I12  1  0.250000  0.397881  0.136996  1
  I  I13  1  0.750000  0.607992  0.868413  1
