# generated using pymatgen
data_Lu8In3Ag
_symmetry_space_group_name_H-M   'P 1'
_cell_length_a   10.43583200
_cell_length_b   10.43583146
_cell_length_c   6.71777600
_cell_angle_alpha   90.00000000
_cell_angle_beta   90.00000000
_cell_angle_gamma   120.00000171
_symmetry_Int_Tables_number   1
_chemical_formula_structural   Lu8In3Ag
_chemical_formula_sum   'Lu16 In6 Ag2'
_cell_volume   633.59286565
_cell_formula_units_Z   2
loop_
 _symmetry_equiv_pos_site_id
 _symmetry_equiv_pos_as_xyz
  1  'x, y, z'
loop_
 _atom_site_type_symbol
 _atom_site_label
 _atom_site_symmetry_multiplicity
 _atom_site_fract_x
 _atom_site_fract_y
 _atom_site_fract_z
 _atom_site_occupancy
  Lu  Lu0  1  0.519785  0.039571  0.527749  1
  Lu  Lu1  1  0.960429  0.480215  0.527749  1
  Lu  Lu2  1  0.519785  0.480215  0.527749  1
  Lu  Lu3  1  0.480215  0.960429  0.027749  1
  Lu  Lu4  1  0.039571  0.519785  0.027749  1
  Lu  Lu5  1  0.480215  0.519785  0.027749  1
  Lu  Lu6  1  0.172365  0.344731  0.743471  1
  Lu  Lu7  1  0.655269  0.827635  0.743471  1
  Lu  Lu8  1  0.172365  0.827635  0.743471  1
  Lu  Lu9  1  0.827635  0.655269  0.243471  1
  Lu  Lu10  1  0.344731  0.172365  0.243471  1
  Lu  Lu11  1  0.827635  0.172365  0.243471  1
  Lu  Lu12  1  0.666667  0.333333  0.877540  1
  Lu  Lu13  1  0.333333  0.666667  0.377540  1
  Lu  Lu14  1  0.000000  0.000000  0.506949  1
  Lu  Lu15  1  0.000000  0.000000  0.006949  1
  In  In16  1  0.835270  0.670539  0.759742  1
  In  In17  1  0.329461  0.164730  0.759742  1
  In  In18  1  0.835270  0.164730  0.759742  1
  In  In19  1  0.164730  0.329461  0.259742  1
  In  In20  1  0.670539  0.835270  0.259742  1
  In  In21  1  0.164730  0.835270  0.259742  1
  Ag  Ag22  1  0.666667  0.333333  0.300465  1
  Ag  Ag23  1  0.333333  0.666667  0.800465  1
