# generated using pymatgen
data_Sm10Si16B
_symmetry_space_group_name_H-M   'P 1'
_cell_length_a   6.69159562
_cell_length_b   8.51238209
_cell_length_c   11.11823724
_cell_angle_alpha   112.50795389
_cell_angle_beta   107.51339433
_cell_angle_gamma   89.99999686
_symmetry_Int_Tables_number   1
_chemical_formula_structural   Sm10Si16B
_chemical_formula_sum   'Sm10 Si16 B1'
_cell_volume   553.15866730
_cell_formula_units_Z   1
loop_
 _symmetry_equiv_pos_site_id
 _symmetry_equiv_pos_as_xyz
  1  'x, y, z'
loop_
 _atom_site_type_symbol
 _atom_site_label
 _atom_site_symmetry_multiplicity
 _atom_site_fract_x
 _atom_site_fract_y
 _atom_site_fract_z
 _atom_site_occupancy
  Sm  Sm0  1  0.237894  0.243393  0.000000  1
  Sm  Sm1  1  0.237894  0.756607  0.000000  1
  Sm  Sm2  1  0.830466  0.351002  0.198582  1
  Sm  Sm3  1  0.830466  0.847580  0.198582  1
  Sm  Sm4  1  0.433826  0.446937  0.397551  1
  Sm  Sm5  1  0.433826  0.950612  0.397551  1
  Sm  Sm6  1  0.036277  0.049388  0.602449  1
  Sm  Sm7  1  0.036277  0.553063  0.602449  1
  Sm  Sm8  1  0.631884  0.152420  0.801418  1
  Sm  Sm9  1  0.631884  0.648998  0.801418  1
  Si  Si10  1  0.881641  0.000000  0.000000  1
  Si  Si11  1  0.603129  0.500000  0.000000  1
  Si  Si12  1  0.128993  0.584357  0.168713  1
  Si  Si13  1  0.496854  0.600158  0.200317  1
  Si  Si14  1  0.503595  0.093378  0.186757  1
  Si  Si15  1  0.162930  0.109414  0.218828  1
  Si  Si16  1  0.807022  0.197827  0.395653  1
  Si  Si17  1  0.101756  0.699882  0.399765  1
  Si  Si18  1  0.755860  0.712352  0.424704  1
  Si  Si19  1  0.331156  0.287648  0.575296  1
  Si  Si20  1  0.701992  0.300118  0.600235  1
  Si  Si21  1  0.411366  0.802173  0.604346  1
  Si  Si22  1  0.944101  0.890586  0.781172  1
  Si  Si23  1  0.316838  0.906622  0.813243  1
  Si  Si24  1  0.296539  0.399842  0.799683  1
  Si  Si25  1  0.960278  0.415643  0.831287  1
  B  B26  1  0.566333  0.000000  0.000000  1
