# generated using pymatgen
data_Er10NiBi4Sb
_symmetry_space_group_name_H-M   'P 1'
_cell_length_a   7.97156700
_cell_length_b   9.25168300
_cell_length_c   11.95951700
_cell_angle_alpha   90.00000000
_cell_angle_beta   90.00000000
_cell_angle_gamma   90.00000000
_symmetry_Int_Tables_number   1
_chemical_formula_structural   Er10NiBi4Sb
_chemical_formula_sum   'Er20 Ni2 Bi8 Sb2'
_cell_volume   882.01929288
_cell_formula_units_Z   2
loop_
 _symmetry_equiv_pos_site_id
 _symmetry_equiv_pos_as_xyz
  1  'x, y, z'
loop_
 _atom_site_type_symbol
 _atom_site_label
 _atom_site_symmetry_multiplicity
 _atom_site_fract_x
 _atom_site_fract_y
 _atom_site_fract_z
 _atom_site_occupancy
  Er  Er0  1  0.432839  0.181457  0.562692  1
  Er  Er1  1  0.567161  0.818543  0.062692  1
  Er  Er2  1  0.073289  0.718837  0.436656  1
  Er  Er3  1  0.926711  0.281163  0.936656  1
  Er  Er4  1  0.073289  0.281163  0.436656  1
  Er  Er5  1  0.926711  0.718837  0.936656  1
  Er  Er6  1  0.432839  0.818543  0.562692  1
  Er  Er7  1  0.567161  0.181457  0.062692  1
  Er  Er8  1  0.576374  0.500000  0.777392  1
  Er  Er9  1  0.423626  0.500000  0.277392  1
  Er  Er10  1  0.906280  0.000000  0.202014  1
  Er  Er11  1  0.093720  0.000000  0.702014  1
  Er  Er12  1  0.265718  0.500000  0.994598  1
  Er  Er13  1  0.734282  0.500000  0.494598  1
  Er  Er14  1  0.197710  0.000000  0.997844  1
  Er  Er15  1  0.802290  0.000000  0.497844  1
  Er  Er16  1  0.095914  0.500000  0.713822  1
  Er  Er17  1  0.904086  0.500000  0.213822  1
  Er  Er18  1  0.376889  0.000000  0.304775  1
  Er  Er19  1  0.623111  0.000000  0.804775  1
  Ni  Ni20  1  0.170828  0.000000  0.485981  1
  Ni  Ni21  1  0.829172  0.000000  0.985981  1
  Bi  Bi22  1  0.816270  0.741263  0.673065  1
  Bi  Bi23  1  0.183730  0.258737  0.173065  1
  Bi  Bi24  1  0.681480  0.241625  0.325151  1
  Bi  Bi25  1  0.318520  0.758375  0.825151  1
  Bi  Bi26  1  0.681480  0.758375  0.325151  1
  Bi  Bi27  1  0.318520  0.241625  0.825151  1
  Bi  Bi28  1  0.816270  0.258737  0.673065  1
  Bi  Bi29  1  0.183730  0.741263  0.173065  1
  Sb  Sb30  1  0.348481  0.500000  0.528448  1
  Sb  Sb31  1  0.651519  0.500000  0.028448  1
