# generated using pymatgen
data_Ba(Ti3Se4)4
_symmetry_space_group_name_H-M   'P 1'
_cell_length_a   7.17778605
_cell_length_b   9.94233013
_cell_length_c   10.55731326
_cell_angle_alpha   118.03243918
_cell_angle_beta   109.86841645
_cell_angle_gamma   90.02997798
_symmetry_Int_Tables_number   1
_chemical_formula_structural   Ba(Ti3Se4)4
_chemical_formula_sum   'Ba1 Ti12 Se16'
_cell_volume   613.67362811
_cell_formula_units_Z   1
loop_
 _symmetry_equiv_pos_site_id
 _symmetry_equiv_pos_as_xyz
  1  'x, y, z'
loop_
 _atom_site_type_symbol
 _atom_site_label
 _atom_site_symmetry_multiplicity
 _atom_site_fract_x
 _atom_site_fract_y
 _atom_site_fract_z
 _atom_site_occupancy
  Ba  Ba0  1  0.000000  0.000000  0.000000  1
  Ti  Ti1  1  0.557586  0.360354  0.868299  1
  Ti  Ti2  1  0.060956  0.361464  0.869276  1
  Ti  Ti3  1  0.372768  0.130425  0.491722  1
  Ti  Ti4  1  0.868572  0.132029  0.491480  1
  Ti  Ti5  1  0.442947  0.508461  0.640412  1
  Ti  Ti6  1  0.945690  0.508177  0.638651  1
  Ti  Ti7  1  0.939044  0.638536  0.130724  1
  Ti  Ti8  1  0.442414  0.639646  0.131701  1
  Ti  Ti9  1  0.131428  0.867971  0.508520  1
  Ti  Ti10  1  0.627232  0.869575  0.508278  1
  Ti  Ti11  1  0.054310  0.491823  0.361349  1
  Ti  Ti12  1  0.557053  0.491539  0.359588  1
  Se  Se13  1  0.975817  0.050468  0.699006  1
  Se  Se14  1  0.474832  0.050237  0.700068  1
  Se  Se15  1  0.799647  0.300065  0.349874  1
  Se  Se16  1  0.301737  0.301100  0.351288  1
  Se  Se17  1  0.101454  0.649612  0.950025  1
  Se  Se18  1  0.599810  0.649747  0.950034  1
  Se  Se19  1  0.525168  0.949763  0.299932  1
  Se  Se20  1  0.024183  0.949532  0.300994  1
  Se  Se21  1  0.698263  0.698900  0.648712  1
  Se  Se22  1  0.200353  0.699935  0.650126  1
  Se  Se23  1  0.400190  0.350253  0.049966  1
  Se  Se24  1  0.898546  0.350388  0.049975  1
  Se  Se25  1  0.792317  0.667448  0.334137  1
  Se  Se26  1  0.291625  0.665964  0.332991  1
  Se  Se27  1  0.708375  0.334036  0.667009  1
  Se  Se28  1  0.207683  0.332552  0.665863  1
