# generated using pymatgen
data_Ti17Nb(Si8Tc)2
_symmetry_space_group_name_H-M   'P 1'
_cell_length_a   6.66647263
_cell_length_b   6.66647221
_cell_length_c   12.17161721
_cell_angle_alpha   90.05224095
_cell_angle_beta   89.94775976
_cell_angle_gamma   90.09102900
_symmetry_Int_Tables_number   1
_chemical_formula_structural   Ti17Nb(Si8Tc)2
_chemical_formula_sum   'Ti17 Nb1 Si16 Tc2'
_cell_volume   540.92811057
_cell_formula_units_Z   1
loop_
 _symmetry_equiv_pos_site_id
 _symmetry_equiv_pos_as_xyz
  1  'x, y, z'
loop_
 _atom_site_type_symbol
 _atom_site_label
 _atom_site_symmetry_multiplicity
 _atom_site_fract_x
 _atom_site_fract_y
 _atom_site_fract_z
 _atom_site_occupancy
  Ti  Ti0  1  0.998679  0.147965  0.621095  1
  Ti  Ti1  1  0.350163  0.495540  0.872097  1
  Ti  Ti2  1  0.650312  0.504322  0.373133  1
  Ti  Ti3  1  0.495540  0.350163  0.127903  1
  Ti  Ti4  1  0.504322  0.650312  0.626867  1
  Ti  Ti5  1  0.001976  0.851687  0.121403  1
  Ti  Ti6  1  0.147965  0.998679  0.378905  1
  Ti  Ti7  1  0.851687  0.001976  0.878597  1
  Ti  Ti8  1  0.997890  0.340111  0.221918  1
  Ti  Ti9  1  0.156316  0.500527  0.472142  1
  Ti  Ti10  1  0.841673  0.500488  0.973295  1
  Ti  Ti11  1  0.500527  0.156316  0.527858  1
  Ti  Ti12  1  0.500488  0.841673  0.026705  1
  Ti  Ti13  1  0.001633  0.661336  0.720767  1
  Ti  Ti14  1  0.340111  0.997890  0.778082  1
  Ti  Ti15  1  0.661336  0.001633  0.279233  1
  Ti  Ti16  1  0.828298  0.828298  0.500000  1
  Nb  Nb17  1  0.171883  0.171883  0.000000  1
  Si  Si18  1  0.038347  0.304704  0.812075  1
  Si  Si19  1  0.199006  0.547826  0.066671  1
  Si  Si20  1  0.801762  0.454736  0.566448  1
  Si  Si21  1  0.547826  0.199006  0.933329  1
  Si  Si22  1  0.454736  0.801762  0.433552  1
  Si  Si23  1  0.959461  0.697957  0.314779  1
  Si  Si24  1  0.304704  0.038347  0.187925  1
  Si  Si25  1  0.697957  0.959461  0.685221  1
  Si  Si26  1  0.295524  0.358561  0.672459  1
  Si  Si27  1  0.141496  0.791708  0.922749  1
  Si  Si28  1  0.856834  0.205669  0.424750  1
  Si  Si29  1  0.791708  0.141496  0.077251  1
  Si  Si30  1  0.205669  0.856834  0.575250  1
  Si  Si31  1  0.704901  0.641655  0.173725  1
  Si  Si32  1  0.358561  0.295524  0.327541  1
  Si  Si33  1  0.641655  0.704901  0.826275  1
  Tc  Tc34  1  0.328576  0.670481  0.250097  1
  Tc  Tc35  1  0.670481  0.328576  0.749903  1
