# generated using pymatgen
data_DyV6BiO18
_symmetry_space_group_name_H-M   'P 1'
_cell_length_a   7.49664548
_cell_length_b   8.54225110
_cell_length_c   9.62402267
_cell_angle_alpha   105.88065092
_cell_angle_beta   112.86448375
_cell_angle_gamma   63.83972595
_symmetry_Int_Tables_number   1
_chemical_formula_structural   DyV6BiO18
_chemical_formula_sum   'Dy1 V6 Bi1 O18'
_cell_volume   505.79233650
_cell_formula_units_Z   1
loop_
 _symmetry_equiv_pos_site_id
 _symmetry_equiv_pos_as_xyz
  1  'x, y, z'
loop_
 _atom_site_type_symbol
 _atom_site_label
 _atom_site_symmetry_multiplicity
 _atom_site_fract_x
 _atom_site_fract_y
 _atom_site_fract_z
 _atom_site_occupancy
  Dy  Dy0  1  0.203337  0.858435  0.743258  1
  V  V1  1  0.748817  0.610368  0.004818  1
  V  V2  1  0.998279  0.902149  0.071939  1
  V  V3  1  0.412879  0.810149  0.417742  1
  V  V4  1  0.648193  0.106504  0.509494  1
  V  V5  1  0.180547  0.406904  0.578398  1
  V  V6  1  0.186018  0.310392  0.915725  1
  Bi  Bi7  1  0.683392  0.357873  0.242140  1
  O  O8  1  0.358880  0.388200  0.057880  1
  O  O9  1  0.837410  0.115957  0.079339  1
  O  O10  1  0.868952  0.769679  0.075937  1
  O  O11  1  0.684310  0.576621  0.141205  1
  O  O12  1  0.220775  0.874271  0.240079  1
  O  O13  1  0.641731  0.172830  0.356771  1
  O  O14  1  0.014221  0.348918  0.415637  1
  O  O15  1  0.529509  0.587674  0.404409  1
  O  O16  1  0.599541  0.906569  0.455412  1
  O  O17  1  0.301720  0.885045  0.557706  1
  O  O18  1  0.139233  0.621520  0.595480  1
  O  O19  1  0.448606  0.273194  0.587384  1
  O  O20  1  0.886774  0.063173  0.640400  1
  O  O21  1  0.139742  0.373339  0.738044  1
  O  O22  1  0.533321  0.681314  0.855474  1
  O  O23  1  0.076100  0.840975  0.915494  1
  O  O24  1  0.277634  0.089260  0.900611  1
  O  O25  1  0.936874  0.405291  0.949426  1
