# generated using pymatgen
data_Tb3Er(MgRh)4
_symmetry_space_group_name_H-M   'P 1'
_cell_length_a   4.13212900
_cell_length_b   7.10887165
_cell_length_c   8.52116992
_cell_angle_alpha   89.90553545
_cell_angle_beta   90.00000000
_cell_angle_gamma   90.00000000
_symmetry_Int_Tables_number   1
_chemical_formula_structural   Tb3Er(MgRh)4
_chemical_formula_sum   'Tb3 Er1 Mg4 Rh4'
_cell_volume   250.30710642
_cell_formula_units_Z   1
loop_
 _symmetry_equiv_pos_site_id
 _symmetry_equiv_pos_as_xyz
  1  'x, y, z'
loop_
 _atom_site_type_symbol
 _atom_site_label
 _atom_site_symmetry_multiplicity
 _atom_site_fract_x
 _atom_site_fract_y
 _atom_site_fract_z
 _atom_site_occupancy
  Tb  Tb0  1  0.250000  0.537029  0.177485  1
  Tb  Tb1  1  0.750000  0.463045  0.823257  1
  Tb  Tb2  1  0.750000  0.962465  0.675527  1
  Er  Er3  1  0.250000  0.037575  0.324033  1
  Mg  Mg4  1  0.250000  0.636879  0.558250  1
  Mg  Mg5  1  0.750000  0.362431  0.439994  1
  Mg  Mg6  1  0.750000  0.864456  0.060094  1
  Mg  Mg7  1  0.250000  0.136598  0.941218  1
  Rh  Rh8  1  0.250000  0.751830  0.871726  1
  Rh  Rh9  1  0.750000  0.245586  0.129966  1
  Rh  Rh10  1  0.750000  0.751528  0.371215  1
  Rh  Rh11  1  0.250000  0.250580  0.627236  1
