# generated using pymatgen
data_Na2SrSi(PPd4)5
_symmetry_space_group_name_H-M   'P 1'
_cell_length_a   8.67691756
_cell_length_b   8.67883630
_cell_length_c   8.67882692
_cell_angle_alpha   59.97156795
_cell_angle_beta   60.00829636
_cell_angle_gamma   60.00823839
_symmetry_Int_Tables_number   1
_chemical_formula_structural   Na2SrSi(PPd4)5
_chemical_formula_sum   'Na2 Sr1 Si1 P5 Pd20'
_cell_volume   462.09772095
_cell_formula_units_Z   1
loop_
 _symmetry_equiv_pos_site_id
 _symmetry_equiv_pos_as_xyz
  1  'x, y, z'
loop_
 _atom_site_type_symbol
 _atom_site_label
 _atom_site_symmetry_multiplicity
 _atom_site_fract_x
 _atom_site_fract_y
 _atom_site_fract_z
 _atom_site_occupancy
  Na  Na0  1  0.250321  0.249682  0.249682  1
  Na  Na1  1  0.999420  0.000583  0.000583  1
  Sr  Sr2  1  0.750427  0.749568  0.749568  1
  Si  Si3  1  0.735513  0.264489  0.264489  1
  P  P4  1  0.263446  0.736553  0.736553  1
  P  P5  1  0.264477  0.735264  0.263138  1
  P  P6  1  0.737128  0.263132  0.735263  1
  P  P7  1  0.264477  0.263137  0.735264  1
  P  P8  1  0.737128  0.735263  0.263132  1
  Pd  Pd9  1  0.382064  0.383208  0.383209  1
  Pd  Pd10  1  0.609799  0.609815  0.609815  1
  Pd  Pd11  1  0.382881  0.383436  0.850802  1
  Pd  Pd12  1  0.382881  0.850802  0.383435  1
  Pd  Pd13  1  0.609218  0.612863  0.168700  1
  Pd  Pd14  1  0.609218  0.168700  0.612863  1
  Pd  Pd15  1  0.851523  0.383206  0.383206  1
  Pd  Pd16  1  0.170562  0.609818  0.609818  1
  Pd  Pd17  1  0.342660  0.001230  0.001230  1
  Pd  Pd18  1  0.654877  0.001232  0.001232  1
  Pd  Pd19  1  0.000023  0.343928  0.656026  1
  Pd  Pd20  1  0.000023  0.656026  0.343928  1
  Pd  Pd21  1  0.002523  0.344645  0.998348  1
  Pd  Pd22  1  0.654483  0.998348  0.344644  1
  Pd  Pd23  1  0.000272  0.655665  0.000370  1
  Pd  Pd24  1  0.343691  0.000371  0.655668  1
  Pd  Pd25  1  0.002523  0.998348  0.344646  1
  Pd  Pd26  1  0.000273  0.000370  0.655665  1
  Pd  Pd27  1  0.654484  0.344643  0.998348  1
  Pd  Pd28  1  0.343691  0.655668  0.000371  1
