# generated using pymatgen
data_Y3Lu9Os3Rh
_symmetry_space_group_name_H-M   'P 1'
_cell_length_a   7.33749865
_cell_length_b   8.88347400
_cell_length_c   6.25264050
_cell_angle_alpha   90.00000000
_cell_angle_beta   89.92423270
_cell_angle_gamma   90.00000000
_symmetry_Int_Tables_number   1
_chemical_formula_structural   Y3Lu9Os3Rh
_chemical_formula_sum   'Y3 Lu9 Os3 Rh1'
_cell_volume   407.56224840
_cell_formula_units_Z   1
loop_
 _symmetry_equiv_pos_site_id
 _symmetry_equiv_pos_as_xyz
  1  'x, y, z'
loop_
 _atom_site_type_symbol
 _atom_site_label
 _atom_site_symmetry_multiplicity
 _atom_site_fract_x
 _atom_site_fract_y
 _atom_site_fract_z
 _atom_site_occupancy
  Y  Y0  1  0.538445  0.250000  0.876865  1
  Y  Y1  1  0.037688  0.250000  0.626141  1
  Y  Y2  1  0.463500  0.750000  0.121768  1
  Lu  Lu3  1  0.672628  0.060007  0.338040  1
  Lu  Lu4  1  0.176239  0.439619  0.167159  1
  Lu  Lu5  1  0.324026  0.563217  0.664544  1
  Lu  Lu6  1  0.824677  0.932965  0.828000  1
  Lu  Lu7  1  0.324026  0.936783  0.664544  1
  Lu  Lu8  1  0.824677  0.567035  0.828000  1
  Lu  Lu9  1  0.672628  0.439993  0.338040  1
  Lu  Lu10  1  0.176239  0.060381  0.167159  1
  Lu  Lu11  1  0.961667  0.750000  0.371570  1
  Os  Os12  1  0.383271  0.250000  0.456386  1
  Os  Os13  1  0.114457  0.750000  0.960508  1
  Os  Os14  1  0.619392  0.750000  0.539662  1
  Rh  Rh15  1  0.886441  0.250000  0.051616  1
