# generated using pymatgen
data_U5O12F
_symmetry_space_group_name_H-M   'P 1'
_cell_length_a   4.16386700
_cell_length_b   6.90908100
_cell_length_c   19.78837800
_cell_angle_alpha   90.00000000
_cell_angle_beta   90.00000000
_cell_angle_gamma   90.00000000
_symmetry_Int_Tables_number   1
_chemical_formula_structural   U5O12F
_chemical_formula_sum   'U10 O24 F2'
_cell_volume   569.28184121
_cell_formula_units_Z   2
loop_
 _symmetry_equiv_pos_site_id
 _symmetry_equiv_pos_as_xyz
  1  'x, y, z'
loop_
 _atom_site_type_symbol
 _atom_site_label
 _atom_site_symmetry_multiplicity
 _atom_site_fract_x
 _atom_site_fract_y
 _atom_site_fract_z
 _atom_site_occupancy
  U  U0  1  0.000000  0.236727  0.647857  1
  U  U1  1  0.000000  0.236727  0.852143  1
  U  U2  1  0.000000  0.227224  0.250000  1
  U  U3  1  0.000000  0.295395  0.060467  1
  U  U4  1  0.000000  0.295395  0.439533  1
  U  U5  1  0.000000  0.704605  0.560467  1
  U  U6  1  0.000000  0.704605  0.939533  1
  U  U7  1  0.000000  0.772776  0.750000  1
  U  U8  1  0.000000  0.763273  0.352143  1
  U  U9  1  0.000000  0.763273  0.147857  1
  O  O10  1  0.000000  0.082885  0.141935  1
  O  O11  1  0.000000  0.082885  0.358065  1
  O  O12  1  0.000000  0.137000  0.750000  1
  O  O13  1  0.500000  0.232245  0.646554  1
  O  O14  1  0.500000  0.232245  0.853446  1
  O  O15  1  0.500000  0.224568  0.250000  1
  O  O16  1  0.500000  0.294021  0.059798  1
  O  O17  1  0.500000  0.294021  0.440202  1
  O  O18  1  0.000000  0.373786  0.548434  1
  O  O19  1  0.000000  0.373786  0.951566  1
  O  O20  1  0.000000  0.455371  0.171089  1
  O  O21  1  0.000000  0.455371  0.328911  1
  O  O22  1  0.000000  0.544629  0.671089  1
  O  O23  1  0.000000  0.544629  0.828911  1
  O  O24  1  0.000000  0.626214  0.048434  1
  O  O25  1  0.000000  0.626214  0.451566  1
  O  O26  1  0.500000  0.705979  0.559798  1
  O  O27  1  0.500000  0.705979  0.940202  1
  O  O28  1  0.500000  0.775432  0.750000  1
  O  O29  1  0.500000  0.767755  0.353446  1
  O  O30  1  0.500000  0.767755  0.146554  1
  O  O31  1  0.000000  0.863000  0.250000  1
  O  O32  1  0.000000  0.917115  0.641935  1
  O  O33  1  0.000000  0.917115  0.858065  1
  F  F34  1  0.000000  0.000000  0.000000  1
  F  F35  1  0.000000  0.000000  0.500000  1
