# generated using pymatgen
data_Y2GaB2Rh5
_symmetry_space_group_name_H-M   'P 1'
_cell_length_a   9.50004300
_cell_length_b   9.50004300
_cell_length_c   3.21890000
_cell_angle_alpha   90.00000000
_cell_angle_beta   90.00000000
_cell_angle_gamma   90.00000000
_symmetry_Int_Tables_number   1
_chemical_formula_structural   Y2GaB2Rh5
_chemical_formula_sum   'Y4 Ga2 B4 Rh10'
_cell_volume   290.50835485
_cell_formula_units_Z   2
loop_
 _symmetry_equiv_pos_site_id
 _symmetry_equiv_pos_as_xyz
  1  'x, y, z'
loop_
 _atom_site_type_symbol
 _atom_site_label
 _atom_site_symmetry_multiplicity
 _atom_site_fract_x
 _atom_site_fract_y
 _atom_site_fract_z
 _atom_site_occupancy
  Y  Y0  1  0.825296  0.325296  0.000000  1
  Y  Y1  1  0.325296  0.174704  0.000000  1
  Y  Y2  1  0.674704  0.825296  0.000000  1
  Y  Y3  1  0.174704  0.674704  0.000000  1
  Ga  Ga4  1  0.000000  0.000000  0.000000  1
  Ga  Ga5  1  0.500000  0.500000  0.000000  1
  B  B6  1  0.622574  0.122574  0.000000  1
  B  B7  1  0.122574  0.377426  0.000000  1
  B  B8  1  0.877426  0.622574  0.000000  1
  B  B9  1  0.377426  0.877426  0.000000  1
  Rh  Rh10  1  0.070641  0.219028  0.500000  1
  Rh  Rh11  1  0.219028  0.929359  0.500000  1
  Rh  Rh12  1  0.780972  0.070641  0.500000  1
  Rh  Rh13  1  0.929359  0.780972  0.500000  1
  Rh  Rh14  1  0.429359  0.719028  0.500000  1
  Rh  Rh15  1  0.570641  0.280972  0.500000  1
  Rh  Rh16  1  0.719028  0.570641  0.500000  1
  Rh  Rh17  1  0.280972  0.429359  0.500000  1
  Rh  Rh18  1  0.500000  0.000000  0.500000  1
  Rh  Rh19  1  0.000000  0.500000  0.500000  1
