# generated using pymatgen
data_Y8TiV3O20
_symmetry_space_group_name_H-M   'P 1'
_cell_length_a   3.73672400
_cell_length_b   10.42040889
_cell_length_c   11.29957545
_cell_angle_alpha   90.12212946
_cell_angle_beta   90.00000000
_cell_angle_gamma   90.00000000
_symmetry_Int_Tables_number   1
_chemical_formula_structural   Y8TiV3O20
_chemical_formula_sum   'Y8 Ti1 V3 O20'
_cell_volume   439.98403865
_cell_formula_units_Z   1
loop_
 _symmetry_equiv_pos_site_id
 _symmetry_equiv_pos_as_xyz
  1  'x, y, z'
loop_
 _atom_site_type_symbol
 _atom_site_label
 _atom_site_symmetry_multiplicity
 _atom_site_fract_x
 _atom_site_fract_y
 _atom_site_fract_z
 _atom_site_occupancy
  Y  Y0  1  0.250000  0.136430  0.443936  1
  Y  Y1  1  0.750000  0.862571  0.555630  1
  Y  Y2  1  0.250000  0.637236  0.054569  1
  Y  Y3  1  0.750000  0.363630  0.945419  1
  Y  Y4  1  0.250000  0.117522  0.775427  1
  Y  Y5  1  0.750000  0.880569  0.225498  1
  Y  Y6  1  0.250000  0.617158  0.724455  1
  Y  Y7  1  0.750000  0.381723  0.273740  1
  Ti  Ti8  1  0.750000  0.326746  0.619290  1
  V  V9  1  0.250000  0.170786  0.118537  1
  V  V10  1  0.750000  0.828781  0.881009  1
  V  V11  1  0.250000  0.671007  0.381437  1
  O  O12  1  0.250000  0.266087  0.616853  1
  O  O13  1  0.750000  0.733652  0.383831  1
  O  O14  1  0.250000  0.765988  0.883666  1
  O  O15  1  0.750000  0.233583  0.115902  1
  O  O16  1  0.250000  0.508235  0.345850  1
  O  O17  1  0.750000  0.493401  0.654462  1
  O  O18  1  0.250000  0.008203  0.154200  1
  O  O19  1  0.750000  0.991830  0.846220  1
  O  O20  1  0.250000  0.257689  0.269044  1
  O  O21  1  0.750000  0.743412  0.730546  1
  O  O22  1  0.250000  0.757757  0.231100  1
  O  O23  1  0.750000  0.241365  0.770101  1
  O  O24  1  0.750000  0.006240  0.394424  1
  O  O25  1  0.250000  0.995365  0.605485  1
  O  O26  1  0.750000  0.505825  0.105762  1
  O  O27  1  0.250000  0.494105  0.894862  1
  O  O28  1  0.750000  0.276043  0.456941  1
  O  O29  1  0.250000  0.727285  0.541974  1
  O  O30  1  0.750000  0.773520  0.042173  1
  O  O31  1  0.250000  0.226257  0.957656  1
