# generated using pymatgen
data_Hf6BeZn23
_symmetry_space_group_name_H-M   'P 1'
_cell_length_a   8.71901296
_cell_length_b   8.71901325
_cell_length_c   8.71901300
_cell_angle_alpha   60.00000473
_cell_angle_beta   60.00000365
_cell_angle_gamma   60.00000570
_symmetry_Int_Tables_number   1
_chemical_formula_structural   Hf6BeZn23
_chemical_formula_sum   'Hf6 Be1 Zn23'
_cell_volume   468.69145358
_cell_formula_units_Z   1
loop_
 _symmetry_equiv_pos_site_id
 _symmetry_equiv_pos_as_xyz
  1  'x, y, z'
loop_
 _atom_site_type_symbol
 _atom_site_label
 _atom_site_symmetry_multiplicity
 _atom_site_fract_x
 _atom_site_fract_y
 _atom_site_fract_z
 _atom_site_occupancy
  Hf  Hf0  1  0.695693  0.304307  0.304307  1
  Hf  Hf1  1  0.304307  0.695693  0.695693  1
  Hf  Hf2  1  0.304307  0.695693  0.304307  1
  Hf  Hf3  1  0.695693  0.304307  0.695693  1
  Hf  Hf4  1  0.304307  0.304307  0.695693  1
  Hf  Hf5  1  0.695693  0.695693  0.304307  1
  Be  Be6  1  0.500000  0.500000  0.500000  1
  Zn  Zn7  1  0.121880  0.121880  0.121880  1
  Zn  Zn8  1  0.878120  0.878120  0.878120  1
  Zn  Zn9  1  0.121880  0.121880  0.634360  1
  Zn  Zn10  1  0.121880  0.634360  0.121880  1
  Zn  Zn11  1  0.878120  0.878120  0.365640  1
  Zn  Zn12  1  0.878120  0.365640  0.878120  1
  Zn  Zn13  1  0.634360  0.121880  0.121880  1
  Zn  Zn14  1  0.365640  0.878120  0.878120  1
  Zn  Zn15  1  0.500000  0.000000  0.000000  1
  Zn  Zn16  1  0.000000  0.500000  0.500000  1
  Zn  Zn17  1  0.000000  0.500000  0.000000  1
  Zn  Zn18  1  0.500000  0.000000  0.500000  1
  Zn  Zn19  1  0.000000  0.000000  0.500000  1
  Zn  Zn20  1  0.500000  0.500000  0.000000  1
  Zn  Zn21  1  0.333811  0.333811  0.333811  1
  Zn  Zn22  1  0.666189  0.666189  0.666189  1
  Zn  Zn23  1  0.333811  0.333811  0.998567  1
  Zn  Zn24  1  0.333811  0.998567  0.333811  1
  Zn  Zn25  1  0.666189  0.666189  0.001433  1
  Zn  Zn26  1  0.666189  0.001433  0.666189  1
  Zn  Zn27  1  0.998567  0.333811  0.333811  1
  Zn  Zn28  1  0.001433  0.666189  0.666189  1
  Zn  Zn29  1  0.000000  0.000000  0.000000  1
