# generated using pymatgen
data_Dy3Pa(Zn14Cu3)2
_symmetry_space_group_name_H-M   'P 1'
_cell_length_a   8.89001600
_cell_length_b   8.89001590
_cell_length_c   8.61325200
_cell_angle_alpha   90.00000000
_cell_angle_beta   90.00000000
_cell_angle_gamma   120.00000782
_symmetry_Int_Tables_number   1
_chemical_formula_structural   Dy3Pa(Zn14Cu3)2
_chemical_formula_sum   'Dy3 Pa1 Zn28 Cu6'
_cell_volume   589.52582035
_cell_formula_units_Z   1
loop_
 _symmetry_equiv_pos_site_id
 _symmetry_equiv_pos_as_xyz
  1  'x, y, z'
loop_
 _atom_site_type_symbol
 _atom_site_label
 _atom_site_symmetry_multiplicity
 _atom_site_fract_x
 _atom_site_fract_y
 _atom_site_fract_z
 _atom_site_occupancy
  Dy  Dy0  1  0.000000  0.000000  0.750000  1
  Dy  Dy1  1  0.333333  0.666667  0.750000  1
  Dy  Dy2  1  0.666667  0.333333  0.250000  1
  Pa  Pa3  1  0.000000  0.000000  0.250000  1
  Zn  Zn4  1  0.333333  0.666667  0.405996  1
  Zn  Zn5  1  0.666667  0.333333  0.593791  1
  Zn  Zn6  1  0.666667  0.333333  0.906209  1
  Zn  Zn7  1  0.333333  0.666667  0.094004  1
  Zn  Zn8  1  0.333485  0.370122  0.250000  1
  Zn  Zn9  1  0.629878  0.963363  0.250000  1
  Zn  Zn10  1  0.036637  0.666515  0.250000  1
  Zn  Zn11  1  0.629878  0.666515  0.250000  1
  Zn  Zn12  1  0.036637  0.370122  0.250000  1
  Zn  Zn13  1  0.333485  0.963363  0.250000  1
  Zn  Zn14  1  0.666175  0.630017  0.750000  1
  Zn  Zn15  1  0.369983  0.036158  0.750000  1
  Zn  Zn16  1  0.963842  0.333825  0.750000  1
  Zn  Zn17  1  0.369983  0.333825  0.750000  1
  Zn  Zn18  1  0.963842  0.630017  0.750000  1
  Zn  Zn19  1  0.666175  0.036158  0.750000  1
  Zn  Zn20  1  0.164093  0.835907  0.519955  1
  Zn  Zn21  1  0.164093  0.328186  0.519955  1
  Zn  Zn22  1  0.671814  0.835907  0.519955  1
  Zn  Zn23  1  0.835774  0.164226  0.479954  1
  Zn  Zn24  1  0.835774  0.671547  0.479954  1
  Zn  Zn25  1  0.328453  0.164226  0.479954  1
  Zn  Zn26  1  0.835774  0.164226  0.020046  1
  Zn  Zn27  1  0.835774  0.671547  0.020046  1
  Zn  Zn28  1  0.328453  0.164226  0.020046  1
  Zn  Zn29  1  0.164093  0.835907  0.980045  1
  Zn  Zn30  1  0.164093  0.328186  0.980045  1
  Zn  Zn31  1  0.671814  0.835907  0.980045  1
  Cu  Cu32  1  0.500112  0.499888  0.500371  1
  Cu  Cu33  1  0.500112  0.000224  0.500371  1
  Cu  Cu34  1  0.999776  0.499888  0.500371  1
  Cu  Cu35  1  0.500112  0.499888  0.999629  1
  Cu  Cu36  1  0.500112  0.000224  0.999629  1
  Cu  Cu37  1  0.999776  0.499888  0.999629  1
