# generated using pymatgen
data_CeBeAl2Si
_symmetry_space_group_name_H-M   'P 1'
_cell_length_a   4.05411622
_cell_length_b   4.05411610
_cell_length_c   5.97224563
_cell_angle_alpha   70.15888133
_cell_angle_beta   70.15887249
_cell_angle_gamma   89.99999339
_symmetry_Int_Tables_number   1
_chemical_formula_structural   CeBeAl2Si
_chemical_formula_sum   'Ce1 Be1 Al2 Si1'
_cell_volume   86.11163879
_cell_formula_units_Z   1
loop_
 _symmetry_equiv_pos_site_id
 _symmetry_equiv_pos_as_xyz
  1  'x, y, z'
loop_
 _atom_site_type_symbol
 _atom_site_label
 _atom_site_symmetry_multiplicity
 _atom_site_fract_x
 _atom_site_fract_y
 _atom_site_fract_z
 _atom_site_occupancy
  Ce  Ce0  1  0.995078  0.995078  0.009843  1
  Be  Be1  1  0.618823  0.618823  0.762355  1
  Al  Al2  1  0.741606  0.241606  0.516788  1
  Al  Al3  1  0.241606  0.741606  0.516788  1
  Si  Si4  1  0.402886  0.402886  0.194227  1
