# generated using pymatgen
data_DyHo7(B6Os)4
_symmetry_space_group_name_H-M   'P 1'
_cell_length_a   3.64309600
_cell_length_b   9.14064362
_cell_length_c   11.52115871
_cell_angle_alpha   89.98982292
_cell_angle_beta   90.00000000
_cell_angle_gamma   90.00000000
_symmetry_Int_Tables_number   1
_chemical_formula_structural   DyHo7(B6Os)4
_chemical_formula_sum   'Dy1 Ho7 B24 Os4'
_cell_volume   383.65736958
_cell_formula_units_Z   1
loop_
 _symmetry_equiv_pos_site_id
 _symmetry_equiv_pos_as_xyz
  1  'x, y, z'
loop_
 _atom_site_type_symbol
 _atom_site_label
 _atom_site_symmetry_multiplicity
 _atom_site_fract_x
 _atom_site_fract_y
 _atom_site_fract_z
 _atom_site_occupancy
  Dy  Dy0  1  0.000000  0.322491  0.413743  1
  Ho  Ho1  1  0.000000  0.677712  0.586362  1
  Ho  Ho2  1  0.000000  0.822367  0.086053  1
  Ho  Ho3  1  0.000000  0.177613  0.913846  1
  Ho  Ho4  1  0.000000  0.943989  0.373005  1
  Ho  Ho5  1  0.000000  0.055955  0.627134  1
  Ho  Ho6  1  0.000000  0.444048  0.126672  1
  Ho  Ho7  1  0.000000  0.555983  0.873318  1
  B  B8  1  0.500000  0.554004  0.433144  1
  B  B9  1  0.500000  0.446360  0.567076  1
  B  B10  1  0.500000  0.053528  0.066578  1
  B  B11  1  0.500000  0.946245  0.933245  1
  B  B12  1  0.500000  0.747888  0.420030  1
  B  B13  1  0.500000  0.252207  0.580282  1
  B  B14  1  0.500000  0.247552  0.079634  1
  B  B15  1  0.500000  0.752293  0.920208  1
  B  B16  1  0.500000  0.791409  0.266369  1
  B  B17  1  0.500000  0.208682  0.733715  1
  B  B18  1  0.500000  0.291026  0.233082  1
  B  B19  1  0.500000  0.708734  0.766785  1
  B  B20  1  0.500000  0.632286  0.185128  1
  B  B21  1  0.500000  0.367930  0.814788  1
  B  B22  1  0.500000  0.131816  0.314354  1
  B  B23  1  0.500000  0.867974  0.685578  1
  B  B24  1  0.500000  0.982911  0.212883  1
  B  B25  1  0.500000  0.016900  0.787097  1
  B  B26  1  0.500000  0.483333  0.286567  1
  B  B27  1  0.500000  0.517026  0.713341  1
  B  B28  1  0.500000  0.608954  0.030095  1
  B  B29  1  0.500000  0.391139  0.969828  1
  B  B30  1  0.500000  0.107823  0.470128  1
  B  B31  1  0.500000  0.891836  0.530089  1
  Os  Os32  1  0.000000  0.637827  0.321116  1
  Os  Os33  1  0.000000  0.362448  0.678857  1
  Os  Os34  1  0.000000  0.137299  0.178322  1
  Os  Os35  1  0.000000  0.862411  0.821549  1
