# generated using pymatgen
data_K4Al5(CuAu4)3
_symmetry_space_group_name_H-M   'P 1'
_cell_length_a   5.58279534
_cell_length_b   7.03478790
_cell_length_c   13.44221999
_cell_angle_alpha   90.11172429
_cell_angle_beta   89.70156649
_cell_angle_gamma   89.83511865
_symmetry_Int_Tables_number   1
_chemical_formula_structural   K4Al5(CuAu4)3
_chemical_formula_sum   'K4 Al5 Cu3 Au12'
_cell_volume   527.91643901
_cell_formula_units_Z   1
loop_
 _symmetry_equiv_pos_site_id
 _symmetry_equiv_pos_as_xyz
  1  'x, y, z'
loop_
 _atom_site_type_symbol
 _atom_site_label
 _atom_site_symmetry_multiplicity
 _atom_site_fract_x
 _atom_site_fract_y
 _atom_site_fract_z
 _atom_site_occupancy
  K  K0  1  0.254194  0.104256  0.078957  1
  K  K1  1  0.248315  0.391904  0.575430  1
  K  K2  1  0.748547  0.893747  0.922913  1
  K  K3  1  0.748845  0.608639  0.422953  1
  Al  Al4  1  0.997393  0.394813  0.847583  1
  Al  Al5  1  0.004115  0.103227  0.346255  1
  Al  Al6  1  0.495567  0.397615  0.844989  1
  Al  Al7  1  0.499834  0.895871  0.653888  1
  Al  Al8  1  0.998642  0.602711  0.153938  1
  Cu  Cu9  1  0.002625  0.896591  0.652172  1
  Cu  Cu10  1  0.501145  0.603420  0.151749  1
  Cu  Cu11  1  0.502779  0.105139  0.347956  1
  Au  Au12  1  0.250088  0.106950  0.791501  1
  Au  Au13  1  0.246969  0.394166  0.286039  1
  Au  Au14  1  0.753985  0.893335  0.214014  1
  Au  Au15  1  0.745517  0.606746  0.714063  1
  Au  Au16  1  0.242579  0.698162  0.786934  1
  Au  Au17  1  0.253169  0.802586  0.286053  1
  Au  Au18  1  0.749334  0.302095  0.213061  1
  Au  Au19  1  0.747788  0.199360  0.712221  1
  Au  Au20  1  0.239629  0.581050  0.991732  1
  Au  Au21  1  0.264409  0.918684  0.491173  1
  Au  Au22  1  0.741485  0.416128  0.005974  1
  Au  Au23  1  0.763051  0.082804  0.508453  1
