# generated using pymatgen
data_Cs13Hf2(In3As5)2
_symmetry_space_group_name_H-M   'P 1'
_cell_length_a   9.96327317
_cell_length_b   10.02771399
_cell_length_c   14.24277938
_cell_angle_alpha   82.21313985
_cell_angle_beta   79.06283076
_cell_angle_gamma   63.50182426
_symmetry_Int_Tables_number   1
_chemical_formula_structural   Cs13Hf2(In3As5)2
_chemical_formula_sum   'Cs13 Hf2 In6 As10'
_cell_volume   1248.26748873
_cell_formula_units_Z   1
loop_
 _symmetry_equiv_pos_site_id
 _symmetry_equiv_pos_as_xyz
  1  'x, y, z'
loop_
 _atom_site_type_symbol
 _atom_site_label
 _atom_site_symmetry_multiplicity
 _atom_site_fract_x
 _atom_site_fract_y
 _atom_site_fract_z
 _atom_site_occupancy
  Cs  Cs0  1  0.493844  0.866230  0.354068  1
  Cs  Cs1  1  0.506156  0.133770  0.645932  1
  Cs  Cs2  1  0.852746  0.586309  0.883148  1
  Cs  Cs3  1  0.147254  0.413691  0.116852  1
  Cs  Cs4  1  0.091399  0.786579  0.429046  1
  Cs  Cs5  1  0.908601  0.213421  0.570954  1
  Cs  Cs6  1  0.747761  0.683685  0.594393  1
  Cs  Cs7  1  0.252239  0.316315  0.405607  1
  Cs  Cs8  1  0.500000  0.500000  0.000000  1
  Cs  Cs9  1  0.318115  0.929176  0.088267  1
  Cs  Cs10  1  0.681885  0.070824  0.911733  1
  Cs  Cs11  1  0.891962  0.855391  0.164525  1
  Cs  Cs12  1  0.108038  0.144609  0.835475  1
  Hf  Hf13  1  0.377303  0.738133  0.774014  1
  Hf  Hf14  1  0.622697  0.261867  0.225986  1
  In  In15  1  0.036160  0.804324  0.707515  1
  In  In16  1  0.963840  0.195676  0.292485  1
  In  In17  1  0.596843  0.445511  0.410068  1
  In  In18  1  0.403157  0.554489  0.589932  1
  In  In19  1  0.723662  0.554722  0.173606  1
  In  In20  1  0.276338  0.445278  0.826394  1
  As  As21  1  0.438147  0.548442  0.255044  1
  As  As22  1  0.561853  0.451558  0.744956  1
  As  As23  1  0.133166  0.743653  0.890932  1
  As  As24  1  0.866834  0.256347  0.109068  1
  As  As25  1  0.711395  0.137129  0.392815  1
  As  As26  1  0.288605  0.862871  0.607185  1
  As  As27  1  0.850607  0.500889  0.351818  1
  As  As28  1  0.149393  0.499111  0.648182  1
  As  As29  1  0.500331  0.867164  0.841469  1
  As  As30  1  0.499669  0.132836  0.158531  1
