# generated using pymatgen
data_Er6Co2Ni15P12Ru
_symmetry_space_group_name_H-M   'P 1'
_cell_length_a   3.74750800
_cell_length_b   10.48781900
_cell_length_c   12.28519600
_cell_angle_alpha   90.00000000
_cell_angle_beta   90.00000000
_cell_angle_gamma   90.00000000
_symmetry_Int_Tables_number   1
_chemical_formula_structural   Er6Co2Ni15P12Ru
_chemical_formula_sum   'Er6 Co2 Ni15 P12 Ru1'
_cell_volume   482.84733858
_cell_formula_units_Z   1
loop_
 _symmetry_equiv_pos_site_id
 _symmetry_equiv_pos_as_xyz
  1  'x, y, z'
loop_
 _atom_site_type_symbol
 _atom_site_label
 _atom_site_symmetry_multiplicity
 _atom_site_fract_x
 _atom_site_fract_y
 _atom_site_fract_z
 _atom_site_occupancy
  Er  Er0  1  0.750000  0.250000  0.475452  1
  Er  Er1  1  0.250000  0.750000  0.521396  1
  Er  Er2  1  0.250000  0.933566  0.793419  1
  Er  Er3  1  0.250000  0.566434  0.793419  1
  Er  Er4  1  0.750000  0.065604  0.207434  1
  Er  Er5  1  0.750000  0.434396  0.207434  1
  Co  Co6  1  0.750000  0.250000  0.015840  1
  Co  Co7  1  0.250000  0.750000  0.984518  1
  Ni  Ni8  1  0.750000  0.750000  0.159157  1
  Ni  Ni9  1  0.250000  0.250000  0.297224  1
  Ni  Ni10  1  0.750000  0.750000  0.701881  1
  Ni  Ni11  1  0.250000  0.420246  0.010095  1
  Ni  Ni12  1  0.250000  0.079754  0.010095  1
  Ni  Ni13  1  0.750000  0.583452  0.993618  1
  Ni  Ni14  1  0.750000  0.916548  0.993618  1
  Ni  Ni15  1  0.250000  0.447954  0.569920  1
  Ni  Ni16  1  0.250000  0.052046  0.569920  1
  Ni  Ni17  1  0.750000  0.551405  0.429444  1
  Ni  Ni18  1  0.750000  0.948595  0.429444  1
  Ni  Ni19  1  0.250000  0.871017  0.289054  1
  Ni  Ni20  1  0.250000  0.628983  0.289054  1
  Ni  Ni21  1  0.750000  0.128648  0.709602  1
  Ni  Ni22  1  0.750000  0.371352  0.709602  1
  P  P23  1  0.250000  0.250000  0.120065  1
  P  P24  1  0.750000  0.750000  0.878581  1
  P  P25  1  0.250000  0.250000  0.650920  1
  P  P26  1  0.750000  0.750000  0.345955  1
  P  P27  1  0.250000  0.436016  0.384464  1
  P  P28  1  0.250000  0.063984  0.384464  1
  P  P29  1  0.750000  0.565100  0.614971  1
  P  P30  1  0.750000  0.934900  0.614971  1
  P  P31  1  0.250000  0.898871  0.107950  1
  P  P32  1  0.250000  0.601129  0.107950  1
  P  P33  1  0.750000  0.098890  0.892674  1
  P  P34  1  0.750000  0.401110  0.892674  1
  Ru  Ru35  1  0.250000  0.250000  0.843722  1
