# generated using pymatgen
data_Li8La8GeSb7
_symmetry_space_group_name_H-M   'P 1'
_cell_length_a   9.57121900
_cell_length_b   9.57121979
_cell_length_c   7.73479900
_cell_angle_alpha   90.00000000
_cell_angle_beta   90.00000000
_cell_angle_gamma   119.99999381
_symmetry_Int_Tables_number   1
_chemical_formula_structural   Li8La8GeSb7
_chemical_formula_sum   'Li8 La8 Ge1 Sb7'
_cell_volume   613.64080922
_cell_formula_units_Z   1
loop_
 _symmetry_equiv_pos_site_id
 _symmetry_equiv_pos_as_xyz
  1  'x, y, z'
loop_
 _atom_site_type_symbol
 _atom_site_label
 _atom_site_symmetry_multiplicity
 _atom_site_fract_x
 _atom_site_fract_y
 _atom_site_fract_z
 _atom_site_occupancy
  Li  Li0  1  0.167552  0.335104  0.267946  1
  Li  Li1  1  0.167552  0.832448  0.267946  1
  Li  Li2  1  0.664896  0.832448  0.267946  1
  Li  Li3  1  0.830048  0.660097  0.768609  1
  Li  Li4  1  0.830048  0.169952  0.768609  1
  Li  Li5  1  0.339903  0.169952  0.768609  1
  Li  Li6  1  0.333333  0.666667  0.692733  1
  Li  Li7  1  0.666667  0.333333  0.193965  1
  La  La8  1  0.511390  0.022782  0.499973  1
  La  La9  1  0.511390  0.488610  0.499973  1
  La  La10  1  0.977218  0.488610  0.499973  1
  La  La11  1  0.496396  0.992790  0.993007  1
  La  La12  1  0.496396  0.503604  0.993007  1
  La  La13  1  0.007210  0.503604  0.993007  1
  La  La14  1  0.000000  0.000000  0.500613  1
  La  La15  1  0.000000  0.000000  0.000178  1
  Ge  Ge16  1  0.666667  0.333333  0.758914  1
  Sb  Sb17  1  0.166626  0.333253  0.741257  1
  Sb  Sb18  1  0.166626  0.833374  0.741257  1
  Sb  Sb19  1  0.666747  0.833374  0.741257  1
  Sb  Sb20  1  0.833696  0.667393  0.241025  1
  Sb  Sb21  1  0.833696  0.166304  0.241025  1
  Sb  Sb22  1  0.332607  0.166304  0.241025  1
  Sb  Sb23  1  0.333333  0.666667  0.260122  1
