# generated using pymatgen
data_Nd12Al2I17
_symmetry_space_group_name_H-M   'P 1'
_cell_length_a   10.01313995
_cell_length_b   11.94769589
_cell_length_c   11.76996182
_cell_angle_alpha   94.19321047
_cell_angle_beta   104.72149102
_cell_angle_gamma   115.17173782
_symmetry_Int_Tables_number   1
_chemical_formula_structural   Nd12Al2I17
_chemical_formula_sum   'Nd12 Al2 I17'
_cell_volume   1205.83688486
_cell_formula_units_Z   1
loop_
 _symmetry_equiv_pos_site_id
 _symmetry_equiv_pos_as_xyz
  1  'x, y, z'
loop_
 _atom_site_type_symbol
 _atom_site_label
 _atom_site_symmetry_multiplicity
 _atom_site_fract_x
 _atom_site_fract_y
 _atom_site_fract_z
 _atom_site_occupancy
  Nd  Nd0  1  0.064855  0.527908  0.333526  1
  Nd  Nd1  1  0.991202  0.813506  0.573612  1
  Nd  Nd2  1  0.626059  0.237918  0.282122  1
  Nd  Nd3  1  0.008798  0.186494  0.426388  1
  Nd  Nd4  1  0.225493  0.662123  0.008789  1
  Nd  Nd5  1  0.283580  0.003210  0.912546  1
  Nd  Nd6  1  0.373941  0.762082  0.717878  1
  Nd  Nd7  1  0.935145  0.472092  0.666474  1
  Nd  Nd8  1  0.716420  0.996790  0.087454  1
  Nd  Nd9  1  0.161729  0.290892  0.143078  1
  Nd  Nd10  1  0.774507  0.337877  0.991211  1
  Nd  Nd11  1  0.838271  0.709108  0.856922  1
  Al  Al12  1  0.108131  0.736906  0.789773  1
  Al  Al13  1  0.891869  0.263094  0.210227  1
  I  I14  1  0.775985  0.528559  0.415449  1
  I  I15  1  0.630219  0.416360  0.739872  1
  I  I16  1  0.839291  0.893029  0.317824  1
  I  I17  1  0.320149  0.211565  0.369312  1
  I  I18  1  0.160709  0.106971  0.682176  1
  I  I19  1  0.586017  0.057543  0.827953  1
  I  I20  1  0.737105  0.166050  0.533496  1
  I  I21  1  0.535654  0.685055  0.953601  1
  I  I22  1  0.369781  0.583640  0.260128  1
  I  I23  1  0.224015  0.471441  0.584551  1
  I  I24  1  0.058029  0.363285  0.889089  1
  I  I25  1  0.464346  0.314945  0.046399  1
  I  I26  1  0.000000  0.000000  0.000000  1
  I  I27  1  0.262895  0.833950  0.466504  1
  I  I28  1  0.413983  0.942457  0.172047  1
  I  I29  1  0.679851  0.788435  0.630688  1
  I  I30  1  0.941971  0.636715  0.110911  1
