# generated using pymatgen
data_MoPb3BrClO5
_symmetry_space_group_name_H-M   'P 1'
_cell_length_a   5.70322600
_cell_length_b   7.32919474
_cell_length_c   11.32730700
_cell_angle_alpha   90.00000000
_cell_angle_beta   90.00000000
_cell_angle_gamma   112.89701107
_symmetry_Int_Tables_number   1
_chemical_formula_structural   MoPb3BrClO5
_chemical_formula_sum   'Mo2 Pb6 Br2 Cl2 O10'
_cell_volume   436.17435992
_cell_formula_units_Z   2
loop_
 _symmetry_equiv_pos_site_id
 _symmetry_equiv_pos_as_xyz
  1  'x, y, z'
loop_
 _atom_site_type_symbol
 _atom_site_label
 _atom_site_symmetry_multiplicity
 _atom_site_fract_x
 _atom_site_fract_y
 _atom_site_fract_z
 _atom_site_occupancy
  Mo  Mo0  1  0.765604  0.531205  0.250000  1
  Mo  Mo1  1  0.234397  0.468795  0.750000  1
  Pb  Pb2  1  0.345107  0.690213  0.030693  1
  Pb  Pb3  1  0.104833  0.209667  0.250000  1
  Pb  Pb4  1  0.345107  0.690213  0.469307  1
  Pb  Pb5  1  0.654894  0.309787  0.530693  1
  Pb  Pb6  1  0.895168  0.790333  0.750000  1
  Pb  Pb7  1  0.654894  0.309787  0.969307  1
  Br  Br8  1  0.000000  0.000000  0.000000  1
  Br  Br9  1  0.000000  0.000000  0.500000  1
  Cl  Cl10  1  0.521098  0.042194  0.250000  1
  Cl  Cl11  1  0.478903  0.957806  0.750000  1
  O  O12  1  0.496937  0.459335  0.131478  1
  O  O13  1  0.962398  0.459335  0.131478  1
  O  O14  1  0.893144  0.786288  0.250000  1
  O  O15  1  0.496937  0.459335  0.368522  1
  O  O16  1  0.962398  0.459335  0.368522  1
  O  O17  1  0.037603  0.540665  0.631478  1
  O  O18  1  0.503062  0.540665  0.631478  1
  O  O19  1  0.106856  0.213712  0.750000  1
  O  O20  1  0.037603  0.540665  0.868522  1
  O  O21  1  0.503062  0.540665  0.868522  1
