# generated using pymatgen
data_Ho5Er11(In3Os)2
_symmetry_space_group_name_H-M   'P 1'
_cell_length_a   10.32091916
_cell_length_b   10.32102679
_cell_length_c   7.06077103
_cell_angle_alpha   90.01118483
_cell_angle_beta   89.98864686
_cell_angle_gamma   120.01126774
_symmetry_Int_Tables_number   1
_chemical_formula_structural   Ho5Er11(In3Os)2
_chemical_formula_sum   'Ho5 Er11 In6 Os2'
_cell_volume   651.29044835
_cell_formula_units_Z   1
loop_
 _symmetry_equiv_pos_site_id
 _symmetry_equiv_pos_as_xyz
  1  'x, y, z'
loop_
 _atom_site_type_symbol
 _atom_site_label
 _atom_site_symmetry_multiplicity
 _atom_site_fract_x
 _atom_site_fract_y
 _atom_site_fract_z
 _atom_site_occupancy
  Ho  Ho0  1  0.533223  0.066427  0.793447  1
  Ho  Ho1  1  0.933573  0.466787  0.793470  1
  Ho  Ho2  1  0.533095  0.466908  0.793540  1
  Ho  Ho3  1  0.466761  0.933425  0.293479  1
  Ho  Ho4  1  0.066566  0.533242  0.293459  1
  Er  Er5  1  0.466603  0.533399  0.293613  1
  Er  Er6  1  0.822569  0.645432  0.498334  1
  Er  Er7  1  0.354587  0.177436  0.498325  1
  Er  Er8  1  0.822826  0.177176  0.498488  1
  Er  Er9  1  0.177404  0.354587  0.998670  1
  Er  Er10  1  0.645414  0.822600  0.998701  1
  Er  Er11  1  0.177221  0.822795  0.998535  1
  Er  Er12  1  0.666509  0.333465  0.173222  1
  Er  Er13  1  0.333456  0.666524  0.673159  1
  Er  Er14  1  0.999973  0.000006  0.777993  1
  Er  Er15  1  0.000006  0.000001  0.278002  1
  In  In16  1  0.836921  0.673888  0.040204  1
  In  In17  1  0.326093  0.163076  0.040142  1
  In  In18  1  0.836941  0.163058  0.040272  1
  In  In19  1  0.163242  0.326211  0.540158  1
  In  In20  1  0.673790  0.836769  0.540168  1
  In  In21  1  0.163037  0.836962  0.540197  1
  Os  Os22  1  0.666689  0.333329  0.570090  1
  Os  Os23  1  0.333500  0.666497  0.070239  1
