# generated using pymatgen
data_CeDy(USe2)6
_symmetry_space_group_name_H-M   'P 1'
_cell_length_a   4.02879900
_cell_length_b   11.01818432
_cell_length_c   11.22621252
_cell_angle_alpha   90.25699387
_cell_angle_beta   90.00000000
_cell_angle_gamma   90.00000000
_symmetry_Int_Tables_number   1
_chemical_formula_structural   CeDy(USe2)6
_chemical_formula_sum   'Ce1 Dy1 U6 Se12'
_cell_volume   498.32712176
_cell_formula_units_Z   1
loop_
 _symmetry_equiv_pos_site_id
 _symmetry_equiv_pos_as_xyz
  1  'x, y, z'
loop_
 _atom_site_type_symbol
 _atom_site_label
 _atom_site_symmetry_multiplicity
 _atom_site_fract_x
 _atom_site_fract_y
 _atom_site_fract_z
 _atom_site_occupancy
  Ce  Ce0  1  0.750000  0.815970  0.484867  1
  Dy  Dy1  1  0.750000  0.488206  0.308916  1
  U  U2  1  0.250000  0.998022  0.190044  1
  U  U3  1  0.750000  0.006571  0.809900  1
  U  U4  1  0.250000  0.315998  0.010028  1
  U  U5  1  0.750000  0.681978  0.987914  1
  U  U6  1  0.250000  0.505679  0.694769  1
  U  U7  1  0.250000  0.184641  0.512611  1
  Se  Se8  1  0.250000  0.554994  0.126991  1
  Se  Se9  1  0.750000  0.371584  0.550362  1
  Se  Se10  1  0.250000  0.620737  0.450331  1
  Se  Se11  1  0.250000  0.295955  0.272054  1
  Se  Se12  1  0.250000  0.204906  0.774099  1
  Se  Se13  1  0.750000  0.129984  0.048906  1
  Se  Se14  1  0.750000  0.702396  0.728349  1
  Se  Se15  1  0.250000  0.870483  0.950590  1
  Se  Se16  1  0.750000  0.801957  0.221639  1
  Se  Se17  1  0.750000  0.059443  0.374768  1
  Se  Se18  1  0.750000  0.443252  0.876345  1
  Se  Se19  1  0.250000  0.947246  0.626516  1
