# generated using pymatgen
data_LaCuTeO6
_symmetry_space_group_name_H-M   'P 1'
_cell_length_a   5.21216900
_cell_length_b   5.21222519
_cell_length_c   10.45616500
_cell_angle_alpha   90.00002939
_cell_angle_beta   90.00003271
_cell_angle_gamma   120.00049310
_symmetry_Int_Tables_number   1
_chemical_formula_structural   LaCuTeO6
_chemical_formula_sum   'La2 Cu2 Te2 O12'
_cell_volume   246.00422257
_cell_formula_units_Z   2
loop_
 _symmetry_equiv_pos_site_id
 _symmetry_equiv_pos_as_xyz
  1  'x, y, z'
loop_
 _atom_site_type_symbol
 _atom_site_label
 _atom_site_symmetry_multiplicity
 _atom_site_fract_x
 _atom_site_fract_y
 _atom_site_fract_z
 _atom_site_occupancy
  La  La0  1  0.000000  0.000000  0.000000  1
  La  La1  1  0.000001  0.000000  0.500000  1
  Cu  Cu2  1  0.333336  0.666666  0.250000  1
  Cu  Cu3  1  0.666664  0.333333  0.750000  1
  Te  Te4  1  0.666667  0.333334  0.250000  1
  Te  Te5  1  0.333333  0.666667  0.750000  1
  O  O6  1  0.633819  0.623334  0.144174  1
  O  O7  1  0.989518  0.366181  0.144177  1
  O  O8  1  0.376663  0.010483  0.144176  1
  O  O9  1  0.989518  0.623339  0.355824  1
  O  O10  1  0.376666  0.366182  0.355825  1
  O  O11  1  0.633818  0.010485  0.355826  1
  O  O12  1  0.366183  0.989516  0.644175  1
  O  O13  1  0.623335  0.633818  0.644175  1
  O  O14  1  0.010483  0.376662  0.644176  1
  O  O15  1  0.623337  0.989518  0.855825  1
  O  O16  1  0.010483  0.633820  0.855824  1
  O  O17  1  0.366182  0.376667  0.855825  1
