# generated using pymatgen
data_LiEr6Th2MgCo2
_symmetry_space_group_name_H-M   'P 1'
_cell_length_a   9.54044065
_cell_length_b   9.54044216
_cell_length_c   9.54648800
_cell_angle_alpha   59.97904189
_cell_angle_beta   59.97903664
_cell_angle_gamma   60.07906259
_symmetry_Int_Tables_number   1
_chemical_formula_structural   LiEr6Th2MgCo2
_chemical_formula_sum   'Li2 Er12 Th4 Mg2 Co4'
_cell_volume   614.59152189
_cell_formula_units_Z   2
loop_
 _symmetry_equiv_pos_site_id
 _symmetry_equiv_pos_as_xyz
  1  'x, y, z'
loop_
 _atom_site_type_symbol
 _atom_site_label
 _atom_site_symmetry_multiplicity
 _atom_site_fract_x
 _atom_site_fract_y
 _atom_site_fract_z
 _atom_site_occupancy
  Li  Li0  1  0.830152  0.830152  0.830155  1
  Li  Li1  1  0.830152  0.830152  0.509542  1
  Er  Er2  1  0.064269  0.435413  0.436076  1
  Er  Er3  1  0.435413  0.064269  0.064242  1
  Er  Er4  1  0.435413  0.064269  0.436076  1
  Er  Er5  1  0.064269  0.435413  0.064242  1
  Er  Er6  1  0.436130  0.436130  0.063870  1
  Er  Er7  1  0.065000  0.065000  0.435000  1
  Er  Er8  1  0.184163  0.815339  0.815432  1
  Er  Er9  1  0.815339  0.184163  0.185066  1
  Er  Er10  1  0.815339  0.184163  0.815432  1
  Er  Er11  1  0.184163  0.815339  0.185066  1
  Er  Er12  1  0.815419  0.815419  0.184581  1
  Er  Er13  1  0.184638  0.184638  0.815362  1
  Th  Th14  1  0.595132  0.595132  0.595044  1
  Th  Th15  1  0.595132  0.595132  0.214693  1
  Th  Th16  1  0.594945  0.214937  0.595060  1
  Th  Th17  1  0.214937  0.594945  0.595060  1
  Mg  Mg18  1  0.830863  0.509111  0.830014  1
  Mg  Mg19  1  0.509111  0.830863  0.830014  1
  Co  Co20  1  0.394582  0.394582  0.394389  1
  Co  Co21  1  0.394582  0.394582  0.816447  1
  Co  Co22  1  0.394459  0.816403  0.394569  1
  Co  Co23  1  0.816403  0.394459  0.394569  1
