# generated using pymatgen
data_Ho20Cd3Ag3Ru2
_symmetry_space_group_name_H-M   'P 1'
_cell_length_a   9.55364300
_cell_length_b   9.55364279
_cell_length_c   9.63672700
_cell_angle_alpha   90.00000000
_cell_angle_beta   90.00000000
_cell_angle_gamma   120.00000421
_symmetry_Int_Tables_number   1
_chemical_formula_structural   Ho20Cd3Ag3Ru2
_chemical_formula_sum   'Ho20 Cd3 Ag3 Ru2'
_cell_volume   761.72494237
_cell_formula_units_Z   1
loop_
 _symmetry_equiv_pos_site_id
 _symmetry_equiv_pos_as_xyz
  1  'x, y, z'
loop_
 _atom_site_type_symbol
 _atom_site_label
 _atom_site_symmetry_multiplicity
 _atom_site_fract_x
 _atom_site_fract_y
 _atom_site_fract_z
 _atom_site_occupancy
  Ho  Ho0  1  0.000000  0.000000  0.477843  1
  Ho  Ho1  1  0.000000  0.000000  0.022157  1
  Ho  Ho2  1  0.210160  0.789840  0.441294  1
  Ho  Ho3  1  0.210160  0.420322  0.441294  1
  Ho  Ho4  1  0.579678  0.789840  0.441294  1
  Ho  Ho5  1  0.790891  0.209109  0.559242  1
  Ho  Ho6  1  0.790891  0.581782  0.559242  1
  Ho  Ho7  1  0.418218  0.209109  0.559242  1
  Ho  Ho8  1  0.790891  0.209109  0.940758  1
  Ho  Ho9  1  0.790891  0.581782  0.940758  1
  Ho  Ho10  1  0.418218  0.209109  0.940758  1
  Ho  Ho11  1  0.210160  0.789840  0.058706  1
  Ho  Ho12  1  0.210160  0.420322  0.058706  1
  Ho  Ho13  1  0.579678  0.789840  0.058706  1
  Ho  Ho14  1  0.540953  0.459047  0.250000  1
  Ho  Ho15  1  0.540953  0.081906  0.250000  1
  Ho  Ho16  1  0.918094  0.459047  0.250000  1
  Ho  Ho17  1  0.458927  0.541073  0.750000  1
  Ho  Ho18  1  0.458927  0.917852  0.750000  1
  Ho  Ho19  1  0.082148  0.541073  0.750000  1
  Cd  Cd20  1  0.111345  0.888655  0.750000  1
  Cd  Cd21  1  0.111345  0.222688  0.750000  1
  Cd  Cd22  1  0.777312  0.888655  0.750000  1
  Ag  Ag23  1  0.876635  0.123365  0.250000  1
  Ag  Ag24  1  0.876635  0.753273  0.250000  1
  Ag  Ag25  1  0.246727  0.123365  0.250000  1
  Ru  Ru26  1  0.333333  0.666667  0.250000  1
  Ru  Ru27  1  0.666667  0.333333  0.750000  1
