# generated using pymatgen
data_Dy4Er12Cd4NiRu3
_symmetry_space_group_name_H-M   'P 1'
_cell_length_a   9.53903547
_cell_length_b   9.59086632
_cell_length_c   9.59086577
_cell_angle_alpha   59.55569216
_cell_angle_beta   59.36869507
_cell_angle_gamma   59.36870332
_symmetry_Int_Tables_number   1
_chemical_formula_structural   Dy4Er12Cd4NiRu3
_chemical_formula_sum   'Dy4 Er12 Cd4 Ni1 Ru3'
_cell_volume   612.41129906
_cell_formula_units_Z   1
loop_
 _symmetry_equiv_pos_site_id
 _symmetry_equiv_pos_as_xyz
  1  'x, y, z'
loop_
 _atom_site_type_symbol
 _atom_site_label
 _atom_site_symmetry_multiplicity
 _atom_site_fract_x
 _atom_site_fract_y
 _atom_site_fract_z
 _atom_site_occupancy
  Dy  Dy0  1  0.808147  0.187325  0.817033  1
  Dy  Dy1  1  0.190175  0.808988  0.188959  1
  Dy  Dy2  1  0.808147  0.817033  0.187325  1
  Dy  Dy3  1  0.190175  0.188959  0.808988  1
  Er  Er4  1  0.601382  0.596862  0.596862  1
  Er  Er5  1  0.600746  0.596177  0.210821  1
  Er  Er6  1  0.600746  0.210821  0.596177  1
  Er  Er7  1  0.209212  0.596765  0.596765  1
  Er  Er8  1  0.061500  0.437138  0.437138  1
  Er  Er9  1  0.433543  0.062086  0.062086  1
  Er  Er10  1  0.437995  0.061041  0.438204  1
  Er  Er11  1  0.059369  0.438673  0.061043  1
  Er  Er12  1  0.437995  0.438204  0.061041  1
  Er  Er13  1  0.059369  0.061043  0.438673  1
  Er  Er14  1  0.190417  0.808453  0.808453  1
  Er  Er15  1  0.808479  0.187550  0.187550  1
  Cd  Cd16  1  0.828615  0.830644  0.830644  1
  Cd  Cd17  1  0.829955  0.831088  0.507215  1
  Cd  Cd18  1  0.829955  0.507215  0.831088  1
  Cd  Cd19  1  0.507833  0.830063  0.830063  1
  Ni  Ni20  1  0.828036  0.392880  0.392880  1
  Ru  Ru21  1  0.393161  0.389346  0.389346  1
  Ru  Ru22  1  0.392523  0.393441  0.828201  1
  Ru  Ru23  1  0.392523  0.828201  0.393441  1
