# generated using pymatgen
data_Pr4Al11Ga13Rh2
_symmetry_space_group_name_H-M   'P 1'
_cell_length_a   6.04978647
_cell_length_b   6.04978647
_cell_length_c   15.90808791
_cell_angle_alpha   90.14835512
_cell_angle_beta   90.14835512
_cell_angle_gamma   89.96679168
_symmetry_Int_Tables_number   1
_chemical_formula_structural   Pr4Al11Ga13Rh2
_chemical_formula_sum   'Pr4 Al11 Ga13 Rh2'
_cell_volume   582.23068648
_cell_formula_units_Z   1
loop_
 _symmetry_equiv_pos_site_id
 _symmetry_equiv_pos_as_xyz
  1  'x, y, z'
loop_
 _atom_site_type_symbol
 _atom_site_label
 _atom_site_symmetry_multiplicity
 _atom_site_fract_x
 _atom_site_fract_y
 _atom_site_fract_z
 _atom_site_occupancy
  Pr  Pr0  1  0.751805  0.251805  0.247161  1
  Pr  Pr1  1  0.250961  0.750961  0.246713  1
  Pr  Pr2  1  0.249040  0.749040  0.752452  1
  Pr  Pr3  1  0.749328  0.249328  0.752391  1
  Al  Al4  1  0.499733  0.999733  0.914368  1
  Al  Al5  1  0.000213  0.000284  0.914337  1
  Al  Al6  1  0.500284  0.500213  0.914337  1
  Al  Al7  1  0.999723  0.499723  0.914389  1
  Al  Al8  1  0.500436  0.000436  0.085334  1
  Al  Al9  1  0.999773  0.000110  0.085375  1
  Al  Al10  1  0.500110  0.499773  0.085375  1
  Al  Al11  1  0.000540  0.500540  0.085360  1
  Al  Al12  1  0.581915  0.081915  0.433424  1
  Al  Al13  1  0.083035  0.918969  0.432711  1
  Al  Al14  1  0.418969  0.583035  0.432711  1
  Ga  Ga15  1  0.250525  0.250233  0.187858  1
  Ga  Ga16  1  0.750233  0.750525  0.187858  1
  Ga  Ga17  1  0.749703  0.749606  0.812358  1
  Ga  Ga18  1  0.249606  0.249703  0.812358  1
  Ga  Ga19  1  0.252512  0.249640  0.343735  1
  Ga  Ga20  1  0.749640  0.752512  0.343735  1
  Ga  Ga21  1  0.749710  0.747769  0.656093  1
  Ga  Ga22  1  0.247769  0.249710  0.656093  1
  Ga  Ga23  1  0.919201  0.419201  0.431100  1
  Ga  Ga24  1  0.417308  0.917308  0.568507  1
  Ga  Ga25  1  0.916045  0.079519  0.568336  1
  Ga  Ga26  1  0.579519  0.416045  0.568336  1
  Ga  Ga27  1  0.082077  0.582077  0.567281  1
  Rh  Rh28  1  0.750056  0.250056  0.999946  1
  Rh  Rh29  1  0.250228  0.750228  0.999968  1
