# generated using pymatgen
data_Dy8Re2TcB24Ru
_symmetry_space_group_name_H-M   'P 1'
_cell_length_a   3.68212300
_cell_length_b   9.16799744
_cell_length_c   11.55451913
_cell_angle_alpha   89.91794120
_cell_angle_beta   90.00000000
_cell_angle_gamma   90.00000000
_symmetry_Int_Tables_number   1
_chemical_formula_structural   Dy8Re2TcB24Ru
_chemical_formula_sum   'Dy8 Re2 Tc1 B24 Ru1'
_cell_volume   390.05352373
_cell_formula_units_Z   1
loop_
 _symmetry_equiv_pos_site_id
 _symmetry_equiv_pos_as_xyz
  1  'x, y, z'
loop_
 _atom_site_type_symbol
 _atom_site_label
 _atom_site_symmetry_multiplicity
 _atom_site_fract_x
 _atom_site_fract_y
 _atom_site_fract_z
 _atom_site_occupancy
  Dy  Dy0  1  0.000000  0.323838  0.413608  1
  Dy  Dy1  1  0.000000  0.674796  0.584283  1
  Dy  Dy2  1  0.000000  0.823459  0.087642  1
  Dy  Dy3  1  0.000000  0.177888  0.914002  1
  Dy  Dy4  1  0.000000  0.942151  0.370823  1
  Dy  Dy5  1  0.000000  0.056555  0.630493  1
  Dy  Dy6  1  0.000000  0.444208  0.129945  1
  Dy  Dy7  1  0.000000  0.558299  0.869799  1
  Re  Re8  1  0.000000  0.361652  0.679644  1
  Re  Re9  1  0.000000  0.137825  0.178051  1
  Tc  Tc10  1  0.000000  0.638701  0.320491  1
  B  B11  1  0.500000  0.553085  0.432505  1
  B  B12  1  0.500000  0.446868  0.566702  1
  B  B13  1  0.500000  0.052850  0.066812  1
  B  B14  1  0.500000  0.946083  0.932575  1
  B  B15  1  0.500000  0.747888  0.418797  1
  B  B16  1  0.500000  0.250916  0.581205  1
  B  B17  1  0.500000  0.249132  0.081061  1
  B  B18  1  0.500000  0.751978  0.918576  1
  B  B19  1  0.500000  0.791689  0.266011  1
  B  B20  1  0.500000  0.208315  0.734692  1
  B  B21  1  0.500000  0.291855  0.234201  1
  B  B22  1  0.500000  0.709298  0.765696  1
  B  B23  1  0.500000  0.631769  0.185874  1
  B  B24  1  0.500000  0.368944  0.814679  1
  B  B25  1  0.500000  0.130723  0.313859  1
  B  B26  1  0.500000  0.868090  0.686064  1
  B  B27  1  0.500000  0.982034  0.212013  1
  B  B28  1  0.500000  0.015982  0.788226  1
  B  B29  1  0.500000  0.482994  0.287779  1
  B  B30  1  0.500000  0.517364  0.711769  1
  B  B31  1  0.500000  0.603334  0.028446  1
  B  B32  1  0.500000  0.399130  0.971427  1
  B  B33  1  0.500000  0.101847  0.471882  1
  B  B34  1  0.500000  0.896928  0.529175  1
  Ru  Ru35  1  0.000000  0.861532  0.821193  1
