# generated using pymatgen
data_Sc8V9Re3Si16
_symmetry_space_group_name_H-M   'P 1'
_cell_length_a   6.62399065
_cell_length_b   6.62399065
_cell_length_c   12.27637142
_cell_angle_alpha   90.02130667
_cell_angle_beta   90.02130667
_cell_angle_gamma   89.85191448
_symmetry_Int_Tables_number   1
_chemical_formula_structural   Sc8V9Re3Si16
_chemical_formula_sum   'Sc8 V9 Re3 Si16'
_cell_volume   538.65157004
_cell_formula_units_Z   1
loop_
 _symmetry_equiv_pos_site_id
 _symmetry_equiv_pos_as_xyz
  1  'x, y, z'
loop_
 _atom_site_type_symbol
 _atom_site_label
 _atom_site_symmetry_multiplicity
 _atom_site_fract_x
 _atom_site_fract_y
 _atom_site_fract_z
 _atom_site_occupancy
  Sc  Sc0  1  0.001609  0.663197  0.029060  1
  Sc  Sc1  1  0.498926  0.164493  0.220576  1
  Sc  Sc2  1  0.835506  0.501074  0.279424  1
  Sc  Sc3  1  0.336803  0.998391  0.470940  1
  Sc  Sc4  1  0.999297  0.336573  0.529158  1
  Sc  Sc5  1  0.501826  0.835667  0.720333  1
  Sc  Sc6  1  0.164332  0.498174  0.779667  1
  Sc  Sc7  1  0.663427  0.000703  0.970841  1
  V  V8  1  0.499363  0.659080  0.123911  1
  V  V9  1  0.001181  0.159969  0.126185  1
  V  V10  1  0.840031  0.998819  0.373815  1
  V  V11  1  0.340920  0.500637  0.376089  1
  V  V12  1  0.504701  0.339768  0.625189  1
  V  V13  1  0.997587  0.845115  0.626674  1
  V  V14  1  0.832560  0.167440  0.750000  1
  V  V15  1  0.154885  0.002413  0.873326  1
  V  V16  1  0.660232  0.495299  0.874811  1
  Re  Re17  1  0.332046  0.333832  0.001063  1
  Re  Re18  1  0.167302  0.832698  0.250000  1
  Re  Re19  1  0.666168  0.667954  0.498937  1
  Si  Si20  1  0.292889  0.961468  0.064250  1
  Si  Si21  1  0.705649  0.372535  0.069862  1
  Si  Si22  1  0.795651  0.872630  0.179615  1
  Si  Si23  1  0.206029  0.461608  0.185559  1
  Si  Si24  1  0.538392  0.793971  0.314441  1
  Si  Si25  1  0.127370  0.204349  0.320385  1
  Si  Si26  1  0.627465  0.294352  0.430138  1
  Si  Si27  1  0.038532  0.707111  0.435750  1
  Si  Si28  1  0.707481  0.039385  0.565534  1
  Si  Si29  1  0.296182  0.627376  0.570874  1
  Si  Si30  1  0.204623  0.129673  0.680605  1
  Si  Si31  1  0.795873  0.538403  0.684654  1
  Si  Si32  1  0.461597  0.204127  0.815346  1
  Si  Si33  1  0.870327  0.795377  0.819395  1
  Si  Si34  1  0.372624  0.703819  0.929126  1
  Si  Si35  1  0.960615  0.292519  0.934466  1
