# generated using pymatgen
data_Be7Co4SiIr4
_symmetry_space_group_name_H-M   'P 1'
_cell_length_a   5.46071202
_cell_length_b   3.85882400
_cell_length_c   7.71160003
_cell_angle_alpha   90.00002228
_cell_angle_beta   90.01049163
_cell_angle_gamma   89.99997466
_symmetry_Int_Tables_number   1
_chemical_formula_structural   Be7Co4SiIr4
_chemical_formula_sum   'Be7 Co4 Si1 Ir4'
_cell_volume   162.49826721
_cell_formula_units_Z   1
loop_
 _symmetry_equiv_pos_site_id
 _symmetry_equiv_pos_as_xyz
  1  'x, y, z'
loop_
 _atom_site_type_symbol
 _atom_site_label
 _atom_site_symmetry_multiplicity
 _atom_site_fract_x
 _atom_site_fract_y
 _atom_site_fract_z
 _atom_site_occupancy
  Be  Be0  1  0.504948  0.749999  0.125372  1
  Be  Be1  1  0.000193  0.250000  0.378863  1
  Be  Be2  1  0.499763  0.250000  0.376215  1
  Be  Be3  1  0.493827  0.749999  0.625140  1
  Be  Be4  1  0.002211  0.750000  0.625205  1
  Be  Be5  1  0.499921  0.250000  0.873310  1
  Be  Be6  1  0.000038  0.249999  0.870661  1
  Co  Co7  1  0.746682  0.250000  0.124984  1
  Co  Co8  1  0.252519  0.750000  0.376717  1
  Co  Co9  1  0.748931  0.250000  0.624911  1
  Co  Co10  1  0.252528  0.749999  0.873343  1
  Si  Si11  1  0.998291  0.750000  0.125252  1
  Ir  Ir12  1  0.257488  0.249998  0.124887  1
  Ir  Ir13  1  0.746549  0.750000  0.379517  1
  Ir  Ir14  1  0.249605  0.250000  0.624799  1
  Ir  Ir15  1  0.746506  0.749999  0.870822  1
