# generated using pymatgen
data_SrIn3PtPb
_symmetry_space_group_name_H-M   'P 1'
_cell_length_a   9.11546033
_cell_length_b   9.11546024
_cell_length_c   7.73135300
_cell_angle_alpha   90.00000000
_cell_angle_beta   90.00000000
_cell_angle_gamma   150.40575211
_symmetry_Int_Tables_number   1
_chemical_formula_structural   SrIn3PtPb
_chemical_formula_sum   'Sr2 In6 Pt2 Pb2'
_cell_volume   317.25742032
_cell_formula_units_Z   2
loop_
 _symmetry_equiv_pos_site_id
 _symmetry_equiv_pos_as_xyz
  1  'x, y, z'
loop_
 _atom_site_type_symbol
 _atom_site_label
 _atom_site_symmetry_multiplicity
 _atom_site_fract_x
 _atom_site_fract_y
 _atom_site_fract_z
 _atom_site_occupancy
  Sr  Sr0  1  0.125207  0.874793  0.750000  1
  Sr  Sr1  1  0.874793  0.125207  0.250000  1
  In  In2  1  0.311734  0.688266  0.947948  1
  In  In3  1  0.688266  0.311734  0.447948  1
  In  In4  1  0.688266  0.311734  0.052052  1
  In  In5  1  0.311734  0.688266  0.552052  1
  In  In6  1  0.071081  0.928919  0.250000  1
  In  In7  1  0.928919  0.071081  0.750000  1
  Pt  Pt8  1  0.773480  0.226520  0.750000  1
  Pt  Pt9  1  0.226520  0.773480  0.250000  1
  Pb  Pb10  1  0.500000  0.500000  0.500000  1
  Pb  Pb11  1  0.500000  0.500000  0.000000  1
