# generated using pymatgen
data_Pr3RhCl3
_symmetry_space_group_name_H-M   'P 1'
_cell_length_a   10.29244339
_cell_length_b   10.29380670
_cell_length_c   10.29241878
_cell_angle_alpha   109.56918319
_cell_angle_beta   109.56317128
_cell_angle_gamma   109.27547255
_symmetry_Int_Tables_number   1
_chemical_formula_structural   Pr3RhCl3
_chemical_formula_sum   'Pr12 Rh4 Cl12'
_cell_volume   839.49580275
_cell_formula_units_Z   4
loop_
 _symmetry_equiv_pos_site_id
 _symmetry_equiv_pos_as_xyz
  1  'x, y, z'
loop_
 _atom_site_type_symbol
 _atom_site_label
 _atom_site_symmetry_multiplicity
 _atom_site_fract_x
 _atom_site_fract_y
 _atom_site_fract_z
 _atom_site_occupancy
  Pr  Pr0  1  0.477460  0.488576  0.239229  1
  Pr  Pr1  1  0.749354  0.238210  0.260755  1
  Pr  Pr2  1  0.750654  0.011425  0.488882  1
  Pr  Pr3  1  0.238153  0.477431  0.488809  1
  Pr  Pr4  1  0.261805  0.750615  0.239255  1
  Pr  Pr5  1  0.022542  0.261789  0.011141  1
  Pr  Pr6  1  0.011377  0.022571  0.260723  1
  Pr  Pr7  1  0.488637  0.749384  0.011192  1
  Pr  Pr8  1  0.488845  0.238868  0.477733  1
  Pr  Pr9  1  0.011172  0.488869  0.750041  1
  Pr  Pr10  1  0.261167  0.011127  0.022300  1
  Pr  Pr11  1  0.238868  0.261135  0.749975  1
  Rh  Rh12  1  0.249919  0.250038  0.249979  1
  Rh  Rh13  1  0.500100  0.999959  0.250041  1
  Rh  Rh14  1  0.999923  0.249944  0.499856  1
  Rh  Rh15  1  0.250097  0.500045  0.000152  1
  Cl  Cl16  1  0.248891  0.751110  0.748476  1
  Cl  Cl17  1  0.502634  0.500420  0.751542  1
  Cl  Cl18  1  0.997367  0.748891  0.997781  1
  Cl  Cl19  1  0.748895  0.251160  0.751576  1
  Cl  Cl20  1  0.999603  0.997326  0.748459  1
  Cl  Cl21  1  0.251119  0.999580  0.502218  1
  Cl  Cl22  1  0.751139  0.502682  0.502282  1
  Cl  Cl23  1  0.500415  0.248843  0.997737  1
  Cl  Cl24  1  0.751506  0.748520  0.250027  1
  Cl  Cl25  1  0.748418  0.998475  0.996911  1
  Cl  Cl26  1  0.998432  0.501525  0.249938  1
  Cl  Cl27  1  0.501508  0.751481  0.502987  1
