# generated using pymatgen
data_CeMg2FeNi8
_symmetry_space_group_name_H-M   'P 1'
_cell_length_a   8.33466638
_cell_length_b   8.33466657
_cell_length_c   8.33466670
_cell_angle_alpha   33.74518196
_cell_angle_beta   33.74518060
_cell_angle_gamma   33.74517643
_symmetry_Int_Tables_number   1
_chemical_formula_structural   CeMg2FeNi8
_chemical_formula_sum   'Ce1 Mg2 Fe1 Ni8'
_cell_volume   159.18813699
_cell_formula_units_Z   1
loop_
 _symmetry_equiv_pos_site_id
 _symmetry_equiv_pos_as_xyz
  1  'x, y, z'
loop_
 _atom_site_type_symbol
 _atom_site_label
 _atom_site_symmetry_multiplicity
 _atom_site_fract_x
 _atom_site_fract_y
 _atom_site_fract_z
 _atom_site_occupancy
  Ce  Ce0  1  0.000000  0.000000  0.000000  1
  Mg  Mg1  1  0.855818  0.855818  0.855818  1
  Mg  Mg2  1  0.144182  0.144182  0.144182  1
  Fe  Fe3  1  0.500000  0.500000  0.500000  1
  Ni  Ni4  1  0.587688  0.083588  0.587688  1
  Ni  Ni5  1  0.083588  0.587688  0.587688  1
  Ni  Ni6  1  0.587688  0.587688  0.083588  1
  Ni  Ni7  1  0.412312  0.916412  0.412312  1
  Ni  Ni8  1  0.916412  0.412312  0.412312  1
  Ni  Ni9  1  0.334131  0.334131  0.334131  1
  Ni  Ni10  1  0.412312  0.412312  0.916412  1
  Ni  Ni11  1  0.665869  0.665869  0.665869  1
