# generated using pymatgen
data_LiAl7(CoIr)4
_symmetry_space_group_name_H-M   'P 1'
_cell_length_a   5.85542300
_cell_length_b   4.15138300
_cell_length_c   8.30592500
_cell_angle_alpha   90.00000000
_cell_angle_beta   89.99603786
_cell_angle_gamma   90.00000000
_symmetry_Int_Tables_number   1
_chemical_formula_structural   LiAl7(CoIr)4
_chemical_formula_sum   'Li1 Al7 Co4 Ir4'
_cell_volume   201.90128432
_cell_formula_units_Z   1
loop_
 _symmetry_equiv_pos_site_id
 _symmetry_equiv_pos_as_xyz
  1  'x, y, z'
loop_
 _atom_site_type_symbol
 _atom_site_label
 _atom_site_symmetry_multiplicity
 _atom_site_fract_x
 _atom_site_fract_y
 _atom_site_fract_z
 _atom_site_occupancy
  Li  Li0  1  0.500158  0.750000  0.124993  1
  Al  Al1  1  0.001993  0.750000  0.124989  1
  Al  Al2  1  0.500007  0.250001  0.368488  1
  Al  Al3  1  0.000026  0.250001  0.373310  1
  Al  Al4  1  0.998213  0.750000  0.625005  1
  Al  Al5  1  0.500052  0.750000  0.625019  1
  Al  Al6  1  0.000092  0.250001  0.876702  1
  Al  Al7  1  0.499966  0.250001  0.881504  1
  Co  Co8  1  0.751274  0.250001  0.124989  1
  Co  Co9  1  0.249971  0.750000  0.377986  1
  Co  Co10  1  0.748377  0.250001  0.625011  1
  Co  Co11  1  0.249965  0.750000  0.872009  1
  Ir  Ir12  1  0.247679  0.250001  0.125072  1
  Ir  Ir13  1  0.750756  0.750000  0.376792  1
  Ir  Ir14  1  0.250713  0.250001  0.624916  1
  Ir  Ir15  1  0.750760  0.750000  0.873217  1
