# generated using pymatgen
data_KLiPaS3
_symmetry_space_group_name_H-M   'P 1'
_cell_length_a   7.24998169
_cell_length_b   7.24998152
_cell_length_c   10.63444000
_cell_angle_alpha   90.00015913
_cell_angle_beta   89.99984068
_cell_angle_gamma   146.98945122
_symmetry_Int_Tables_number   1
_chemical_formula_structural   KLiPaS3
_chemical_formula_sum   'K2 Li2 Pa2 S6'
_cell_volume   304.52314021
_cell_formula_units_Z   2
loop_
 _symmetry_equiv_pos_site_id
 _symmetry_equiv_pos_as_xyz
  1  'x, y, z'
loop_
 _atom_site_type_symbol
 _atom_site_label
 _atom_site_symmetry_multiplicity
 _atom_site_fract_x
 _atom_site_fract_y
 _atom_site_fract_z
 _atom_site_occupancy
  K  K0  1  0.239396  0.760602  0.250021  1
  K  K1  1  0.760602  0.239396  0.749979  1
  Li  Li2  1  0.964200  0.035798  0.250014  1
  Li  Li3  1  0.035798  0.964200  0.749986  1
  Pa  Pa4  1  0.499999  0.499999  0.000000  1
  Pa  Pa5  1  0.499999  0.499999  0.500000  1
  S  S6  1  0.877437  0.122561  0.055598  1
  S  S7  1  0.555284  0.444714  0.250034  1
  S  S8  1  0.877439  0.122559  0.444419  1
  S  S9  1  0.122559  0.877439  0.555581  1
  S  S10  1  0.444714  0.555284  0.749966  1
  S  S11  1  0.122561  0.877437  0.944402  1
