# generated using pymatgen
data_La4Al10Ga14CuRh
_symmetry_space_group_name_H-M   'P 1'
_cell_length_a   6.08588616
_cell_length_b   6.08656404
_cell_length_c   15.89199916
_cell_angle_alpha   89.99542896
_cell_angle_beta   90.36306755
_cell_angle_gamma   89.98571130
_symmetry_Int_Tables_number   1
_chemical_formula_structural   La4Al10Ga14CuRh
_chemical_formula_sum   'La4 Al10 Ga14 Cu1 Rh1'
_cell_volume   588.66175257
_cell_formula_units_Z   1
loop_
 _symmetry_equiv_pos_site_id
 _symmetry_equiv_pos_as_xyz
  1  'x, y, z'
loop_
 _atom_site_type_symbol
 _atom_site_label
 _atom_site_symmetry_multiplicity
 _atom_site_fract_x
 _atom_site_fract_y
 _atom_site_fract_z
 _atom_site_occupancy
  La  La0  1  0.752849  0.250717  0.250043  1
  La  La1  1  0.252805  0.749247  0.248374  1
  La  La2  1  0.247317  0.749892  0.751289  1
  La  La3  1  0.747201  0.249937  0.749484  1
  Al  Al4  1  0.500203  0.000530  0.914751  1
  Al  Al5  1  0.998235  0.001343  0.914807  1
  Al  Al6  1  0.500079  0.499586  0.914770  1
  Al  Al7  1  0.998351  0.498680  0.914819  1
  Al  Al8  1  0.501242  0.001145  0.084898  1
  Al  Al9  1  0.999461  0.000621  0.084951  1
  Al  Al10  1  0.501310  0.498785  0.084892  1
  Al  Al11  1  0.999604  0.499683  0.085034  1
  Al  Al12  1  0.584421  0.079788  0.433300  1
  Al  Al13  1  0.083917  0.920565  0.433179  1
  Ga  Ga14  1  0.251233  0.249866  0.184941  1
  Ga  Ga15  1  0.751330  0.750012  0.184958  1
  Ga  Ga16  1  0.747902  0.749597  0.815180  1
  Ga  Ga17  1  0.247900  0.250266  0.815179  1
  Ga  Ga18  1  0.254710  0.245497  0.343039  1
  Ga  Ga19  1  0.754432  0.754603  0.343039  1
  Ga  Ga20  1  0.745792  0.748442  0.657110  1
  Ga  Ga21  1  0.245917  0.251702  0.657110  1
  Ga  Ga22  1  0.424589  0.578775  0.430235  1
  Ga  Ga23  1  0.924507  0.421082  0.430256  1
  Ga  Ga24  1  0.418176  0.924274  0.569074  1
  Ga  Ga25  1  0.918426  0.075677  0.569040  1
  Ga  Ga26  1  0.574074  0.420648  0.567999  1
  Ga  Ga27  1  0.073884  0.579262  0.568056  1
  Cu  Cu28  1  0.250273  0.749830  0.000167  1
  Rh  Rh29  1  0.749858  0.249944  0.000027  1
