# generated using pymatgen
data_Ho4LuSn4
_symmetry_space_group_name_H-M   'P 1'
_cell_length_a   7.96579200
_cell_length_b   8.11549700
_cell_length_c   15.36611600
_cell_angle_alpha   90.00000000
_cell_angle_beta   90.00000000
_cell_angle_gamma   90.00000000
_symmetry_Int_Tables_number   1
_chemical_formula_structural   Ho4LuSn4
_chemical_formula_sum   'Ho16 Lu4 Sn16'
_cell_volume   993.36348331
_cell_formula_units_Z   4
loop_
 _symmetry_equiv_pos_site_id
 _symmetry_equiv_pos_as_xyz
  1  'x, y, z'
loop_
 _atom_site_type_symbol
 _atom_site_label
 _atom_site_symmetry_multiplicity
 _atom_site_fract_x
 _atom_site_fract_y
 _atom_site_fract_z
 _atom_site_occupancy
  Ho  Ho0  1  0.019493  0.180337  0.402621  1
  Ho  Ho1  1  0.365801  0.838144  0.121913  1
  Ho  Ho2  1  0.134199  0.338144  0.621913  1
  Ho  Ho3  1  0.480507  0.680337  0.902621  1
  Ho  Ho4  1  0.865801  0.661856  0.121913  1
  Ho  Ho5  1  0.134199  0.338144  0.878087  1
  Ho  Ho6  1  0.480507  0.680337  0.597379  1
  Ho  Ho7  1  0.634199  0.161856  0.621913  1
  Ho  Ho8  1  0.865801  0.661856  0.378087  1
  Ho  Ho9  1  0.019493  0.180337  0.097379  1
  Ho  Ho10  1  0.980507  0.819663  0.902621  1
  Ho  Ho11  1  0.634199  0.161856  0.878087  1
  Ho  Ho12  1  0.519493  0.319663  0.097379  1
  Ho  Ho13  1  0.365801  0.838144  0.378087  1
  Ho  Ho14  1  0.980507  0.819663  0.597379  1
  Ho  Ho15  1  0.519493  0.319663  0.402621  1
  Lu  Lu16  1  0.196733  0.503543  0.250000  1
  Lu  Lu17  1  0.696733  0.996457  0.250000  1
  Lu  Lu18  1  0.303267  0.003543  0.750000  1
  Lu  Lu19  1  0.803267  0.496457  0.750000  1
  Sn  Sn20  1  0.793026  0.464718  0.543186  1
  Sn  Sn21  1  0.706974  0.964718  0.456814  1
  Sn  Sn22  1  0.672272  0.850953  0.750000  1
  Sn  Sn23  1  0.206974  0.535282  0.456814  1
  Sn  Sn24  1  0.293026  0.035282  0.956814  1
  Sn  Sn25  1  0.827728  0.350953  0.250000  1
  Sn  Sn26  1  0.793026  0.464718  0.956814  1
  Sn  Sn27  1  0.562031  0.619018  0.250000  1
  Sn  Sn28  1  0.206974  0.535282  0.043186  1
  Sn  Sn29  1  0.437969  0.380982  0.750000  1
  Sn  Sn30  1  0.172272  0.649047  0.750000  1
  Sn  Sn31  1  0.937969  0.119018  0.750000  1
  Sn  Sn32  1  0.293026  0.035282  0.543186  1
  Sn  Sn33  1  0.706974  0.964718  0.043186  1
  Sn  Sn34  1  0.327728  0.149047  0.250000  1
  Sn  Sn35  1  0.062031  0.880982  0.250000  1
