# generated using pymatgen
data_Sr4DyY7Se16
_symmetry_space_group_name_H-M   'P 1'
_cell_length_a   4.16598300
_cell_length_b   12.67317317
_cell_length_c   15.06721000
_cell_angle_alpha   89.99048323
_cell_angle_beta   90.00000000
_cell_angle_gamma   90.00000000
_symmetry_Int_Tables_number   1
_chemical_formula_structural   Sr4DyY7Se16
_chemical_formula_sum   'Sr4 Dy1 Y7 Se16'
_cell_volume   795.49178328
_cell_formula_units_Z   1
loop_
 _symmetry_equiv_pos_site_id
 _symmetry_equiv_pos_as_xyz
  1  'x, y, z'
loop_
 _atom_site_type_symbol
 _atom_site_label
 _atom_site_symmetry_multiplicity
 _atom_site_fract_x
 _atom_site_fract_y
 _atom_site_fract_z
 _atom_site_occupancy
  Sr  Sr0  1  0.250000  0.758454  0.664555  1
  Sr  Sr1  1  0.750000  0.741432  0.164349  1
  Sr  Sr2  1  0.250000  0.258535  0.835557  1
  Sr  Sr3  1  0.750000  0.241522  0.335514  1
  Dy  Dy4  1  0.750000  0.580321  0.901091  1
  Y  Y5  1  0.250000  0.434103  0.610177  1
  Y  Y6  1  0.750000  0.066040  0.109987  1
  Y  Y7  1  0.250000  0.933819  0.889969  1
  Y  Y8  1  0.750000  0.566026  0.389996  1
  Y  Y9  1  0.250000  0.419741  0.098830  1
  Y  Y10  1  0.750000  0.080321  0.598890  1
  Y  Y11  1  0.250000  0.919652  0.401103  1
  Se  Se12  1  0.250000  0.412135  0.421438  1
  Se  Se13  1  0.750000  0.087852  0.921382  1
  Se  Se14  1  0.250000  0.912105  0.078641  1
  Se  Se15  1  0.750000  0.587855  0.578666  1
  Se  Se16  1  0.250000  0.024259  0.716147  1
  Se  Se17  1  0.750000  0.475712  0.216098  1
  Se  Se18  1  0.250000  0.524358  0.784026  1
  Se  Se19  1  0.750000  0.975705  0.283884  1
  Se  Se20  1  0.250000  0.131092  0.471964  1
  Se  Se21  1  0.750000  0.369180  0.971860  1
  Se  Se22  1  0.250000  0.631061  0.027694  1
  Se  Se23  1  0.750000  0.868906  0.528043  1
  Se  Se24  1  0.250000  0.207541  0.174289  1
  Se  Se25  1  0.750000  0.292532  0.674342  1
  Se  Se26  1  0.250000  0.707524  0.325666  1
  Se  Se27  1  0.750000  0.792215  0.825844  1
