# generated using pymatgen
data_Tb5Y5In4(HgPd)4
_symmetry_space_group_name_H-M   'P 1'
_cell_length_a   3.64477600
_cell_length_b   8.05730891
_cell_length_c   18.34894000
_cell_angle_alpha   89.96059777
_cell_angle_beta   90.00000000
_cell_angle_gamma   90.00000000
_symmetry_Int_Tables_number   1
_chemical_formula_structural   Tb5Y5In4(HgPd)4
_chemical_formula_sum   'Tb5 Y5 In4 Hg4 Pd4'
_cell_volume   538.85477382
_cell_formula_units_Z   1
loop_
 _symmetry_equiv_pos_site_id
 _symmetry_equiv_pos_as_xyz
  1  'x, y, z'
loop_
 _atom_site_type_symbol
 _atom_site_label
 _atom_site_symmetry_multiplicity
 _atom_site_fract_x
 _atom_site_fract_y
 _atom_site_fract_z
 _atom_site_occupancy
  Tb  Tb0  1  0.000000  0.500828  0.499799  1
  Tb  Tb1  1  0.000000  0.999282  0.999949  1
  Tb  Tb2  1  0.000000  0.744416  0.285254  1
  Tb  Tb3  1  0.000000  0.256671  0.714486  1
  Tb  Tb4  1  0.000000  0.755308  0.785720  1
  Y  Y5  1  0.000000  0.243077  0.214096  1
  Y  Y6  1  0.000000  0.610724  0.083687  1
  Y  Y7  1  0.000000  0.387663  0.917307  1
  Y  Y8  1  0.000000  0.890025  0.583539  1
  Y  Y9  1  0.000000  0.111792  0.416042  1
  In  In10  1  0.500000  0.581896  0.650128  1
  In  In11  1  0.500000  0.418155  0.349668  1
  In  In12  1  0.500000  0.918667  0.149756  1
  In  In13  1  0.500000  0.081483  0.850155  1
  Hg  Hg14  1  0.500000  0.709822  0.934808  1
  Hg  Hg15  1  0.500000  0.288872  0.065987  1
  Hg  Hg16  1  0.500000  0.790221  0.434211  1
  Hg  Hg17  1  0.500000  0.211151  0.565072  1
  Pd  Pd18  1  0.500000  0.531794  0.198236  1
  Pd  Pd19  1  0.500000  0.467284  0.802172  1
  Pd  Pd20  1  0.500000  0.968263  0.698647  1
  Pd  Pd21  1  0.500000  0.032606  0.301281  1
