# generated using pymatgen
data_La7Nd5(IrBr3)4
_symmetry_space_group_name_H-M   'P 1'
_cell_length_a   10.62142886
_cell_length_b   10.62830787
_cell_length_c   10.58595247
_cell_angle_alpha   108.70320691
_cell_angle_beta   110.41882195
_cell_angle_gamma   109.20088572
_symmetry_Int_Tables_number   1
_chemical_formula_structural   La7Nd5(IrBr3)4
_chemical_formula_sum   'La7 Nd5 Ir4 Br12'
_cell_volume   920.79511311
_cell_formula_units_Z   1
loop_
 _symmetry_equiv_pos_site_id
 _symmetry_equiv_pos_as_xyz
  1  'x, y, z'
loop_
 _atom_site_type_symbol
 _atom_site_label
 _atom_site_symmetry_multiplicity
 _atom_site_fract_x
 _atom_site_fract_y
 _atom_site_fract_z
 _atom_site_occupancy
  La  La0  1  0.020859  0.485000  0.757400  1
  La  La1  1  0.478886  0.238898  0.467276  1
  La  La2  1  0.271290  0.012121  0.032607  1
  La  La3  1  0.752739  0.236075  0.265844  1
  La  La4  1  0.744636  0.015045  0.480646  1
  La  La5  1  0.465483  0.487752  0.227455  1
  La  La6  1  0.035553  0.262893  0.020901  1
  Nd  Nd7  1  0.267248  0.752720  0.236965  1
  Nd  Nd8  1  0.482223  0.747951  0.015848  1
  Nd  Nd9  1  0.231672  0.466307  0.485407  1
  Nd  Nd10  1  0.015694  0.034237  0.268253  1
  Nd  Nd11  1  0.230497  0.262736  0.744026  1
  Ir  Ir12  1  0.500754  0.002433  0.250818  1
  Ir  Ir13  1  0.248922  0.498198  0.999971  1
  Ir  Ir14  1  0.996523  0.249499  0.498795  1
  Ir  Ir15  1  0.251303  0.250261  0.249476  1
  Br  Br16  1  0.244987  0.992563  0.499639  1
  Br  Br17  1  0.504445  0.505161  0.755786  1
  Br  Br18  1  0.256129  0.750299  0.744311  1
  Br  Br19  1  0.995575  0.749222  0.005222  1
  Br  Br20  1  0.005375  0.510582  0.255428  1
  Br  Br21  1  0.744963  0.989435  0.993519  1
  Br  Br22  1  0.754950  0.748636  0.244455  1
  Br  Br23  1  0.495930  0.750952  0.506096  1
  Br  Br24  1  0.500300  0.249617  0.991034  1
  Br  Br25  1  0.753458  0.506787  0.502523  1
  Br  Br26  1  0.746947  0.249519  0.754276  1
  Br  Br27  1  0.002657  0.995101  0.746023  1
