# generated using pymatgen
data_La5Y(RuCl3)2
_symmetry_space_group_name_H-M   'P 1'
_cell_length_a   4.18375700
_cell_length_b   9.01403031
_cell_length_c   11.80766200
_cell_angle_alpha   87.41926876
_cell_angle_beta   90.00000000
_cell_angle_gamma   90.00000000
_symmetry_Int_Tables_number   1
_chemical_formula_structural   La5Y(RuCl3)2
_chemical_formula_sum   'La5 Y1 Ru2 Cl6'
_cell_volume   444.84496601
_cell_formula_units_Z   1
loop_
 _symmetry_equiv_pos_site_id
 _symmetry_equiv_pos_as_xyz
  1  'x, y, z'
loop_
 _atom_site_type_symbol
 _atom_site_label
 _atom_site_symmetry_multiplicity
 _atom_site_fract_x
 _atom_site_fract_y
 _atom_site_fract_z
 _atom_site_occupancy
  La  La0  1  0.750000  0.661431  0.127861  1
  La  La1  1  0.250000  0.333750  0.879282  1
  La  La2  1  0.250000  0.883159  0.345160  1
  La  La3  1  0.750000  0.126564  0.652781  1
  La  La4  1  0.250000  0.892309  0.887917  1
  Y  Y5  1  0.750000  0.096433  0.110312  1
  Ru  Ru6  1  0.250000  0.879407  0.130947  1
  Ru  Ru7  1  0.750000  0.117346  0.867982  1
  Cl  Cl8  1  0.250000  0.898013  0.613974  1
  Cl  Cl9  1  0.750000  0.114032  0.373999  1
  Cl  Cl10  1  0.750000  0.659160  0.376137  1
  Cl  Cl11  1  0.250000  0.349772  0.628843  1
  Cl  Cl12  1  0.250000  0.385193  0.126483  1
  Cl  Cl13  1  0.750000  0.603433  0.878325  1
