# generated using pymatgen
data_Tb3Dy2Mg3(P3Ir4)4
_symmetry_space_group_name_H-M   'P 1'
_cell_length_a   12.81492202
_cell_length_b   12.81364604
_cell_length_c   3.98831300
_cell_angle_alpha   90.00000000
_cell_angle_beta   90.00000000
_cell_angle_gamma   119.99670922
_symmetry_Int_Tables_number   1
_chemical_formula_structural   Tb3Dy2Mg3(P3Ir4)4
_chemical_formula_sum   'Tb3 Dy2 Mg3 P12 Ir16'
_cell_volume   567.18267563
_cell_formula_units_Z   1
loop_
 _symmetry_equiv_pos_site_id
 _symmetry_equiv_pos_as_xyz
  1  'x, y, z'
loop_
 _atom_site_type_symbol
 _atom_site_label
 _atom_site_symmetry_multiplicity
 _atom_site_fract_x
 _atom_site_fract_y
 _atom_site_fract_z
 _atom_site_occupancy
  Tb  Tb0  1  0.333333  0.666661  0.500000  1
  Tb  Tb1  1  0.666667  0.333327  0.500000  1
  Tb  Tb2  1  0.000000  0.809341  0.000000  1
  Dy  Dy3  1  0.190753  0.190749  0.000000  1
  Dy  Dy4  1  0.809247  0.999996  0.000000  1
  Mg  Mg5  1  0.000000  0.444667  0.500000  1
  Mg  Mg6  1  0.555229  0.555229  0.500000  1
  Mg  Mg7  1  0.444771  0.000000  0.500000  1
  P  P8  1  0.000000  0.640861  0.500000  1
  P  P9  1  0.358954  0.358937  0.500000  1
  P  P10  1  0.641046  0.999983  0.500000  1
  P  P11  1  0.516432  0.688527  0.000000  1
  P  P12  1  0.311454  0.827958  0.000000  1
  P  P13  1  0.172099  0.483492  0.000000  1
  P  P14  1  0.483568  0.172095  0.000000  1
  P  P15  1  0.688546  0.516503  0.000000  1
  P  P16  1  0.827901  0.311393  0.000000  1
  P  P17  1  0.000000  0.177398  0.500000  1
  P  P18  1  0.822583  0.822732  0.500000  1
  P  P19  1  0.177417  0.000150  0.500000  1
  Ir  Ir20  1  0.508934  0.868263  0.000000  1
  Ir  Ir21  1  0.131724  0.640634  0.000000  1
  Ir  Ir22  1  0.359303  0.491031  0.000000  1
  Ir  Ir23  1  0.491066  0.359328  0.000000  1
  Ir  Ir24  1  0.868276  0.508910  0.000000  1
  Ir  Ir25  1  0.640697  0.131727  0.000000  1
  Ir  Ir26  1  0.000000  0.279134  0.000000  1
  Ir  Ir27  1  0.720711  0.720868  0.000000  1
  Ir  Ir28  1  0.279289  0.000156  0.000000  1
  Ir  Ir29  1  0.627922  0.806410  0.500000  1
  Ir  Ir30  1  0.194156  0.821664  0.500000  1
  Ir  Ir31  1  0.178416  0.372037  0.500000  1
  Ir  Ir32  1  0.372078  0.178488  0.500000  1
  Ir  Ir33  1  0.805844  0.627508  0.500000  1
  Ir  Ir34  1  0.821584  0.193621  0.500000  1
  Ir  Ir35  1  0.000000  0.000223  0.500000  1
