# generated using pymatgen
data_Ho7Th(Nb3Si4)4
_symmetry_space_group_name_H-M   'P 1'
_cell_length_a   7.07736882
_cell_length_b   7.07825595
_cell_length_c   13.08765392
_cell_angle_alpha   89.89953645
_cell_angle_beta   89.97589129
_cell_angle_gamma   90.05811216
_symmetry_Int_Tables_number   1
_chemical_formula_structural   Ho7Th(Nb3Si4)4
_chemical_formula_sum   'Ho7 Th1 Nb12 Si16'
_cell_volume   655.63022087
_cell_formula_units_Z   1
loop_
 _symmetry_equiv_pos_site_id
 _symmetry_equiv_pos_as_xyz
  1  'x, y, z'
loop_
 _atom_site_type_symbol
 _atom_site_label
 _atom_site_symmetry_multiplicity
 _atom_site_fract_x
 _atom_site_fract_y
 _atom_site_fract_z
 _atom_site_occupancy
  Ho  Ho0  1  0.002072  0.657502  0.717886  1
  Ho  Ho1  1  0.158527  0.499863  0.468686  1
  Ho  Ho2  1  0.500291  0.841197  0.030546  1
  Ho  Ho3  1  0.841510  0.501008  0.967428  1
  Ho  Ho4  1  0.498119  0.157974  0.533055  1
  Ho  Ho5  1  0.341655  0.998204  0.781956  1
  Ho  Ho6  1  0.657128  0.001313  0.283250  1
  Th  Th7  1  0.995183  0.340002  0.217834  1
  Nb  Nb8  1  0.171437  0.170145  0.999254  1
  Nb  Nb9  1  0.828496  0.829014  0.501343  1
  Nb  Nb10  1  0.327741  0.670352  0.249751  1
  Nb  Nb11  1  0.671883  0.328079  0.749714  1
  Nb  Nb12  1  0.154589  0.996519  0.377220  1
  Nb  Nb13  1  0.846090  0.006638  0.874885  1
  Nb  Nb14  1  0.507125  0.653064  0.626263  1
  Nb  Nb15  1  0.347466  0.493285  0.872959  1
  Nb  Nb16  1  0.493797  0.345694  0.125208  1
  Nb  Nb17  1  0.655031  0.509300  0.375269  1
  Nb  Nb18  1  0.992607  0.153294  0.624989  1
  Nb  Nb19  1  0.007477  0.846192  0.123234  1
  Si  Si20  1  0.297641  0.041576  0.186240  1
  Si  Si21  1  0.706091  0.953671  0.686533  1
  Si  Si22  1  0.453070  0.793302  0.437258  1
  Si  Si23  1  0.209536  0.547783  0.060371  1
  Si  Si24  1  0.543658  0.205623  0.935319  1
  Si  Si25  1  0.793666  0.454403  0.564055  1
  Si  Si26  1  0.045949  0.293297  0.813561  1
  Si  Si27  1  0.954730  0.713473  0.315728  1
  Si  Si28  1  0.372077  0.296399  0.319767  1
  Si  Si29  1  0.634122  0.703505  0.817555  1
  Si  Si30  1  0.203860  0.866778  0.568350  1
  Si  Si31  1  0.133222  0.796174  0.931096  1
  Si  Si32  1  0.792008  0.128401  0.064005  1
  Si  Si33  1  0.865503  0.203075  0.435110  1
  Si  Si34  1  0.296505  0.365972  0.682073  1
  Si  Si35  1  0.700133  0.637929  0.182250  1
