# generated using pymatgen
data_Ba6Nb3VS16
_symmetry_space_group_name_H-M   'P 1'
_cell_length_a   11.31923510
_cell_length_b   11.31923449
_cell_length_c   11.31923494
_cell_angle_alpha   51.63092981
_cell_angle_beta   51.63092881
_cell_angle_gamma   51.63093186
_symmetry_Int_Tables_number   1
_chemical_formula_structural   Ba6Nb3VS16
_chemical_formula_sum   'Ba6 Nb3 V1 S16'
_cell_volume   823.51272062
_cell_formula_units_Z   1
loop_
 _symmetry_equiv_pos_site_id
 _symmetry_equiv_pos_as_xyz
  1  'x, y, z'
loop_
 _atom_site_type_symbol
 _atom_site_label
 _atom_site_symmetry_multiplicity
 _atom_site_fract_x
 _atom_site_fract_y
 _atom_site_fract_z
 _atom_site_occupancy
  Ba  Ba0  1  0.750152  0.434354  0.067347  1
  Ba  Ba1  1  0.571777  0.930069  0.246236  1
  Ba  Ba2  1  0.067347  0.750152  0.434355  1
  Ba  Ba3  1  0.930070  0.246236  0.571777  1
  Ba  Ba4  1  0.434355  0.067348  0.750151  1
  Ba  Ba5  1  0.246236  0.571777  0.930070  1
  Nb  Nb6  1  0.160289  0.160289  0.160289  1
  Nb  Nb7  1  0.339600  0.339600  0.339600  1
  Nb  Nb8  1  0.660388  0.660388  0.660388  1
  V  V9  1  0.839525  0.839525  0.839525  1
  S  S10  1  0.622300  0.790006  0.031220  1
  S  S11  1  0.081922  0.081922  0.081922  1
  S  S12  1  0.543078  0.286190  0.109860  1
  S  S13  1  0.956654  0.389544  0.214567  1
  S  S14  1  0.109860  0.543077  0.286190  1
  S  S15  1  0.214566  0.956655  0.389544  1
  S  S16  1  0.418176  0.418176  0.418176  1
  S  S17  1  0.713690  0.890367  0.457131  1
  S  S18  1  0.286190  0.109860  0.543078  1
  S  S19  1  0.581978  0.581978  0.581978  1
  S  S20  1  0.790006  0.031220  0.622300  1
  S  S21  1  0.890367  0.457132  0.713690  1
  S  S22  1  0.031220  0.622300  0.790006  1
  S  S23  1  0.457132  0.713690  0.890367  1
  S  S24  1  0.913575  0.913575  0.913575  1
  S  S25  1  0.389545  0.214566  0.956654  1
