# generated using pymatgen
data_Ac2GeIrI
_symmetry_space_group_name_H-M   'P 1'
_cell_length_a   4.35898900
_cell_length_b   4.35898734
_cell_length_c   18.18336100
_cell_angle_alpha   90.00000000
_cell_angle_beta   90.00000000
_cell_angle_gamma   120.00002021
_symmetry_Int_Tables_number   1
_chemical_formula_structural   Ac2GeIrI
_chemical_formula_sum   'Ac4 Ge2 Ir2 I2'
_cell_volume   299.20998662
_cell_formula_units_Z   2
loop_
 _symmetry_equiv_pos_site_id
 _symmetry_equiv_pos_as_xyz
  1  'x, y, z'
loop_
 _atom_site_type_symbol
 _atom_site_label
 _atom_site_symmetry_multiplicity
 _atom_site_fract_x
 _atom_site_fract_y
 _atom_site_fract_z
 _atom_site_occupancy
  Ac  Ac0  1  0.000000  0.000000  0.396283  1
  Ac  Ac1  1  0.000000  0.000000  0.896283  1
  Ac  Ac2  1  0.000000  0.000000  0.605702  1
  Ac  Ac3  1  0.000000  0.000000  0.105702  1
  Ge  Ge4  1  0.333333  0.666667  0.503177  1
  Ge  Ge5  1  0.666667  0.333333  0.003177  1
  Ir  Ir6  1  0.666667  0.333333  0.496692  1
  Ir  Ir7  1  0.333333  0.666667  0.996692  1
  I  I8  1  0.333333  0.666667  0.248145  1
  I  I9  1  0.666667  0.333333  0.748145  1
