# generated using pymatgen
data_Li5Tb4Co8P12Ir7
_symmetry_space_group_name_H-M   'P 1'
_cell_length_a   3.77623100
_cell_length_b   10.53048387
_cell_length_c   12.49793180
_cell_angle_alpha   90.08696967
_cell_angle_beta   90.00000000
_cell_angle_gamma   90.00000000
_symmetry_Int_Tables_number   1
_chemical_formula_structural   Li5Tb4Co8P12Ir7
_chemical_formula_sum   'Li5 Tb4 Co8 P12 Ir7'
_cell_volume   496.98642974
_cell_formula_units_Z   1
loop_
 _symmetry_equiv_pos_site_id
 _symmetry_equiv_pos_as_xyz
  1  'x, y, z'
loop_
 _atom_site_type_symbol
 _atom_site_label
 _atom_site_symmetry_multiplicity
 _atom_site_fract_x
 _atom_site_fract_y
 _atom_site_fract_z
 _atom_site_occupancy
  Li  Li0  1  0.250000  0.706591  0.989654  1
  Li  Li1  1  0.250000  0.793529  0.488601  1
  Li  Li2  1  0.750000  0.294232  0.010568  1
  Li  Li3  1  0.750000  0.203027  0.514149  1
  Li  Li4  1  0.250000  0.407433  0.492937  1
  Tb  Tb5  1  0.250000  0.583036  0.713338  1
  Tb  Tb6  1  0.250000  0.919761  0.210868  1
  Tb  Tb7  1  0.750000  0.418284  0.291105  1
  Tb  Tb8  1  0.750000  0.080298  0.787361  1
  Co  Co9  1  0.250000  0.881502  0.688470  1
  Co  Co10  1  0.250000  0.617526  0.193148  1
  Co  Co11  1  0.750000  0.118840  0.306829  1
  Co  Co12  1  0.750000  0.382461  0.810217  1
  Co  Co13  1  0.250000  0.467342  0.936834  1
  Co  Co14  1  0.250000  0.035831  0.435453  1
  Co  Co15  1  0.750000  0.532799  0.066311  1
  Co  Co16  1  0.750000  0.966289  0.563696  1
  P  P17  1  0.250000  0.428190  0.111492  1
  P  P18  1  0.250000  0.074007  0.610379  1
  P  P19  1  0.750000  0.572139  0.890647  1
  P  P20  1  0.750000  0.930735  0.389390  1
  P  P21  1  0.250000  0.276491  0.865551  1
  P  P22  1  0.250000  0.223105  0.358707  1
  P  P23  1  0.750000  0.724001  0.134560  1
  P  P24  1  0.750000  0.774058  0.632675  1
  P  P25  1  0.250000  0.601292  0.381294  1
  P  P26  1  0.250000  0.898991  0.878634  1
  P  P27  1  0.750000  0.401492  0.625476  1
  P  P28  1  0.750000  0.099120  0.115162  1
  Ir  Ir29  1  0.250000  0.095365  0.972138  1
  Ir  Ir30  1  0.750000  0.585637  0.516810  1
  Ir  Ir31  1  0.750000  0.902100  0.024597  1
  Ir  Ir32  1  0.250000  0.217938  0.172532  1
  Ir  Ir33  1  0.250000  0.283275  0.676862  1
  Ir  Ir34  1  0.750000  0.780339  0.821649  1
  Ir  Ir35  1  0.750000  0.722945  0.321910  1
