# generated using pymatgen
data_PrY5Mn2(Co4P3)4
_symmetry_space_group_name_H-M   'P 1'
_cell_length_a   3.70397800
_cell_length_b   10.56209500
_cell_length_c   12.22339200
_cell_angle_alpha   90.00000000
_cell_angle_beta   90.00000000
_cell_angle_gamma   90.00000000
_symmetry_Int_Tables_number   1
_chemical_formula_structural   PrY5Mn2(Co4P3)4
_chemical_formula_sum   'Pr1 Y5 Mn2 Co16 P12'
_cell_volume   478.20070006
_cell_formula_units_Z   1
loop_
 _symmetry_equiv_pos_site_id
 _symmetry_equiv_pos_as_xyz
  1  'x, y, z'
loop_
 _atom_site_type_symbol
 _atom_site_label
 _atom_site_symmetry_multiplicity
 _atom_site_fract_x
 _atom_site_fract_y
 _atom_site_fract_z
 _atom_site_occupancy
  Pr  Pr0  1  0.000000  0.500000  0.523484  1
  Y  Y1  1  0.500000  0.000000  0.477593  1
  Y  Y2  1  0.500000  0.818140  0.204964  1
  Y  Y3  1  0.500000  0.181860  0.204964  1
  Y  Y4  1  0.000000  0.682558  0.795661  1
  Y  Y5  1  0.000000  0.317442  0.795661  1
  Mn  Mn6  1  0.500000  0.500000  0.156861  1
  Mn  Mn7  1  0.000000  0.000000  0.841431  1
  Co  Co8  1  0.500000  0.500000  0.705551  1
  Co  Co9  1  0.000000  0.000000  0.296791  1
  Co  Co10  1  0.000000  0.500000  0.986615  1
  Co  Co11  1  0.500000  0.000000  0.013668  1
  Co  Co12  1  0.500000  0.332897  0.994018  1
  Co  Co13  1  0.500000  0.667103  0.994018  1
  Co  Co14  1  0.000000  0.166771  0.006022  1
  Co  Co15  1  0.000000  0.833229  0.006022  1
  Co  Co16  1  0.500000  0.293717  0.429588  1
  Co  Co17  1  0.500000  0.706283  0.429588  1
  Co  Co18  1  0.000000  0.201383  0.569998  1
  Co  Co19  1  0.000000  0.798617  0.569998  1
  Co  Co20  1  0.500000  0.880520  0.710187  1
  Co  Co21  1  0.500000  0.119480  0.710187  1
  Co  Co22  1  0.000000  0.620683  0.289078  1
  Co  Co23  1  0.000000  0.379317  0.289078  1
  P  P24  1  0.500000  0.500000  0.883824  1
  P  P25  1  0.000000  0.000000  0.117018  1
  P  P26  1  0.500000  0.500000  0.340465  1
  P  P27  1  0.000000  0.000000  0.655542  1
  P  P28  1  0.500000  0.306939  0.617478  1
  P  P29  1  0.500000  0.693061  0.617478  1
  P  P30  1  0.000000  0.188774  0.383747  1
  P  P31  1  0.000000  0.811226  0.383747  1
  P  P32  1  0.500000  0.847662  0.893404  1
  P  P33  1  0.500000  0.152338  0.893404  1
  P  P34  1  0.000000  0.652841  0.106432  1
  P  P35  1  0.000000  0.347159  0.106432  1
