# generated using pymatgen
data_LiCa3Cd2Pb3
_symmetry_space_group_name_H-M   'P 1'
_cell_length_a   7.66913900
_cell_length_b   7.67173210
_cell_length_c   4.86244300
_cell_angle_alpha   90.00000000
_cell_angle_beta   90.00000000
_cell_angle_gamma   119.98882374
_symmetry_Int_Tables_number   1
_chemical_formula_structural   LiCa3Cd2Pb3
_chemical_formula_sum   'Li1 Ca3 Cd2 Pb3'
_cell_volume   247.78447505
_cell_formula_units_Z   1
loop_
 _symmetry_equiv_pos_site_id
 _symmetry_equiv_pos_as_xyz
  1  'x, y, z'
loop_
 _atom_site_type_symbol
 _atom_site_label
 _atom_site_symmetry_multiplicity
 _atom_site_fract_x
 _atom_site_fract_y
 _atom_site_fract_z
 _atom_site_occupancy
  Li  Li0  1  0.229678  0.000000  0.000000  1
  Ca  Ca1  1  0.994306  0.557002  0.500000  1
  Ca  Ca2  1  0.574293  0.000000  0.500000  1
  Ca  Ca3  1  0.437304  0.442998  0.500000  1
  Cd  Cd4  1  0.760448  0.760673  0.000000  1
  Cd  Cd5  1  0.999775  0.239327  0.000000  1
  Pb  Pb6  1  0.026349  0.000000  0.500000  1
  Pb  Pb7  1  0.649654  0.321460  0.000000  1
  Pb  Pb8  1  0.328193  0.678540  0.000000  1
