# generated using pymatgen
data_Pr3As6(Pd4Rh)4
_symmetry_space_group_name_H-M   'P 1'
_cell_length_a   8.91279842
_cell_length_b   8.93568071
_cell_length_c   8.93568192
_cell_angle_alpha   59.81311588
_cell_angle_beta   59.73536555
_cell_angle_gamma   59.73535952
_symmetry_Int_Tables_number   1
_chemical_formula_structural   Pr3As6(Pd4Rh)4
_chemical_formula_sum   'Pr3 As6 Pd16 Rh4'
_cell_volume   500.48771436
_cell_formula_units_Z   1
loop_
 _symmetry_equiv_pos_site_id
 _symmetry_equiv_pos_as_xyz
  1  'x, y, z'
loop_
 _atom_site_type_symbol
 _atom_site_label
 _atom_site_symmetry_multiplicity
 _atom_site_fract_x
 _atom_site_fract_y
 _atom_site_fract_z
 _atom_site_occupancy
  Pr  Pr0  1  0.259778  0.247836  0.247836  1
  Pr  Pr1  1  0.743828  0.747124  0.747124  1
  Pr  Pr2  1  0.999854  0.999895  0.999895  1
  As  As3  1  0.729350  0.266618  0.266618  1
  As  As4  1  0.276474  0.727178  0.727178  1
  As  As5  1  0.270781  0.729403  0.269370  1
  As  As6  1  0.727177  0.272451  0.733557  1
  As  As7  1  0.270781  0.269370  0.729403  1
  As  As8  1  0.727177  0.733557  0.272451  1
  Pd  Pd9  1  0.620330  0.615798  0.149992  1
  Pd  Pd10  1  0.620330  0.149992  0.615798  1
  Pd  Pd11  1  0.853163  0.380841  0.380841  1
  Pd  Pd12  1  0.146202  0.618577  0.618577  1
  Pd  Pd13  1  0.344898  0.002653  0.002653  1
  Pd  Pd14  1  0.651673  0.999844  0.999844  1
  Pd  Pd15  1  0.998824  0.349435  0.653375  1
  Pd  Pd16  1  0.998824  0.653375  0.349435  1
  Pd  Pd17  1  0.000571  0.348394  0.001224  1
  Pd  Pd18  1  0.650872  0.998855  0.351238  1
  Pd  Pd19  1  0.999350  0.653542  0.000124  1
  Pd  Pd20  1  0.345889  0.000652  0.653088  1
  Pd  Pd21  1  0.000571  0.001224  0.348394  1
  Pd  Pd22  1  0.999350  0.000124  0.653542  1
  Pd  Pd23  1  0.650872  0.351238  0.998855  1
  Pd  Pd24  1  0.345889  0.653088  0.000652  1
  Rh  Rh25  1  0.385130  0.386566  0.386566  1
  Rh  Rh26  1  0.617594  0.612496  0.612496  1
  Rh  Rh27  1  0.382233  0.383834  0.846039  1
  Rh  Rh28  1  0.382233  0.846039  0.383834  1
