# generated using pymatgen
data_Y4Ho4Tm4Co5Bi
_symmetry_space_group_name_H-M   'P 1'
_cell_length_a   8.26596827
_cell_length_b   8.26600262
_cell_length_c   8.26596913
_cell_angle_alpha   110.66846096
_cell_angle_beta   110.83292428
_cell_angle_gamma   106.94140075
_symmetry_Int_Tables_number   1
_chemical_formula_structural   Y4Ho4Tm4Co5Bi
_chemical_formula_sum   'Y4 Ho4 Tm4 Co5 Bi1'
_cell_volume   434.13933473
_cell_formula_units_Z   1
loop_
 _symmetry_equiv_pos_site_id
 _symmetry_equiv_pos_as_xyz
  1  'x, y, z'
loop_
 _atom_site_type_symbol
 _atom_site_label
 _atom_site_symmetry_multiplicity
 _atom_site_fract_x
 _atom_site_fract_y
 _atom_site_fract_z
 _atom_site_occupancy
  Y  Y0  1  0.814828  0.711543  0.526362  1
  Y  Y1  1  0.185172  0.288457  0.473638  1
  Y  Y2  1  0.185182  0.711543  0.896715  1
  Y  Y3  1  0.814818  0.288457  0.103285  1
  Ho  Ho4  1  0.597978  0.792627  0.805352  1
  Ho  Ho5  1  0.402022  0.207373  0.194648  1
  Ho  Ho6  1  0.987276  0.792627  0.194650  1
  Ho  Ho7  1  0.012724  0.207373  0.805350  1
  Tm  Tm8  1  0.688330  0.377707  0.689378  1
  Tm  Tm9  1  0.311670  0.622293  0.310622  1
  Tm  Tm10  1  0.688329  0.998951  0.310623  1
  Tm  Tm11  1  0.311671  0.001049  0.689377  1
  Co  Co12  1  0.623531  0.000000  0.623531  1
  Co  Co13  1  0.376469  0.000000  0.376469  1
  Co  Co14  1  0.111932  0.611935  0.500002  1
  Co  Co15  1  0.888068  0.388065  0.499998  1
  Co  Co16  1  0.000000  0.000000  0.000000  1
  Bi  Bi17  1  0.500000  0.500000  0.000000  1
