# generated using pymatgen
data_Sc6Ta2Nb2Ga12Os7
_symmetry_space_group_name_H-M   'P 1'
_cell_length_a   8.87722615
_cell_length_b   8.87835873
_cell_length_c   8.87835803
_cell_angle_alpha   60.00243986
_cell_angle_beta   60.00420939
_cell_angle_gamma   60.00421647
_symmetry_Int_Tables_number   1
_chemical_formula_structural   Sc6Ta2Nb2Ga12Os7
_chemical_formula_sum   'Sc6 Ta2 Nb2 Ga12 Os7'
_cell_volume   494.83828112
_cell_formula_units_Z   1
loop_
 _symmetry_equiv_pos_site_id
 _symmetry_equiv_pos_as_xyz
  1  'x, y, z'
loop_
 _atom_site_type_symbol
 _atom_site_label
 _atom_site_symmetry_multiplicity
 _atom_site_fract_x
 _atom_site_fract_y
 _atom_site_fract_z
 _atom_site_occupancy
  Sc  Sc0  1  0.712833  0.712127  0.287771  1
  Sc  Sc1  1  0.287269  0.712127  0.287771  1
  Sc  Sc2  1  0.712851  0.287149  0.287149  1
  Sc  Sc3  1  0.287269  0.287771  0.712127  1
  Sc  Sc4  1  0.712833  0.287771  0.712127  1
  Sc  Sc5  1  0.287918  0.712082  0.712082  1
  Ta  Ta6  1  0.365961  0.877936  0.877936  1
  Ta  Ta7  1  0.878167  0.877936  0.877936  1
  Nb  Nb8  1  0.878068  0.877887  0.365977  1
  Nb  Nb9  1  0.878068  0.365977  0.877887  1
  Ga  Ga10  1  0.120122  0.120155  0.639600  1
  Ga  Ga11  1  0.120122  0.639600  0.120155  1
  Ga  Ga12  1  0.639474  0.120197  0.120197  1
  Ga  Ga13  1  0.120131  0.120197  0.120197  1
  Ga  Ga14  1  0.658044  0.657896  0.026016  1
  Ga  Ga15  1  0.658044  0.026016  0.657896  1
  Ga  Ga16  1  0.025390  0.658131  0.658131  1
  Ga  Ga17  1  0.658348  0.658131  0.658131  1
  Ga  Ga18  1  0.339554  0.339343  0.981551  1
  Ga  Ga19  1  0.339554  0.981551  0.339343  1
  Ga  Ga20  1  0.981930  0.339269  0.339269  1
  Ga  Ga21  1  0.339533  0.339269  0.339269  1
  Os  Os22  1  0.000454  0.999546  0.999546  1
  Os  Os23  1  0.997244  0.997134  0.504104  1
  Os  Os24  1  0.501518  0.997134  0.504104  1
  Os  Os25  1  0.997494  0.502506  0.502506  1
  Os  Os26  1  0.501518  0.504104  0.997134  1
  Os  Os27  1  0.997244  0.504104  0.997134  1
  Os  Os28  1  0.503047  0.996953  0.996953  1
