# generated using pymatgen
data_TbCe2Pr7(Al2Ru3)2
_symmetry_space_group_name_H-M   'P 1'
_cell_length_a   8.69791910
_cell_length_b   8.58560575
_cell_length_c   8.56199886
_cell_angle_alpha   110.23748215
_cell_angle_beta   109.09664889
_cell_angle_gamma   110.48598563
_symmetry_Int_Tables_number   1
_chemical_formula_structural   TbCe2Pr7(Al2Ru3)2
_chemical_formula_sum   'Tb1 Ce2 Pr7 Al4 Ru6'
_cell_volume   483.40566328
_cell_formula_units_Z   1
loop_
 _symmetry_equiv_pos_site_id
 _symmetry_equiv_pos_as_xyz
  1  'x, y, z'
loop_
 _atom_site_type_symbol
 _atom_site_label
 _atom_site_symmetry_multiplicity
 _atom_site_fract_x
 _atom_site_fract_y
 _atom_site_fract_z
 _atom_site_occupancy
  Tb  Tb0  1  0.790780  0.793984  0.787327  1
  Ce  Ce1  1  0.945509  0.249089  0.196182  1
  Ce  Ce2  1  0.196084  0.944118  0.250324  1
  Pr  Pr3  1  0.315642  0.562696  0.754109  1
  Pr  Pr4  1  0.753506  0.315689  0.565087  1
  Pr  Pr5  1  0.562269  0.749609  0.310246  1
  Pr  Pr6  1  0.723178  0.503947  0.998519  1
  Pr  Pr7  1  0.998837  0.719923  0.504842  1
  Pr  Pr8  1  0.502383  0.989584  0.716168  1
  Pr  Pr9  1  0.252493  0.193114  0.937651  1
  Al  Al10  1  0.417351  0.411382  0.412609  1
  Al  Al11  1  0.089568  0.490800  0.999931  1
  Al  Al12  1  0.998062  0.089874  0.495376  1
  Al  Al13  1  0.502293  0.012785  0.097712  1
  Ru  Ru14  1  0.873395  0.116441  0.737166  1
  Ru  Ru15  1  0.757168  0.918511  0.122485  1
  Ru  Ru16  1  0.129279  0.766510  0.923760  1
  Ru  Ru17  1  0.217584  0.575937  0.354745  1
  Ru  Ru18  1  0.349561  0.212219  0.581434  1
  Ru  Ru19  1  0.625060  0.383788  0.254324  1
