# generated using pymatgen
data_K8Li4YSc3As8
_symmetry_space_group_name_H-M   'P 1'
_cell_length_a   10.14882138
_cell_length_b   10.14882269
_cell_length_c   6.61377230
_cell_angle_alpha   89.97900320
_cell_angle_beta   90.02098345
_cell_angle_gamma   98.73608728
_symmetry_Int_Tables_number   1
_chemical_formula_structural   K8Li4YSc3As8
_chemical_formula_sum   'K8 Li4 Y1 Sc3 As8'
_cell_volume   673.30603189
_cell_formula_units_Z   1
loop_
 _symmetry_equiv_pos_site_id
 _symmetry_equiv_pos_as_xyz
  1  'x, y, z'
loop_
 _atom_site_type_symbol
 _atom_site_label
 _atom_site_symmetry_multiplicity
 _atom_site_fract_x
 _atom_site_fract_y
 _atom_site_fract_z
 _atom_site_occupancy
  K  K0  1  0.069302  0.433696  0.747987  1
  K  K1  1  0.676526  0.324014  0.787111  1
  K  K2  1  0.324014  0.676526  0.212889  1
  K  K3  1  0.570271  0.929205  0.749580  1
  K  K4  1  0.433696  0.069302  0.252013  1
  K  K5  1  0.929205  0.570271  0.250420  1
  K  K6  1  0.820787  0.176805  0.289099  1
  K  K7  1  0.176805  0.820787  0.710901  1
  Li  Li8  1  0.119709  0.119709  0.500000  1
  Li  Li9  1  0.879247  0.879247  0.500000  1
  Li  Li10  1  0.382335  0.382335  0.000000  1
  Li  Li11  1  0.620031  0.620031  0.000000  1
  Y  Y12  1  0.131741  0.131741  0.000000  1
  Sc  Sc13  1  0.867301  0.867301  0.000000  1
  Sc  Sc14  1  0.370877  0.370877  0.500000  1
  Sc  Sc15  1  0.630418  0.630418  0.500000  1
  As  As16  1  0.840850  0.658442  0.750164  1
  As  As17  1  0.089711  0.899499  0.231690  1
  As  As18  1  0.408924  0.592034  0.725908  1
  As  As19  1  0.592034  0.408924  0.274092  1
  As  As20  1  0.658442  0.840850  0.249836  1
  As  As21  1  0.157992  0.350284  0.259398  1
  As  As22  1  0.350284  0.157992  0.740602  1
  As  As23  1  0.899499  0.089711  0.768310  1
