# generated using pymatgen
data_La4Sm2FeI10
_symmetry_space_group_name_H-M   'P 1'
_cell_length_a   8.09762604
_cell_length_b   10.07273613
_cell_length_c   9.94441072
_cell_angle_alpha   106.87837409
_cell_angle_beta   96.82568583
_cell_angle_gamma   106.01834623
_symmetry_Int_Tables_number   1
_chemical_formula_structural   La4Sm2FeI10
_chemical_formula_sum   'La4 Sm2 Fe1 I10'
_cell_volume   728.37673785
_cell_formula_units_Z   1
loop_
 _symmetry_equiv_pos_site_id
 _symmetry_equiv_pos_as_xyz
  1  'x, y, z'
loop_
 _atom_site_type_symbol
 _atom_site_label
 _atom_site_symmetry_multiplicity
 _atom_site_fract_x
 _atom_site_fract_y
 _atom_site_fract_z
 _atom_site_occupancy
  La  La0  1  0.861824  0.134915  0.678969  1
  La  La1  1  0.138176  0.865085  0.321031  1
  La  La2  1  0.391697  0.958423  0.714669  1
  La  La3  1  0.608303  0.041577  0.285331  1
  Sm  Sm4  1  0.468861  0.288272  0.585888  1
  Sm  Sm5  1  0.531139  0.711728  0.414112  1
  Fe  Fe6  1  0.500000  0.000000  0.500000  1
  I  I7  1  0.417193  0.627778  0.676613  1
  I  I8  1  0.582807  0.372222  0.323387  1
  I  I9  1  0.297393  0.263172  0.848547  1
  I  I10  1  0.702607  0.736828  0.151453  1
  I  I11  1  0.846514  0.457974  0.770965  1
  I  I12  1  0.153486  0.542026  0.229035  1
  I  I13  1  0.050221  0.183969  0.409185  1
  I  I14  1  0.243644  0.914604  0.037006  1
  I  I15  1  0.756356  0.085396  0.962994  1
  I  I16  1  0.949779  0.816031  0.590815  1
