# generated using pymatgen
data_Tb16MgIn(Rh2Au)2
_symmetry_space_group_name_H-M   'P 1'
_cell_length_a   9.62334165
_cell_length_b   9.60329463
_cell_length_c   9.62855000
_cell_angle_alpha   59.91296657
_cell_angle_beta   59.98209496
_cell_angle_gamma   60.14908673
_symmetry_Int_Tables_number   1
_chemical_formula_structural   Tb16MgIn(Rh2Au)2
_chemical_formula_sum   'Tb16 Mg1 In1 Rh4 Au2'
_cell_volume   629.40909481
_cell_formula_units_Z   1
loop_
 _symmetry_equiv_pos_site_id
 _symmetry_equiv_pos_as_xyz
  1  'x, y, z'
loop_
 _atom_site_type_symbol
 _atom_site_label
 _atom_site_symmetry_multiplicity
 _atom_site_fract_x
 _atom_site_fract_y
 _atom_site_fract_z
 _atom_site_occupancy
  Tb  Tb0  1  0.811499  0.807890  0.190306  1
  Tb  Tb1  1  0.808762  0.193352  0.806276  1
  Tb  Tb2  1  0.192787  0.194941  0.806136  1
  Tb  Tb3  1  0.645409  0.059885  0.647353  1
  Tb  Tb4  1  0.063743  0.064794  0.435731  1
  Tb  Tb5  1  0.438256  0.438107  0.061818  1
  Tb  Tb6  1  0.651520  0.649276  0.652046  1
  Tb  Tb7  1  0.808762  0.193352  0.191610  1
  Tb  Tb8  1  0.188094  0.814291  0.810002  1
  Tb  Tb9  1  0.049509  0.647621  0.651435  1
  Tb  Tb10  1  0.438961  0.067033  0.059184  1
  Tb  Tb11  1  0.438961  0.067033  0.434823  1
  Tb  Tb12  1  0.072281  0.437991  0.056384  1
  Tb  Tb13  1  0.651520  0.649276  0.047159  1
  Tb  Tb14  1  0.188094  0.814291  0.187613  1
  Tb  Tb15  1  0.072281  0.437991  0.433345  1
  Mg  Mg16  1  0.422529  0.709033  0.434219  1
  In  In17  1  0.745590  0.416447  0.418981  1
  Rh  Rh18  1  0.856544  0.425596  0.858931  1
  Rh  Rh19  1  0.855650  0.860296  0.858662  1
  Rh  Rh20  1  0.855650  0.860296  0.425394  1
  Rh  Rh21  1  0.426409  0.860024  0.856784  1
  Au  Au22  1  0.408598  0.415592  0.407710  1
  Au  Au23  1  0.408598  0.415592  0.768098  1
