# generated using pymatgen
data_Er3Sc2Bi2Pb
_symmetry_space_group_name_H-M   'P 1'
_cell_length_a   8.92242366
_cell_length_b   8.89967470
_cell_length_c   6.21592000
_cell_angle_alpha   90.00000000
_cell_angle_beta   90.00000000
_cell_angle_gamma   119.91569629
_symmetry_Int_Tables_number   1
_chemical_formula_structural   Er3Sc2Bi2Pb
_chemical_formula_sum   'Er6 Sc4 Bi4 Pb2'
_cell_volume   427.82024123
_cell_formula_units_Z   2
loop_
 _symmetry_equiv_pos_site_id
 _symmetry_equiv_pos_as_xyz
  1  'x, y, z'
loop_
 _atom_site_type_symbol
 _atom_site_label
 _atom_site_symmetry_multiplicity
 _atom_site_fract_x
 _atom_site_fract_y
 _atom_site_fract_z
 _atom_site_occupancy
  Er  Er0  1  0.240446  0.003118  0.250000  1
  Er  Er1  1  0.240446  0.237328  0.750000  1
  Er  Er2  1  0.002167  0.762548  0.750000  1
  Er  Er3  1  0.002167  0.239620  0.250000  1
  Er  Er4  1  0.757828  0.758746  0.250000  1
  Er  Er5  1  0.757828  0.999081  0.750000  1
  Sc  Sc6  1  0.333774  0.666888  0.000000  1
  Sc  Sc7  1  0.664955  0.332477  0.500000  1
  Sc  Sc8  1  0.664955  0.332477  0.000000  1
  Sc  Sc9  1  0.333774  0.666888  0.500000  1
  Bi  Bi10  1  0.604208  0.000720  0.250000  1
  Bi  Bi11  1  0.604208  0.603488  0.750000  1
  Bi  Bi12  1  0.999794  0.395714  0.750000  1
  Bi  Bi13  1  0.999794  0.604080  0.250000  1
  Pb  Pb14  1  0.396827  0.397743  0.250000  1
  Pb  Pb15  1  0.396827  0.999084  0.750000  1
