# generated using pymatgen
data_Er5Sc2PbC4
_symmetry_space_group_name_H-M   'P 1'
_cell_length_a   11.20733600
_cell_length_b   11.20733600
_cell_length_c   3.59347900
_cell_angle_alpha   90.00000000
_cell_angle_beta   90.00000000
_cell_angle_gamma   90.00000000
_symmetry_Int_Tables_number   1
_chemical_formula_structural   Er5Sc2PbC4
_chemical_formula_sum   'Er10 Sc4 Pb2 C8'
_cell_volume   451.35670262
_cell_formula_units_Z   2
loop_
 _symmetry_equiv_pos_site_id
 _symmetry_equiv_pos_as_xyz
  1  'x, y, z'
loop_
 _atom_site_type_symbol
 _atom_site_label
 _atom_site_symmetry_multiplicity
 _atom_site_fract_x
 _atom_site_fract_y
 _atom_site_fract_z
 _atom_site_occupancy
  Er  Er0  1  0.548087  0.744847  0.500000  1
  Er  Er1  1  0.451913  0.255153  0.500000  1
  Er  Er2  1  0.048087  0.755153  0.500000  1
  Er  Er3  1  0.951913  0.244847  0.500000  1
  Er  Er4  1  0.255153  0.548087  0.500000  1
  Er  Er5  1  0.744847  0.451913  0.500000  1
  Er  Er6  1  0.244847  0.048087  0.500000  1
  Er  Er7  1  0.755153  0.951913  0.500000  1
  Er  Er8  1  0.500000  0.000000  0.000000  1
  Er  Er9  1  0.000000  0.500000  0.000000  1
  Sc  Sc10  1  0.703613  0.203613  0.000000  1
  Sc  Sc11  1  0.296387  0.796387  0.000000  1
  Sc  Sc12  1  0.203613  0.296387  0.000000  1
  Sc  Sc13  1  0.796387  0.703613  0.000000  1
  Pb  Pb14  1  0.500000  0.500000  0.000000  1
  Pb  Pb15  1  0.000000  0.000000  0.000000  1
  C  C16  1  0.621089  0.121089  0.500000  1
  C  C17  1  0.378911  0.878911  0.500000  1
  C  C18  1  0.121089  0.378911  0.500000  1
  C  C19  1  0.878911  0.621089  0.500000  1
  C  C20  1  0.156873  0.656873  0.000000  1
  C  C21  1  0.843127  0.343127  0.000000  1
  C  C22  1  0.656873  0.843127  0.000000  1
  C  C23  1  0.343127  0.156873  0.000000  1
