# generated using pymatgen
data_Tb4HgPd3Pb2
_symmetry_space_group_name_H-M   'P 1'
_cell_length_a   8.10978428
_cell_length_b   8.10978428
_cell_length_c   3.66206200
_cell_angle_alpha   90.00000000
_cell_angle_beta   90.00000000
_cell_angle_gamma   90.82912960
_symmetry_Int_Tables_number   1
_chemical_formula_structural   Tb4HgPd3Pb2
_chemical_formula_sum   'Tb4 Hg1 Pd3 Pb2'
_cell_volume   240.82347725
_cell_formula_units_Z   1
loop_
 _symmetry_equiv_pos_site_id
 _symmetry_equiv_pos_as_xyz
  1  'x, y, z'
loop_
 _atom_site_type_symbol
 _atom_site_label
 _atom_site_symmetry_multiplicity
 _atom_site_fract_x
 _atom_site_fract_y
 _atom_site_fract_z
 _atom_site_occupancy
  Tb  Tb0  1  0.690739  0.166832  0.500000  1
  Tb  Tb1  1  0.154885  0.345115  0.500000  1
  Tb  Tb2  1  0.827557  0.672443  0.500000  1
  Tb  Tb3  1  0.333168  0.809261  0.500000  1
  Hg  Hg4  1  0.375596  0.124404  0.000000  1
  Pd  Pd5  1  0.121473  0.627717  0.000000  1
  Pd  Pd6  1  0.624201  0.875799  0.000000  1
  Pd  Pd7  1  0.872283  0.378527  0.000000  1
  Pb  Pb8  1  0.995146  0.995048  0.000000  1
  Pb  Pb9  1  0.504952  0.504854  0.000000  1
