# generated using pymatgen
data_Sc12Fe3Si12Au
_symmetry_space_group_name_H-M   'P 1'
_cell_length_a   4.02231800
_cell_length_b   10.12400771
_cell_length_c   11.64175360
_cell_angle_alpha   90.12620881
_cell_angle_beta   90.00000000
_cell_angle_gamma   90.00000000
_symmetry_Int_Tables_number   1
_chemical_formula_structural   Sc12Fe3Si12Au
_chemical_formula_sum   'Sc12 Fe3 Si12 Au1'
_cell_volume   474.07408900
_cell_formula_units_Z   1
loop_
 _symmetry_equiv_pos_site_id
 _symmetry_equiv_pos_as_xyz
  1  'x, y, z'
loop_
 _atom_site_type_symbol
 _atom_site_label
 _atom_site_symmetry_multiplicity
 _atom_site_fract_x
 _atom_site_fract_y
 _atom_site_fract_z
 _atom_site_occupancy
  Sc  Sc0  1  0.250000  0.881163  0.027928  1
  Sc  Sc1  1  0.250000  0.628334  0.517497  1
  Sc  Sc2  1  0.750000  0.118144  0.978279  1
  Sc  Sc3  1  0.750000  0.382023  0.471901  1
  Sc  Sc4  1  0.250000  0.921787  0.597937  1
  Sc  Sc5  1  0.250000  0.578348  0.099389  1
  Sc  Sc6  1  0.750000  0.079718  0.398557  1
  Sc  Sc7  1  0.750000  0.419765  0.897513  1
  Sc  Sc8  1  0.250000  0.672261  0.803031  1
  Sc  Sc9  1  0.250000  0.842872  0.298663  1
  Sc  Sc10  1  0.750000  0.342024  0.201657  1
  Sc  Sc11  1  0.750000  0.146902  0.701750  1
  Fe  Fe12  1  0.250000  0.107291  0.175803  1
  Fe  Fe13  1  0.750000  0.607484  0.323856  1
  Fe  Fe14  1  0.750000  0.889956  0.825738  1
  Si  Si15  1  0.250000  0.998138  0.821498  1
  Si  Si16  1  0.250000  0.493975  0.320016  1
  Si  Si17  1  0.750000  0.993952  0.180239  1
  Si  Si18  1  0.750000  0.528765  0.674924  1
  Si  Si19  1  0.250000  0.239945  0.849275  1
  Si  Si20  1  0.250000  0.246002  0.335183  1
  Si  Si21  1  0.750000  0.744650  0.164210  1
  Si  Si22  1  0.750000  0.761727  0.662134  1
  Si  Si23  1  0.250000  0.185052  0.538158  1
  Si  Si24  1  0.250000  0.299842  0.050329  1
  Si  Si25  1  0.750000  0.802362  0.451141  1
  Si  Si26  1  0.750000  0.701611  0.956615  1
  Au  Au27  1  0.250000  0.385906  0.676778  1
