# generated using pymatgen
data_RbNiRhF6
_symmetry_space_group_name_H-M   'P 1'
_cell_length_a   7.38182549
_cell_length_b   7.38182595
_cell_length_c   7.38182614
_cell_angle_alpha   120.21179476
_cell_angle_beta   120.54303053
_cell_angle_gamma   89.34777556
_symmetry_Int_Tables_number   1
_chemical_formula_structural   RbNiRhF6
_chemical_formula_sum   'Rb2 Ni2 Rh2 F12'
_cell_volume   282.78523536
_cell_formula_units_Z   2
loop_
 _symmetry_equiv_pos_site_id
 _symmetry_equiv_pos_as_xyz
  1  'x, y, z'
loop_
 _atom_site_type_symbol
 _atom_site_label
 _atom_site_symmetry_multiplicity
 _atom_site_fract_x
 _atom_site_fract_y
 _atom_site_fract_z
 _atom_site_occupancy
  Rb  Rb0  1  0.363503  0.613503  0.750000  1
  Rb  Rb1  1  0.636497  0.386497  0.250000  1
  Ni  Ni2  1  0.000000  0.000000  0.500000  1
  Ni  Ni3  1  0.000000  0.500000  0.000000  1
  Rh  Rh4  1  0.000000  0.000000  0.000000  1
  Rh  Rh5  1  0.500000  0.000000  0.500000  1
  F  F6  1  0.329649  0.079649  0.250000  1
  F  F7  1  0.931056  0.681056  0.250000  1
  F  F8  1  0.331056  0.673780  0.251572  1
  F  F9  1  0.922208  0.079483  0.248428  1
  F  F10  1  0.331056  0.079483  0.657276  1
  F  F11  1  0.922208  0.673780  0.842724  1
  F  F12  1  0.670351  0.920351  0.750000  1
  F  F13  1  0.068944  0.318944  0.750000  1
  F  F14  1  0.668944  0.326220  0.748428  1
  F  F15  1  0.077792  0.920517  0.751572  1
  F  F16  1  0.668944  0.920517  0.342724  1
  F  F17  1  0.077792  0.326220  0.157276  1
