# generated using pymatgen
data_Ho3Er(IrPd)2
_symmetry_space_group_name_H-M   'P 1'
_cell_length_a   4.86448500
_cell_length_b   6.99161000
_cell_length_c   14.60115600
_cell_angle_alpha   90.00045072
_cell_angle_beta   89.99981155
_cell_angle_gamma   89.99985249
_symmetry_Int_Tables_number   1
_chemical_formula_structural   Ho3Er(IrPd)2
_chemical_formula_sum   'Ho9 Er3 Ir6 Pd6'
_cell_volume   496.59381301
_cell_formula_units_Z   3
loop_
 _symmetry_equiv_pos_site_id
 _symmetry_equiv_pos_as_xyz
  1  'x, y, z'
loop_
 _atom_site_type_symbol
 _atom_site_label
 _atom_site_symmetry_multiplicity
 _atom_site_fract_x
 _atom_site_fract_y
 _atom_site_fract_z
 _atom_site_occupancy
  Ho  Ho0  1  0.500051  0.249824  0.999895  1
  Ho  Ho1  1  0.499934  0.750170  0.999834  1
  Ho  Ho2  1  0.999907  0.250202  0.166816  1
  Ho  Ho3  1  0.000005  0.749851  0.166822  1
  Ho  Ho4  1  0.500006  0.249783  0.333203  1
  Ho  Ho5  1  0.499908  0.750193  0.333310  1
  Ho  Ho6  1  0.999929  0.250197  0.499862  1
  Ho  Ho7  1  0.000049  0.749893  0.500054  1
  Ho  Ho8  1  0.500092  0.249820  0.666872  1
  Er  Er9  1  0.500143  0.749760  0.666667  1
  Er  Er10  1  0.000084  0.249983  0.833356  1
  Er  Er11  1  0.999929  0.750230  0.833413  1
  Ir  Ir12  1  0.999992  0.999899  0.000013  1
  Ir  Ir13  1  0.499938  0.500068  0.166573  1
  Ir  Ir14  1  0.999932  0.999857  0.333393  1
  Ir  Ir15  1  0.499997  0.500338  0.500054  1
  Ir  Ir16  1  0.000056  0.999663  0.666593  1
  Ir  Ir17  1  0.500044  0.500326  0.833361  1
  Pd  Pd18  1  0.999988  0.500077  0.999694  1
  Pd  Pd19  1  0.499957  0.999968  0.166383  1
  Pd  Pd20  1  0.999958  0.500141  0.333435  1
  Pd  Pd21  1  0.499989  0.999408  0.500360  1
  Pd  Pd22  1  0.000062  0.501051  0.666887  1
  Pd  Pd23  1  0.500050  0.999301  0.833150  1
