# generated using pymatgen
data_NdNp(B2Ir3)3
_symmetry_space_group_name_H-M   'P 1'
_cell_length_a   5.66927902
_cell_length_b   5.66904488
_cell_length_c   8.65503200
_cell_angle_alpha   90.00228413
_cell_angle_beta   90.00455797
_cell_angle_gamma   59.99862792
_symmetry_Int_Tables_number   1
_chemical_formula_structural   NdNp(B2Ir3)3
_chemical_formula_sum   'Nd1 Np1 B6 Ir9'
_cell_volume   240.89679961
_cell_formula_units_Z   1
loop_
 _symmetry_equiv_pos_site_id
 _symmetry_equiv_pos_as_xyz
  1  'x, y, z'
loop_
 _atom_site_type_symbol
 _atom_site_label
 _atom_site_symmetry_multiplicity
 _atom_site_fract_x
 _atom_site_fract_y
 _atom_site_fract_z
 _atom_site_occupancy
  Nd  Nd0  1  0.999944  0.000000  0.704188  1
  Np  Np1  1  0.000214  0.000000  0.303148  1
  B  B2  1  0.666670  0.666660  0.998857  1
  B  B3  1  0.333330  0.333340  0.998857  1
  B  B4  1  0.666660  0.666662  0.331531  1
  B  B5  1  0.333322  0.333338  0.331531  1
  B  B6  1  0.333304  0.333339  0.668293  1
  B  B7  1  0.666645  0.666661  0.668293  1
  Ir  Ir8  1  0.500011  0.000000  0.163203  1
  Ir  Ir9  1  0.000012  0.500014  0.163197  1
  Ir  Ir10  1  0.500026  0.499986  0.163197  1
  Ir  Ir11  1  0.499984  0.000000  0.836327  1
  Ir  Ir12  1  0.999991  0.500003  0.836324  1
  Ir  Ir13  1  0.499994  0.499997  0.836324  1
  Ir  Ir14  1  0.499911  0.000000  0.498915  1
  Ir  Ir15  1  0.999943  0.499996  0.498909  1
  Ir  Ir16  1  0.499940  0.500004  0.498909  1
