# generated using pymatgen
data_ErSi4(RuRh)3
_symmetry_space_group_name_H-M   'P 1'
_cell_length_a   7.00166400
_cell_length_b   7.00166496
_cell_length_c   3.79815700
_cell_angle_alpha   90.00000000
_cell_angle_beta   90.00000000
_cell_angle_gamma   119.99999547
_symmetry_Int_Tables_number   1
_chemical_formula_structural   ErSi4(RuRh)3
_chemical_formula_sum   'Er1 Si4 Ru3 Rh3'
_cell_volume   161.25238812
_cell_formula_units_Z   1
loop_
 _symmetry_equiv_pos_site_id
 _symmetry_equiv_pos_as_xyz
  1  'x, y, z'
loop_
 _atom_site_type_symbol
 _atom_site_label
 _atom_site_symmetry_multiplicity
 _atom_site_fract_x
 _atom_site_fract_y
 _atom_site_fract_z
 _atom_site_occupancy
  Er  Er0  1  0.000000  0.000000  0.000000  1
  Si  Si1  1  0.800162  0.600323  0.500000  1
  Si  Si2  1  0.333333  0.666667  0.000000  1
  Si  Si3  1  0.399677  0.199838  0.500000  1
  Si  Si4  1  0.800162  0.199838  0.500000  1
  Ru  Ru5  1  0.534578  0.069156  0.000000  1
  Ru  Ru6  1  0.534578  0.465422  0.000000  1
  Ru  Ru7  1  0.930844  0.465422  0.000000  1
  Rh  Rh8  1  0.603333  0.801667  0.500000  1
  Rh  Rh9  1  0.198333  0.396667  0.500000  1
  Rh  Rh10  1  0.198333  0.801667  0.500000  1
