# generated using pymatgen
data_YbPrTm2(B6Ru)2
_symmetry_space_group_name_H-M   'P 1'
_cell_length_a   3.66793000
_cell_length_b   9.15681680
_cell_length_c   11.58294201
_cell_angle_alpha   89.84928425
_cell_angle_beta   90.00000000
_cell_angle_gamma   90.00000000
_symmetry_Int_Tables_number   1
_chemical_formula_structural   YbPrTm2(B6Ru)2
_chemical_formula_sum   'Yb2 Pr2 Tm4 B24 Ru4'
_cell_volume   389.02986622
_cell_formula_units_Z   2
loop_
 _symmetry_equiv_pos_site_id
 _symmetry_equiv_pos_as_xyz
  1  'x, y, z'
loop_
 _atom_site_type_symbol
 _atom_site_label
 _atom_site_symmetry_multiplicity
 _atom_site_fract_x
 _atom_site_fract_y
 _atom_site_fract_z
 _atom_site_occupancy
  Yb  Yb0  1  0.000000  0.325066  0.415879  1
  Yb  Yb1  1  0.000000  0.674934  0.584121  1
  Pr  Pr2  1  0.000000  0.822096  0.086422  1
  Pr  Pr3  1  0.000000  0.177904  0.913578  1
  Tm  Tm4  1  0.000000  0.941789  0.371387  1
  Tm  Tm5  1  0.000000  0.058211  0.628613  1
  Tm  Tm6  1  0.000000  0.442864  0.132922  1
  Tm  Tm7  1  0.000000  0.557136  0.867078  1
  B  B8  1  0.500000  0.554242  0.433012  1
  B  B9  1  0.500000  0.445758  0.566988  1
  B  B10  1  0.500000  0.056886  0.071350  1
  B  B11  1  0.500000  0.943114  0.928650  1
  B  B12  1  0.500000  0.748139  0.418631  1
  B  B13  1  0.500000  0.251861  0.581369  1
  B  B14  1  0.500000  0.250649  0.085786  1
  B  B15  1  0.500000  0.749351  0.914214  1
  B  B16  1  0.500000  0.789593  0.268053  1
  B  B17  1  0.500000  0.210407  0.731947  1
  B  B18  1  0.500000  0.291496  0.237379  1
  B  B19  1  0.500000  0.708504  0.762621  1
  B  B20  1  0.500000  0.628832  0.187772  1
  B  B21  1  0.500000  0.371168  0.812228  1
  B  B22  1  0.500000  0.131301  0.316793  1
  B  B23  1  0.500000  0.868699  0.683207  1
  B  B24  1  0.500000  0.986075  0.215238  1
  B  B25  1  0.500000  0.013925  0.784762  1
  B  B26  1  0.500000  0.483223  0.289826  1
  B  B27  1  0.500000  0.516777  0.710174  1
  B  B28  1  0.500000  0.597194  0.026511  1
  B  B29  1  0.500000  0.402806  0.973489  1
  B  B30  1  0.500000  0.099432  0.472981  1
  B  B31  1  0.500000  0.900568  0.527019  1
  Ru  Ru32  1  0.000000  0.639084  0.320404  1
  Ru  Ru33  1  0.000000  0.360916  0.679596  1
  Ru  Ru34  1  0.000000  0.140249  0.182627  1
  Ru  Ru35  1  0.000000  0.859751  0.817373  1
