# generated using pymatgen
data_Mg11Ga7Rh6
_symmetry_space_group_name_H-M   'P 1'
_cell_length_a   7.47906804
_cell_length_b   7.47906830
_cell_length_c   8.70694321
_cell_angle_alpha   89.80810472
_cell_angle_beta   89.80810503
_cell_angle_gamma   119.10097199
_symmetry_Int_Tables_number   1
_chemical_formula_structural   Mg11Ga7Rh6
_chemical_formula_sum   'Mg11 Ga7 Rh6'
_cell_volume   425.54485544
_cell_formula_units_Z   1
loop_
 _symmetry_equiv_pos_site_id
 _symmetry_equiv_pos_as_xyz
  1  'x, y, z'
loop_
 _atom_site_type_symbol
 _atom_site_label
 _atom_site_symmetry_multiplicity
 _atom_site_fract_x
 _atom_site_fract_y
 _atom_site_fract_z
 _atom_site_occupancy
  Mg  Mg0  1  0.001075  0.293529  0.079740  1
  Mg  Mg1  1  0.293529  0.001075  0.079740  1
  Mg  Mg2  1  0.708038  0.001717  0.576582  1
  Mg  Mg3  1  0.001717  0.708038  0.576582  1
  Mg  Mg4  1  0.701340  0.701340  0.078467  1
  Mg  Mg5  1  0.624828  0.624828  0.420992  1
  Mg  Mg6  1  0.004951  0.634472  0.914698  1
  Mg  Mg7  1  0.634472  0.004951  0.914698  1
  Mg  Mg8  1  0.364680  0.007305  0.415990  1
  Mg  Mg9  1  0.007305  0.364680  0.415990  1
  Mg  Mg10  1  0.365907  0.365907  0.909386  1
  Ga  Ga11  1  0.988402  0.988402  0.294803  1
  Ga  Ga12  1  0.996732  0.996732  0.806411  1
  Ga  Ga13  1  0.333847  0.666391  0.216531  1
  Ga  Ga14  1  0.675294  0.339262  0.718395  1
  Ga  Ga15  1  0.339262  0.675294  0.718395  1
  Ga  Ga16  1  0.666391  0.333847  0.216531  1
  Ga  Ga17  1  0.286408  0.286408  0.573746  1
  Rh  Rh18  1  0.323625  0.323625  0.259361  1
  Rh  Rh19  1  0.012325  0.331770  0.740740  1
  Rh  Rh20  1  0.331770  0.012325  0.740740  1
  Rh  Rh21  1  0.665000  0.999081  0.245833  1
  Rh  Rh22  1  0.999081  0.665000  0.245833  1
  Rh  Rh23  1  0.674023  0.674023  0.748813  1
