# generated using pymatgen
data_CsTb2(CoH6)2
_symmetry_space_group_name_H-M   'P 1'
_cell_length_a   4.81579800
_cell_length_b   4.81579901
_cell_length_c   9.33826500
_cell_angle_alpha   90.00000000
_cell_angle_beta   90.00000000
_cell_angle_gamma   120.00000678
_symmetry_Int_Tables_number   1
_chemical_formula_structural   CsTb2(CoH6)2
_chemical_formula_sum   'Cs1 Tb2 Co2 H12'
_cell_volume   187.55705789
_cell_formula_units_Z   1
loop_
 _symmetry_equiv_pos_site_id
 _symmetry_equiv_pos_as_xyz
  1  'x, y, z'
loop_
 _atom_site_type_symbol
 _atom_site_label
 _atom_site_symmetry_multiplicity
 _atom_site_fract_x
 _atom_site_fract_y
 _atom_site_fract_z
 _atom_site_occupancy
  Cs  Cs0  1  0.000000  0.000000  0.000000  1
  Tb  Tb1  1  0.666667  0.333333  0.376348  1
  Tb  Tb2  1  0.333333  0.666667  0.623652  1
  Co  Co3  1  0.666667  0.333333  0.693768  1
  Co  Co4  1  0.333333  0.666667  0.306232  1
  H  H5  1  0.176520  0.823480  0.399912  1
  H  H6  1  0.646960  0.823480  0.399912  1
  H  H7  1  0.176520  0.353040  0.399912  1
  H  H8  1  0.823480  0.176520  0.600088  1
  H  H9  1  0.353040  0.176520  0.600088  1
  H  H10  1  0.823480  0.646960  0.600088  1
  H  H11  1  0.521146  0.042293  0.796591  1
  H  H12  1  0.521146  0.478854  0.796591  1
  H  H13  1  0.957707  0.478854  0.796591  1
  H  H14  1  0.478854  0.957707  0.203409  1
  H  H15  1  0.478854  0.521146  0.203409  1
  H  H16  1  0.042293  0.521146  0.203409  1
