# generated using pymatgen
data_Dy8Mg2Co4BiPb
_symmetry_space_group_name_H-M   'P 1'
_cell_length_a   9.06124214
_cell_length_b   9.06124139
_cell_length_c   9.06124120
_cell_angle_alpha   132.59194828
_cell_angle_beta   132.59194198
_cell_angle_gamma   69.29570397
_symmetry_Int_Tables_number   1
_chemical_formula_structural   Dy8Mg2Co4BiPb
_chemical_formula_sum   'Dy8 Mg2 Co4 Bi1 Pb1'
_cell_volume   395.66059719
_cell_formula_units_Z   1
loop_
 _symmetry_equiv_pos_site_id
 _symmetry_equiv_pos_as_xyz
  1  'x, y, z'
loop_
 _atom_site_type_symbol
 _atom_site_label
 _atom_site_symmetry_multiplicity
 _atom_site_fract_x
 _atom_site_fract_y
 _atom_site_fract_z
 _atom_site_occupancy
  Dy  Dy0  1  0.803871  0.300199  0.862473  1
  Dy  Dy1  1  0.199801  0.696129  0.137528  1
  Dy  Dy2  1  0.437728  0.941400  0.137528  1
  Dy  Dy3  1  0.300199  0.437728  0.496329  1
  Dy  Dy4  1  0.062272  0.199801  0.503671  1
  Dy  Dy5  1  0.558600  0.062272  0.862472  1
  Dy  Dy6  1  0.696129  0.558600  0.496329  1
  Dy  Dy7  1  0.941400  0.803871  0.503671  1
  Mg  Mg8  1  0.998189  0.998189  0.000000  1
  Mg  Mg9  1  0.501811  0.501811  0.000000  1
  Co  Co10  1  0.112358  0.612358  0.724716  1
  Co  Co11  1  0.887642  0.387642  0.275284  1
  Co  Co12  1  0.612358  0.887642  0.500000  1
  Co  Co13  1  0.387642  0.112358  0.500000  1
  Bi  Bi14  1  0.750000  0.750000  0.000000  1
  Pb  Pb15  1  0.250000  0.250000  0.000000  1
