# generated using pymatgen
data_ZrNpReB6
_symmetry_space_group_name_H-M   'P 1'
_cell_length_a   3.59643900
_cell_length_b   9.06760100
_cell_length_c   11.43509800
_cell_angle_alpha   90.00000000
_cell_angle_beta   90.00000000
_cell_angle_gamma   90.00000000
_symmetry_Int_Tables_number   1
_chemical_formula_structural   ZrNpReB6
_chemical_formula_sum   'Zr4 Np4 Re4 B24'
_cell_volume   372.91082562
_cell_formula_units_Z   4
loop_
 _symmetry_equiv_pos_site_id
 _symmetry_equiv_pos_as_xyz
  1  'x, y, z'
loop_
 _atom_site_type_symbol
 _atom_site_label
 _atom_site_symmetry_multiplicity
 _atom_site_fract_x
 _atom_site_fract_y
 _atom_site_fract_z
 _atom_site_occupancy
  Zr  Zr0  1  0.000000  0.944539  0.374170  1
  Zr  Zr1  1  0.000000  0.055461  0.625830  1
  Zr  Zr2  1  0.000000  0.444539  0.125830  1
  Zr  Zr3  1  0.000000  0.555461  0.874170  1
  Np  Np4  1  0.000000  0.322535  0.414682  1
  Np  Np5  1  0.000000  0.677465  0.585318  1
  Np  Np6  1  0.000000  0.822535  0.085318  1
  Np  Np7  1  0.000000  0.177465  0.914682  1
  Re  Re8  1  0.000000  0.639852  0.319603  1
  Re  Re9  1  0.000000  0.360148  0.680397  1
  Re  Re10  1  0.000000  0.139852  0.180397  1
  Re  Re11  1  0.000000  0.860148  0.819603  1
  B  B12  1  0.500000  0.552860  0.433893  1
  B  B13  1  0.500000  0.447140  0.566107  1
  B  B14  1  0.500000  0.052860  0.066107  1
  B  B15  1  0.500000  0.947140  0.933893  1
  B  B16  1  0.500000  0.751251  0.420169  1
  B  B17  1  0.500000  0.248749  0.579831  1
  B  B18  1  0.500000  0.251251  0.079831  1
  B  B19  1  0.500000  0.748749  0.920169  1
  B  B20  1  0.500000  0.795252  0.263937  1
  B  B21  1  0.500000  0.204748  0.736063  1
  B  B22  1  0.500000  0.295252  0.236063  1
  B  B23  1  0.500000  0.704748  0.763937  1
  B  B24  1  0.500000  0.631558  0.182636  1
  B  B25  1  0.500000  0.368442  0.817364  1
  B  B26  1  0.500000  0.131558  0.317364  1
  B  B27  1  0.500000  0.868442  0.682636  1
  B  B28  1  0.500000  0.980563  0.213173  1
  B  B29  1  0.500000  0.019437  0.786827  1
  B  B30  1  0.500000  0.480563  0.286827  1
  B  B31  1  0.500000  0.519437  0.713173  1
  B  B32  1  0.500000  0.602474  0.027904  1
  B  B33  1  0.500000  0.397526  0.972096  1
  B  B34  1  0.500000  0.102474  0.472096  1
  B  B35  1  0.500000  0.897526  0.527904  1
