# generated using pymatgen
data_Nb8V3B8W
_symmetry_space_group_name_H-M   'P 1'
_cell_length_a   3.27284900
_cell_length_b   6.06959626
_cell_length_c   12.13899509
_cell_angle_alpha   89.99026296
_cell_angle_beta   90.00000000
_cell_angle_gamma   90.00000000
_symmetry_Int_Tables_number   1
_chemical_formula_structural   Nb8V3B8W
_chemical_formula_sum   'Nb8 V3 B8 W1'
_cell_volume   241.13958105
_cell_formula_units_Z   1
loop_
 _symmetry_equiv_pos_site_id
 _symmetry_equiv_pos_as_xyz
  1  'x, y, z'
loop_
 _atom_site_type_symbol
 _atom_site_label
 _atom_site_symmetry_multiplicity
 _atom_site_fract_x
 _atom_site_fract_y
 _atom_site_fract_z
 _atom_site_occupancy
  Nb  Nb0  1  0.500000  0.823482  0.091961  1
  Nb  Nb1  1  0.500000  0.819901  0.589295  1
  Nb  Nb2  1  0.500000  0.176518  0.908039  1
  Nb  Nb3  1  0.500000  0.180099  0.410705  1
  Nb  Nb4  1  0.500000  0.682035  0.837576  1
  Nb  Nb5  1  0.500000  0.680506  0.340697  1
  Nb  Nb6  1  0.500000  0.317965  0.162424  1
  Nb  Nb7  1  0.500000  0.319494  0.659303  1
  V  V8  1  0.000000  0.500000  0.500000  1
  V  V9  1  0.000000  0.000367  0.748626  1
  V  V10  1  0.000000  0.999633  0.251374  1
  B  B11  1  0.000000  0.390857  0.802827  1
  B  B12  1  0.000000  0.391682  0.306010  1
  B  B13  1  0.000000  0.609143  0.197173  1
  B  B14  1  0.000000  0.608318  0.693990  1
  B  B15  1  0.000000  0.109142  0.054603  1
  B  B16  1  0.000000  0.108263  0.554140  1
  B  B17  1  0.000000  0.890858  0.945397  1
  B  B18  1  0.000000  0.891737  0.445860  1
  W  W19  1  0.000000  0.500000  0.000000  1
