# generated using pymatgen
data_EuErV6O18
_symmetry_space_group_name_H-M   'P 1'
_cell_length_a   7.42249737
_cell_length_b   8.46545846
_cell_length_c   9.55259400
_cell_angle_alpha   105.91014552
_cell_angle_beta   112.88534064
_cell_angle_gamma   64.04312887
_symmetry_Int_Tables_number   1
_chemical_formula_structural   EuErV6O18
_chemical_formula_sum   'Eu1 Er1 V6 O18'
_cell_volume   493.27692960
_cell_formula_units_Z   1
loop_
 _symmetry_equiv_pos_site_id
 _symmetry_equiv_pos_as_xyz
  1  'x, y, z'
loop_
 _atom_site_type_symbol
 _atom_site_label
 _atom_site_symmetry_multiplicity
 _atom_site_fract_x
 _atom_site_fract_y
 _atom_site_fract_z
 _atom_site_occupancy
  Eu  Eu0  1  0.201497  0.857246  0.742470  1
  Er  Er1  1  0.682324  0.357889  0.243284  1
  V  V2  1  0.751784  0.605446  0.010543  1
  V  V3  1  0.988659  0.909164  0.077005  1
  V  V4  1  0.421484  0.807408  0.414986  1
  V  V5  1  0.648677  0.109965  0.503969  1
  V  V6  1  0.171482  0.404201  0.571377  1
  V  V7  1  0.194628  0.310360  0.919776  1
  O  O8  1  0.369238  0.388551  0.061974  1
  O  O9  1  0.833275  0.126458  0.091466  1
  O  O10  1  0.859003  0.776347  0.084229  1
  O  O11  1  0.687234  0.566826  0.145233  1
  O  O12  1  0.223768  0.874092  0.237662  1
  O  O13  1  0.646956  0.176285  0.351830  1
  O  O14  1  0.999736  0.341963  0.412036  1
  O  O15  1  0.533121  0.584098  0.401054  1
  O  O16  1  0.612425  0.902195  0.450524  1
  O  O17  1  0.310446  0.887680  0.556672  1
  O  O18  1  0.125047  0.619870  0.579592  1
  O  O19  1  0.439621  0.273371  0.575877  1
  O  O20  1  0.881638  0.080479  0.642150  1
  O  O21  1  0.144416  0.374287  0.739945  1
  O  O22  1  0.537730  0.665416  0.856276  1
  O  O23  1  0.055417  0.846992  0.914790  1
  O  O24  1  0.290645  0.087434  0.908835  1
  O  O25  1  0.946545  0.402579  0.956646  1
