# generated using pymatgen
data_Tb2ErTm3GaCo2
_symmetry_space_group_name_H-M   'P 1'
_cell_length_a   8.20190603
_cell_length_b   8.20190574
_cell_length_c   8.20190620
_cell_angle_alpha   106.80036870
_cell_angle_beta   109.19127902
_cell_angle_gamma   112.47245307
_symmetry_Int_Tables_number   1
_chemical_formula_structural   Tb2ErTm3GaCo2
_chemical_formula_sum   'Tb4 Er2 Tm6 Ga2 Co4'
_cell_volume   423.68555312
_cell_formula_units_Z   2
loop_
 _symmetry_equiv_pos_site_id
 _symmetry_equiv_pos_as_xyz
  1  'x, y, z'
loop_
 _atom_site_type_symbol
 _atom_site_label
 _atom_site_symmetry_multiplicity
 _atom_site_fract_x
 _atom_site_fract_y
 _atom_site_fract_z
 _atom_site_occupancy
  Tb  Tb0  1  0.698750  0.260737  0.959391  1
  Tb  Tb1  1  0.301347  0.739359  0.040609  1
  Tb  Tb2  1  0.698750  0.739359  0.438014  1
  Tb  Tb3  1  0.301347  0.260737  0.561986  1
  Er  Er4  1  0.039431  0.218552  0.820878  1
  Er  Er5  1  0.397674  0.218552  0.179122  1
  Tm  Tm6  1  0.812478  0.140043  0.327566  1
  Tm  Tm7  1  0.812478  0.484911  0.672434  1
  Tm  Tm8  1  0.187663  0.859358  0.671695  1
  Tm  Tm9  1  0.187663  0.515968  0.328305  1
  Tm  Tm10  1  0.602309  0.781067  0.821242  1
  Tm  Tm11  1  0.959824  0.781067  0.178758  1
  Ga  Ga12  1  0.500962  0.500962  0.000000  1
  Ga  Ga13  1  0.500075  0.000075  0.500000  1
  Co  Co14  1  0.839662  0.500349  0.339313  1
  Co  Co15  1  0.161036  0.500349  0.660687  1
  Co  Co16  1  0.999277  0.115023  0.115747  1
  Co  Co17  1  0.999277  0.883530  0.884253  1
