# generated using pymatgen
data_Sm3DyPa2(Co3P2)6
_symmetry_space_group_name_H-M   'P 1'
_cell_length_a   3.72766100
_cell_length_b   10.53145801
_cell_length_c   12.16280101
_cell_angle_alpha   89.99530909
_cell_angle_beta   90.00000000
_cell_angle_gamma   90.00000000
_symmetry_Int_Tables_number   1
_chemical_formula_structural   Sm3DyPa2(Co3P2)6
_chemical_formula_sum   'Sm3 Dy1 Pa2 Co18 P12'
_cell_volume   477.48365599
_cell_formula_units_Z   1
loop_
 _symmetry_equiv_pos_site_id
 _symmetry_equiv_pos_as_xyz
  1  'x, y, z'
loop_
 _atom_site_type_symbol
 _atom_site_label
 _atom_site_symmetry_multiplicity
 _atom_site_fract_x
 _atom_site_fract_y
 _atom_site_fract_z
 _atom_site_occupancy
  Sm  Sm0  1  0.500000  0.814675  0.205134  1
  Sm  Sm1  1  0.500000  0.185424  0.205652  1
  Sm  Sm2  1  0.000000  0.684677  0.794452  1
  Dy  Dy3  1  0.000000  0.314552  0.794555  1
  Pa  Pa4  1  0.000000  0.499307  0.528809  1
  Pa  Pa5  1  0.500000  0.000171  0.471905  1
  Co  Co6  1  0.500000  0.499763  0.158940  1
  Co  Co7  1  0.000000  0.000618  0.840920  1
  Co  Co8  1  0.500000  0.498846  0.695464  1
  Co  Co9  1  0.000000  0.000368  0.305302  1
  Co  Co10  1  0.000000  0.498957  0.983775  1
  Co  Co11  1  0.500000  0.000797  0.014165  1
  Co  Co12  1  0.500000  0.333959  0.993343  1
  Co  Co13  1  0.500000  0.664801  0.994073  1
  Co  Co14  1  0.000000  0.166546  0.004374  1
  Co  Co15  1  0.000000  0.834163  0.005122  1
  Co  Co16  1  0.500000  0.302085  0.432936  1
  Co  Co17  1  0.500000  0.698217  0.431991  1
  Co  Co18  1  0.000000  0.198647  0.569551  1
  Co  Co19  1  0.000000  0.801729  0.568317  1
  Co  Co20  1  0.500000  0.881808  0.709175  1
  Co  Co21  1  0.500000  0.119948  0.710553  1
  Co  Co22  1  0.000000  0.618568  0.290729  1
  Co  Co23  1  0.000000  0.381562  0.290896  1
  P  P24  1  0.500000  0.498160  0.879178  1
  P  P25  1  0.000000  0.000456  0.119002  1
  P  P26  1  0.500000  0.500133  0.343754  1
  P  P27  1  0.000000  0.000063  0.656599  1
  P  P28  1  0.500000  0.306569  0.617404  1
  P  P29  1  0.500000  0.693095  0.615263  1
  P  P30  1  0.000000  0.194016  0.385598  1
  P  P31  1  0.000000  0.806508  0.384884  1
  P  P32  1  0.500000  0.848573  0.895187  1
  P  P33  1  0.500000  0.152985  0.894007  1
  P  P34  1  0.000000  0.650434  0.104275  1
  P  P35  1  0.000000  0.348817  0.104716  1
