# generated using pymatgen
data_Er6Tm10In6CuTc
_symmetry_space_group_name_H-M   'P 1'
_cell_length_a   10.35991300
_cell_length_b   10.35991202
_cell_length_c   6.89286700
_cell_angle_alpha   90.00000000
_cell_angle_beta   90.00000000
_cell_angle_gamma   119.99999993
_symmetry_Int_Tables_number   1
_chemical_formula_structural   Er6Tm10In6CuTc
_chemical_formula_sum   'Er6 Tm10 In6 Cu1 Tc1'
_cell_volume   640.68227119
_cell_formula_units_Z   1
loop_
 _symmetry_equiv_pos_site_id
 _symmetry_equiv_pos_as_xyz
  1  'x, y, z'
loop_
 _atom_site_type_symbol
 _atom_site_label
 _atom_site_symmetry_multiplicity
 _atom_site_fract_x
 _atom_site_fract_y
 _atom_site_fract_z
 _atom_site_occupancy
  Er  Er0  1  0.526177  0.052356  0.520096  1
  Er  Er1  1  0.947644  0.473823  0.520096  1
  Er  Er2  1  0.526177  0.473823  0.520096  1
  Er  Er3  1  0.467263  0.934527  0.016586  1
  Er  Er4  1  0.065473  0.532737  0.016586  1
  Er  Er5  1  0.467263  0.532737  0.016586  1
  Tm  Tm6  1  0.176151  0.352301  0.723344  1
  Tm  Tm7  1  0.647699  0.823849  0.723344  1
  Tm  Tm8  1  0.176151  0.823849  0.723344  1
  Tm  Tm9  1  0.823639  0.647277  0.222789  1
  Tm  Tm10  1  0.352723  0.176361  0.222789  1
  Tm  Tm11  1  0.823639  0.176361  0.222789  1
  Tm  Tm12  1  0.666667  0.333333  0.892606  1
  Tm  Tm13  1  0.333333  0.666667  0.387034  1
  Tm  Tm14  1  0.000000  0.000000  0.496635  1
  Tm  Tm15  1  0.000000  0.000000  0.003436  1
  In  In16  1  0.835627  0.671253  0.757631  1
  In  In17  1  0.328747  0.164373  0.757631  1
  In  In18  1  0.835627  0.164373  0.757631  1
  In  In19  1  0.161291  0.322584  0.259516  1
  In  In20  1  0.677416  0.838709  0.259516  1
  In  In21  1  0.161291  0.838709  0.259516  1
  Cu  Cu22  1  0.666667  0.333333  0.293368  1
  Tc  Tc23  1  0.333333  0.666667  0.785038  1
