# generated using pymatgen
data_Dy5ErAl24(Ru3Rh)2
_symmetry_space_group_name_H-M   'P 1'
_cell_length_a   8.79277962
_cell_length_b   8.79277888
_cell_length_c   9.54490700
_cell_angle_alpha   90.00000000
_cell_angle_beta   90.00000000
_cell_angle_gamma   119.64505061
_symmetry_Int_Tables_number   1
_chemical_formula_structural   Dy5ErAl24(Ru3Rh)2
_chemical_formula_sum   'Dy5 Er1 Al24 Ru6 Rh2'
_cell_volume   641.35270532
_cell_formula_units_Z   1
loop_
 _symmetry_equiv_pos_site_id
 _symmetry_equiv_pos_as_xyz
  1  'x, y, z'
loop_
 _atom_site_type_symbol
 _atom_site_label
 _atom_site_symmetry_multiplicity
 _atom_site_fract_x
 _atom_site_fract_y
 _atom_site_fract_z
 _atom_site_occupancy
  Dy  Dy0  1  0.189804  0.386343  0.250000  1
  Dy  Dy1  1  0.613657  0.810196  0.250000  1
  Dy  Dy2  1  0.805446  0.194554  0.750000  1
  Dy  Dy3  1  0.810184  0.613678  0.750000  1
  Dy  Dy4  1  0.386322  0.189816  0.750000  1
  Er  Er5  1  0.194764  0.805236  0.250000  1
  Al  Al6  1  0.561126  0.438874  0.250000  1
  Al  Al7  1  0.560088  0.122459  0.250000  1
  Al  Al8  1  0.877541  0.439912  0.250000  1
  Al  Al9  1  0.438918  0.561082  0.750000  1
  Al  Al10  1  0.439430  0.877123  0.750000  1
  Al  Al11  1  0.122877  0.560570  0.750000  1
  Al  Al12  1  0.323742  0.161005  0.421847  1
  Al  Al13  1  0.837011  0.162989  0.422319  1
  Al  Al14  1  0.838995  0.676258  0.421847  1
  Al  Al15  1  0.676175  0.838755  0.578008  1
  Al  Al16  1  0.163037  0.836963  0.577369  1
  Al  Al17  1  0.161245  0.323825  0.578008  1
  Al  Al18  1  0.676175  0.838755  0.921992  1
  Al  Al19  1  0.163037  0.836963  0.922631  1
  Al  Al20  1  0.161245  0.323825  0.921992  1
  Al  Al21  1  0.323742  0.161005  0.078153  1
  Al  Al22  1  0.837011  0.162989  0.077681  1
  Al  Al23  1  0.838995  0.676258  0.078153  1
  Al  Al24  1  0.667889  0.332111  0.518327  1
  Al  Al25  1  0.331929  0.668071  0.481553  1
  Al  Al26  1  0.331929  0.668071  0.018447  1
  Al  Al27  1  0.667889  0.332111  0.981673  1
  Al  Al28  1  0.999565  0.000435  0.250000  1
  Al  Al29  1  0.000644  0.999356  0.750000  1
  Ru  Ru30  1  0.999983  0.000017  0.499912  1
  Ru  Ru31  1  0.999983  0.000017  0.000088  1
  Ru  Ru32  1  0.499740  0.999860  0.499836  1
  Ru  Ru33  1  0.000140  0.500260  0.499836  1
  Ru  Ru34  1  0.499740  0.999860  0.000164  1
  Ru  Ru35  1  0.000140  0.500260  0.000164  1
  Rh  Rh36  1  0.499929  0.500071  0.499948  1
  Rh  Rh37  1  0.499929  0.500071  0.000052  1
