# generated using pymatgen
data_Ho20Ir5Ru5Pt2
_symmetry_space_group_name_H-M   'P 1'
_cell_length_a   10.79384695
_cell_length_b   10.79384706
_cell_length_c   6.42063974
_cell_angle_alpha   89.92942146
_cell_angle_beta   89.92942503
_cell_angle_gamma   89.88854610
_symmetry_Int_Tables_number   1
_chemical_formula_structural   Ho20Ir5Ru5Pt2
_chemical_formula_sum   'Ho20 Ir5 Ru5 Pt2'
_cell_volume   748.04778063
_cell_formula_units_Z   1
loop_
 _symmetry_equiv_pos_site_id
 _symmetry_equiv_pos_as_xyz
  1  'x, y, z'
loop_
 _atom_site_type_symbol
 _atom_site_label
 _atom_site_symmetry_multiplicity
 _atom_site_fract_x
 _atom_site_fract_y
 _atom_site_fract_z
 _atom_site_occupancy
  Ho  Ho0  1  0.294773  0.088710  0.379090  1
  Ho  Ho1  1  0.295087  0.914313  0.874132  1
  Ho  Ho2  1  0.707124  0.084089  0.878318  1
  Ho  Ho3  1  0.707458  0.913732  0.376958  1
  Ho  Ho4  1  0.586323  0.793015  0.878405  1
  Ho  Ho5  1  0.586369  0.204938  0.374323  1
  Ho  Ho6  1  0.416371  0.793920  0.377697  1
  Ho  Ho7  1  0.411072  0.205179  0.878571  1
  Ho  Ho8  1  0.206985  0.413677  0.621595  1
  Ho  Ho9  1  0.206080  0.583629  0.122303  1
  Ho  Ho10  1  0.795062  0.413631  0.125677  1
  Ho  Ho11  1  0.794821  0.588928  0.621429  1
  Ho  Ho12  1  0.911290  0.705227  0.120910  1
  Ho  Ho13  1  0.915911  0.292876  0.621682  1
  Ho  Ho14  1  0.085687  0.704913  0.625868  1
  Ho  Ho15  1  0.086268  0.292542  0.123042  1
  Ho  Ho16  1  0.998396  0.002445  0.500664  1
  Ho  Ho17  1  0.997555  0.001604  0.999336  1
  Ho  Ho18  1  0.498377  0.501362  0.001050  1
  Ho  Ho19  1  0.498638  0.501623  0.498950  1
  Ir  Ir20  1  0.848093  0.847226  0.749329  1
  Ir  Ir21  1  0.152774  0.151907  0.750671  1
  Ir  Ir22  1  0.652228  0.651542  0.249750  1
  Ir  Ir23  1  0.348458  0.347772  0.250250  1
  Ir  Ir24  1  0.347077  0.652923  0.750000  1
  Ru  Ru25  1  0.847685  0.152315  0.250000  1
  Ru  Ru26  1  0.500099  0.000672  0.122498  1
  Ru  Ru27  1  0.499521  0.000576  0.622916  1
  Ru  Ru28  1  0.999424  0.500479  0.877084  1
  Ru  Ru29  1  0.999328  0.499901  0.377502  1
  Pt  Pt30  1  0.153247  0.846753  0.250000  1
  Pt  Pt31  1  0.652421  0.347579  0.750000  1
