# generated using pymatgen
data_Y12Ho4Cd3InPd4
_symmetry_space_group_name_H-M   'P 1'
_cell_length_a   9.70287794
_cell_length_b   9.70287774
_cell_length_c   9.70287814
_cell_angle_alpha   60.14133967
_cell_angle_beta   60.14134114
_cell_angle_gamma   60.14134427
_symmetry_Int_Tables_number   1
_chemical_formula_structural   Y12Ho4Cd3InPd4
_chemical_formula_sum   'Y12 Ho4 Cd3 In1 Pd4'
_cell_volume   647.99994140
_cell_formula_units_Z   1
loop_
 _symmetry_equiv_pos_site_id
 _symmetry_equiv_pos_as_xyz
  1  'x, y, z'
loop_
 _atom_site_type_symbol
 _atom_site_label
 _atom_site_symmetry_multiplicity
 _atom_site_fract_x
 _atom_site_fract_y
 _atom_site_fract_z
 _atom_site_occupancy
  Y  Y0  1  0.810500  0.190047  0.190047  1
  Y  Y1  1  0.191006  0.809247  0.809247  1
  Y  Y2  1  0.190047  0.810500  0.190047  1
  Y  Y3  1  0.809247  0.191006  0.809247  1
  Y  Y4  1  0.190047  0.190047  0.810500  1
  Y  Y5  1  0.809247  0.809247  0.191006  1
  Y  Y6  1  0.936250  0.566161  0.566161  1
  Y  Y7  1  0.564046  0.936190  0.936190  1
  Y  Y8  1  0.566161  0.936250  0.566161  1
  Y  Y9  1  0.936190  0.564046  0.936190  1
  Y  Y10  1  0.566161  0.566161  0.936250  1
  Y  Y11  1  0.936190  0.936190  0.564046  1
  Ho  Ho12  1  0.351150  0.351150  0.351150  1
  Ho  Ho13  1  0.355553  0.355553  0.937490  1
  Ho  Ho14  1  0.355553  0.937490  0.355553  1
  Ho  Ho15  1  0.937490  0.355553  0.355553  1
  Cd  Cd16  1  0.580765  0.580765  0.252635  1
  Cd  Cd17  1  0.580765  0.252635  0.580765  1
  Cd  Cd18  1  0.252635  0.580765  0.580765  1
  In  In19  1  0.582439  0.582439  0.582439  1
  Pd  Pd20  1  0.146641  0.146641  0.146641  1
  Pd  Pd21  1  0.143670  0.143670  0.564575  1
  Pd  Pd22  1  0.143670  0.564575  0.143670  1
  Pd  Pd23  1  0.564575  0.143670  0.143670  1
