# generated using pymatgen
data_DyYSc4MnBi2
_symmetry_space_group_name_H-M   'P 1'
_cell_length_a   4.19740200
_cell_length_b   7.84348427
_cell_length_c   7.92062913
_cell_angle_alpha   120.11857154
_cell_angle_beta   90.00000000
_cell_angle_gamma   90.00000000
_symmetry_Int_Tables_number   1
_chemical_formula_structural   DyYSc4MnBi2
_chemical_formula_sum   'Dy1 Y1 Sc4 Mn1 Bi2'
_cell_volume   225.55879563
_cell_formula_units_Z   1
loop_
 _symmetry_equiv_pos_site_id
 _symmetry_equiv_pos_as_xyz
  1  'x, y, z'
loop_
 _atom_site_type_symbol
 _atom_site_label
 _atom_site_symmetry_multiplicity
 _atom_site_fract_x
 _atom_site_fract_y
 _atom_site_fract_z
 _atom_site_occupancy
  Dy  Dy0  1  0.000000  0.609022  0.000745  1
  Y  Y1  1  0.000000  0.390351  0.391447  1
  Sc  Sc2  1  0.500000  0.775148  0.772848  1
  Sc  Sc3  1  0.500000  0.998811  0.221081  1
  Sc  Sc4  1  0.500000  0.226296  0.996516  1
  Sc  Sc5  1  0.000000  0.999673  0.619704  1
  Mn  Mn6  1  0.000000  0.000462  0.992496  1
  Bi  Bi7  1  0.500000  0.678632  0.342733  1
  Bi  Bi8  1  0.500000  0.321604  0.662429  1
