# generated using pymatgen
data_Yb2YCoSn6
_symmetry_space_group_name_H-M   'P 1'
_cell_length_a   8.36002018
_cell_length_b   8.36002058
_cell_length_c   13.29445300
_cell_angle_alpha   90.00000000
_cell_angle_beta   90.00000000
_cell_angle_gamma   147.52041266
_symmetry_Int_Tables_number   1
_chemical_formula_structural   Yb2YCoSn6
_chemical_formula_sum   'Yb4 Y2 Co2 Sn12'
_cell_volume   498.95192690
_cell_formula_units_Z   2
loop_
 _symmetry_equiv_pos_site_id
 _symmetry_equiv_pos_as_xyz
  1  'x, y, z'
loop_
 _atom_site_type_symbol
 _atom_site_label
 _atom_site_symmetry_multiplicity
 _atom_site_fract_x
 _atom_site_fract_y
 _atom_site_fract_z
 _atom_site_occupancy
  Yb  Yb0  1  0.901080  0.098920  0.097257  1
  Yb  Yb1  1  0.098920  0.901080  0.597257  1
  Yb  Yb2  1  0.098920  0.901080  0.902743  1
  Yb  Yb3  1  0.901080  0.098920  0.402743  1
  Y  Y4  1  0.901707  0.098293  0.750000  1
  Y  Y5  1  0.098293  0.901707  0.250000  1
  Co  Co6  1  0.294713  0.705287  0.250000  1
  Co  Co7  1  0.705287  0.294713  0.750000  1
  Sn  Sn8  1  0.755743  0.244257  0.570281  1
  Sn  Sn9  1  0.425985  0.574015  0.577486  1
  Sn  Sn10  1  0.574015  0.425985  0.422514  1
  Sn  Sn11  1  0.732108  0.267892  0.250000  1
  Sn  Sn12  1  0.267892  0.732108  0.750000  1
  Sn  Sn13  1  0.244257  0.755743  0.070281  1
  Sn  Sn14  1  0.244257  0.755743  0.429719  1
  Sn  Sn15  1  0.574015  0.425985  0.077486  1
  Sn  Sn16  1  0.453551  0.546449  0.250000  1
  Sn  Sn17  1  0.546449  0.453551  0.750000  1
  Sn  Sn18  1  0.755743  0.244257  0.929719  1
  Sn  Sn19  1  0.425985  0.574015  0.922514  1
