# generated using pymatgen
data_Li3Hf(Rh3W)2
_symmetry_space_group_name_H-M   'P 1'
_cell_length_a   4.33969400
_cell_length_b   6.19018900
_cell_length_c   12.89188600
_cell_angle_alpha   90.00000000
_cell_angle_beta   89.99954889
_cell_angle_gamma   90.00000000
_symmetry_Int_Tables_number   1
_chemical_formula_structural   Li3Hf(Rh3W)2
_chemical_formula_sum   'Li6 Hf2 Rh12 W4'
_cell_volume   346.32151555
_cell_formula_units_Z   2
loop_
 _symmetry_equiv_pos_site_id
 _symmetry_equiv_pos_as_xyz
  1  'x, y, z'
loop_
 _atom_site_type_symbol
 _atom_site_label
 _atom_site_symmetry_multiplicity
 _atom_site_fract_x
 _atom_site_fract_y
 _atom_site_fract_z
 _atom_site_occupancy
  Li  Li0  1  0.999999  0.500000  0.003395  1
  Li  Li1  1  0.499937  0.000000  0.169555  1
  Li  Li2  1  0.999936  0.500000  0.330393  1
  Li  Li3  1  0.499999  0.000000  0.496553  1
  Li  Li4  1  0.000104  0.500000  0.664544  1
  Li  Li5  1  0.500098  0.000000  0.835533  1
  Hf  Hf6  1  0.000095  0.000000  0.664519  1
  Hf  Hf7  1  0.500081  0.500000  0.835609  1
  Rh  Rh8  1  0.499988  0.242084  0.008600  1
  Rh  Rh9  1  0.499988  0.757916  0.008600  1
  Rh  Rh10  1  0.999906  0.251396  0.167978  1
  Rh  Rh11  1  0.999906  0.748604  0.167978  1
  Rh  Rh12  1  0.499910  0.248607  0.331925  1
  Rh  Rh13  1  0.499910  0.751393  0.331925  1
  Rh  Rh14  1  0.999986  0.257905  0.491376  1
  Rh  Rh15  1  0.999986  0.742095  0.491376  1
  Rh  Rh16  1  0.500092  0.255194  0.661039  1
  Rh  Rh17  1  0.500092  0.744806  0.661039  1
  Rh  Rh18  1  0.000095  0.244839  0.839094  1
  Rh  Rh19  1  0.000095  0.755161  0.839094  1
  W  W20  1  0.999989  0.000000  0.001881  1
  W  W21  1  0.499911  0.500000  0.168548  1
  W  W22  1  0.999913  0.000000  0.331315  1
  W  W23  1  0.499986  0.500000  0.498134  1
