# generated using pymatgen
data_LiYbGaN2
_symmetry_space_group_name_H-M   'P 1'
_cell_length_a   6.90877800
_cell_length_b   5.74080451
_cell_length_c   5.88955505
_cell_angle_alpha   90.02372140
_cell_angle_beta   90.00000000
_cell_angle_gamma   90.00000000
_symmetry_Int_Tables_number   1
_chemical_formula_structural   LiYbGaN2
_chemical_formula_sum   'Li4 Yb4 Ga4 N8'
_cell_volume   233.59118206
_cell_formula_units_Z   4
loop_
 _symmetry_equiv_pos_site_id
 _symmetry_equiv_pos_as_xyz
  1  'x, y, z'
loop_
 _atom_site_type_symbol
 _atom_site_label
 _atom_site_symmetry_multiplicity
 _atom_site_fract_x
 _atom_site_fract_y
 _atom_site_fract_z
 _atom_site_occupancy
  Li  Li0  1  0.105619  0.633554  0.410588  1
  Li  Li1  1  0.894381  0.366446  0.589412  1
  Li  Li2  1  0.394381  0.633554  0.910588  1
  Li  Li3  1  0.605619  0.366446  0.089412  1
  Yb  Yb4  1  0.626764  0.021021  0.756697  1
  Yb  Yb5  1  0.373236  0.978979  0.243303  1
  Yb  Yb6  1  0.873236  0.021021  0.256697  1
  Yb  Yb7  1  0.126764  0.978979  0.743303  1
  Ga  Ga8  1  0.360497  0.372627  0.579073  1
  Ga  Ga9  1  0.139503  0.372627  0.079073  1
  Ga  Ga10  1  0.639503  0.627373  0.420927  1
  Ga  Ga11  1  0.860497  0.627373  0.920927  1
  N  N12  1  0.136032  0.255104  0.403975  1
  N  N13  1  0.636032  0.744896  0.096025  1
  N  N14  1  0.112813  0.725757  0.071241  1
  N  N15  1  0.863968  0.744896  0.596025  1
  N  N16  1  0.387187  0.725757  0.571241  1
  N  N17  1  0.887187  0.274243  0.928759  1
  N  N18  1  0.612813  0.274243  0.428759  1
  N  N19  1  0.363968  0.255104  0.903975  1
