# generated using pymatgen
data_Tm2MgZnPt2
_symmetry_space_group_name_H-M   'P 1'
_cell_length_a   4.17656300
_cell_length_b   6.89681500
_cell_length_c   8.33854100
_cell_angle_alpha   90.00000000
_cell_angle_beta   90.00000000
_cell_angle_gamma   90.00000000
_symmetry_Int_Tables_number   1
_chemical_formula_structural   Tm2MgZnPt2
_chemical_formula_sum   'Tm4 Mg2 Zn2 Pt4'
_cell_volume   240.19152630
_cell_formula_units_Z   2
loop_
 _symmetry_equiv_pos_site_id
 _symmetry_equiv_pos_as_xyz
  1  'x, y, z'
loop_
 _atom_site_type_symbol
 _atom_site_label
 _atom_site_symmetry_multiplicity
 _atom_site_fract_x
 _atom_site_fract_y
 _atom_site_fract_z
 _atom_site_occupancy
  Tm  Tm0  1  0.250000  0.045731  0.321886  1
  Tm  Tm1  1  0.250000  0.545731  0.178114  1
  Tm  Tm2  1  0.750000  0.960308  0.678348  1
  Tm  Tm3  1  0.750000  0.460308  0.821652  1
  Mg  Mg4  1  0.250000  0.631828  0.558575  1
  Mg  Mg5  1  0.250000  0.131828  0.941425  1
  Zn  Zn6  1  0.750000  0.362617  0.437560  1
  Zn  Zn7  1  0.750000  0.862617  0.062440  1
  Pt  Pt8  1  0.250000  0.246143  0.624756  1
  Pt  Pt9  1  0.250000  0.746143  0.875244  1
  Pt  Pt10  1  0.750000  0.753373  0.374565  1
  Pt  Pt11  1  0.750000  0.253373  0.125435  1
