# generated using pymatgen
data_TaSi4Ni4Mo3
_symmetry_space_group_name_H-M   'P 1'
_cell_length_a   3.61284800
_cell_length_b   6.10460725
_cell_length_c   7.05482543
_cell_angle_alpha   90.09684670
_cell_angle_beta   90.00000000
_cell_angle_gamma   90.00000000
_symmetry_Int_Tables_number   1
_chemical_formula_structural   TaSi4Ni4Mo3
_chemical_formula_sum   'Ta1 Si4 Ni4 Mo3'
_cell_volume   155.59408046
_cell_formula_units_Z   1
loop_
 _symmetry_equiv_pos_site_id
 _symmetry_equiv_pos_as_xyz
  1  'x, y, z'
loop_
 _atom_site_type_symbol
 _atom_site_label
 _atom_site_symmetry_multiplicity
 _atom_site_fract_x
 _atom_site_fract_y
 _atom_site_fract_z
 _atom_site_occupancy
  Ta  Ta0  1  0.250000  0.020707  0.331596  1
  Si  Si1  1  0.250000  0.779463  0.878964  1
  Si  Si2  1  0.750000  0.227563  0.115953  1
  Si  Si3  1  0.750000  0.711098  0.377398  1
  Si  Si4  1  0.250000  0.282416  0.629481  1
  Ni  Ni5  1  0.250000  0.653380  0.567876  1
  Ni  Ni6  1  0.750000  0.341448  0.433445  1
  Ni  Ni7  1  0.750000  0.851302  0.068640  1
  Ni  Ni8  1  0.250000  0.151173  0.934191  1
  Mo  Mo9  1  0.250000  0.520914  0.169328  1
  Mo  Mo10  1  0.750000  0.483143  0.828756  1
  Mo  Mo11  1  0.750000  0.977394  0.664372  1
