# generated using pymatgen
data_Pr8Nd2Os3Ru
_symmetry_space_group_name_H-M   'P 1'
_cell_length_a   8.88346472
_cell_length_b   8.88966604
_cell_length_c   7.48243646
_cell_angle_alpha   83.59939261
_cell_angle_beta   83.63664154
_cell_angle_gamma   44.14542056
_symmetry_Int_Tables_number   1
_chemical_formula_structural   Pr8Nd2Os3Ru
_chemical_formula_sum   'Pr8 Nd2 Os3 Ru1'
_cell_volume   408.57673086
_cell_formula_units_Z   1
loop_
 _symmetry_equiv_pos_site_id
 _symmetry_equiv_pos_as_xyz
  1  'x, y, z'
loop_
 _atom_site_type_symbol
 _atom_site_label
 _atom_site_symmetry_multiplicity
 _atom_site_fract_x
 _atom_site_fract_y
 _atom_site_fract_z
 _atom_site_occupancy
  Pr  Pr0  1  0.021086  0.795943  0.914481  1
  Pr  Pr1  1  0.204840  0.978607  0.585092  1
  Pr  Pr2  1  0.979697  0.205079  0.084492  1
  Pr  Pr3  1  0.795510  0.021571  0.413993  1
  Pr  Pr4  1  0.360028  0.206754  0.815224  1
  Pr  Pr5  1  0.792792  0.641460  0.685000  1
  Pr  Pr6  1  0.640884  0.791669  0.185755  1
  Pr  Pr7  1  0.205274  0.360081  0.315802  1
  Nd  Nd8  1  0.573895  0.426646  0.748859  1
  Nd  Nd9  1  0.425789  0.574645  0.250441  1
  Os  Os10  1  0.176789  0.603100  0.574906  1
  Os  Os11  1  0.398053  0.821446  0.926092  1
  Os  Os12  1  0.822227  0.397550  0.425094  1
  Ru  Ru13  1  0.603138  0.175450  0.074767  1
