# generated using pymatgen
data_Dy5Pt9
_symmetry_space_group_name_H-M   'P 1'
_cell_length_a   9.78014100
_cell_length_b   9.78014100
_cell_length_c   5.78098100
_cell_angle_alpha   90.00000000
_cell_angle_beta   90.00000000
_cell_angle_gamma   90.00000000
_symmetry_Int_Tables_number   1
_chemical_formula_structural   Dy5Pt9
_chemical_formula_sum   'Dy10 Pt18'
_cell_volume   552.95752691
_cell_formula_units_Z   2
loop_
 _symmetry_equiv_pos_site_id
 _symmetry_equiv_pos_as_xyz
  1  'x, y, z'
loop_
 _atom_site_type_symbol
 _atom_site_label
 _atom_site_symmetry_multiplicity
 _atom_site_fract_x
 _atom_site_fract_y
 _atom_site_fract_z
 _atom_site_occupancy
  Dy  Dy0  1  0.452156  0.809023  0.000000  1
  Dy  Dy1  1  0.547844  0.190977  0.000000  1
  Dy  Dy2  1  0.190977  0.547844  0.000000  1
  Dy  Dy3  1  0.809023  0.452156  0.000000  1
  Dy  Dy4  1  0.500000  0.500000  0.500000  1
  Dy  Dy5  1  0.309023  0.047844  0.500000  1
  Dy  Dy6  1  0.690977  0.952156  0.500000  1
  Dy  Dy7  1  0.952156  0.690977  0.500000  1
  Dy  Dy8  1  0.047844  0.309023  0.500000  1
  Dy  Dy9  1  0.000000  0.000000  0.000000  1
  Pt  Pt10  1  0.191644  0.808356  0.250419  1
  Pt  Pt11  1  0.808356  0.191644  0.749581  1
  Pt  Pt12  1  0.808356  0.191644  0.250419  1
  Pt  Pt13  1  0.191644  0.808356  0.749581  1
  Pt  Pt14  1  0.440155  0.782011  0.500000  1
  Pt  Pt15  1  0.559845  0.217989  0.500000  1
  Pt  Pt16  1  0.217989  0.559845  0.500000  1
  Pt  Pt17  1  0.782011  0.440155  0.500000  1
  Pt  Pt18  1  0.308356  0.308356  0.249581  1
  Pt  Pt19  1  0.691644  0.691644  0.750419  1
  Pt  Pt20  1  0.691644  0.691644  0.249581  1
  Pt  Pt21  1  0.308356  0.308356  0.750419  1
  Pt  Pt22  1  0.282011  0.059845  0.000000  1
  Pt  Pt23  1  0.717989  0.940155  0.000000  1
  Pt  Pt24  1  0.940155  0.717989  0.000000  1
  Pt  Pt25  1  0.059845  0.282011  0.000000  1
  Pt  Pt26  1  0.000000  0.000000  0.500000  1
  Pt  Pt27  1  0.500000  0.500000  0.000000  1
