# generated using pymatgen
data_CeThF36
_symmetry_space_group_name_H-M   'P 1'
_cell_length_a   6.11075963
_cell_length_b   10.85185623
_cell_length_c   10.85494193
_cell_angle_alpha   93.40241219
_cell_angle_beta   99.21843253
_cell_angle_gamma   75.07128834
_symmetry_Int_Tables_number   1
_chemical_formula_structural   CeThF36
_chemical_formula_sum   'Ce1 Th1 F36'
_cell_volume   686.42227201
_cell_formula_units_Z   1
loop_
 _symmetry_equiv_pos_site_id
 _symmetry_equiv_pos_as_xyz
  1  'x, y, z'
loop_
 _atom_site_type_symbol
 _atom_site_label
 _atom_site_symmetry_multiplicity
 _atom_site_fract_x
 _atom_site_fract_y
 _atom_site_fract_z
 _atom_site_occupancy
  Ce  Ce0  1  0.243381  0.164195  0.132515  1
  Th  Th1  1  0.753900  0.836722  0.877668  1
  F  F2  1  0.343715  0.383017  0.875694  1
  F  F3  1  0.612679  0.632263  0.121626  1
  F  F4  1  0.331148  0.280745  0.589818  1
  F  F5  1  0.672261  0.739113  0.427082  1
  F  F6  1  0.871785  0.223788  0.815217  1
  F  F7  1  0.133544  0.767341  0.189321  1
  F  F8  1  0.647348  0.857660  0.054978  1
  F  F9  1  0.353511  0.135090  0.963412  1
  F  F10  1  0.793991  0.614767  0.869269  1
  F  F11  1  0.183168  0.378465  0.108938  1
  F  F12  1  0.432085  0.480131  0.834377  1
  F  F13  1  0.605190  0.506217  0.148415  1
  F  F14  1  0.729376  0.699144  0.704001  1
  F  F15  1  0.258336  0.318736  0.283476  1
  F  F16  1  0.749433  0.973865  0.552565  1
  F  F17  1  0.248308  0.014090  0.456700  1
  F  F18  1  0.297454  0.178597  0.655704  1
  F  F19  1  0.689754  0.812668  0.325912  1
  F  F20  1  0.811979  0.090864  0.583787  1
  F  F21  1  0.172045  0.910623  0.392244  1
  F  F22  1  0.837656  0.009138  0.851953  1
  F  F23  1  0.145563  0.999024  0.140507  1
  F  F24  1  0.902095  0.348900  0.801799  1
  F  F25  1  0.118724  0.638996  0.199350  1
  F  F26  1  0.163570  0.755570  0.910449  1
  F  F27  1  0.830323  0.245064  0.102039  1
  F  F28  1  0.403350  0.939376  0.748776  1
  F  F29  1  0.569211  0.072316  0.262578  1
  F  F30  1  0.112520  0.753936  0.580168  1
  F  F31  1  0.939728  0.237955  0.408238  1
  F  F32  1  0.197447  0.636534  0.645301  1
  F  F33  1  0.819098  0.362231  0.364427  1
  F  F34  1  0.286849  0.847137  0.829264  1
  F  F35  1  0.702878  0.160717  0.179240  1
  F  F36  1  0.537095  0.447732  0.550029  1
  F  F37  1  0.499502  0.547272  0.463170  1
