# generated using pymatgen
data_Hf4Ti2Si4TcMo
_symmetry_space_group_name_H-M   'P 1'
_cell_length_a   3.54296500
_cell_length_b   6.88722173
_cell_length_c   8.23389051
_cell_angle_alpha   89.86553516
_cell_angle_beta   90.00000000
_cell_angle_gamma   90.00000000
_symmetry_Int_Tables_number   1
_chemical_formula_structural   Hf4Ti2Si4TcMo
_chemical_formula_sum   'Hf4 Ti2 Si4 Tc1 Mo1'
_cell_volume   200.91613681
_cell_formula_units_Z   1
loop_
 _symmetry_equiv_pos_site_id
 _symmetry_equiv_pos_as_xyz
  1  'x, y, z'
loop_
 _atom_site_type_symbol
 _atom_site_label
 _atom_site_symmetry_multiplicity
 _atom_site_fract_x
 _atom_site_fract_y
 _atom_site_fract_z
 _atom_site_occupancy
  Hf  Hf0  1  0.250000  0.047292  0.337739  1
  Hf  Hf1  1  0.750000  0.957335  0.667262  1
  Hf  Hf2  1  0.250000  0.542527  0.168443  1
  Hf  Hf3  1  0.750000  0.451579  0.836646  1
  Ti  Ti4  1  0.250000  0.623418  0.557214  1
  Ti  Ti5  1  0.750000  0.875777  0.058075  1
  Si  Si6  1  0.250000  0.255086  0.636462  1
  Si  Si7  1  0.750000  0.745131  0.358027  1
  Si  Si8  1  0.250000  0.753688  0.857860  1
  Si  Si9  1  0.750000  0.245722  0.140484  1
  Tc  Tc10  1  0.750000  0.368445  0.440864  1
  Mo  Mo11  1  0.250000  0.133998  0.940923  1
