# generated using pymatgen
data_Hf6Tc3Ru2Rh
_symmetry_space_group_name_H-M   'P 1'
_cell_length_a   4.60603100
_cell_length_b   6.49882200
_cell_length_c   13.82797500
_cell_angle_alpha   90.00000000
_cell_angle_beta   90.00012849
_cell_angle_gamma   90.00000000
_symmetry_Int_Tables_number   1
_chemical_formula_structural   Hf6Tc3Ru2Rh
_chemical_formula_sum   'Hf12 Tc6 Ru4 Rh2'
_cell_volume   413.92350059
_cell_formula_units_Z   2
loop_
 _symmetry_equiv_pos_site_id
 _symmetry_equiv_pos_as_xyz
  1  'x, y, z'
loop_
 _atom_site_type_symbol
 _atom_site_label
 _atom_site_symmetry_multiplicity
 _atom_site_fract_x
 _atom_site_fract_y
 _atom_site_fract_z
 _atom_site_occupancy
  Hf  Hf0  1  0.499998  0.248961  0.998232  1
  Hf  Hf1  1  0.499998  0.751039  0.998232  1
  Hf  Hf2  1  0.999988  0.251035  0.168436  1
  Hf  Hf3  1  0.999988  0.748965  0.168436  1
  Hf  Hf4  1  0.499993  0.251603  0.335265  1
  Hf  Hf5  1  0.499993  0.748397  0.335265  1
  Hf  Hf6  1  0.999999  0.249986  0.500244  1
  Hf  Hf7  1  0.999999  0.750015  0.500244  1
  Hf  Hf8  1  0.500011  0.250021  0.666423  1
  Hf  Hf9  1  0.500011  0.749979  0.666423  1
  Hf  Hf10  1  0.000013  0.248400  0.831400  1
  Hf  Hf11  1  0.000013  0.751600  0.831400  1
  Tc  Tc12  1  0.000004  0.000000  0.000882  1
  Tc  Tc13  1  0.499987  0.500001  0.165782  1
  Tc  Tc14  1  0.999995  0.000000  0.332082  1
  Tc  Tc15  1  0.500001  0.500001  0.499605  1
  Tc  Tc16  1  0.000007  0.000000  0.667054  1
  Tc  Tc17  1  0.500006  0.500001  0.834595  1
  Ru  Ru18  1  0.999992  0.500001  0.332598  1
  Ru  Ru19  1  0.499996  0.000000  0.499568  1
  Ru  Ru20  1  0.000003  0.500001  0.667097  1
  Ru  Ru21  1  0.500016  0.000000  0.834059  1
  Rh  Rh22  1  0.000001  0.500001  0.000315  1
  Rh  Rh23  1  0.499996  0.000000  0.166360  1
