# generated using pymatgen
data_SmY15(MgSn4)4
_symmetry_space_group_name_H-M   'P 1'
_cell_length_a   7.70210310
_cell_length_b   8.24996588
_cell_length_c   15.40717800
_cell_angle_alpha   89.93327270
_cell_angle_beta   90.27559290
_cell_angle_gamma   89.98516026
_symmetry_Int_Tables_number   1
_chemical_formula_structural   SmY15(MgSn4)4
_chemical_formula_sum   'Sm1 Y15 Mg4 Sn16'
_cell_volume   978.99223376
_cell_formula_units_Z   1
loop_
 _symmetry_equiv_pos_site_id
 _symmetry_equiv_pos_as_xyz
  1  'x, y, z'
loop_
 _atom_site_type_symbol
 _atom_site_label
 _atom_site_symmetry_multiplicity
 _atom_site_fract_x
 _atom_site_fract_y
 _atom_site_fract_z
 _atom_site_occupancy
  Sm  Sm0  1  0.340021  0.828245  0.871304  1
  Y  Y1  1  0.837204  0.669596  0.628410  1
  Y  Y2  1  0.663160  0.169793  0.371200  1
  Y  Y3  1  0.159594  0.329774  0.130664  1
  Y  Y4  1  0.660999  0.169906  0.129610  1
  Y  Y5  1  0.163328  0.330470  0.371583  1
  Y  Y6  1  0.337288  0.830768  0.628613  1
  Y  Y7  1  0.837844  0.670472  0.870305  1
  Y  Y8  1  0.502554  0.314886  0.908580  1
  Y  Y9  1  0.002834  0.185579  0.590685  1
  Y  Y10  1  0.497469  0.684565  0.408115  1
  Y  Y11  1  0.996705  0.815348  0.092656  1
  Y  Y12  1  0.497356  0.685141  0.092663  1
  Y  Y13  1  0.997585  0.814859  0.407827  1
  Y  Y14  1  0.503551  0.315414  0.589943  1
  Y  Y15  1  0.004137  0.183078  0.908932  1
  Mg  Mg16  1  0.161710  0.494641  0.748574  1
  Mg  Mg17  1  0.663388  0.009525  0.747984  1
  Mg  Mg18  1  0.836020  0.505815  0.250190  1
  Mg  Mg19  1  0.336370  0.994002  0.250911  1
  Sn  Sn20  1  0.316051  0.038224  0.039456  1
  Sn  Sn21  1  0.818273  0.463694  0.461367  1
  Sn  Sn22  1  0.681761  0.963241  0.537871  1
  Sn  Sn23  1  0.180468  0.535092  0.963988  1
  Sn  Sn24  1  0.686731  0.962677  0.963665  1
  Sn  Sn25  1  0.182644  0.537514  0.537928  1
  Sn  Sn26  1  0.318502  0.036056  0.461518  1
  Sn  Sn27  1  0.816171  0.462839  0.037715  1
  Sn  Sn28  1  0.524779  0.586322  0.748382  1
  Sn  Sn29  1  0.023417  0.911409  0.748417  1
  Sn  Sn30  1  0.475201  0.409473  0.250288  1
  Sn  Sn31  1  0.975138  0.090041  0.250798  1
  Sn  Sn32  1  0.305157  0.154173  0.749086  1
  Sn  Sn33  1  0.806817  0.347383  0.749624  1
  Sn  Sn34  1  0.694655  0.847666  0.250566  1
  Sn  Sn35  1  0.195116  0.652317  0.250578  1
