# generated using pymatgen
data_DyLu3Al24IrPt8
_symmetry_space_group_name_H-M   'P 1'
_cell_length_a   7.50548183
_cell_length_b   7.52945861
_cell_length_c   13.12826132
_cell_angle_alpha   84.65167749
_cell_angle_beta   79.11951411
_cell_angle_gamma   59.91609801
_symmetry_Int_Tables_number   1
_chemical_formula_structural   DyLu3Al24IrPt8
_chemical_formula_sum   'Dy1 Lu3 Al24 Ir1 Pt8'
_cell_volume   630.42505406
_cell_formula_units_Z   1
loop_
 _symmetry_equiv_pos_site_id
 _symmetry_equiv_pos_as_xyz
  1  'x, y, z'
loop_
 _atom_site_type_symbol
 _atom_site_label
 _atom_site_symmetry_multiplicity
 _atom_site_fract_x
 _atom_site_fract_y
 _atom_site_fract_z
 _atom_site_occupancy
  Dy  Dy0  1  0.393627  0.168226  0.809545  1
  Lu  Lu1  1  0.606527  0.830871  0.191834  1
  Lu  Lu2  1  0.734238  0.498418  0.808352  1
  Lu  Lu3  1  0.265251  0.501977  0.191719  1
  Al  Al4  1  0.686954  0.829914  0.945627  1
  Al  Al5  1  0.313972  0.168928  0.056475  1
  Al  Al6  1  0.146596  0.831854  0.561566  1
  Al  Al7  1  0.853596  0.168294  0.437856  1
  Al  Al8  1  0.480504  0.166647  0.558839  1
  Al  Al9  1  0.519486  0.833443  0.440609  1
  Al  Al10  1  0.218357  0.165117  0.325687  1
  Al  Al11  1  0.782346  0.834678  0.673018  1
  Al  Al12  1  0.436505  0.507120  0.672781  1
  Al  Al13  1  0.563777  0.493042  0.326058  1
  Al  Al14  1  0.109170  0.160624  0.670237  1
  Al  Al15  1  0.890999  0.839615  0.328607  1
  Al  Al16  1  0.350385  0.499372  0.945779  1
  Al  Al17  1  0.648731  0.501831  0.055496  1
  Al  Al18  1  0.014449  0.171904  0.954976  1
  Al  Al19  1  0.984246  0.828106  0.046998  1
  Al  Al20  1  0.186665  0.499114  0.440728  1
  Al  Al21  1  0.813286  0.501061  0.558688  1
  Al  Al22  1  0.733333  0.163642  0.182710  1
  Al  Al23  1  0.266582  0.835076  0.817121  1
  Al  Al24  1  0.060027  0.629378  0.817782  1
  Al  Al25  1  0.938702  0.371297  0.182389  1
  Al  Al26  1  0.856171  0.042777  0.816754  1
  Al  Al27  1  0.144979  0.957044  0.183200  1
  Ir  Ir28  1  0.000017  0.499922  0.000761  1
  Pt  Pt29  1  0.119079  0.492236  0.639038  1
  Pt  Pt30  1  0.880126  0.509186  0.360099  1
  Pt  Pt31  1  0.656824  0.171293  0.999909  1
  Pt  Pt32  1  0.342904  0.828375  0.000341  1
  Pt  Pt33  1  0.537074  0.166484  0.360416  1
  Pt  Pt34  1  0.463175  0.832861  0.638790  1
  Pt  Pt35  1  0.778856  0.176178  0.637385  1
  Pt  Pt36  1  0.222483  0.824095  0.361834  1
