# generated using pymatgen
data_Pr10Tl5BiBr2
_symmetry_space_group_name_H-M   'P 1'
_cell_length_a   9.70461100
_cell_length_b   9.70461093
_cell_length_c   6.88973100
_cell_angle_alpha   90.00000000
_cell_angle_beta   90.00000000
_cell_angle_gamma   120.19771930
_symmetry_Int_Tables_number   1
_chemical_formula_structural   Pr10Tl5BiBr2
_chemical_formula_sum   'Pr10 Tl5 Bi1 Br2'
_cell_volume   560.81605572
_cell_formula_units_Z   1
loop_
 _symmetry_equiv_pos_site_id
 _symmetry_equiv_pos_as_xyz
  1  'x, y, z'
loop_
 _atom_site_type_symbol
 _atom_site_label
 _atom_site_symmetry_multiplicity
 _atom_site_fract_x
 _atom_site_fract_y
 _atom_site_fract_z
 _atom_site_occupancy
  Pr  Pr0  1  0.268691  0.002355  0.750000  1
  Pr  Pr1  1  0.734328  0.002748  0.250000  1
  Pr  Pr2  1  0.002355  0.268691  0.750000  1
  Pr  Pr3  1  0.002748  0.734328  0.250000  1
  Pr  Pr4  1  0.732883  0.732883  0.750000  1
  Pr  Pr5  1  0.263942  0.263942  0.250000  1
  Pr  Pr6  1  0.331466  0.667163  0.500282  1
  Pr  Pr7  1  0.667163  0.331466  0.500282  1
  Pr  Pr8  1  0.667163  0.331466  0.999718  1
  Pr  Pr9  1  0.331466  0.667163  0.999718  1
  Tl  Tl10  1  0.611377  0.999724  0.750000  1
  Tl  Tl11  1  0.389452  0.000010  0.250000  1
  Tl  Tl12  1  0.999724  0.611377  0.750000  1
  Tl  Tl13  1  0.000010  0.389452  0.250000  1
  Tl  Tl14  1  0.386201  0.386201  0.750000  1
  Bi  Bi15  1  0.613239  0.613239  0.250000  1
  Br  Br16  1  0.998897  0.998897  0.499630  1
  Br  Br17  1  0.998897  0.998897  0.000370  1
