# generated using pymatgen
data_Yb2Zn2CuRh
_symmetry_space_group_name_H-M   'P 1'
_cell_length_a   4.15841900
_cell_length_b   6.95558121
_cell_length_c   7.79091259
_cell_angle_alpha   90.17794695
_cell_angle_beta   90.00000000
_cell_angle_gamma   90.00000000
_symmetry_Int_Tables_number   1
_chemical_formula_structural   Yb2Zn2CuRh
_chemical_formula_sum   'Yb4 Zn4 Cu2 Rh2'
_cell_volume   225.34499129
_cell_formula_units_Z   2
loop_
 _symmetry_equiv_pos_site_id
 _symmetry_equiv_pos_as_xyz
  1  'x, y, z'
loop_
 _atom_site_type_symbol
 _atom_site_label
 _atom_site_symmetry_multiplicity
 _atom_site_fract_x
 _atom_site_fract_y
 _atom_site_fract_z
 _atom_site_occupancy
  Yb  Yb0  1  0.250000  0.531984  0.187590  1
  Yb  Yb1  1  0.750000  0.468016  0.812410  1
  Yb  Yb2  1  0.750000  0.978621  0.678388  1
  Yb  Yb3  1  0.250000  0.021379  0.321612  1
  Zn  Zn4  1  0.250000  0.645773  0.564872  1
  Zn  Zn5  1  0.750000  0.354227  0.435128  1
  Zn  Zn6  1  0.750000  0.853145  0.060625  1
  Zn  Zn7  1  0.250000  0.146855  0.939375  1
  Cu  Cu8  1  0.250000  0.779775  0.877757  1
  Cu  Cu9  1  0.750000  0.220225  0.122243  1
  Rh  Rh10  1  0.750000  0.727118  0.373248  1
  Rh  Rh11  1  0.250000  0.272882  0.626752  1
