# generated using pymatgen
data_Tb2Y14Cd4Ir3Ru
_symmetry_space_group_name_H-M   'P 1'
_cell_length_a   9.69672555
_cell_length_b   9.69672452
_cell_length_c   9.70620998
_cell_angle_alpha   59.70728056
_cell_angle_beta   59.70728360
_cell_angle_gamma   59.68187937
_symmetry_Int_Tables_number   1
_chemical_formula_structural   Tb2Y14Cd4Ir3Ru
_chemical_formula_sum   'Tb2 Y14 Cd4 Ir3 Ru1'
_cell_volume   640.91933854
_cell_formula_units_Z   1
loop_
 _symmetry_equiv_pos_site_id
 _symmetry_equiv_pos_as_xyz
  1  'x, y, z'
loop_
 _atom_site_type_symbol
 _atom_site_label
 _atom_site_symmetry_multiplicity
 _atom_site_fract_x
 _atom_site_fract_y
 _atom_site_fract_z
 _atom_site_occupancy
  Tb  Tb0  1  0.349060  0.349060  0.349167  1
  Tb  Tb1  1  0.348292  0.348292  0.956795  1
  Y  Y2  1  0.348646  0.955543  0.348799  1
  Y  Y3  1  0.955543  0.348646  0.348799  1
  Y  Y4  1  0.811656  0.189017  0.189084  1
  Y  Y5  1  0.187973  0.809771  0.809776  1
  Y  Y6  1  0.189017  0.811656  0.189084  1
  Y  Y7  1  0.809771  0.187973  0.809776  1
  Y  Y8  1  0.188977  0.188977  0.811600  1
  Y  Y9  1  0.809733  0.809733  0.188114  1
  Y  Y10  1  0.939080  0.561167  0.561263  1
  Y  Y11  1  0.559960  0.938097  0.937615  1
  Y  Y12  1  0.561167  0.939080  0.561263  1
  Y  Y13  1  0.938097  0.559960  0.937615  1
  Y  Y14  1  0.561105  0.561105  0.938888  1
  Y  Y15  1  0.937660  0.937660  0.560179  1
  Cd  Cd16  1  0.579772  0.579772  0.579548  1
  Cd  Cd17  1  0.580889  0.580889  0.257026  1
  Cd  Cd18  1  0.580864  0.257148  0.580664  1
  Cd  Cd19  1  0.257148  0.580864  0.580664  1
  Ir  Ir20  1  0.143766  0.143766  0.576553  1
  Ir  Ir21  1  0.144078  0.576175  0.143530  1
  Ir  Ir22  1  0.576175  0.144078  0.143530  1
  Ru  Ru23  1  0.141578  0.141578  0.140674  1
