# generated using pymatgen
data_Ho3Mg2ZnIrPd2
_symmetry_space_group_name_H-M   'P 1'
_cell_length_a   7.34351217
_cell_length_b   7.41422622
_cell_length_c   3.94111000
_cell_angle_alpha   90.00000000
_cell_angle_beta   90.00000000
_cell_angle_gamma   119.90853329
_symmetry_Int_Tables_number   1
_chemical_formula_structural   Ho3Mg2ZnIrPd2
_chemical_formula_sum   'Ho3 Mg2 Zn1 Ir1 Pd2'
_cell_volume   186.00232930
_cell_formula_units_Z   1
loop_
 _symmetry_equiv_pos_site_id
 _symmetry_equiv_pos_as_xyz
  1  'x, y, z'
loop_
 _atom_site_type_symbol
 _atom_site_label
 _atom_site_symmetry_multiplicity
 _atom_site_fract_x
 _atom_site_fract_y
 _atom_site_fract_z
 _atom_site_occupancy
  Ho  Ho0  1  0.406125  0.401308  0.000000  1
  Ho  Ho1  1  0.608254  0.023633  0.000000  1
  Ho  Ho2  1  0.987892  0.566520  0.000000  1
  Mg  Mg3  1  0.753258  0.750710  0.500000  1
  Mg  Mg4  1  0.245873  0.996469  0.500000  1
  Zn  Zn5  1  0.998708  0.252662  0.500000  1
  Ir  Ir6  1  0.664792  0.333855  0.500000  1
  Pd  Pd7  1  0.000081  0.007150  0.000000  1
  Pd  Pd8  1  0.335017  0.667692  0.500000  1
