# generated using pymatgen
data_Tb3Co7(NiP3)2
_symmetry_space_group_name_H-M   'P 1'
_cell_length_a   3.72878500
_cell_length_b   10.49450600
_cell_length_c   12.26871300
_cell_angle_alpha   90.00000000
_cell_angle_beta   90.00000000
_cell_angle_gamma   90.00000000
_symmetry_Int_Tables_number   1
_chemical_formula_structural   Tb3Co7(NiP3)2
_chemical_formula_sum   'Tb6 Co14 Ni4 P12'
_cell_volume   480.09629036
_cell_formula_units_Z   2
loop_
 _symmetry_equiv_pos_site_id
 _symmetry_equiv_pos_as_xyz
  1  'x, y, z'
loop_
 _atom_site_type_symbol
 _atom_site_label
 _atom_site_symmetry_multiplicity
 _atom_site_fract_x
 _atom_site_fract_y
 _atom_site_fract_z
 _atom_site_occupancy
  Tb  Tb0  1  0.000000  0.500000  0.520958  1
  Tb  Tb1  1  0.500000  0.000000  0.479042  1
  Tb  Tb2  1  0.500000  0.814963  0.205683  1
  Tb  Tb3  1  0.500000  0.185037  0.205683  1
  Tb  Tb4  1  0.000000  0.685037  0.794317  1
  Tb  Tb5  1  0.000000  0.314963  0.794317  1
  Co  Co6  1  0.000000  0.500000  0.984381  1
  Co  Co7  1  0.500000  0.000000  0.015619  1
  Co  Co8  1  0.500000  0.334330  0.996199  1
  Co  Co9  1  0.500000  0.665670  0.996199  1
  Co  Co10  1  0.000000  0.165670  0.003801  1
  Co  Co11  1  0.000000  0.834330  0.003801  1
  Co  Co12  1  0.500000  0.298473  0.430106  1
  Co  Co13  1  0.500000  0.701527  0.430106  1
  Co  Co14  1  0.000000  0.201527  0.569894  1
  Co  Co15  1  0.000000  0.798473  0.569894  1
  Co  Co16  1  0.500000  0.879816  0.710603  1
  Co  Co17  1  0.500000  0.120184  0.710603  1
  Co  Co18  1  0.000000  0.620184  0.289397  1
  Co  Co19  1  0.000000  0.379816  0.289397  1
  Ni  Ni20  1  0.500000  0.500000  0.162237  1
  Ni  Ni21  1  0.000000  0.000000  0.837763  1
  Ni  Ni22  1  0.500000  0.500000  0.702977  1
  Ni  Ni23  1  0.000000  0.000000  0.297023  1
  P  P24  1  0.500000  0.500000  0.883249  1
  P  P25  1  0.000000  0.000000  0.116751  1
  P  P26  1  0.500000  0.500000  0.345587  1
  P  P27  1  0.000000  0.000000  0.654413  1
  P  P28  1  0.500000  0.309433  0.614999  1
  P  P29  1  0.500000  0.690567  0.614999  1
  P  P30  1  0.000000  0.190567  0.385001  1
  P  P31  1  0.000000  0.809433  0.385001  1
  P  P32  1  0.500000  0.846739  0.895453  1
  P  P33  1  0.500000  0.153261  0.895453  1
  P  P34  1  0.000000  0.653261  0.104547  1
  P  P35  1  0.000000  0.346739  0.104547  1
