# generated using pymatgen
data_TbHoGa9Co2Pt
_symmetry_space_group_name_H-M   'P 1'
_cell_length_a   7.48082920
_cell_length_b   7.48082758
_cell_length_c   9.41353200
_cell_angle_alpha   90.00000000
_cell_angle_beta   90.00000000
_cell_angle_gamma   119.64655300
_symmetry_Int_Tables_number   1
_chemical_formula_structural   TbHoGa9Co2Pt
_chemical_formula_sum   'Tb2 Ho2 Ga18 Co4 Pt2'
_cell_volume   457.84491631
_cell_formula_units_Z   2
loop_
 _symmetry_equiv_pos_site_id
 _symmetry_equiv_pos_as_xyz
  1  'x, y, z'
loop_
 _atom_site_type_symbol
 _atom_site_label
 _atom_site_symmetry_multiplicity
 _atom_site_fract_x
 _atom_site_fract_y
 _atom_site_fract_z
 _atom_site_occupancy
  Tb  Tb0  1  0.322110  0.003663  0.750000  1
  Tb  Tb1  1  0.003663  0.322110  0.750000  1
  Ho  Ho2  1  0.678013  0.996298  0.250000  1
  Ho  Ho3  1  0.996298  0.678013  0.250000  1
  Ga  Ga4  1  0.654331  0.002626  0.923733  1
  Ga  Ga5  1  0.345703  0.997177  0.423450  1
  Ga  Ga6  1  0.997177  0.345703  0.423449  1
  Ga  Ga7  1  0.345703  0.997177  0.076550  1
  Ga  Ga8  1  0.002626  0.654331  0.923733  1
  Ga  Ga9  1  0.997177  0.345703  0.076550  1
  Ga  Ga10  1  0.344315  0.344315  0.564767  1
  Ga  Ga11  1  0.344315  0.344315  0.935233  1
  Ga  Ga12  1  0.655942  0.655942  0.064922  1
  Ga  Ga13  1  0.655942  0.655942  0.435078  1
  Ga  Ga14  1  0.854689  0.854689  0.750000  1
  Ga  Ga15  1  0.144983  0.144983  0.250000  1
  Ga  Ga16  1  0.333466  0.558257  0.250000  1
  Ga  Ga17  1  0.558257  0.333466  0.250000  1
  Ga  Ga18  1  0.666491  0.442098  0.750000  1
  Ga  Ga19  1  0.442098  0.666491  0.750000  1
  Ga  Ga20  1  0.654331  0.002626  0.576268  1
  Ga  Ga21  1  0.002626  0.654331  0.576267  1
  Co  Co22  1  0.329679  0.670372  0.000260  1
  Co  Co23  1  0.670372  0.329679  0.499740  1
  Co  Co24  1  0.670372  0.329679  0.000260  1
  Co  Co25  1  0.329679  0.670372  0.499740  1
  Pt  Pt26  1  0.999822  0.999822  0.000354  1
  Pt  Pt27  1  0.999822  0.999822  0.499646  1
