# generated using pymatgen
data_Tb2Ho2MgAl17Pd6
_symmetry_space_group_name_H-M   'P 1'
_cell_length_a   7.66996530
_cell_length_b   7.68551543
_cell_length_c   9.48357512
_cell_angle_alpha   90.08105768
_cell_angle_beta   89.94007805
_cell_angle_gamma   119.56005485
_symmetry_Int_Tables_number   1
_chemical_formula_structural   Tb2Ho2MgAl17Pd6
_chemical_formula_sum   'Tb2 Ho2 Mg1 Al17 Pd6'
_cell_volume   486.26939219
_cell_formula_units_Z   1
loop_
 _symmetry_equiv_pos_site_id
 _symmetry_equiv_pos_as_xyz
  1  'x, y, z'
loop_
 _atom_site_type_symbol
 _atom_site_label
 _atom_site_symmetry_multiplicity
 _atom_site_fract_x
 _atom_site_fract_y
 _atom_site_fract_z
 _atom_site_occupancy
  Tb  Tb0  1  0.995418  0.675131  0.251854  1
  Tb  Tb1  1  0.005451  0.329904  0.747603  1
  Ho  Ho2  1  0.666049  0.988856  0.251973  1
  Ho  Ho3  1  0.330094  0.006039  0.749837  1
  Mg  Mg4  1  0.996223  0.334460  0.079540  1
  Al  Al5  1  0.129995  0.128037  0.250802  1
  Al  Al6  1  0.871047  0.870050  0.751003  1
  Al  Al7  1  0.000812  0.663883  0.921942  1
  Al  Al8  1  0.000063  0.665632  0.578923  1
  Al  Al9  1  0.335958  0.001534  0.422367  1
  Al  Al10  1  0.000105  0.334621  0.417944  1
  Al  Al11  1  0.664703  0.999203  0.578868  1
  Al  Al12  1  0.666916  0.001528  0.922513  1
  Al  Al13  1  0.336002  0.001455  0.077564  1
  Al  Al14  1  0.333294  0.333122  0.558296  1
  Al  Al15  1  0.665984  0.666058  0.441862  1
  Al  Al16  1  0.666381  0.665833  0.056948  1
  Al  Al17  1  0.330876  0.332913  0.941062  1
  Al  Al18  1  0.340920  0.548079  0.250512  1
  Al  Al19  1  0.659725  0.453448  0.749178  1
  Al  Al20  1  0.551585  0.337852  0.249143  1
  Al  Al21  1  0.453007  0.663151  0.750894  1
  Pd  Pd22  1  0.661206  0.326181  0.995512  1
  Pd  Pd23  1  0.335516  0.679636  0.000114  1
  Pd  Pd24  1  0.329103  0.672986  0.501303  1
  Pd  Pd25  1  0.671814  0.327758  0.501060  1
  Pd  Pd26  1  0.001374  0.993222  0.999593  1
  Pd  Pd27  1  0.000380  0.999428  0.501787  1
