# generated using pymatgen
data_Na2ErIO6
_symmetry_space_group_name_H-M   'P 1'
_cell_length_a   5.60575870
_cell_length_b   5.71703200
_cell_length_c   8.00601915
_cell_angle_alpha   90.00000000
_cell_angle_beta   89.87537255
_cell_angle_gamma   90.00000000
_symmetry_Int_Tables_number   1
_chemical_formula_structural   Na2ErIO6
_chemical_formula_sum   'Na4 Er2 I2 O12'
_cell_volume   256.57871151
_cell_formula_units_Z   2
loop_
 _symmetry_equiv_pos_site_id
 _symmetry_equiv_pos_as_xyz
  1  'x, y, z'
loop_
 _atom_site_type_symbol
 _atom_site_label
 _atom_site_symmetry_multiplicity
 _atom_site_fract_x
 _atom_site_fract_y
 _atom_site_fract_z
 _atom_site_occupancy
  Na  Na0  1  0.490846  0.964052  0.752306  1
  Na  Na1  1  0.009154  0.464052  0.747694  1
  Na  Na2  1  0.509154  0.035948  0.247694  1
  Na  Na3  1  0.990846  0.535948  0.252306  1
  Er  Er4  1  0.500000  0.500000  0.000000  1
  Er  Er5  1  0.000000  0.000000  0.500000  1
  I  I6  1  0.500000  0.500000  0.500000  1
  I  I7  1  0.000000  0.000000  0.000000  1
  O  O8  1  0.314584  0.230393  0.548566  1
  O  O9  1  0.185416  0.730393  0.951434  1
  O  O10  1  0.685416  0.769607  0.451434  1
  O  O11  1  0.814584  0.269607  0.048566  1
  O  O12  1  0.586036  0.526694  0.728590  1
  O  O13  1  0.913964  0.026694  0.771410  1
  O  O14  1  0.413964  0.473306  0.271410  1
  O  O15  1  0.086036  0.973306  0.228590  1
  O  O16  1  0.229329  0.690964  0.541746  1
  O  O17  1  0.270671  0.190964  0.958254  1
  O  O18  1  0.770671  0.309036  0.458254  1
  O  O19  1  0.729329  0.809036  0.041746  1
