# generated using pymatgen
data_Pr9NdSi6
_symmetry_space_group_name_H-M   'P 1'
_cell_length_a   8.93406929
_cell_length_b   8.93407037
_cell_length_c   8.93407031
_cell_angle_alpha   127.73945143
_cell_angle_beta   127.73945474
_cell_angle_gamma   77.04748217
_symmetry_Int_Tables_number   1
_chemical_formula_structural   Pr9NdSi6
_chemical_formula_sum   'Pr9 Nd1 Si6'
_cell_volume   432.84325499
_cell_formula_units_Z   1
loop_
 _symmetry_equiv_pos_site_id
 _symmetry_equiv_pos_as_xyz
  1  'x, y, z'
loop_
 _atom_site_type_symbol
 _atom_site_label
 _atom_site_symmetry_multiplicity
 _atom_site_fract_x
 _atom_site_fract_y
 _atom_site_fract_z
 _atom_site_occupancy
  Pr  Pr0  1  0.675825  0.175954  0.143716  1
  Pr  Pr1  1  0.532109  0.675825  0.499871  1
  Pr  Pr2  1  0.032238  0.532109  0.856284  1
  Pr  Pr3  1  0.824046  0.967762  0.499871  1
  Pr  Pr4  1  0.324175  0.824046  0.856284  1
  Pr  Pr5  1  0.175954  0.032238  0.500129  1
  Pr  Pr6  1  0.467891  0.324175  0.500129  1
  Pr  Pr7  1  0.967762  0.467891  0.143716  1
  Pr  Pr8  1  0.000000  0.000000  0.000000  1
  Nd  Nd9  1  0.500000  0.500000  0.000000  1
  Si  Si10  1  0.885054  0.614445  0.499499  1
  Si  Si11  1  0.614445  0.114946  0.729391  1
  Si  Si12  1  0.385555  0.885054  0.270609  1
  Si  Si13  1  0.114946  0.385555  0.500501  1
  Si  Si14  1  0.749849  0.749849  0.000000  1
  Si  Si15  1  0.250151  0.250151  0.000000  1
