# generated using pymatgen
data_Sm3Ho(CuP)6
_symmetry_space_group_name_H-M   'P 1'
_cell_length_a   3.91377300
_cell_length_b   10.79226800
_cell_length_c   13.06116100
_cell_angle_alpha   90.00000000
_cell_angle_beta   90.00000000
_cell_angle_gamma   90.00000000
_symmetry_Int_Tables_number   1
_chemical_formula_structural   Sm3Ho(CuP)6
_chemical_formula_sum   'Sm6 Ho2 Cu12 P12'
_cell_volume   551.68368050
_cell_formula_units_Z   2
loop_
 _symmetry_equiv_pos_site_id
 _symmetry_equiv_pos_as_xyz
  1  'x, y, z'
loop_
 _atom_site_type_symbol
 _atom_site_label
 _atom_site_symmetry_multiplicity
 _atom_site_fract_x
 _atom_site_fract_y
 _atom_site_fract_z
 _atom_site_occupancy
  Sm  Sm0  1  0.250000  0.930614  0.794137  1
  Sm  Sm1  1  0.750000  0.430614  0.705863  1
  Sm  Sm2  1  0.250000  0.569104  0.292456  1
  Sm  Sm3  1  0.750000  0.069104  0.207544  1
  Sm  Sm4  1  0.250000  0.841805  0.502845  1
  Sm  Sm5  1  0.750000  0.341805  0.997155  1
  Ho  Ho6  1  0.250000  0.658724  0.002540  1
  Ho  Ho7  1  0.750000  0.158724  0.497460  1
  Cu  Cu8  1  0.250000  0.401375  0.512772  1
  Cu  Cu9  1  0.750000  0.901375  0.987228  1
  Cu  Cu10  1  0.250000  0.097561  0.013106  1
  Cu  Cu11  1  0.750000  0.597561  0.486894  1
  Cu  Cu12  1  0.250000  0.272742  0.332888  1
  Cu  Cu13  1  0.750000  0.772742  0.167112  1
  Cu  Cu14  1  0.250000  0.227278  0.831580  1
  Cu  Cu15  1  0.750000  0.727278  0.668420  1
  Cu  Cu16  1  0.250000  0.860384  0.278889  1
  Cu  Cu17  1  0.750000  0.360384  0.221111  1
  Cu  Cu18  1  0.250000  0.640393  0.780076  1
  Cu  Cu19  1  0.750000  0.140393  0.719924  1
  P  P20  1  0.250000  0.237994  0.642617  1
  P  P21  1  0.750000  0.737994  0.857383  1
  P  P22  1  0.250000  0.260659  0.145640  1
  P  P23  1  0.750000  0.760659  0.354360  1
  P  P24  1  0.250000  0.603258  0.600342  1
  P  P25  1  0.750000  0.103258  0.899658  1
  P  P26  1  0.250000  0.894598  0.099308  1
  P  P27  1  0.750000  0.394598  0.400692  1
  P  P28  1  0.250000  0.059430  0.370874  1
  P  P29  1  0.750000  0.559430  0.129126  1
  P  P30  1  0.250000  0.444080  0.868053  1
  P  P31  1  0.750000  0.944080  0.631947  1
