# generated using pymatgen
data_Lu3Zn2In3Cu
_symmetry_space_group_name_H-M   'P 1'
_cell_length_a   7.27462500
_cell_length_b   7.27462484
_cell_length_c   4.14783100
_cell_angle_alpha   90.00000000
_cell_angle_beta   90.00000000
_cell_angle_gamma   120.00001438
_symmetry_Int_Tables_number   1
_chemical_formula_structural   Lu3Zn2In3Cu
_chemical_formula_sum   'Lu3 Zn2 In3 Cu1'
_cell_volume   190.09593662
_cell_formula_units_Z   1
loop_
 _symmetry_equiv_pos_site_id
 _symmetry_equiv_pos_as_xyz
  1  'x, y, z'
loop_
 _atom_site_type_symbol
 _atom_site_label
 _atom_site_symmetry_multiplicity
 _atom_site_fract_x
 _atom_site_fract_y
 _atom_site_fract_z
 _atom_site_occupancy
  Lu  Lu0  1  0.409344  0.000000  0.500000  1
  Lu  Lu1  1  0.000000  0.409344  0.500000  1
  Lu  Lu2  1  0.590656  0.590656  0.500000  1
  Zn  Zn3  1  0.333333  0.666667  0.000000  1
  Zn  Zn4  1  0.666667  0.333333  0.000000  1
  In  In5  1  0.750225  0.000000  0.000000  1
  In  In6  1  0.000000  0.750225  0.000000  1
  In  In7  1  0.249775  0.249775  0.000000  1
  Cu  Cu8  1  0.000000  0.000000  0.500000  1
