# generated using pymatgen
data_Ho12Tc3As
_symmetry_space_group_name_H-M   'P 1'
_cell_length_a   6.28562097
_cell_length_b   7.46007400
_cell_length_c   9.12132400
_cell_angle_alpha   90.00000000
_cell_angle_beta   90.00000000
_cell_angle_gamma   89.73545285
_symmetry_Int_Tables_number   1
_chemical_formula_structural   Ho12Tc3As
_chemical_formula_sum   'Ho12 Tc3 As1'
_cell_volume   427.70524688
_cell_formula_units_Z   1
loop_
 _symmetry_equiv_pos_site_id
 _symmetry_equiv_pos_as_xyz
  1  'x, y, z'
loop_
 _atom_site_type_symbol
 _atom_site_label
 _atom_site_symmetry_multiplicity
 _atom_site_fract_x
 _atom_site_fract_y
 _atom_site_fract_z
 _atom_site_occupancy
  Ho  Ho0  1  0.331293  0.677129  0.065044  1
  Ho  Ho1  1  0.164674  0.178968  0.435377  1
  Ho  Ho2  1  0.660177  0.310999  0.559493  1
  Ho  Ho3  1  0.847762  0.832651  0.940841  1
  Ho  Ho4  1  0.660177  0.310999  0.940507  1
  Ho  Ho5  1  0.847762  0.832651  0.559159  1
  Ho  Ho6  1  0.331293  0.677129  0.434956  1
  Ho  Ho7  1  0.164674  0.178968  0.064623  1
  Ho  Ho8  1  0.868469  0.540422  0.250000  1
  Ho  Ho9  1  0.620809  0.034548  0.250000  1
  Ho  Ho10  1  0.124040  0.453223  0.750000  1
  Ho  Ho11  1  0.368237  0.973498  0.750000  1
  Tc  Tc12  1  0.035949  0.882045  0.250000  1
  Tc  Tc13  1  0.464931  0.384013  0.250000  1
  Tc  Tc14  1  0.950541  0.116007  0.750000  1
  As  As15  1  0.559214  0.616748  0.750000  1
