# generated using pymatgen
data_Nd4Y4Tc(B8Os)3
_symmetry_space_group_name_H-M   'P 1'
_cell_length_a   3.71478300
_cell_length_b   9.24708938
_cell_length_c   11.67377402
_cell_angle_alpha   89.94053218
_cell_angle_beta   90.00000000
_cell_angle_gamma   90.00000000
_symmetry_Int_Tables_number   1
_chemical_formula_structural   Nd4Y4Tc(B8Os)3
_chemical_formula_sum   'Nd4 Y4 Tc1 B24 Os3'
_cell_volume   401.00478327
_cell_formula_units_Z   1
loop_
 _symmetry_equiv_pos_site_id
 _symmetry_equiv_pos_as_xyz
  1  'x, y, z'
loop_
 _atom_site_type_symbol
 _atom_site_label
 _atom_site_symmetry_multiplicity
 _atom_site_fract_x
 _atom_site_fract_y
 _atom_site_fract_z
 _atom_site_occupancy
  Nd  Nd0  1  0.000000  0.324153  0.413095  1
  Nd  Nd1  1  0.000000  0.676689  0.584084  1
  Nd  Nd2  1  0.000000  0.821629  0.087509  1
  Nd  Nd3  1  0.000000  0.176676  0.914726  1
  Y  Y4  1  0.000000  0.942782  0.372210  1
  Y  Y5  1  0.000000  0.056799  0.627903  1
  Y  Y6  1  0.000000  0.444776  0.128609  1
  Y  Y7  1  0.000000  0.556456  0.871615  1
  Tc  Tc8  1  0.000000  0.638879  0.320005  1
  B  B9  1  0.500000  0.554863  0.430520  1
  B  B10  1  0.500000  0.444524  0.569640  1
  B  B11  1  0.500000  0.055721  0.069713  1
  B  B12  1  0.500000  0.944199  0.930649  1
  B  B13  1  0.500000  0.748489  0.417205  1
  B  B14  1  0.500000  0.251529  0.582741  1
  B  B15  1  0.500000  0.248697  0.082521  1
  B  B16  1  0.500000  0.751344  0.917378  1
  B  B17  1  0.500000  0.790240  0.267069  1
  B  B18  1  0.500000  0.210116  0.733050  1
  B  B19  1  0.500000  0.289946  0.232465  1
  B  B20  1  0.500000  0.710580  0.766963  1
  B  B21  1  0.500000  0.630982  0.186476  1
  B  B22  1  0.500000  0.368868  0.814019  1
  B  B23  1  0.500000  0.130901  0.313402  1
  B  B24  1  0.500000  0.869397  0.686168  1
  B  B25  1  0.500000  0.985398  0.213766  1
  B  B26  1  0.500000  0.014432  0.786782  1
  B  B27  1  0.500000  0.485012  0.286301  1
  B  B28  1  0.500000  0.514089  0.713654  1
  B  B29  1  0.500000  0.603367  0.027975  1
  B  B30  1  0.500000  0.396490  0.971196  1
  B  B31  1  0.500000  0.103777  0.471625  1
  B  B32  1  0.500000  0.897307  0.528950  1
  Os  Os33  1  0.000000  0.360845  0.680537  1
  Os  Os34  1  0.000000  0.138827  0.179671  1
  Os  Os35  1  0.000000  0.861223  0.819810  1
