# generated using pymatgen
data_Th3Zn2CdC
_symmetry_space_group_name_H-M   'P 1'
_cell_length_a   9.60433603
_cell_length_b   9.60433641
_cell_length_c   9.60433600
_cell_angle_alpha   60.00000140
_cell_angle_beta   60.00000011
_cell_angle_gamma   60.00000136
_symmetry_Int_Tables_number   1
_chemical_formula_structural   Th3Zn2CdC
_chemical_formula_sum   'Th12 Zn8 Cd4 C4'
_cell_volume   626.45094220
_cell_formula_units_Z   4
loop_
 _symmetry_equiv_pos_site_id
 _symmetry_equiv_pos_as_xyz
  1  'x, y, z'
loop_
 _atom_site_type_symbol
 _atom_site_label
 _atom_site_symmetry_multiplicity
 _atom_site_fract_x
 _atom_site_fract_y
 _atom_site_fract_z
 _atom_site_occupancy
  Th  Th0  1  0.441663  0.441663  0.058337  1
  Th  Th1  1  0.058337  0.441663  0.058337  1
  Th  Th2  1  0.441663  0.058337  0.058337  1
  Th  Th3  1  0.058337  0.058337  0.441663  1
  Th  Th4  1  0.441663  0.058337  0.441663  1
  Th  Th5  1  0.058337  0.441663  0.441663  1
  Th  Th6  1  0.808337  0.808337  0.191663  1
  Th  Th7  1  0.191663  0.808337  0.191663  1
  Th  Th8  1  0.808337  0.191663  0.191663  1
  Th  Th9  1  0.191663  0.191663  0.808337  1
  Th  Th10  1  0.808337  0.191663  0.808337  1
  Th  Th11  1  0.191663  0.808337  0.808337  1
  Zn  Zn12  1  0.828050  0.828050  0.515851  1
  Zn  Zn13  1  0.828050  0.515851  0.828050  1
  Zn  Zn14  1  0.515851  0.828050  0.828050  1
  Zn  Zn15  1  0.828050  0.828050  0.828050  1
  Zn  Zn16  1  0.421950  0.421950  0.734149  1
  Zn  Zn17  1  0.421950  0.734149  0.421950  1
  Zn  Zn18  1  0.734149  0.421950  0.421950  1
  Zn  Zn19  1  0.421950  0.421950  0.421950  1
  Cd  Cd20  1  0.625000  0.625000  0.125000  1
  Cd  Cd21  1  0.625000  0.125000  0.625000  1
  Cd  Cd22  1  0.125000  0.625000  0.625000  1
  Cd  Cd23  1  0.625000  0.625000  0.625000  1
  C  C24  1  0.125000  0.125000  0.625000  1
  C  C25  1  0.125000  0.625000  0.125000  1
  C  C26  1  0.625000  0.125000  0.125000  1
  C  C27  1  0.125000  0.125000  0.125000  1
