# generated using pymatgen
data_La5(PtO6)2
_symmetry_space_group_name_H-M   'P 1'
_cell_length_a   7.23010508
_cell_length_b   7.23010501
_cell_length_c   7.70237840
_cell_angle_alpha   74.57507275
_cell_angle_beta   74.57507346
_cell_angle_gamma   50.84703531
_symmetry_Int_Tables_number   1
_chemical_formula_structural   La5(PtO6)2
_chemical_formula_sum   'La5 Pt2 O12'
_cell_volume   298.38396112
_cell_formula_units_Z   1
loop_
 _symmetry_equiv_pos_site_id
 _symmetry_equiv_pos_as_xyz
  1  'x, y, z'
loop_
 _atom_site_type_symbol
 _atom_site_label
 _atom_site_symmetry_multiplicity
 _atom_site_fract_x
 _atom_site_fract_y
 _atom_site_fract_z
 _atom_site_occupancy
  La  La0  1  0.303989  0.303989  0.357859  1
  La  La1  1  0.696011  0.696011  0.642141  1
  La  La2  1  0.695820  0.695820  0.162637  1
  La  La3  1  0.304180  0.304180  0.837363  1
  La  La4  1  0.000000  0.000000  0.500000  1
  Pt  Pt5  1  0.752920  0.247080  0.000000  1
  Pt  Pt6  1  0.247080  0.752920  0.000000  1
  O  O7  1  0.093766  0.600241  0.575963  1
  O  O8  1  0.999847  0.999847  0.169510  1
  O  O9  1  0.399759  0.906234  0.424037  1
  O  O10  1  0.500541  0.500541  0.171094  1
  O  O11  1  0.099224  0.576389  0.080890  1
  O  O12  1  0.906234  0.399759  0.424037  1
  O  O13  1  0.000153  0.000153  0.830490  1
  O  O14  1  0.600241  0.093765  0.575963  1
  O  O15  1  0.499459  0.499459  0.828906  1
  O  O16  1  0.576389  0.099224  0.080890  1
  O  O17  1  0.423611  0.900776  0.919110  1
  O  O18  1  0.900776  0.423611  0.919110  1
