# generated using pymatgen
data_Sc12Co4SiRh
_symmetry_space_group_name_H-M   'P 1'
_cell_length_a   7.65939631
_cell_length_b   7.65939632
_cell_length_c   7.65939588
_cell_angle_alpha   111.00612525
_cell_angle_beta   110.27790842
_cell_angle_gamma   107.15503956
_symmetry_Int_Tables_number   1
_chemical_formula_structural   Sc12Co4SiRh
_chemical_formula_sum   'Sc12 Co4 Si1 Rh1'
_cell_volume   345.47246274
_cell_formula_units_Z   1
loop_
 _symmetry_equiv_pos_site_id
 _symmetry_equiv_pos_as_xyz
  1  'x, y, z'
loop_
 _atom_site_type_symbol
 _atom_site_label
 _atom_site_symmetry_multiplicity
 _atom_site_fract_x
 _atom_site_fract_y
 _atom_site_fract_z
 _atom_site_occupancy
  Sc  Sc0  1  0.427696  0.231059  0.196636  1
  Sc  Sc1  1  0.572304  0.768941  0.803364  1
  Sc  Sc2  1  0.034422  0.231059  0.803364  1
  Sc  Sc3  1  0.965578  0.768941  0.196636  1
  Sc  Sc4  1  0.321853  0.622338  0.300484  1
  Sc  Sc5  1  0.678147  0.377662  0.699516  1
  Sc  Sc6  1  0.321853  0.021368  0.699516  1
  Sc  Sc7  1  0.678147  0.978632  0.300484  1
  Sc  Sc8  1  0.184670  0.279506  0.464177  1
  Sc  Sc9  1  0.815330  0.720493  0.535823  1
  Sc  Sc10  1  0.184670  0.720493  0.905163  1
  Sc  Sc11  1  0.815330  0.279506  0.094837  1
  Co  Co12  1  0.353768  0.000000  0.353768  1
  Co  Co13  1  0.646232  0.000000  0.646232  1
  Co  Co14  1  0.121138  0.621138  0.500000  1
  Co  Co15  1  0.878862  0.378862  0.500000  1
  Si  Si16  1  0.500000  0.500000  0.000000  1
  Rh  Rh17  1  0.000000  0.000000  0.000000  1
