# generated using pymatgen
data_KAc3(AsPt)4
_symmetry_space_group_name_H-M   'P 1'
_cell_length_a   4.45185700
_cell_length_b   4.45185653
_cell_length_c   17.78064900
_cell_angle_alpha   90.00000000
_cell_angle_beta   90.00000000
_cell_angle_gamma   119.99999607
_symmetry_Int_Tables_number   1
_chemical_formula_structural   KAc3(AsPt)4
_chemical_formula_sum   'K1 Ac3 As4 Pt4'
_cell_volume   305.18320044
_cell_formula_units_Z   1
loop_
 _symmetry_equiv_pos_site_id
 _symmetry_equiv_pos_as_xyz
  1  'x, y, z'
loop_
 _atom_site_type_symbol
 _atom_site_label
 _atom_site_symmetry_multiplicity
 _atom_site_fract_x
 _atom_site_fract_y
 _atom_site_fract_z
 _atom_site_occupancy
  K  K0  1  0.000000  0.000000  0.000000  1
  Ac  Ac1  1  0.000000  0.000000  0.500000  1
  Ac  Ac2  1  0.000000  0.000000  0.257997  1
  Ac  Ac3  1  0.000000  0.000000  0.742003  1
  As  As4  1  0.333333  0.666667  0.861013  1
  As  As5  1  0.666667  0.333333  0.138987  1
  As  As6  1  0.666667  0.333333  0.382789  1
  As  As7  1  0.333333  0.666667  0.617211  1
  Pt  Pt8  1  0.333333  0.666667  0.379637  1
  Pt  Pt9  1  0.666667  0.333333  0.620363  1
  Pt  Pt10  1  0.666667  0.333333  0.855728  1
  Pt  Pt11  1  0.333333  0.666667  0.144272  1
