# generated using pymatgen
data_V10GaSi3Rh2
_symmetry_space_group_name_H-M   'P 1'
_cell_length_a   4.68743700
_cell_length_b   4.74640000
_cell_length_c   9.48136953
_cell_angle_alpha   90.12351097
_cell_angle_beta   90.00000000
_cell_angle_gamma   90.00000000
_symmetry_Int_Tables_number   1
_chemical_formula_structural   V10GaSi3Rh2
_chemical_formula_sum   'V10 Ga1 Si3 Rh2'
_cell_volume   210.94529509
_cell_formula_units_Z   1
loop_
 _symmetry_equiv_pos_site_id
 _symmetry_equiv_pos_as_xyz
  1  'x, y, z'
loop_
 _atom_site_type_symbol
 _atom_site_label
 _atom_site_symmetry_multiplicity
 _atom_site_fract_x
 _atom_site_fract_y
 _atom_site_fract_z
 _atom_site_occupancy
  V  V0  1  0.000000  0.500108  0.625696  1
  V  V1  1  0.500000  0.245562  0.254891  1
  V  V2  1  0.750679  0.997224  0.999551  1
  V  V3  1  0.753735  0.998747  0.499218  1
  V  V4  1  0.000000  0.504979  0.863850  1
  V  V5  1  0.000000  0.502599  0.385908  1
  V  V6  1  0.500000  0.745068  0.746478  1
  V  V7  1  0.500000  0.758522  0.253489  1
  V  V8  1  0.249321  0.997224  0.999551  1
  V  V9  1  0.246265  0.998747  0.499218  1
  Ga  Ga10  1  0.500000  0.500693  0.999471  1
  Si  Si11  1  0.500000  0.506128  0.495006  1
  Si  Si12  1  0.000000  0.994857  0.750544  1
  Si  Si13  1  0.000000  0.001743  0.254148  1
  Rh  Rh14  1  0.000000  0.502172  0.127309  1
  Rh  Rh15  1  0.500000  0.245628  0.745672  1
