# generated using pymatgen
data_Tm16Tl2CdInNi4
_symmetry_space_group_name_H-M   'P 1'
_cell_length_a   9.44534025
_cell_length_b   9.44223656
_cell_length_c   9.45766000
_cell_angle_alpha   59.94595113
_cell_angle_beta   59.95684402
_cell_angle_gamma   60.01313524
_symmetry_Int_Tables_number   1
_chemical_formula_structural   Tm16Tl2CdInNi4
_chemical_formula_sum   'Tm16 Tl2 Cd1 In1 Ni4'
_cell_volume   596.05285285
_cell_formula_units_Z   1
loop_
 _symmetry_equiv_pos_site_id
 _symmetry_equiv_pos_as_xyz
  1  'x, y, z'
loop_
 _atom_site_type_symbol
 _atom_site_label
 _atom_site_symmetry_multiplicity
 _atom_site_fract_x
 _atom_site_fract_y
 _atom_site_fract_z
 _atom_site_occupancy
  Tm  Tm0  1  0.346361  0.345990  0.348224  1
  Tm  Tm1  1  0.346361  0.345990  0.959424  1
  Tm  Tm2  1  0.348808  0.954652  0.348269  1
  Tm  Tm3  1  0.952798  0.349387  0.348907  1
  Tm  Tm4  1  0.812285  0.188069  0.187766  1
  Tm  Tm5  1  0.186973  0.813218  0.812844  1
  Tm  Tm6  1  0.186973  0.813218  0.186965  1
  Tm  Tm7  1  0.812285  0.188069  0.811880  1
  Tm  Tm8  1  0.187956  0.186409  0.812818  1
  Tm  Tm9  1  0.813070  0.812449  0.187240  1
  Tm  Tm10  1  0.940713  0.562753  0.562654  1
  Tm  Tm11  1  0.564131  0.937941  0.935838  1
  Tm  Tm12  1  0.564131  0.937941  0.562089  1
  Tm  Tm13  1  0.940713  0.562753  0.933881  1
  Tm  Tm14  1  0.563914  0.562586  0.936750  1
  Tm  Tm15  1  0.939929  0.937514  0.561279  1
  Tl  Tl16  1  0.582930  0.585355  0.587287  1
  Tl  Tl17  1  0.582930  0.585355  0.244428  1
  Cd  Cd18  1  0.252147  0.580755  0.583550  1
  In  In19  1  0.580305  0.252208  0.583743  1
  Ni  Ni20  1  0.140210  0.142001  0.145526  1
  Ni  Ni21  1  0.140210  0.142001  0.572263  1
  Ni  Ni22  1  0.140175  0.573112  0.143356  1
  Ni  Ni23  1  0.573691  0.140273  0.143018  1
