# generated using pymatgen
data_LuPaHgPt2
_symmetry_space_group_name_H-M   'P 1'
_cell_length_a   7.91753100
_cell_length_b   7.73362300
_cell_length_c   3.57974000
_cell_angle_alpha   90.00000000
_cell_angle_beta   90.00000000
_cell_angle_gamma   90.00000000
_symmetry_Int_Tables_number   1
_chemical_formula_structural   LuPaHgPt2
_chemical_formula_sum   'Lu2 Pa2 Hg2 Pt4'
_cell_volume   219.19177533
_cell_formula_units_Z   2
loop_
 _symmetry_equiv_pos_site_id
 _symmetry_equiv_pos_as_xyz
  1  'x, y, z'
loop_
 _atom_site_type_symbol
 _atom_site_label
 _atom_site_symmetry_multiplicity
 _atom_site_fract_x
 _atom_site_fract_y
 _atom_site_fract_z
 _atom_site_occupancy
  Lu  Lu0  1  0.328129  0.170774  0.500000  1
  Lu  Lu1  1  0.828129  0.329226  0.500000  1
  Pa  Pa2  1  0.169732  0.663937  0.500000  1
  Pa  Pa3  1  0.669732  0.836063  0.500000  1
  Hg  Hg4  1  0.006018  0.011182  0.000000  1
  Hg  Hg5  1  0.506018  0.488818  0.000000  1
  Pt  Pt6  1  0.625530  0.120834  0.000000  1
  Pt  Pt7  1  0.125530  0.379166  0.000000  1
  Pt  Pt8  1  0.870591  0.643520  0.000000  1
  Pt  Pt9  1  0.370591  0.856480  0.000000  1
