# generated using pymatgen
data_Li8Sm7LuPb8
_symmetry_space_group_name_H-M   'P 1'
_cell_length_a   9.42612700
_cell_length_b   9.42612687
_cell_length_c   7.82432600
_cell_angle_alpha   90.00000000
_cell_angle_beta   90.00000000
_cell_angle_gamma   120.00000397
_symmetry_Int_Tables_number   1
_chemical_formula_structural   Li8Sm7LuPb8
_chemical_formula_sum   'Li8 Sm7 Lu1 Pb8'
_cell_volume   602.06602285
_cell_formula_units_Z   1
loop_
 _symmetry_equiv_pos_site_id
 _symmetry_equiv_pos_as_xyz
  1  'x, y, z'
loop_
 _atom_site_type_symbol
 _atom_site_label
 _atom_site_symmetry_multiplicity
 _atom_site_fract_x
 _atom_site_fract_y
 _atom_site_fract_z
 _atom_site_occupancy
  Li  Li0  1  0.165866  0.331733  0.284683  1
  Li  Li1  1  0.165866  0.834134  0.284683  1
  Li  Li2  1  0.668267  0.834134  0.284683  1
  Li  Li3  1  0.834352  0.668702  0.799853  1
  Li  Li4  1  0.834352  0.165648  0.799853  1
  Li  Li5  1  0.331298  0.165648  0.799853  1
  Li  Li6  1  0.333333  0.666667  0.673798  1
  Li  Li7  1  0.666667  0.333333  0.166539  1
  Sm  Sm8  1  0.513544  0.027086  0.494209  1
  Sm  Sm9  1  0.513544  0.486456  0.494209  1
  Sm  Sm10  1  0.972914  0.486456  0.494209  1
  Sm  Sm11  1  0.485924  0.971846  0.994566  1
  Sm  Sm12  1  0.485924  0.514076  0.994566  1
  Sm  Sm13  1  0.028154  0.514076  0.994566  1
  Sm  Sm14  1  0.000000  0.000000  0.501919  1
  Lu  Lu15  1  0.000000  0.000000  0.002607  1
  Pb  Pb16  1  0.165748  0.331496  0.727482  1
  Pb  Pb17  1  0.165748  0.834252  0.727482  1
  Pb  Pb18  1  0.668504  0.834252  0.727482  1
  Pb  Pb19  1  0.834260  0.668520  0.220470  1
  Pb  Pb20  1  0.834260  0.165740  0.220470  1
  Pb  Pb21  1  0.331480  0.165740  0.220470  1
  Pb  Pb22  1  0.333333  0.666667  0.269250  1
  Pb  Pb23  1  0.666667  0.333333  0.764100  1
