# generated using pymatgen
data_Ba5PrOs3O16
_symmetry_space_group_name_H-M   'P 1'
_cell_length_a   6.08534877
_cell_length_b   6.10097446
_cell_length_c   10.80630229
_cell_angle_alpha   93.41027029
_cell_angle_beta   93.28804308
_cell_angle_gamma   90.07782211
_symmetry_Int_Tables_number   1
_chemical_formula_structural   Ba5PrOs3O16
_chemical_formula_sum   'Ba5 Pr1 Os3 O16'
_cell_volume   399.82648437
_cell_formula_units_Z   1
loop_
 _symmetry_equiv_pos_site_id
 _symmetry_equiv_pos_as_xyz
  1  'x, y, z'
loop_
 _atom_site_type_symbol
 _atom_site_label
 _atom_site_symmetry_multiplicity
 _atom_site_fract_x
 _atom_site_fract_y
 _atom_site_fract_z
 _atom_site_occupancy
  Ba  Ba0  1  0.510820  0.026955  0.210205  1
  Ba  Ba1  1  0.028688  0.505502  0.212332  1
  Ba  Ba2  1  0.999987  0.999974  0.500034  1
  Ba  Ba3  1  0.971292  0.494466  0.787584  1
  Ba  Ba4  1  0.489164  0.972999  0.789708  1
  Pr  Pr5  1  0.499997  0.499988  0.999993  1
  Os  Os6  1  0.999994  0.999986  0.000008  1
  Os  Os7  1  0.560204  0.560059  0.396183  1
  Os  Os8  1  0.439832  0.440005  0.603827  1
  O  O9  1  0.741866  0.195296  0.002072  1
  O  O10  1  0.807893  0.746850  0.021820  1
  O  O11  1  0.044331  0.046186  0.170429  1
  O  O12  1  0.477573  0.475978  0.212939  1
  O  O13  1  0.759997  0.760282  0.335212  1
  O  O14  1  0.319623  0.746930  0.378639  1
  O  O15  1  0.750210  0.321712  0.379288  1
  O  O16  1  0.328400  0.326201  0.437769  1
  O  O17  1  0.671664  0.673877  0.562285  1
  O  O18  1  0.249794  0.678294  0.620730  1
  O  O19  1  0.680359  0.253091  0.621370  1
  O  O20  1  0.240015  0.239737  0.664784  1
  O  O21  1  0.522429  0.524038  0.787068  1
  O  O22  1  0.955644  0.953777  0.829586  1
  O  O23  1  0.192093  0.253125  0.978198  1
  O  O24  1  0.258129  0.804683  0.997947  1
