# generated using pymatgen
data_Tb16HoEr3Sn16
_symmetry_space_group_name_H-M   'P 1'
_cell_length_a   8.04853002
_cell_length_b   8.19968602
_cell_length_c   15.52373000
_cell_angle_alpha   90.00000000
_cell_angle_beta   90.00000000
_cell_angle_gamma   89.99277109
_symmetry_Int_Tables_number   1
_chemical_formula_structural   Tb16HoEr3Sn16
_chemical_formula_sum   'Tb16 Ho1 Er3 Sn16'
_cell_volume   1024.49505801
_cell_formula_units_Z   1
loop_
 _symmetry_equiv_pos_site_id
 _symmetry_equiv_pos_as_xyz
  1  'x, y, z'
loop_
 _atom_site_type_symbol
 _atom_site_label
 _atom_site_symmetry_multiplicity
 _atom_site_fract_x
 _atom_site_fract_y
 _atom_site_fract_z
 _atom_site_occupancy
  Tb  Tb0  1  0.367758  0.835630  0.878467  1
  Tb  Tb1  1  0.867755  0.664376  0.621520  1
  Tb  Tb2  1  0.632316  0.164410  0.378479  1
  Tb  Tb3  1  0.132205  0.335676  0.121519  1
  Tb  Tb4  1  0.632316  0.164410  0.121521  1
  Tb  Tb5  1  0.132205  0.335676  0.378481  1
  Tb  Tb6  1  0.367758  0.835630  0.621533  1
  Tb  Tb7  1  0.867755  0.664376  0.878480  1
  Tb  Tb8  1  0.520179  0.319607  0.902228  1
  Tb  Tb9  1  0.020190  0.180392  0.597783  1
  Tb  Tb10  1  0.479839  0.680366  0.402226  1
  Tb  Tb11  1  0.979781  0.819584  0.097770  1
  Tb  Tb12  1  0.479839  0.680366  0.097774  1
  Tb  Tb13  1  0.979781  0.819584  0.402230  1
  Tb  Tb14  1  0.520179  0.319607  0.597772  1
  Tb  Tb15  1  0.020190  0.180392  0.902217  1
  Ho  Ho16  1  0.301718  0.002177  0.250000  1
  Er  Er17  1  0.198369  0.502182  0.750000  1
  Er  Er18  1  0.698368  0.997858  0.750000  1
  Er  Er19  1  0.801640  0.497772  0.250000  1
  Sn  Sn20  1  0.291948  0.033835  0.042310  1
  Sn  Sn21  1  0.791946  0.466155  0.457605  1
  Sn  Sn22  1  0.708049  0.966172  0.542393  1
  Sn  Sn23  1  0.208049  0.533844  0.957606  1
  Sn  Sn24  1  0.708049  0.966172  0.957607  1
  Sn  Sn25  1  0.208049  0.533844  0.542394  1
  Sn  Sn26  1  0.291948  0.033835  0.457690  1
  Sn  Sn27  1  0.791946  0.466155  0.042395  1
  Sn  Sn28  1  0.564923  0.618961  0.750000  1
  Sn  Sn29  1  0.064895  0.881026  0.750000  1
  Sn  Sn30  1  0.435130  0.381125  0.250000  1
  Sn  Sn31  1  0.934874  0.119002  0.250000  1
  Sn  Sn32  1  0.328025  0.146092  0.750000  1
  Sn  Sn33  1  0.827993  0.353955  0.750000  1
  Sn  Sn34  1  0.672065  0.853898  0.250000  1
  Sn  Sn35  1  0.171968  0.645855  0.250000  1
