# generated using pymatgen
data_Lu20Ir8Os3Pt
_symmetry_space_group_name_H-M   'P 1'
_cell_length_a   10.64703337
_cell_length_b   10.64795417
_cell_length_c   6.29198500
_cell_angle_alpha   90.04254693
_cell_angle_beta   90.04559648
_cell_angle_gamma   89.95528300
_symmetry_Int_Tables_number   1
_chemical_formula_structural   Lu20Ir8Os3Pt
_chemical_formula_sum   'Lu20 Ir8 Os3 Pt1'
_cell_volume   713.31618460
_cell_formula_units_Z   1
loop_
 _symmetry_equiv_pos_site_id
 _symmetry_equiv_pos_as_xyz
  1  'x, y, z'
loop_
 _atom_site_type_symbol
 _atom_site_label
 _atom_site_symmetry_multiplicity
 _atom_site_fract_x
 _atom_site_fract_y
 _atom_site_fract_z
 _atom_site_occupancy
  Lu  Lu0  1  0.293263  0.085628  0.377432  1
  Lu  Lu1  1  0.294311  0.914183  0.877639  1
  Lu  Lu2  1  0.704038  0.084424  0.873468  1
  Lu  Lu3  1  0.704605  0.910986  0.378974  1
  Lu  Lu4  1  0.585576  0.793645  0.878315  1
  Lu  Lu5  1  0.582705  0.206325  0.377613  1
  Lu  Lu6  1  0.413290  0.793507  0.378075  1
  Lu  Lu7  1  0.413998  0.205865  0.878453  1
  Lu  Lu8  1  0.208457  0.413416  0.624088  1
  Lu  Lu9  1  0.207788  0.587575  0.119922  1
  Lu  Lu10  1  0.792287  0.416723  0.120135  1
  Lu  Lu11  1  0.792111  0.586957  0.624042  1
  Lu  Lu12  1  0.913545  0.707968  0.120536  1
  Lu  Lu13  1  0.914675  0.293924  0.629511  1
  Lu  Lu14  1  0.086793  0.707665  0.624983  1
  Lu  Lu15  1  0.090211  0.294148  0.118580  1
  Lu  Lu16  1  0.000828  0.998248  0.500481  1
  Lu  Lu17  1  0.001613  0.999036  0.998135  1
  Lu  Lu18  1  0.499859  0.499834  0.998705  1
  Lu  Lu19  1  0.500249  0.500125  0.499395  1
  Ir  Ir20  1  0.848012  0.848177  0.750240  1
  Ir  Ir21  1  0.150987  0.152644  0.748753  1
  Ir  Ir22  1  0.151649  0.846760  0.249883  1
  Ir  Ir23  1  0.653948  0.346753  0.749614  1
  Ir  Ir24  1  0.653329  0.651603  0.249712  1
  Ir  Ir25  1  0.346842  0.348366  0.249837  1
  Ir  Ir26  1  0.347225  0.652136  0.749332  1
  Ir  Ir27  1  0.000409  0.499674  0.375451  1
  Os  Os28  1  0.500115  0.999728  0.127520  1
  Os  Os29  1  0.499921  0.999696  0.625925  1
  Os  Os30  1  0.000293  0.500003  0.875188  1
  Pt  Pt31  1  0.847070  0.154280  0.250067  1
