# generated using pymatgen
data_Tb16MgCo2Ni2Au3
_symmetry_space_group_name_H-M   'P 1'
_cell_length_a   9.44351722
_cell_length_b   9.47441510
_cell_length_c   9.43672700
_cell_angle_alpha   60.13150375
_cell_angle_beta   60.02378616
_cell_angle_gamma   60.17594505
_symmetry_Int_Tables_number   1
_chemical_formula_structural   Tb16MgCo2Ni2Au3
_chemical_formula_sum   'Tb16 Mg1 Co2 Ni2 Au3'
_cell_volume   598.51635543
_cell_formula_units_Z   1
loop_
 _symmetry_equiv_pos_site_id
 _symmetry_equiv_pos_as_xyz
  1  'x, y, z'
loop_
 _atom_site_type_symbol
 _atom_site_label
 _atom_site_symmetry_multiplicity
 _atom_site_fract_x
 _atom_site_fract_y
 _atom_site_fract_z
 _atom_site_occupancy
  Tb  Tb0  1  0.803401  0.191900  0.192591  1
  Tb  Tb1  1  0.187455  0.809177  0.815530  1
  Tb  Tb2  1  0.187455  0.809177  0.187838  1
  Tb  Tb3  1  0.803401  0.191900  0.812110  1
  Tb  Tb4  1  0.189376  0.187012  0.811806  1
  Tb  Tb5  1  0.807780  0.809743  0.191239  1
  Tb  Tb6  1  0.935783  0.564346  0.561488  1
  Tb  Tb7  1  0.563764  0.936486  0.936776  1
  Tb  Tb8  1  0.563765  0.936486  0.562973  1
  Tb  Tb9  1  0.935783  0.564346  0.938385  1
  Tb  Tb10  1  0.562691  0.563965  0.936672  1
  Tb  Tb11  1  0.935212  0.939765  0.562512  1
  Tb  Tb12  1  0.348021  0.347566  0.344084  1
  Tb  Tb13  1  0.348021  0.347566  0.960327  1
  Tb  Tb14  1  0.353045  0.954088  0.346433  1
  Tb  Tb15  1  0.927882  0.360154  0.355982  1
  Mg  Mg16  1  0.313040  0.561792  0.562583  1
  Co  Co17  1  0.135361  0.574720  0.144959  1
  Co  Co18  1  0.572312  0.142959  0.142365  1
  Ni  Ni19  1  0.136275  0.144583  0.146498  1
  Ni  Ni20  1  0.136275  0.144583  0.572644  1
  Au  Au21  1  0.584661  0.592146  0.590486  1
  Au  Au22  1  0.584661  0.592146  0.232708  1
  Au  Au23  1  0.584581  0.233392  0.591013  1
