# generated using pymatgen
data_K2Rb4DyLuF12
_symmetry_space_group_name_H-M   'P 1'
_cell_length_a   6.74435823
_cell_length_b   6.54739867
_cell_length_c   11.36329235
_cell_angle_alpha   55.17218636
_cell_angle_beta   90.02592851
_cell_angle_gamma   90.00307169
_symmetry_Int_Tables_number   1
_chemical_formula_structural   K2Rb4DyLuF12
_chemical_formula_sum   'K2 Rb4 Dy1 Lu1 F12'
_cell_volume   411.89736549
_cell_formula_units_Z   1
loop_
 _symmetry_equiv_pos_site_id
 _symmetry_equiv_pos_as_xyz
  1  'x, y, z'
loop_
 _atom_site_type_symbol
 _atom_site_label
 _atom_site_symmetry_multiplicity
 _atom_site_fract_x
 _atom_site_fract_y
 _atom_site_fract_z
 _atom_site_occupancy
  K  K0  1  0.500000  0.500000  0.000000  1
  K  K1  1  0.000000  0.500000  0.500000  1
  Rb  Rb2  1  0.044060  0.735614  0.752491  1
  Rb  Rb3  1  0.955940  0.264386  0.247509  1
  Rb  Rb4  1  0.544288  0.263639  0.748193  1
  Rb  Rb5  1  0.455712  0.736361  0.251807  1
  Dy  Dy6  1  0.500000  0.000000  0.500000  1
  Lu  Lu7  1  0.000000  0.000000  0.000000  1
  F  F8  1  0.764241  0.766349  0.553905  1
  F  F9  1  0.235759  0.233651  0.446095  1
  F  F10  1  0.257993  0.228210  0.947378  1
  F  F11  1  0.742007  0.771790  0.052622  1
  F  F12  1  0.462483  0.862773  0.725388  1
  F  F13  1  0.537517  0.137227  0.274612  1
  F  F14  1  0.963383  0.133868  0.780053  1
  F  F15  1  0.036617  0.866132  0.219947  1
  F  F16  1  0.315763  0.691663  0.538565  1
  F  F17  1  0.684237  0.308337  0.461435  1
  F  F18  1  0.819951  0.300977  0.962356  1
  F  F19  1  0.180049  0.699023  0.037644  1
