# generated using pymatgen
data_Lu6Fe4Si5P
_symmetry_space_group_name_H-M   'P 1'
_cell_length_a   5.48565013
_cell_length_b   5.48564918
_cell_length_c   13.23990200
_cell_angle_alpha   90.00000000
_cell_angle_beta   90.00000000
_cell_angle_gamma   136.98905287
_symmetry_Int_Tables_number   1
_chemical_formula_structural   Lu6Fe4Si5P
_chemical_formula_sum   'Lu6 Fe4 Si5 P1'
_cell_volume   271.77731362
_cell_formula_units_Z   1
loop_
 _symmetry_equiv_pos_site_id
 _symmetry_equiv_pos_as_xyz
  1  'x, y, z'
loop_
 _atom_site_type_symbol
 _atom_site_label
 _atom_site_symmetry_multiplicity
 _atom_site_fract_x
 _atom_site_fract_y
 _atom_site_fract_z
 _atom_site_occupancy
  Lu  Lu0  1  0.640141  0.359859  0.250000  1
  Lu  Lu1  1  0.362012  0.637988  0.750000  1
  Lu  Lu2  1  0.920778  0.079222  0.113958  1
  Lu  Lu3  1  0.079505  0.920495  0.887969  1
  Lu  Lu4  1  0.079505  0.920495  0.612031  1
  Lu  Lu5  1  0.920778  0.079222  0.386042  1
  Fe  Fe6  1  0.787091  0.212909  0.579744  1
  Fe  Fe7  1  0.212433  0.787567  0.415739  1
  Fe  Fe8  1  0.212433  0.787567  0.084261  1
  Fe  Fe9  1  0.787091  0.212909  0.920256  1
  Si  Si10  1  0.670906  0.329094  0.750000  1
  Si  Si11  1  0.620057  0.379943  0.039854  1
  Si  Si12  1  0.378886  0.621114  0.961806  1
  Si  Si13  1  0.378886  0.621114  0.538194  1
  Si  Si14  1  0.620057  0.379943  0.460146  1
  P  P15  1  0.329439  0.670561  0.250000  1
