# generated using pymatgen
data_Cs4AuO4
_symmetry_space_group_name_H-M   'P 1'
_cell_length_a   6.28724667
_cell_length_b   6.28724624
_cell_length_c   6.83882474
_cell_angle_alpha   74.06952655
_cell_angle_beta   74.06952419
_cell_angle_gamma   65.90589423
_symmetry_Int_Tables_number   1
_chemical_formula_structural   Cs4AuO4
_chemical_formula_sum   'Cs4 Au1 O4'
_cell_volume   233.20737780
_cell_formula_units_Z   1
loop_
 _symmetry_equiv_pos_site_id
 _symmetry_equiv_pos_as_xyz
  1  'x, y, z'
loop_
 _atom_site_type_symbol
 _atom_site_label
 _atom_site_symmetry_multiplicity
 _atom_site_fract_x
 _atom_site_fract_y
 _atom_site_fract_z
 _atom_site_occupancy
  Cs  Cs0  1  0.190376  0.190376  0.414891  1
  Cs  Cs1  1  0.384036  0.384036  0.846075  1
  Cs  Cs2  1  0.615964  0.615964  0.153925  1
  Cs  Cs3  1  0.809624  0.809624  0.585109  1
  Au  Au4  1  0.000000  0.000000  0.000000  1
  O  O5  1  0.680695  0.098767  0.190115  1
  O  O6  1  0.319305  0.901233  0.809885  1
  O  O7  1  0.098767  0.680695  0.190115  1
  O  O8  1  0.901233  0.319305  0.809885  1
