# generated using pymatgen
data_V2Ni3(SeS3)2
_symmetry_space_group_name_H-M   'P 1'
_cell_length_a   3.30597500
_cell_length_b   10.01043600
_cell_length_c   13.96748900
_cell_angle_alpha   90.00000000
_cell_angle_beta   90.00000000
_cell_angle_gamma   90.00000000
_symmetry_Int_Tables_number   1
_chemical_formula_structural   V2Ni3(SeS3)2
_chemical_formula_sum   'V4 Ni6 Se4 S12'
_cell_volume   462.24358897
_cell_formula_units_Z   2
loop_
 _symmetry_equiv_pos_site_id
 _symmetry_equiv_pos_as_xyz
  1  'x, y, z'
loop_
 _atom_site_type_symbol
 _atom_site_label
 _atom_site_symmetry_multiplicity
 _atom_site_fract_x
 _atom_site_fract_y
 _atom_site_fract_z
 _atom_site_occupancy
  V  V0  1  0.500000  0.804564  0.877965  1
  V  V1  1  0.500000  0.195436  0.122035  1
  V  V2  1  0.500000  0.304564  0.622035  1
  V  V3  1  0.500000  0.695436  0.377965  1
  Ni  Ni4  1  0.000000  0.000000  0.000000  1
  Ni  Ni5  1  0.000000  0.500000  0.500000  1
  Ni  Ni6  1  0.000000  0.631605  0.771085  1
  Ni  Ni7  1  0.000000  0.368395  0.228915  1
  Ni  Ni8  1  0.000000  0.131605  0.728915  1
  Ni  Ni9  1  0.000000  0.868395  0.271085  1
  Se  Se10  1  0.500000  0.556544  0.876187  1
  Se  Se11  1  0.500000  0.443456  0.123813  1
  Se  Se12  1  0.500000  0.056544  0.623813  1
  Se  Se13  1  0.500000  0.943456  0.376187  1
  S  S14  1  0.000000  0.781323  0.998612  1
  S  S15  1  0.000000  0.218677  0.001388  1
  S  S16  1  0.000000  0.281323  0.501388  1
  S  S17  1  0.000000  0.718677  0.498612  1
  S  S18  1  0.000000  0.970473  0.844404  1
  S  S19  1  0.000000  0.029527  0.155596  1
  S  S20  1  0.000000  0.470473  0.655596  1
  S  S21  1  0.000000  0.529527  0.344404  1
  S  S22  1  0.500000  0.758772  0.717149  1
  S  S23  1  0.500000  0.241228  0.282851  1
  S  S24  1  0.500000  0.258772  0.782851  1
  S  S25  1  0.500000  0.741228  0.217149  1
