# generated using pymatgen
data_Y20Co2(HgAu)3
_symmetry_space_group_name_H-M   'P 1'
_cell_length_a   9.58695500
_cell_length_b   9.58695512
_cell_length_c   9.53610000
_cell_angle_alpha   90.00000000
_cell_angle_beta   90.00000000
_cell_angle_gamma   119.99999614
_symmetry_Int_Tables_number   1
_chemical_formula_structural   Y20Co2(HgAu)3
_chemical_formula_sum   'Y20 Co2 Hg3 Au3'
_cell_volume   759.03679332
_cell_formula_units_Z   1
loop_
 _symmetry_equiv_pos_site_id
 _symmetry_equiv_pos_as_xyz
  1  'x, y, z'
loop_
 _atom_site_type_symbol
 _atom_site_label
 _atom_site_symmetry_multiplicity
 _atom_site_fract_x
 _atom_site_fract_y
 _atom_site_fract_z
 _atom_site_occupancy
  Y  Y0  1  0.000000  0.000000  0.476866  1
  Y  Y1  1  0.000000  0.000000  0.023134  1
  Y  Y2  1  0.542704  0.457296  0.250000  1
  Y  Y3  1  0.542704  0.085409  0.250000  1
  Y  Y4  1  0.914591  0.457296  0.250000  1
  Y  Y5  1  0.457479  0.542521  0.750000  1
  Y  Y6  1  0.457479  0.914959  0.750000  1
  Y  Y7  1  0.085041  0.542521  0.750000  1
  Y  Y8  1  0.210479  0.789521  0.435825  1
  Y  Y9  1  0.210479  0.420961  0.435825  1
  Y  Y10  1  0.579039  0.789521  0.435825  1
  Y  Y11  1  0.789981  0.210019  0.562508  1
  Y  Y12  1  0.789981  0.579960  0.562508  1
  Y  Y13  1  0.420040  0.210019  0.562508  1
  Y  Y14  1  0.789981  0.210019  0.937492  1
  Y  Y15  1  0.789981  0.579960  0.937492  1
  Y  Y16  1  0.420040  0.210019  0.937492  1
  Y  Y17  1  0.210479  0.789521  0.064175  1
  Y  Y18  1  0.210479  0.420961  0.064175  1
  Y  Y19  1  0.579039  0.789521  0.064175  1
  Co  Co20  1  0.333333  0.666667  0.250000  1
  Co  Co21  1  0.666667  0.333333  0.750000  1
  Hg  Hg22  1  0.115741  0.884259  0.750000  1
  Hg  Hg23  1  0.115741  0.231483  0.750000  1
  Hg  Hg24  1  0.768517  0.884259  0.750000  1
  Au  Au25  1  0.874702  0.125298  0.250000  1
  Au  Au26  1  0.874702  0.749405  0.250000  1
  Au  Au27  1  0.250595  0.125298  0.250000  1
