# generated using pymatgen
data_GeBi2Te4S
_symmetry_space_group_name_H-M   'P 1'
_cell_length_a   24.87797194
_cell_length_b   24.87797232
_cell_length_c   6.35623400
_cell_angle_alpha   103.43529548
_cell_angle_beta   103.43529332
_cell_angle_gamma   12.70950856
_symmetry_Int_Tables_number   1
_chemical_formula_structural   GeBi2Te4S
_chemical_formula_sum   'Ge3 Bi6 Te12 S3'
_cell_volume   841.51859964
_cell_formula_units_Z   3
loop_
 _symmetry_equiv_pos_site_id
 _symmetry_equiv_pos_as_xyz
  1  'x, y, z'
loop_
 _atom_site_type_symbol
 _atom_site_label
 _atom_site_symmetry_multiplicity
 _atom_site_fract_x
 _atom_site_fract_y
 _atom_site_fract_z
 _atom_site_occupancy
  Ge  Ge0  1  0.957388  0.957388  0.145342  1
  Ge  Ge1  1  0.456835  0.456835  0.644513  1
  Ge  Ge2  1  0.587198  0.587198  0.521353  1
  Bi  Bi3  1  0.258328  0.258328  0.969045  1
  Bi  Bi4  1  0.745291  0.745291  0.496689  1
  Bi  Bi5  1  0.871873  0.871873  0.834221  1
  Bi  Bi6  1  0.321798  0.321798  0.208263  1
  Bi  Bi7  1  0.181084  0.181084  0.332373  1
  Bi  Bi8  1  0.645743  0.645743  0.789469  1
  Te  Te9  1  0.086108  0.086108  0.517677  1
  Te  Te10  1  0.606755  0.606755  0.101236  1
  Te  Te11  1  0.885112  0.885112  0.337063  1
  Te  Te12  1  0.369828  0.369828  0.817822  1
  Te  Te13  1  0.457474  0.457474  0.122927  1
  Te  Te14  1  0.956950  0.956950  0.622421  1
  Te  Te15  1  0.551361  0.551361  0.899378  1
  Te  Te16  1  0.031968  0.031968  0.256073  1
  Te  Te17  1  0.298762  0.298762  0.690391  1
  Te  Te18  1  0.826107  0.826107  0.219273  1
  Te  Te19  1  0.153683  0.153683  0.820470  1
  Te  Te20  1  0.681280  0.681280  0.349441  1
  S  S21  1  0.045087  0.045087  0.909975  1
  S  S22  1  0.753465  0.753465  0.946426  1
  S  S23  1  0.238614  0.238614  0.448158  1
