# generated using pymatgen
data_La3Sm9(IrBr3)4
_symmetry_space_group_name_H-M   'P 1'
_cell_length_a   10.32933487
_cell_length_b   10.35312350
_cell_length_c   10.35726000
_cell_angle_alpha   109.95204004
_cell_angle_beta   109.85980619
_cell_angle_gamma   108.54147123
_symmetry_Int_Tables_number   1
_chemical_formula_structural   La3Sm9(IrBr3)4
_chemical_formula_sum   'La3 Sm9 Ir4 Br12'
_cell_volume   853.15546017
_cell_formula_units_Z   1
loop_
 _symmetry_equiv_pos_site_id
 _symmetry_equiv_pos_as_xyz
  1  'x, y, z'
loop_
 _atom_site_type_symbol
 _atom_site_label
 _atom_site_symmetry_multiplicity
 _atom_site_fract_x
 _atom_site_fract_y
 _atom_site_fract_z
 _atom_site_occupancy
  La  La0  1  0.014389  0.484567  0.749426  1
  La  La1  1  0.267000  0.016996  0.033979  1
  La  La2  1  0.235027  0.264845  0.749437  1
  Sm  Sm3  1  0.469364  0.486521  0.234176  1
  Sm  Sm4  1  0.753004  0.235786  0.267163  1
  Sm  Sm5  1  0.740491  0.010183  0.478352  1
  Sm  Sm6  1  0.237860  0.468167  0.478355  1
  Sm  Sm7  1  0.264810  0.747657  0.234170  1
  Sm  Sm8  1  0.025471  0.263941  0.015422  1
  Sm  Sm9  1  0.014162  0.031380  0.267162  1
  Sm  Sm10  1  0.489942  0.751476  0.015415  1
  Sm  Sm11  1  0.485806  0.235808  0.471615  1
  Ir  Ir12  1  0.249375  0.249384  0.249411  1
  Ir  Ir13  1  0.500041  0.000033  0.249411  1
  Ir  Ir14  1  0.000343  0.250341  0.500689  1
  Ir  Ir15  1  0.249321  0.499321  0.998645  1
  Br  Br16  1  0.257775  0.755199  0.742434  1
  Br  Br17  1  0.516262  0.512650  0.755593  1
  Br  Br18  1  0.986127  0.745180  0.002278  1
  Br  Br19  1  0.739322  0.242933  0.755592  1
  Br  Br20  1  0.984655  0.987229  0.742434  1
  Br  Br21  1  0.250240  0.990449  0.502388  1
  Br  Br22  1  0.752150  0.511940  0.502387  1
  Br  Br23  1  0.516165  0.257111  0.002280  1
  Br  Br24  1  0.756540  0.743700  0.250799  1
  Br  Br25  1  0.743834  0.993835  0.987668  1
  Br  Br26  1  0.994263  0.507103  0.250803  1
  Br  Br27  1  0.506261  0.756262  0.512521  1
