# generated using pymatgen
data_CaPr(FeO3)2
_symmetry_space_group_name_H-M   'P 1'
_cell_length_a   5.46912900
_cell_length_b   5.57663400
_cell_length_c   7.76433900
_cell_angle_alpha   90.00000000
_cell_angle_beta   90.00000000
_cell_angle_gamma   90.00000000
_symmetry_Int_Tables_number   1
_chemical_formula_structural   CaPr(FeO3)2
_chemical_formula_sum   'Ca2 Pr2 Fe4 O12'
_cell_volume   236.80714307
_cell_formula_units_Z   2
loop_
 _symmetry_equiv_pos_site_id
 _symmetry_equiv_pos_as_xyz
  1  'x, y, z'
loop_
 _atom_site_type_symbol
 _atom_site_label
 _atom_site_symmetry_multiplicity
 _atom_site_fract_x
 _atom_site_fract_y
 _atom_site_fract_z
 _atom_site_occupancy
  Ca  Ca0  1  0.010586  0.951750  0.750000  1
  Ca  Ca1  1  0.510586  0.548250  0.250000  1
  Pr  Pr2  1  0.489064  0.453779  0.750000  1
  Pr  Pr3  1  0.989064  0.046221  0.250000  1
  Fe  Fe4  1  0.999300  0.502441  0.499239  1
  Fe  Fe5  1  0.499300  0.997559  0.500761  1
  Fe  Fe6  1  0.499300  0.997559  0.999239  1
  Fe  Fe7  1  0.999300  0.502441  0.000761  1
  O  O8  1  0.710402  0.291063  0.457023  1
  O  O9  1  0.210402  0.208937  0.542977  1
  O  O10  1  0.788394  0.789547  0.040602  1
  O  O11  1  0.288394  0.710453  0.959398  1
  O  O12  1  0.288394  0.710453  0.540602  1
  O  O13  1  0.788394  0.789547  0.459398  1
  O  O14  1  0.210402  0.208937  0.957023  1
  O  O15  1  0.710402  0.291063  0.042977  1
  O  O16  1  0.080888  0.482329  0.250000  1
  O  O17  1  0.580888  0.017671  0.750000  1
  O  O18  1  0.423270  0.980050  0.250000  1
  O  O19  1  0.923270  0.519950  0.750000  1
