# generated using pymatgen
data_Tb2ThIn3Pt2Rh
_symmetry_space_group_name_H-M   'P 1'
_cell_length_a   7.77858430
_cell_length_b   7.75748384
_cell_length_c   3.86219900
_cell_angle_alpha   90.00000000
_cell_angle_beta   90.00000000
_cell_angle_gamma   119.91031058
_symmetry_Int_Tables_number   1
_chemical_formula_structural   Tb2ThIn3Pt2Rh
_chemical_formula_sum   'Tb2 Th1 In3 Pt2 Rh1'
_cell_volume   202.01262616
_cell_formula_units_Z   1
loop_
 _symmetry_equiv_pos_site_id
 _symmetry_equiv_pos_as_xyz
  1  'x, y, z'
loop_
 _atom_site_type_symbol
 _atom_site_label
 _atom_site_symmetry_multiplicity
 _atom_site_fract_x
 _atom_site_fract_y
 _atom_site_fract_z
 _atom_site_occupancy
  Tb  Tb0  1  0.405175  0.409417  0.500000  1
  Tb  Tb1  1  0.594825  0.004241  0.500000  1
  Th  Th2  1  0.000000  0.592306  0.500000  1
  In  In3  1  0.733689  0.746176  0.000000  1
  In  In4  1  0.000000  0.243125  0.000000  1
  In  In5  1  0.266311  0.012486  0.000000  1
  Pt  Pt6  1  0.324363  0.665229  0.000000  1
  Pt  Pt7  1  0.675637  0.340865  0.000000  1
  Rh  Rh8  1  0.000000  0.986156  0.500000  1
