# generated using pymatgen
data_PrY5(Ir7Rh2)2
_symmetry_space_group_name_H-M   'P 1'
_cell_length_a   5.32733600
_cell_length_b   5.32733746
_cell_length_c   17.48937000
_cell_angle_alpha   90.00000000
_cell_angle_beta   90.00000000
_cell_angle_gamma   119.99999091
_symmetry_Int_Tables_number   1
_chemical_formula_structural   PrY5(Ir7Rh2)2
_chemical_formula_sum   'Pr1 Y5 Ir14 Rh4'
_cell_volume   429.85811945
_cell_formula_units_Z   1
loop_
 _symmetry_equiv_pos_site_id
 _symmetry_equiv_pos_as_xyz
  1  'x, y, z'
loop_
 _atom_site_type_symbol
 _atom_site_label
 _atom_site_symmetry_multiplicity
 _atom_site_fract_x
 _atom_site_fract_y
 _atom_site_fract_z
 _atom_site_occupancy
  Pr  Pr0  1  0.333333  0.666667  0.750000  1
  Y  Y1  1  0.333333  0.666667  0.959686  1
  Y  Y2  1  0.666667  0.333333  0.041056  1
  Y  Y3  1  0.666667  0.333333  0.458944  1
  Y  Y4  1  0.333333  0.666667  0.540314  1
  Y  Y5  1  0.666667  0.333333  0.250000  1
  Ir  Ir6  1  0.167491  0.832509  0.374089  1
  Ir  Ir7  1  0.167491  0.334983  0.374089  1
  Ir  Ir8  1  0.665017  0.832509  0.374089  1
  Ir  Ir9  1  0.832427  0.167573  0.625130  1
  Ir  Ir10  1  0.832427  0.664854  0.625130  1
  Ir  Ir11  1  0.335146  0.167573  0.625130  1
  Ir  Ir12  1  0.832427  0.167573  0.874870  1
  Ir  Ir13  1  0.832427  0.664854  0.874870  1
  Ir  Ir14  1  0.335146  0.167573  0.874870  1
  Ir  Ir15  1  0.167491  0.832509  0.125911  1
  Ir  Ir16  1  0.167491  0.334983  0.125911  1
  Ir  Ir17  1  0.665017  0.832509  0.125911  1
  Ir  Ir18  1  0.000000  0.000000  0.499645  1
  Ir  Ir19  1  0.000000  0.000000  0.000355  1
  Rh  Rh20  1  0.333333  0.666667  0.250000  1
  Rh  Rh21  1  0.666667  0.333333  0.750000  1
  Rh  Rh22  1  0.000000  0.000000  0.250000  1
  Rh  Rh23  1  0.000000  0.000000  0.750000  1
