# generated using pymatgen
data_La7Pr13Pb16
_symmetry_space_group_name_H-M   'P 1'
_cell_length_a   8.57019218
_cell_length_b   8.68241624
_cell_length_c   16.41828180
_cell_angle_alpha   90.02696503
_cell_angle_beta   89.97649083
_cell_angle_gamma   90.00257320
_symmetry_Int_Tables_number   1
_chemical_formula_structural   La7Pr13Pb16
_chemical_formula_sum   'La7 Pr13 Pb16'
_cell_volume   1221.68371218
_cell_formula_units_Z   1
loop_
 _symmetry_equiv_pos_site_id
 _symmetry_equiv_pos_as_xyz
  1  'x, y, z'
loop_
 _atom_site_type_symbol
 _atom_site_label
 _atom_site_symmetry_multiplicity
 _atom_site_fract_x
 _atom_site_fract_y
 _atom_site_fract_z
 _atom_site_occupancy
  La  La0  1  0.528640  0.320418  0.398997  1
  La  La1  1  0.471305  0.679510  0.899087  1
  La  La2  1  0.971433  0.820456  0.600923  1
  La  La3  1  0.971421  0.820626  0.899188  1
  La  La4  1  0.471334  0.679473  0.600915  1
  La  La5  1  0.528516  0.320285  0.100940  1
  La  La6  1  0.028643  0.179553  0.399064  1
  Pr  Pr7  1  0.879552  0.659403  0.117767  1
  Pr  Pr8  1  0.379456  0.840511  0.382210  1
  Pr  Pr9  1  0.620599  0.159611  0.882347  1
  Pr  Pr10  1  0.120586  0.340478  0.617707  1
  Pr  Pr11  1  0.120588  0.340435  0.882397  1
  Pr  Pr12  1  0.620612  0.159450  0.617727  1
  Pr  Pr13  1  0.379271  0.840587  0.117720  1
  Pr  Pr14  1  0.879384  0.659502  0.382189  1
  Pr  Pr15  1  0.028818  0.179251  0.101252  1
  Pr  Pr16  1  0.709837  0.996797  0.249825  1
  Pr  Pr17  1  0.209621  0.503254  0.249883  1
  Pr  Pr18  1  0.790295  0.496595  0.749981  1
  Pr  Pr19  1  0.290331  0.003310  0.750043  1
  Pb  Pb20  1  0.076519  0.877586  0.249836  1
  Pb  Pb21  1  0.576537  0.622660  0.249963  1
  Pb  Pb22  1  0.423511  0.377361  0.750029  1
  Pb  Pb23  1  0.923522  0.122640  0.749982  1
  Pb  Pb24  1  0.836640  0.355076  0.249672  1
  Pb  Pb25  1  0.336038  0.144536  0.249853  1
  Pb  Pb26  1  0.663714  0.855505  0.750027  1
  Pb  Pb27  1  0.163692  0.644579  0.749999  1
  Pb  Pb28  1  0.780411  0.466969  0.956386  1
  Pb  Pb29  1  0.280175  0.032999  0.543698  1
  Pb  Pb30  1  0.720342  0.967674  0.043858  1
  Pb  Pb31  1  0.219720  0.532952  0.456315  1
  Pb  Pb32  1  0.219450  0.532561  0.043662  1
  Pb  Pb33  1  0.719769  0.967035  0.456282  1
  Pb  Pb34  1  0.279546  0.033322  0.956615  1
  Pb  Pb35  1  0.780174  0.467043  0.543660  1
