# generated using pymatgen
data_Er4Tm6(InBi)3
_symmetry_space_group_name_H-M   'P 1'
_cell_length_a   6.49489600
_cell_length_b   8.96413468
_cell_length_c   8.96772513
_cell_angle_alpha   119.98675197
_cell_angle_beta   90.00094994
_cell_angle_gamma   89.99809961
_symmetry_Int_Tables_number   1
_chemical_formula_structural   Er4Tm6(InBi)3
_chemical_formula_sum   'Er4 Tm6 In3 Bi3'
_cell_volume   452.22175916
_cell_formula_units_Z   1
loop_
 _symmetry_equiv_pos_site_id
 _symmetry_equiv_pos_as_xyz
  1  'x, y, z'
loop_
 _atom_site_type_symbol
 _atom_site_label
 _atom_site_symmetry_multiplicity
 _atom_site_fract_x
 _atom_site_fract_y
 _atom_site_fract_z
 _atom_site_occupancy
  Er  Er0  1  0.750000  0.236199  0.000000  1
  Er  Er1  1  0.750011  0.763481  0.763532  1
  Er  Er2  1  0.750011  0.999950  0.236468  1
  Er  Er3  1  0.250005  0.762337  0.000000  1
  Tm  Tm4  1  0.492272  0.333298  0.666623  1
  Tm  Tm5  1  0.492272  0.666675  0.333377  1
  Tm  Tm6  1  0.007717  0.666663  0.333373  1
  Tm  Tm7  1  0.007717  0.333292  0.666627  1
  Tm  Tm8  1  0.249994  0.237970  0.237833  1
  Tm  Tm9  1  0.249994  0.000138  0.762167  1
  In  In10  1  0.250001  0.393523  0.000000  1
  In  In11  1  0.250011  0.606527  0.606405  1
  In  In12  1  0.250011  0.000120  0.393595  1
  Bi  Bi13  1  0.749996  0.603812  0.000000  1
  Bi  Bi14  1  0.749992  0.396032  0.396046  1
  Bi  Bi15  1  0.749992  0.999986  0.603954  1
