# generated using pymatgen
data_Sr6Pr2Si12AgPd3
_symmetry_space_group_name_H-M   'P 1'
_cell_length_a   8.45491300
_cell_length_b   8.45491423
_cell_length_c   8.84259800
_cell_angle_alpha   90.00000000
_cell_angle_beta   90.00000000
_cell_angle_gamma   120.00000692
_symmetry_Int_Tables_number   1
_chemical_formula_structural   Sr6Pr2Si12AgPd3
_chemical_formula_sum   'Sr6 Pr2 Si12 Ag1 Pd3'
_cell_volume   547.43030103
_cell_formula_units_Z   1
loop_
 _symmetry_equiv_pos_site_id
 _symmetry_equiv_pos_as_xyz
  1  'x, y, z'
loop_
 _atom_site_type_symbol
 _atom_site_label
 _atom_site_symmetry_multiplicity
 _atom_site_fract_x
 _atom_site_fract_y
 _atom_site_fract_z
 _atom_site_occupancy
  Sr  Sr0  1  0.498161  0.501839  0.746424  1
  Sr  Sr1  1  0.498472  0.501528  0.253533  1
  Sr  Sr2  1  0.003678  0.501839  0.746424  1
  Sr  Sr3  1  0.003056  0.501528  0.253533  1
  Sr  Sr4  1  0.498161  0.996322  0.746424  1
  Sr  Sr5  1  0.498472  0.996944  0.253533  1
  Pr  Pr6  1  0.000000  0.000000  0.748229  1
  Pr  Pr7  1  0.000000  0.000000  0.251797  1
  Si  Si8  1  0.841686  0.158314  0.999934  1
  Si  Si9  1  0.164618  0.835382  0.000141  1
  Si  Si10  1  0.316628  0.158314  0.999934  1
  Si  Si11  1  0.162770  0.837230  0.499675  1
  Si  Si12  1  0.670764  0.835382  0.000141  1
  Si  Si13  1  0.836781  0.163219  0.500321  1
  Si  Si14  1  0.841686  0.683372  0.999934  1
  Si  Si15  1  0.674460  0.837230  0.499675  1
  Si  Si16  1  0.164618  0.329236  0.000141  1
  Si  Si17  1  0.326439  0.163219  0.500321  1
  Si  Si18  1  0.162770  0.325540  0.499675  1
  Si  Si19  1  0.836781  0.673561  0.500321  1
  Ag  Ag20  1  0.666667  0.333333  0.999643  1
  Pd  Pd21  1  0.333333  0.666667  0.000323  1
  Pd  Pd22  1  0.333333  0.666667  0.499579  1
  Pd  Pd23  1  0.666667  0.333333  0.500345  1
