# generated using pymatgen
data_Ho12CdCo4Rh
_symmetry_space_group_name_H-M   'P 1'
_cell_length_a   8.26861942
_cell_length_b   8.26862113
_cell_length_c   8.26862002
_cell_angle_alpha   110.84497537
_cell_angle_beta   110.08960325
_cell_angle_gamma   107.49785145
_symmetry_Int_Tables_number   1
_chemical_formula_structural   Ho12CdCo4Rh
_chemical_formula_sum   'Ho12 Cd1 Co4 Rh1'
_cell_volume   434.78320597
_cell_formula_units_Z   1
loop_
 _symmetry_equiv_pos_site_id
 _symmetry_equiv_pos_as_xyz
  1  'x, y, z'
loop_
 _atom_site_type_symbol
 _atom_site_label
 _atom_site_symmetry_multiplicity
 _atom_site_fract_x
 _atom_site_fract_y
 _atom_site_fract_z
 _atom_site_occupancy
  Ho  Ho0  1  0.408990  0.213445  0.195545  1
  Ho  Ho1  1  0.591010  0.786555  0.804455  1
  Ho  Ho2  1  0.017900  0.213445  0.804455  1
  Ho  Ho3  1  0.982100  0.786555  0.195545  1
  Ho  Ho4  1  0.184249  0.289969  0.474217  1
  Ho  Ho5  1  0.815751  0.710031  0.525783  1
  Ho  Ho6  1  0.184249  0.710031  0.894279  1
  Ho  Ho7  1  0.815751  0.289969  0.105721  1
  Ho  Ho8  1  0.315488  0.620613  0.305125  1
  Ho  Ho9  1  0.684512  0.379387  0.694875  1
  Ho  Ho10  1  0.315488  0.010362  0.694875  1
  Ho  Ho11  1  0.684512  0.989638  0.305125  1
  Cd  Cd12  1  0.500000  0.500000  0.000000  1
  Co  Co13  1  0.378064  0.000000  0.378064  1
  Co  Co14  1  0.621936  0.000000  0.621936  1
  Co  Co15  1  0.112785  0.612785  0.500000  1
  Co  Co16  1  0.887215  0.387215  0.500000  1
  Rh  Rh17  1  0.000000  0.000000  0.000000  1
