# generated using pymatgen
data_Rb2H9Os
_symmetry_space_group_name_H-M   'P 1'
_cell_length_a   10.14217100
_cell_length_b   10.14217111
_cell_length_c   5.73967900
_cell_angle_alpha   90.00000000
_cell_angle_beta   90.00000000
_cell_angle_gamma   120.00000942
_symmetry_Int_Tables_number   1
_chemical_formula_structural   Rb2H9Os
_chemical_formula_sum   'Rb6 H27 Os3'
_cell_volume   511.30502047
_cell_formula_units_Z   3
loop_
 _symmetry_equiv_pos_site_id
 _symmetry_equiv_pos_as_xyz
  1  'x, y, z'
loop_
 _atom_site_type_symbol
 _atom_site_label
 _atom_site_symmetry_multiplicity
 _atom_site_fract_x
 _atom_site_fract_y
 _atom_site_fract_z
 _atom_site_occupancy
  Rb  Rb0  1  0.000000  0.265269  0.500000  1
  Rb  Rb1  1  0.734731  0.734731  0.500000  1
  Rb  Rb2  1  0.265269  0.000000  0.500000  1
  Rb  Rb3  1  0.000000  0.602404  0.000000  1
  Rb  Rb4  1  0.397596  0.397596  0.000000  1
  Rb  Rb5  1  0.602404  0.000000  0.000000  1
  H  H6  1  0.770160  0.311783  0.710713  1
  H  H7  1  0.688217  0.458375  0.710713  1
  H  H8  1  0.541625  0.229840  0.710713  1
  H  H9  1  0.229840  0.541625  0.289287  1
  H  H10  1  0.541625  0.229840  0.289287  1
  H  H11  1  0.770160  0.311783  0.289287  1
  H  H12  1  0.688217  0.458375  0.289287  1
  H  H13  1  0.311783  0.770160  0.710713  1
  H  H14  1  0.458375  0.688217  0.710713  1
  H  H15  1  0.167251  0.000000  0.000000  1
  H  H16  1  0.832749  0.832749  0.000000  1
  H  H17  1  0.000000  0.167251  0.000000  1
  H  H18  1  0.880960  0.000000  0.205350  1
  H  H19  1  0.119040  0.119040  0.794650  1
  H  H20  1  0.000000  0.880960  0.794650  1
  H  H21  1  0.000000  0.880960  0.205350  1
  H  H22  1  0.119040  0.119040  0.205350  1
  H  H23  1  0.880960  0.000000  0.794650  1
  H  H24  1  0.155512  0.636095  0.500000  1
  H  H25  1  0.480583  0.844488  0.500000  1
  H  H26  1  0.363905  0.519417  0.500000  1
  H  H27  1  0.519417  0.363905  0.500000  1
  H  H28  1  0.844488  0.480583  0.500000  1
  H  H29  1  0.636095  0.155512  0.500000  1
  H  H30  1  0.229840  0.541625  0.710713  1
  H  H31  1  0.311783  0.770160  0.289287  1
  H  H32  1  0.458375  0.688217  0.289287  1
  Os  Os33  1  0.666667  0.333333  0.500000  1
  Os  Os34  1  0.333333  0.666667  0.500000  1
  Os  Os35  1  0.000000  0.000000  0.000000  1
