# generated using pymatgen
data_Ho3ZnCd2PdPt2
_symmetry_space_group_name_H-M   'P 1'
_cell_length_a   7.55487496
_cell_length_b   7.56665353
_cell_length_c   3.82608400
_cell_angle_alpha   90.00000000
_cell_angle_beta   90.00000000
_cell_angle_gamma   120.05159786
_symmetry_Int_Tables_number   1
_chemical_formula_structural   Ho3ZnCd2PdPt2
_chemical_formula_sum   'Ho3 Zn1 Cd2 Pd1 Pt2'
_cell_volume   189.31726510
_cell_formula_units_Z   1
loop_
 _symmetry_equiv_pos_site_id
 _symmetry_equiv_pos_as_xyz
  1  'x, y, z'
loop_
 _atom_site_type_symbol
 _atom_site_label
 _atom_site_symmetry_multiplicity
 _atom_site_fract_x
 _atom_site_fract_y
 _atom_site_fract_z
 _atom_site_occupancy
  Ho  Ho0  1  0.399775  0.405724  0.000000  1
  Ho  Ho1  1  0.600225  0.005949  0.000000  1
  Ho  Ho2  1  0.000000  0.575961  0.000000  1
  Zn  Zn3  1  0.000000  0.260954  0.500000  1
  Cd  Cd4  1  0.749067  0.743712  0.500000  1
  Cd  Cd5  1  0.250933  0.994644  0.500000  1
  Pd  Pd6  1  0.000000  0.025535  0.000000  1
  Pt  Pt7  1  0.671306  0.329413  0.500000  1
  Pt  Pt8  1  0.328694  0.658109  0.500000  1
