# generated using pymatgen
data_Ho3ErPd3PtO14
_symmetry_space_group_name_H-M   'P 1'
_cell_length_a   7.23572315
_cell_length_b   7.23572258
_cell_length_c   7.22476868
_cell_angle_alpha   59.94983469
_cell_angle_beta   59.94983559
_cell_angle_gamma   60.00000169
_symmetry_Int_Tables_number   1
_chemical_formula_structural   Ho3ErPd3PtO14
_chemical_formula_sum   'Ho3 Er1 Pd3 Pt1 O14'
_cell_volume   267.26561414
_cell_formula_units_Z   1
loop_
 _symmetry_equiv_pos_site_id
 _symmetry_equiv_pos_as_xyz
  1  'x, y, z'
loop_
 _atom_site_type_symbol
 _atom_site_label
 _atom_site_symmetry_multiplicity
 _atom_site_fract_x
 _atom_site_fract_y
 _atom_site_fract_z
 _atom_site_occupancy
  Ho  Ho0  1  0.625000  0.625000  0.625000  1
  Ho  Ho1  1  0.625000  0.125000  0.625000  1
  Ho  Ho2  1  0.125000  0.625000  0.625000  1
  Er  Er3  1  0.625000  0.625000  0.125000  1
  Pd  Pd4  1  0.625000  0.125000  0.125000  1
  Pd  Pd5  1  0.125000  0.125000  0.125000  1
  Pd  Pd6  1  0.125000  0.625000  0.125000  1
  Pt  Pt7  1  0.125000  0.125000  0.625000  1
  O  O8  1  0.033243  0.465830  0.467684  1
  O  O9  1  0.783722  0.783722  0.215821  1
  O  O10  1  0.783722  0.216736  0.215821  1
  O  O11  1  0.749806  0.749806  0.750584  1
  O  O12  1  0.033264  0.466278  0.034179  1
  O  O13  1  0.465830  0.033243  0.467684  1
  O  O14  1  0.033243  0.033243  0.467684  1
  O  O15  1  0.500194  0.500194  0.499416  1
  O  O16  1  0.216757  0.216757  0.782316  1
  O  O17  1  0.216736  0.783722  0.215821  1
  O  O18  1  0.784170  0.216757  0.782316  1
  O  O19  1  0.466278  0.033264  0.034179  1
  O  O20  1  0.466278  0.466278  0.034179  1
  O  O21  1  0.216757  0.784170  0.782316  1
