# generated using pymatgen
data_Nd8Zn2CoSi12Rh
_symmetry_space_group_name_H-M   'P 1'
_cell_length_a   8.19325900
_cell_length_b   8.19325974
_cell_length_c   8.52582100
_cell_angle_alpha   90.00000000
_cell_angle_beta   90.00000000
_cell_angle_gamma   120.00000105
_symmetry_Int_Tables_number   1
_chemical_formula_structural   Nd8Zn2CoSi12Rh
_chemical_formula_sum   'Nd8 Zn2 Co1 Si12 Rh1'
_cell_volume   495.65585893
_cell_formula_units_Z   1
loop_
 _symmetry_equiv_pos_site_id
 _symmetry_equiv_pos_as_xyz
  1  'x, y, z'
loop_
 _atom_site_type_symbol
 _atom_site_label
 _atom_site_symmetry_multiplicity
 _atom_site_fract_x
 _atom_site_fract_y
 _atom_site_fract_z
 _atom_site_occupancy
  Nd  Nd0  1  0.000000  0.000000  0.749764  1
  Nd  Nd1  1  0.000000  0.000000  0.250316  1
  Nd  Nd2  1  0.495402  0.504598  0.748598  1
  Nd  Nd3  1  0.495402  0.990805  0.748598  1
  Nd  Nd4  1  0.009195  0.504598  0.748598  1
  Nd  Nd5  1  0.496755  0.503245  0.251499  1
  Nd  Nd6  1  0.006491  0.503245  0.251499  1
  Nd  Nd7  1  0.496755  0.993509  0.251499  1
  Zn  Zn8  1  0.666667  0.333333  0.996668  1
  Zn  Zn9  1  0.666667  0.333333  0.503168  1
  Co  Co10  1  0.333333  0.666667  0.497400  1
  Si  Si11  1  0.836705  0.163295  0.999650  1
  Si  Si12  1  0.836705  0.673410  0.999650  1
  Si  Si13  1  0.326590  0.163295  0.999650  1
  Si  Si14  1  0.837003  0.162997  0.500420  1
  Si  Si15  1  0.837003  0.674006  0.500420  1
  Si  Si16  1  0.325994  0.162997  0.500420  1
  Si  Si17  1  0.174783  0.825217  0.499456  1
  Si  Si18  1  0.650433  0.825217  0.499456  1
  Si  Si19  1  0.174783  0.349567  0.499456  1
  Si  Si20  1  0.169229  0.830771  0.000445  1
  Si  Si21  1  0.661542  0.830771  0.000445  1
  Si  Si22  1  0.169229  0.338458  0.000445  1
  Rh  Rh23  1  0.333333  0.666667  0.002479  1
