# generated using pymatgen
data_Tm3ZnAg3Ge2
_symmetry_space_group_name_H-M   'P 1'
_cell_length_a   7.15423200
_cell_length_b   7.15423280
_cell_length_c   4.10511700
_cell_angle_alpha   90.00000000
_cell_angle_beta   90.00000000
_cell_angle_gamma   120.00000556
_symmetry_Int_Tables_number   1
_chemical_formula_structural   Tm3ZnAg3Ge2
_chemical_formula_sum   'Tm3 Zn1 Ag3 Ge2'
_cell_volume   181.96264213
_cell_formula_units_Z   1
loop_
 _symmetry_equiv_pos_site_id
 _symmetry_equiv_pos_as_xyz
  1  'x, y, z'
loop_
 _atom_site_type_symbol
 _atom_site_label
 _atom_site_symmetry_multiplicity
 _atom_site_fract_x
 _atom_site_fract_y
 _atom_site_fract_z
 _atom_site_occupancy
  Tm  Tm0  1  0.418203  0.418203  0.500000  1
  Tm  Tm1  1  0.581797  0.000000  0.500000  1
  Tm  Tm2  1  0.000000  0.581797  0.500000  1
  Zn  Zn3  1  0.000000  0.000000  0.500000  1
  Ag  Ag4  1  0.751062  0.751062  0.000000  1
  Ag  Ag5  1  0.248938  0.000000  0.000000  1
  Ag  Ag6  1  0.000000  0.248938  0.000000  1
  Ge  Ge7  1  0.666667  0.333333  0.000000  1
  Ge  Ge8  1  0.333333  0.666667  0.000000  1
