# generated using pymatgen
data_Nb6Re5Si6Mo
_symmetry_space_group_name_H-M   'P 1'
_cell_length_a   7.61222343
_cell_length_b   7.61376505
_cell_length_c   7.61376393
_cell_angle_alpha   126.88793260
_cell_angle_beta   126.10690255
_cell_angle_gamma   79.07846528
_symmetry_Int_Tables_number   1
_chemical_formula_structural   Nb6Re5Si6Mo
_chemical_formula_sum   'Nb6 Re5 Si6 Mo1'
_cell_volume   275.77830233
_cell_formula_units_Z   1
loop_
 _symmetry_equiv_pos_site_id
 _symmetry_equiv_pos_as_xyz
  1  'x, y, z'
loop_
 _atom_site_type_symbol
 _atom_site_label
 _atom_site_symmetry_multiplicity
 _atom_site_fract_x
 _atom_site_fract_y
 _atom_site_fract_z
 _atom_site_occupancy
  Nb  Nb0  1  0.554865  0.096656  0.040624  1
  Nb  Nb1  1  0.445135  0.485759  0.541791  1
  Nb  Nb2  1  0.957427  0.498140  0.039264  1
  Nb  Nb3  1  0.042573  0.081836  0.540713  1
  Nb  Nb4  1  0.753147  0.909912  0.655322  1
  Nb  Nb5  1  0.246853  0.902174  0.156765  1
  Re  Re6  1  0.000000  0.244477  0.244477  1
  Re  Re7  1  0.155456  0.750422  0.652048  1
  Re  Re8  1  0.844544  0.496591  0.594965  1
  Re  Re9  1  0.597342  0.752133  0.094314  1
  Re  Re10  1  0.402658  0.496972  0.154791  1
  Si  Si11  1  0.770060  0.526343  0.255979  1
  Si  Si12  1  0.229940  0.485919  0.756282  1
  Si  Si13  1  0.334736  0.823087  0.495654  1
  Si  Si14  1  0.665264  0.160918  0.488351  1
  Si  Si15  1  0.828718  0.825683  0.990350  1
  Si  Si16  1  0.171282  0.161632  0.996965  1
  Mo  Mo17  1  0.500000  0.243545  0.743545  1
