# generated using pymatgen
data_LaTb(CoB)8
_symmetry_space_group_name_H-M   'P 1'
_cell_length_a   7.05032900
_cell_length_b   7.05032900
_cell_length_c   3.80548300
_cell_angle_alpha   90.00000000
_cell_angle_beta   90.00000000
_cell_angle_gamma   90.00000000
_symmetry_Int_Tables_number   1
_chemical_formula_structural   LaTb(CoB)8
_chemical_formula_sum   'La1 Tb1 Co8 B8'
_cell_volume   189.15967247
_cell_formula_units_Z   1
loop_
 _symmetry_equiv_pos_site_id
 _symmetry_equiv_pos_as_xyz
  1  'x, y, z'
loop_
 _atom_site_type_symbol
 _atom_site_label
 _atom_site_symmetry_multiplicity
 _atom_site_fract_x
 _atom_site_fract_y
 _atom_site_fract_z
 _atom_site_occupancy
  La  La0  1  0.500000  0.500000  0.500000  1
  Tb  Tb1  1  0.000000  0.000000  0.000000  1
  Co  Co2  1  0.381536  0.138304  0.891618  1
  Co  Co3  1  0.618464  0.861696  0.891618  1
  Co  Co4  1  0.354293  0.885136  0.393664  1
  Co  Co5  1  0.645707  0.114864  0.393664  1
  Co  Co6  1  0.114864  0.354293  0.606336  1
  Co  Co7  1  0.885136  0.645707  0.606336  1
  Co  Co8  1  0.138304  0.618464  0.108382  1
  Co  Co9  1  0.861696  0.381536  0.108382  1
  B  B10  1  0.803033  0.664418  0.102267  1
  B  B11  1  0.196967  0.335582  0.102267  1
  B  B12  1  0.840590  0.291022  0.607206  1
  B  B13  1  0.159410  0.708978  0.607206  1
  B  B14  1  0.708978  0.840590  0.392794  1
  B  B15  1  0.291022  0.159410  0.392794  1
  B  B16  1  0.664418  0.196967  0.897733  1
  B  B17  1  0.335582  0.803033  0.897733  1
