# generated using pymatgen
data_Hf8Tc3PdRu4
_symmetry_space_group_name_H-M   'P 1'
_cell_length_a   6.53132018
_cell_length_b   6.53171804
_cell_length_c   6.50302816
_cell_angle_alpha   89.99449556
_cell_angle_beta   89.97547140
_cell_angle_gamma   89.98934119
_symmetry_Int_Tables_number   1
_chemical_formula_structural   Hf8Tc3PdRu4
_chemical_formula_sum   'Hf8 Tc3 Pd1 Ru4'
_cell_volume   277.42397362
_cell_formula_units_Z   1
loop_
 _symmetry_equiv_pos_site_id
 _symmetry_equiv_pos_as_xyz
  1  'x, y, z'
loop_
 _atom_site_type_symbol
 _atom_site_label
 _atom_site_symmetry_multiplicity
 _atom_site_fract_x
 _atom_site_fract_y
 _atom_site_fract_z
 _atom_site_occupancy
  Hf  Hf0  1  0.496620  0.996732  0.252689  1
  Hf  Hf1  1  0.496633  0.503247  0.252714  1
  Hf  Hf2  1  0.003117  0.996723  0.252764  1
  Hf  Hf3  1  0.003141  0.503288  0.252739  1
  Hf  Hf4  1  0.003351  0.996724  0.747276  1
  Hf  Hf5  1  0.003371  0.503227  0.747285  1
  Hf  Hf6  1  0.496860  0.996742  0.747252  1
  Hf  Hf7  1  0.496893  0.503315  0.747242  1
  Tc  Tc8  1  0.249994  0.750000  0.499920  1
  Tc  Tc9  1  0.750007  0.250000  0.500087  1
  Tc  Tc10  1  0.250018  0.749999  0.999920  1
  Pd  Pd11  1  0.749990  0.249999  0.000134  1
  Ru  Ru12  1  0.249987  0.249997  0.000003  1
  Ru  Ru13  1  0.750016  0.750006  0.999984  1
  Ru  Ru14  1  0.749990  0.750000  0.499981  1
  Ru  Ru15  1  0.250012  0.250000  0.500012  1
