# generated using pymatgen
data_Dy2Tm10Co4BiIr
_symmetry_space_group_name_H-M   'P 1'
_cell_length_a   8.22922248
_cell_length_b   8.22922297
_cell_length_c   8.22379494
_cell_angle_alpha   110.80815595
_cell_angle_beta   111.19154865
_cell_angle_gamma   106.48387888
_symmetry_Int_Tables_number   1
_chemical_formula_structural   Dy2Tm10Co4BiIr
_chemical_formula_sum   'Dy2 Tm10 Co4 Bi1 Ir1'
_cell_volume   427.68338346
_cell_formula_units_Z   1
loop_
 _symmetry_equiv_pos_site_id
 _symmetry_equiv_pos_as_xyz
  1  'x, y, z'
loop_
 _atom_site_type_symbol
 _atom_site_label
 _atom_site_symmetry_multiplicity
 _atom_site_fract_x
 _atom_site_fract_y
 _atom_site_fract_z
 _atom_site_occupancy
  Dy  Dy0  1  0.284223  0.183166  0.467388  1
  Dy  Dy1  1  0.715777  0.816834  0.532612  1
  Tm  Tm2  1  0.283622  0.816985  0.100606  1
  Tm  Tm3  1  0.716378  0.183015  0.899394  1
  Tm  Tm4  1  0.620684  0.311317  0.308488  1
  Tm  Tm5  1  0.379316  0.688683  0.691512  1
  Tm  Tm6  1  0.002830  0.312196  0.691512  1
  Tm  Tm7  1  0.997170  0.687804  0.308488  1
  Tm  Tm8  1  0.212953  0.411706  0.197511  1
  Tm  Tm9  1  0.787047  0.588294  0.802489  1
  Tm  Tm10  1  0.214196  0.015442  0.802489  1
  Tm  Tm11  1  0.785804  0.984558  0.197511  1
  Co  Co12  1  0.999576  0.375571  0.375147  1
  Co  Co13  1  0.000424  0.624429  0.624853  1
  Co  Co14  1  0.388255  0.888255  0.500000  1
  Co  Co15  1  0.611745  0.111745  0.500000  1
  Bi  Bi16  1  0.500000  0.500000  0.000000  1
  Ir  Ir17  1  0.000000  0.000000  0.000000  1
