# generated using pymatgen
data_Yb2Si3Tc8Ge
_symmetry_space_group_name_H-M   'P 1'
_cell_length_a   7.29698056
_cell_length_b   7.29698056
_cell_length_c   4.22810700
_cell_angle_alpha   90.00000000
_cell_angle_beta   90.00000000
_cell_angle_gamma   90.43077660
_symmetry_Int_Tables_number   1
_chemical_formula_structural   Yb2Si3Tc8Ge
_chemical_formula_sum   'Yb2 Si3 Tc8 Ge1'
_cell_volume   225.12310648
_cell_formula_units_Z   1
loop_
 _symmetry_equiv_pos_site_id
 _symmetry_equiv_pos_as_xyz
  1  'x, y, z'
loop_
 _atom_site_type_symbol
 _atom_site_label
 _atom_site_symmetry_multiplicity
 _atom_site_fract_x
 _atom_site_fract_y
 _atom_site_fract_z
 _atom_site_occupancy
  Yb  Yb0  1  0.998344  0.998344  0.500000  1
  Yb  Yb1  1  0.500087  0.500087  0.000000  1
  Si  Si2  1  0.293645  0.293645  0.500000  1
  Si  Si3  1  0.794948  0.206224  0.000000  1
  Si  Si4  1  0.206224  0.794948  0.000000  1
  Tc  Tc5  1  0.396124  0.848930  0.500000  1
  Tc  Tc6  1  0.848930  0.396124  0.500000  1
  Tc  Tc7  1  0.653108  0.904492  0.000000  1
  Tc  Tc8  1  0.100864  0.343871  0.000000  1
  Tc  Tc9  1  0.343871  0.100864  0.000000  1
  Tc  Tc10  1  0.599559  0.156661  0.500000  1
  Tc  Tc11  1  0.156661  0.599559  0.500000  1
  Tc  Tc12  1  0.904492  0.653108  0.000000  1
  Ge  Ge13  1  0.703143  0.703143  0.500000  1
