# generated using pymatgen
data_SmLu6Pa(ReB6)4
_symmetry_space_group_name_H-M   'P 1'
_cell_length_a   3.65398700
_cell_length_b   9.09733369
_cell_length_c   11.46774102
_cell_angle_alpha   90.12723099
_cell_angle_beta   90.00000000
_cell_angle_gamma   90.00000000
_symmetry_Int_Tables_number   1
_chemical_formula_structural   SmLu6Pa(ReB6)4
_chemical_formula_sum   'Sm1 Lu6 Pa1 Re4 B24'
_cell_volume   381.20442085
_cell_formula_units_Z   1
loop_
 _symmetry_equiv_pos_site_id
 _symmetry_equiv_pos_as_xyz
  1  'x, y, z'
loop_
 _atom_site_type_symbol
 _atom_site_label
 _atom_site_symmetry_multiplicity
 _atom_site_fract_x
 _atom_site_fract_y
 _atom_site_fract_z
 _atom_site_occupancy
  Sm  Sm0  1  0.000000  0.679906  0.586638  1
  Lu  Lu1  1  0.000000  0.823010  0.085158  1
  Lu  Lu2  1  0.000000  0.176093  0.913863  1
  Lu  Lu3  1  0.000000  0.943214  0.370789  1
  Lu  Lu4  1  0.000000  0.055378  0.629910  1
  Lu  Lu5  1  0.000000  0.443526  0.126754  1
  Lu  Lu6  1  0.000000  0.556963  0.871383  1
  Pa  Pa7  1  0.000000  0.322619  0.413658  1
  Re  Re8  1  0.000000  0.636676  0.319375  1
  Re  Re9  1  0.000000  0.360068  0.678259  1
  Re  Re10  1  0.000000  0.140638  0.181059  1
  Re  Re11  1  0.000000  0.862539  0.822520  1
  B  B12  1  0.500000  0.552603  0.430527  1
  B  B13  1  0.500000  0.444245  0.567583  1
  B  B14  1  0.500000  0.053699  0.066740  1
  B  B15  1  0.500000  0.947720  0.934980  1
  B  B16  1  0.500000  0.750869  0.416392  1
  B  B17  1  0.500000  0.248472  0.581680  1
  B  B18  1  0.500000  0.249644  0.079667  1
  B  B19  1  0.500000  0.750228  0.920804  1
  B  B20  1  0.500000  0.792987  0.263709  1
  B  B21  1  0.500000  0.206651  0.736210  1
  B  B22  1  0.500000  0.292158  0.233646  1
  B  B23  1  0.500000  0.708263  0.767516  1
  B  B24  1  0.500000  0.630952  0.182832  1
  B  B25  1  0.500000  0.368973  0.816203  1
  B  B26  1  0.500000  0.130781  0.314794  1
  B  B27  1  0.500000  0.870998  0.686896  1
  B  B28  1  0.500000  0.981535  0.211522  1
  B  B29  1  0.500000  0.019449  0.789314  1
  B  B30  1  0.500000  0.482058  0.285604  1
  B  B31  1  0.500000  0.517010  0.714783  1
  B  B32  1  0.500000  0.600737  0.027566  1
  B  B33  1  0.500000  0.398918  0.971531  1
  B  B34  1  0.500000  0.100904  0.472098  1
  B  B35  1  0.500000  0.899514  0.528035  1
