# generated using pymatgen
data_Nd3Ga2Ir7
_symmetry_space_group_name_H-M   'P 1'
_cell_length_a   5.54049884
_cell_length_b   5.54049860
_cell_length_c   8.89654652
_cell_angle_alpha   108.14270643
_cell_angle_beta   71.85729557
_cell_angle_gamma   120.00000295
_symmetry_Int_Tables_number   1
_chemical_formula_structural   Nd3Ga2Ir7
_chemical_formula_sum   'Nd3 Ga2 Ir7'
_cell_volume   220.69316599
_cell_formula_units_Z   1
loop_
 _symmetry_equiv_pos_site_id
 _symmetry_equiv_pos_as_xyz
  1  'x, y, z'
loop_
 _atom_site_type_symbol
 _atom_site_label
 _atom_site_symmetry_multiplicity
 _atom_site_fract_x
 _atom_site_fract_y
 _atom_site_fract_z
 _atom_site_occupancy
  Nd  Nd0  1  0.000000  0.000000  0.000000  1
  Nd  Nd1  1  0.858962  0.141037  0.423113  1
  Nd  Nd2  1  0.141038  0.858963  0.576887  1
  Ga  Ga3  1  0.664505  0.335494  0.006484  1
  Ga  Ga4  1  0.335495  0.664506  0.993516  1
  Ir  Ir5  1  0.415917  0.076451  0.244616  1
  Ir  Ir6  1  0.415917  0.584084  0.244616  1
  Ir  Ir7  1  0.923550  0.584084  0.244616  1
  Ir  Ir8  1  0.499999  0.500000  0.500000  1
  Ir  Ir9  1  0.076450  0.415916  0.755384  1
  Ir  Ir10  1  0.584084  0.415917  0.755384  1
  Ir  Ir11  1  0.584084  0.923550  0.755384  1
