# generated using pymatgen
data_Cs4Na2TbAlAs4
_symmetry_space_group_name_H-M   'P 1'
_cell_length_a   9.83170842
_cell_length_b   9.83170890
_cell_length_c   9.83178089
_cell_angle_alpha   139.20781969
_cell_angle_beta   137.45943937
_cell_angle_gamma   60.40316528
_symmetry_Int_Tables_number   1
_chemical_formula_structural   Cs4Na2TbAlAs4
_chemical_formula_sum   'Cs4 Na2 Tb1 Al1 As4'
_cell_volume   415.37157438
_cell_formula_units_Z   1
loop_
 _symmetry_equiv_pos_site_id
 _symmetry_equiv_pos_as_xyz
  1  'x, y, z'
loop_
 _atom_site_type_symbol
 _atom_site_label
 _atom_site_symmetry_multiplicity
 _atom_site_fract_x
 _atom_site_fract_y
 _atom_site_fract_z
 _atom_site_occupancy
  Cs  Cs0  1  0.096836  0.327388  0.775544  1
  Cs  Cs1  1  0.448163  0.172608  0.269449  1
  Cs  Cs2  1  0.903159  0.678714  0.230551  1
  Cs  Cs3  1  0.551844  0.821291  0.724456  1
  Na  Na4  1  0.499999  0.749999  0.250000  1
  Na  Na5  1  0.500000  0.250000  0.750000  1
  Tb  Tb6  1  0.999994  0.249994  0.250000  1
  Al  Al7  1  0.000000  0.750000  0.750000  1
  As  As8  1  0.122590  0.890364  0.188483  1
  As  As9  1  0.877430  0.065900  0.767794  1
  As  As10  1  0.298107  0.609635  0.732206  1
  As  As11  1  0.701881  0.434106  0.311517  1
