# generated using pymatgen
data_TbHoCo9P6Ru
_symmetry_space_group_name_H-M   'P 1'
_cell_length_a   3.67820400
_cell_length_b   10.34562400
_cell_length_c   11.76514100
_cell_angle_alpha   90.00000000
_cell_angle_beta   90.00000000
_cell_angle_gamma   90.00000000
_symmetry_Int_Tables_number   1
_chemical_formula_structural   TbHoCo9P6Ru
_chemical_formula_sum   'Tb2 Ho2 Co18 P12 Ru2'
_cell_volume   447.70262331
_cell_formula_units_Z   2
loop_
 _symmetry_equiv_pos_site_id
 _symmetry_equiv_pos_as_xyz
  1  'x, y, z'
loop_
 _atom_site_type_symbol
 _atom_site_label
 _atom_site_symmetry_multiplicity
 _atom_site_fract_x
 _atom_site_fract_y
 _atom_site_fract_z
 _atom_site_occupancy
  Tb  Tb0  1  0.250000  0.582394  0.702046  1
  Tb  Tb1  1  0.250000  0.917606  0.202046  1
  Ho  Ho2  1  0.750000  0.413818  0.295623  1
  Ho  Ho3  1  0.750000  0.086182  0.795623  1
  Co  Co4  1  0.750000  0.283821  0.008766  1
  Co  Co5  1  0.750000  0.216179  0.508766  1
  Co  Co6  1  0.250000  0.405930  0.487543  1
  Co  Co7  1  0.250000  0.094070  0.987543  1
  Co  Co8  1  0.750000  0.590935  0.509692  1
  Co  Co9  1  0.750000  0.909065  0.009692  1
  Co  Co10  1  0.250000  0.220975  0.176703  1
  Co  Co11  1  0.250000  0.279025  0.676703  1
  Co  Co12  1  0.750000  0.778563  0.823024  1
  Co  Co13  1  0.750000  0.721437  0.323024  1
  Co  Co14  1  0.250000  0.887110  0.701922  1
  Co  Co15  1  0.250000  0.612890  0.201922  1
  Co  Co16  1  0.750000  0.117103  0.301174  1
  Co  Co17  1  0.750000  0.382897  0.801174  1
  Co  Co18  1  0.250000  0.464091  0.932668  1
  Co  Co19  1  0.250000  0.035909  0.432668  1
  Co  Co20  1  0.750000  0.532372  0.069134  1
  Co  Co21  1  0.750000  0.967628  0.569134  1
  P  P22  1  0.250000  0.417043  0.112501  1
  P  P23  1  0.250000  0.082957  0.612501  1
  P  P24  1  0.750000  0.578356  0.887306  1
  P  P25  1  0.750000  0.921644  0.387306  1
  P  P26  1  0.250000  0.270199  0.868969  1
  P  P27  1  0.250000  0.229801  0.368969  1
  P  P28  1  0.750000  0.728013  0.132726  1
  P  P29  1  0.750000  0.771987  0.632726  1
  P  P30  1  0.250000  0.594700  0.390357  1
  P  P31  1  0.250000  0.905300  0.890357  1
  P  P32  1  0.750000  0.396537  0.608386  1
  P  P33  1  0.750000  0.103463  0.108386  1
  Ru  Ru34  1  0.250000  0.715121  0.991461  1
  Ru  Ru35  1  0.250000  0.784879  0.491461  1
