# generated using pymatgen
data_MgSc3(B4Ru5)2
_symmetry_space_group_name_H-M   'P 1'
_cell_length_a   3.00117100
_cell_length_b   8.48482990
_cell_length_c   10.08814929
_cell_angle_alpha   89.53676618
_cell_angle_beta   90.00000000
_cell_angle_gamma   90.00000000
_symmetry_Int_Tables_number   1
_chemical_formula_structural   MgSc3(B4Ru5)2
_chemical_formula_sum   'Mg1 Sc3 B8 Ru10'
_cell_volume   256.88052964
_cell_formula_units_Z   1
loop_
 _symmetry_equiv_pos_site_id
 _symmetry_equiv_pos_as_xyz
  1  'x, y, z'
loop_
 _atom_site_type_symbol
 _atom_site_label
 _atom_site_symmetry_multiplicity
 _atom_site_fract_x
 _atom_site_fract_y
 _atom_site_fract_z
 _atom_site_occupancy
  Mg  Mg0  1  0.500000  0.849906  0.188215  1
  Sc  Sc1  1  0.500000  0.153888  0.823866  1
  Sc  Sc2  1  0.500000  0.655948  0.678769  1
  Sc  Sc3  1  0.500000  0.348215  0.312712  1
  B  B4  1  0.500000  0.964357  0.591187  1
  B  B5  1  0.500000  0.037546  0.412306  1
  B  B6  1  0.500000  0.849423  0.900808  1
  B  B7  1  0.500000  0.143372  0.102756  1
  B  B8  1  0.500000  0.650848  0.394656  1
  B  B9  1  0.500000  0.351726  0.599314  1
  B  B10  1  0.500000  0.461715  0.909302  1
  B  B11  1  0.500000  0.537871  0.087588  1
  Ru  Ru12  1  0.000000  0.653926  0.949087  1
  Ru  Ru13  1  0.000000  0.339264  0.045884  1
  Ru  Ru14  1  0.000000  0.842295  0.456370  1
  Ru  Ru15  1  0.000000  0.158635  0.547966  1
  Ru  Ru16  1  0.000000  0.994669  0.003024  1
  Ru  Ru17  1  0.000000  0.400930  0.759500  1
  Ru  Ru18  1  0.000000  0.603707  0.235269  1
  Ru  Ru19  1  0.000000  0.500475  0.497698  1
  Ru  Ru20  1  0.000000  0.901873  0.740354  1
  Ru  Ru21  1  0.000000  0.099409  0.263371  1
