# generated using pymatgen
data_Nd8Cd2IrPt
_symmetry_space_group_name_H-M   'P 1'
_cell_length_a   9.99450459
_cell_length_b   9.99444880
_cell_length_c   9.97264729
_cell_angle_alpha   60.17688080
_cell_angle_beta   60.17703187
_cell_angle_gamma   60.32571859
_symmetry_Int_Tables_number   1
_chemical_formula_structural   Nd8Cd2IrPt
_chemical_formula_sum   'Nd16 Cd4 Ir2 Pt2'
_cell_volume   708.00351210
_cell_formula_units_Z   2
loop_
 _symmetry_equiv_pos_site_id
 _symmetry_equiv_pos_as_xyz
  1  'x, y, z'
loop_
 _atom_site_type_symbol
 _atom_site_label
 _atom_site_symmetry_multiplicity
 _atom_site_fract_x
 _atom_site_fract_y
 _atom_site_fract_z
 _atom_site_occupancy
  Nd  Nd0  1  0.349385  0.349380  0.345814  1
  Nd  Nd1  1  0.351497  0.351498  0.950920  1
  Nd  Nd2  1  0.354805  0.947246  0.349916  1
  Nd  Nd3  1  0.947248  0.354803  0.349914  1
  Nd  Nd4  1  0.806575  0.190408  0.190170  1
  Nd  Nd5  1  0.188978  0.805752  0.812891  1
  Nd  Nd6  1  0.190405  0.806574  0.190174  1
  Nd  Nd7  1  0.805751  0.188981  0.812889  1
  Nd  Nd8  1  0.191022  0.191027  0.809594  1
  Nd  Nd9  1  0.810305  0.810306  0.187591  1
  Nd  Nd10  1  0.939789  0.564103  0.561166  1
  Nd  Nd11  1  0.562117  0.938457  0.937733  1
  Nd  Nd12  1  0.564104  0.939786  0.561170  1
  Nd  Nd13  1  0.938452  0.562117  0.937734  1
  Nd  Nd14  1  0.562721  0.562723  0.939469  1
  Nd  Nd15  1  0.938596  0.938599  0.560307  1
  Cd  Cd16  1  0.580476  0.580476  0.580127  1
  Cd  Cd17  1  0.580567  0.580567  0.257817  1
  Cd  Cd18  1  0.580117  0.258431  0.580626  1
  Cd  Cd19  1  0.258435  0.580115  0.580625  1
  Ir  Ir20  1  0.141530  0.572782  0.143255  1
  Ir  Ir21  1  0.572783  0.141530  0.143253  1
  Pt  Pt22  1  0.142539  0.142536  0.144806  1
  Pt  Pt23  1  0.141803  0.141803  0.572038  1
