# generated using pymatgen
data_TbYbEr2(ReN3)4
_symmetry_space_group_name_H-M   'P 1'
_cell_length_a   7.34784506
_cell_length_b   7.34784442
_cell_length_c   6.25660277
_cell_angle_alpha   73.34505863
_cell_angle_beta   73.34505863
_cell_angle_gamma   82.71678583
_symmetry_Int_Tables_number   1
_chemical_formula_structural   TbYbEr2(ReN3)4
_chemical_formula_sum   'Tb1 Yb1 Er2 Re4 N12'
_cell_volume   309.68431551
_cell_formula_units_Z   1
loop_
 _symmetry_equiv_pos_site_id
 _symmetry_equiv_pos_as_xyz
  1  'x, y, z'
loop_
 _atom_site_type_symbol
 _atom_site_label
 _atom_site_symmetry_multiplicity
 _atom_site_fract_x
 _atom_site_fract_y
 _atom_site_fract_z
 _atom_site_occupancy
  Tb  Tb0  1  0.709076  0.290924  0.250000  1
  Yb  Yb1  1  0.292417  0.707583  0.750000  1
  Er  Er2  1  0.909188  0.090812  0.750000  1
  Er  Er3  1  0.091259  0.908741  0.250000  1
  Re  Re4  1  0.620999  0.797376  0.273143  1
  Re  Re5  1  0.202624  0.379001  0.226857  1
  Re  Re6  1  0.377312  0.205159  0.727132  1
  Re  Re7  1  0.794841  0.622688  0.772868  1
  N  N8  1  0.341444  0.357374  0.932206  1
  N  N9  1  0.005126  0.216161  0.342800  1
  N  N10  1  0.783839  0.994874  0.157200  1
  N  N11  1  0.215905  0.010561  0.845483  1
  N  N12  1  0.661277  0.636768  0.072770  1
  N  N13  1  0.873115  0.373279  0.835904  1
  N  N14  1  0.122609  0.623045  0.170736  1
  N  N15  1  0.989439  0.784095  0.654517  1
  N  N16  1  0.376955  0.877391  0.329264  1
  N  N17  1  0.642626  0.658556  0.567794  1
  N  N18  1  0.626721  0.126885  0.664096  1
  N  N19  1  0.363232  0.338723  0.427230  1
