# generated using pymatgen
data_Pr(EuB9)2
_symmetry_space_group_name_H-M   'P 1'
_cell_length_a   4.15585100
_cell_length_b   4.15585100
_cell_length_c   12.47115000
_cell_angle_alpha   90.00000000
_cell_angle_beta   90.00000000
_cell_angle_gamma   90.00000000
_symmetry_Int_Tables_number   1
_chemical_formula_structural   Pr(EuB9)2
_chemical_formula_sum   'Pr1 Eu2 B18'
_cell_volume   215.39044801
_cell_formula_units_Z   1
loop_
 _symmetry_equiv_pos_site_id
 _symmetry_equiv_pos_as_xyz
  1  'x, y, z'
loop_
 _atom_site_type_symbol
 _atom_site_label
 _atom_site_symmetry_multiplicity
 _atom_site_fract_x
 _atom_site_fract_y
 _atom_site_fract_z
 _atom_site_occupancy
  Pr  Pr0  1  0.000000  0.000000  0.000000  1
  Eu  Eu1  1  0.000000  0.000000  0.335520  1
  Eu  Eu2  1  0.000000  0.000000  0.664480  1
  B  B3  1  0.200617  0.500000  0.167087  1
  B  B4  1  0.201032  0.500000  0.500000  1
  B  B5  1  0.200617  0.500000  0.832913  1
  B  B6  1  0.500000  0.500000  0.266738  1
  B  B7  1  0.500000  0.500000  0.599474  1
  B  B8  1  0.500000  0.500000  0.933075  1
  B  B9  1  0.500000  0.200617  0.167087  1
  B  B10  1  0.500000  0.201032  0.500000  1
  B  B11  1  0.500000  0.200617  0.832913  1
  B  B12  1  0.500000  0.500000  0.066925  1
  B  B13  1  0.500000  0.500000  0.400526  1
  B  B14  1  0.500000  0.500000  0.733262  1
  B  B15  1  0.500000  0.799383  0.167087  1
  B  B16  1  0.500000  0.798968  0.500000  1
  B  B17  1  0.500000  0.799383  0.832913  1
  B  B18  1  0.799383  0.500000  0.167087  1
  B  B19  1  0.798968  0.500000  0.500000  1
  B  B20  1  0.799383  0.500000  0.832913  1
