# generated using pymatgen
data_Ac16MgHg3Ru4
_symmetry_space_group_name_H-M   'P 1'
_cell_length_a   10.48113524
_cell_length_b   10.48113575
_cell_length_c   10.48113430
_cell_angle_alpha   60.29578682
_cell_angle_beta   60.29578255
_cell_angle_gamma   60.29579028
_symmetry_Int_Tables_number   1
_chemical_formula_structural   Ac16MgHg3Ru4
_chemical_formula_sum   'Ac16 Mg1 Hg3 Ru4'
_cell_volume   819.61003432
_cell_formula_units_Z   1
loop_
 _symmetry_equiv_pos_site_id
 _symmetry_equiv_pos_as_xyz
  1  'x, y, z'
loop_
 _atom_site_type_symbol
 _atom_site_label
 _atom_site_symmetry_multiplicity
 _atom_site_fract_x
 _atom_site_fract_y
 _atom_site_fract_z
 _atom_site_occupancy
  Ac  Ac0  1  0.559116  0.559116  0.939775  1
  Ac  Ac1  1  0.186538  0.814254  0.186538  1
  Ac  Ac2  1  0.808464  0.808464  0.188283  1
  Ac  Ac3  1  0.186538  0.186538  0.814254  1
  Ac  Ac4  1  0.405563  0.783774  0.405563  1
  Ac  Ac5  1  0.808464  0.188283  0.808464  1
  Ac  Ac6  1  0.936604  0.936604  0.560497  1
  Ac  Ac7  1  0.814254  0.186538  0.186538  1
  Ac  Ac8  1  0.936604  0.560497  0.936604  1
  Ac  Ac9  1  0.783774  0.405563  0.405563  1
  Ac  Ac10  1  0.560497  0.936604  0.936604  1
  Ac  Ac11  1  0.188283  0.808464  0.808464  1
  Ac  Ac12  1  0.559116  0.939775  0.559116  1
  Ac  Ac13  1  0.403962  0.403962  0.403962  1
  Ac  Ac14  1  0.939775  0.559116  0.559116  1
  Ac  Ac15  1  0.405563  0.405563  0.783774  1
  Mg  Mg16  1  0.184189  0.184189  0.184189  1
  Hg  Hg17  1  0.164005  0.501515  0.164005  1
  Hg  Hg18  1  0.164005  0.164005  0.501515  1
  Hg  Hg19  1  0.501515  0.164005  0.164005  1
  Ru  Ru20  1  0.162648  0.614228  0.614228  1
  Ru  Ru21  1  0.614228  0.614228  0.162648  1
  Ru  Ru22  1  0.612064  0.612064  0.612064  1
  Ru  Ru23  1  0.614228  0.162648  0.614228  1
