# generated using pymatgen
data_Sc6Si2Tc
_symmetry_space_group_name_H-M   'P 1'
_cell_length_a   7.22406900
_cell_length_b   7.22406851
_cell_length_c   4.06097800
_cell_angle_alpha   90.00000000
_cell_angle_beta   90.00000000
_cell_angle_gamma   119.99999765
_symmetry_Int_Tables_number   1
_chemical_formula_structural   Sc6Si2Tc
_chemical_formula_sum   'Sc6 Si2 Tc1'
_cell_volume   183.53758816
_cell_formula_units_Z   1
loop_
 _symmetry_equiv_pos_site_id
 _symmetry_equiv_pos_as_xyz
  1  'x, y, z'
loop_
 _atom_site_type_symbol
 _atom_site_label
 _atom_site_symmetry_multiplicity
 _atom_site_fract_x
 _atom_site_fract_y
 _atom_site_fract_z
 _atom_site_occupancy
  Sc  Sc0  1  0.585793  0.000000  0.000000  1
  Sc  Sc1  1  0.414207  0.414207  0.000000  1
  Sc  Sc2  1  0.000000  0.585793  0.000000  1
  Sc  Sc3  1  0.250090  0.000000  0.499999  1
  Sc  Sc4  1  0.000000  0.250090  0.499999  1
  Sc  Sc5  1  0.749910  0.749911  0.499999  1
  Si  Si6  1  0.666666  0.333333  0.499999  1
  Si  Si7  1  0.333333  0.666667  0.499999  1
  Tc  Tc8  1  0.000000  0.000000  0.000000  1
