# generated using pymatgen
data_Tb4Sm(TcB3)2
_symmetry_space_group_name_H-M   'P 1'
_cell_length_a   8.68889342
_cell_length_b   8.68889239
_cell_length_c   8.68889400
_cell_angle_alpha   37.15132634
_cell_angle_beta   37.15133535
_cell_angle_gamma   37.15133044
_symmetry_Int_Tables_number   1
_chemical_formula_structural   Tb4Sm(TcB3)2
_chemical_formula_sum   'Tb4 Sm1 Tc2 B6'
_cell_volume   214.43180990
_cell_formula_units_Z   1
loop_
 _symmetry_equiv_pos_site_id
 _symmetry_equiv_pos_as_xyz
  1  'x, y, z'
loop_
 _atom_site_type_symbol
 _atom_site_label
 _atom_site_symmetry_multiplicity
 _atom_site_fract_x
 _atom_site_fract_y
 _atom_site_fract_z
 _atom_site_occupancy
  Tb  Tb0  1  0.580031  0.580031  0.580031  1
  Tb  Tb1  1  0.419969  0.419969  0.419969  1
  Tb  Tb2  1  0.753425  0.753425  0.753425  1
  Tb  Tb3  1  0.246575  0.246575  0.246575  1
  Sm  Sm4  1  0.000000  0.000000  0.000000  1
  Tc  Tc5  1  0.888072  0.888072  0.888072  1
  Tc  Tc6  1  0.111928  0.111928  0.111928  1
  B  B7  1  0.500000  0.829566  0.170434  1
  B  B8  1  0.170434  0.500000  0.829566  1
  B  B9  1  0.829566  0.170434  0.500000  1
  B  B10  1  0.500000  0.170434  0.829566  1
  B  B11  1  0.829566  0.500000  0.170434  1
  B  B12  1  0.170434  0.829566  0.500000  1
