# generated using pymatgen
data_Dy4Re6TcMo
_symmetry_space_group_name_H-M   'P 1'
_cell_length_a   5.42214100
_cell_length_b   5.42214125
_cell_length_c   8.92361300
_cell_angle_alpha   90.00000000
_cell_angle_beta   90.00000000
_cell_angle_gamma   119.99998019
_symmetry_Int_Tables_number   1
_chemical_formula_structural   Dy4Re6TcMo
_chemical_formula_sum   'Dy4 Re6 Tc1 Mo1'
_cell_volume   227.20248633
_cell_formula_units_Z   1
loop_
 _symmetry_equiv_pos_site_id
 _symmetry_equiv_pos_as_xyz
  1  'x, y, z'
loop_
 _atom_site_type_symbol
 _atom_site_label
 _atom_site_symmetry_multiplicity
 _atom_site_fract_x
 _atom_site_fract_y
 _atom_site_fract_z
 _atom_site_occupancy
  Dy  Dy0  1  0.333333  0.666667  0.435946  1
  Dy  Dy1  1  0.666667  0.333333  0.564054  1
  Dy  Dy2  1  0.666667  0.333333  0.938006  1
  Dy  Dy3  1  0.333333  0.666667  0.061994  1
  Re  Re4  1  0.828992  0.171008  0.249973  1
  Re  Re5  1  0.828992  0.657983  0.249973  1
  Re  Re6  1  0.342017  0.171008  0.249973  1
  Re  Re7  1  0.171008  0.828992  0.750027  1
  Re  Re8  1  0.171008  0.342017  0.750027  1
  Re  Re9  1  0.657983  0.828992  0.750027  1
  Tc  Tc10  1  0.000000  0.000000  0.000000  1
  Mo  Mo11  1  0.000000  0.000000  0.500000  1
