# generated using pymatgen
data_TbLu3Co18(P6Ru)2
_symmetry_space_group_name_H-M   'P 1'
_cell_length_a   3.65896200
_cell_length_b   10.30675094
_cell_length_c   11.72823606
_cell_angle_alpha   89.95111172
_cell_angle_beta   90.00000000
_cell_angle_gamma   90.00000000
_symmetry_Int_Tables_number   1
_chemical_formula_structural   TbLu3Co18(P6Ru)2
_chemical_formula_sum   'Tb1 Lu3 Co18 P12 Ru2'
_cell_volume   442.29519515
_cell_formula_units_Z   1
loop_
 _symmetry_equiv_pos_site_id
 _symmetry_equiv_pos_as_xyz
  1  'x, y, z'
loop_
 _atom_site_type_symbol
 _atom_site_label
 _atom_site_symmetry_multiplicity
 _atom_site_fract_x
 _atom_site_fract_y
 _atom_site_fract_z
 _atom_site_occupancy
  Tb  Tb0  1  0.250000  0.917660  0.202638  1
  Lu  Lu1  1  0.250000  0.581729  0.701974  1
  Lu  Lu2  1  0.750000  0.414086  0.295349  1
  Lu  Lu3  1  0.750000  0.086268  0.795538  1
  Co  Co4  1  0.750000  0.283402  0.006994  1
  Co  Co5  1  0.750000  0.217464  0.508563  1
  Co  Co6  1  0.250000  0.406279  0.486482  1
  Co  Co7  1  0.250000  0.094867  0.985892  1
  Co  Co8  1  0.750000  0.589991  0.511896  1
  Co  Co9  1  0.750000  0.910377  0.008775  1
  Co  Co10  1  0.250000  0.221504  0.176773  1
  Co  Co11  1  0.250000  0.279306  0.676889  1
  Co  Co12  1  0.750000  0.777325  0.822214  1
  Co  Co13  1  0.750000  0.720278  0.323278  1
  Co  Co14  1  0.250000  0.887181  0.702929  1
  Co  Co15  1  0.250000  0.611394  0.202160  1
  Co  Co16  1  0.750000  0.117881  0.301478  1
  Co  Co17  1  0.750000  0.384267  0.799724  1
  Co  Co18  1  0.250000  0.464232  0.931452  1
  Co  Co19  1  0.250000  0.036708  0.433870  1
  Co  Co20  1  0.750000  0.531574  0.069053  1
  Co  Co21  1  0.750000  0.967209  0.571088  1
  P  P22  1  0.250000  0.416866  0.112685  1
  P  P23  1  0.250000  0.082969  0.614200  1
  P  P24  1  0.750000  0.578433  0.885698  1
  P  P25  1  0.750000  0.921425  0.388523  1
  P  P26  1  0.250000  0.269128  0.868341  1
  P  P27  1  0.250000  0.231413  0.368862  1
  P  P28  1  0.750000  0.728000  0.132135  1
  P  P29  1  0.750000  0.769001  0.633124  1
  P  P30  1  0.250000  0.593495  0.389731  1
  P  P31  1  0.250000  0.906764  0.889868  1
  P  P32  1  0.750000  0.398421  0.609043  1
  P  P33  1  0.750000  0.103849  0.108370  1
  Ru  Ru34  1  0.250000  0.715721  0.991794  1
  Ru  Ru35  1  0.250000  0.783532  0.492617  1
