# generated using pymatgen
data_Hf6Ga6Ir3Pd2Pt
_symmetry_space_group_name_H-M   'P 1'
_cell_length_a   7.28944600
_cell_length_b   7.28944464
_cell_length_c   6.77823000
_cell_angle_alpha   90.00000000
_cell_angle_beta   90.00000000
_cell_angle_gamma   119.99998802
_symmetry_Int_Tables_number   1
_chemical_formula_structural   Hf6Ga6Ir3Pd2Pt
_chemical_formula_sum   'Hf6 Ga6 Ir3 Pd2 Pt1'
_cell_volume   311.91477739
_cell_formula_units_Z   1
loop_
 _symmetry_equiv_pos_site_id
 _symmetry_equiv_pos_as_xyz
  1  'x, y, z'
loop_
 _atom_site_type_symbol
 _atom_site_label
 _atom_site_symmetry_multiplicity
 _atom_site_fract_x
 _atom_site_fract_y
 _atom_site_fract_z
 _atom_site_occupancy
  Hf  Hf0  1  0.607077  0.591929  0.247088  1
  Hf  Hf1  1  0.006416  0.403349  0.752957  1
  Hf  Hf2  1  0.408071  0.015148  0.247088  1
  Hf  Hf3  1  0.984852  0.392923  0.247088  1
  Hf  Hf4  1  0.396933  0.993584  0.752957  1
  Hf  Hf5  1  0.596651  0.603067  0.752957  1
  Ga  Ga6  1  0.270508  0.269209  0.500482  1
  Ga  Ga7  1  0.730791  0.001299  0.500482  1
  Ga  Ga8  1  0.998701  0.729492  0.500482  1
  Ga  Ga9  1  0.728867  0.997927  0.000128  1
  Ga  Ga10  1  0.269061  0.271133  0.000128  1
  Ga  Ga11  1  0.002073  0.730939  0.000128  1
  Ir  Ir12  1  0.333333  0.666667  0.012235  1
  Ir  Ir13  1  0.666667  0.333333  0.513876  1
  Ir  Ir14  1  0.666667  0.333333  0.986317  1
  Pd  Pd15  1  0.000000  0.000000  0.750080  1
  Pd  Pd16  1  0.000000  0.000000  0.250575  1
  Pt  Pt17  1  0.333333  0.666667  0.484951  1
