# generated using pymatgen
data_PrScP7(IrRu5)2
_symmetry_space_group_name_H-M   'P 1'
_cell_length_a   9.41530427
_cell_length_b   9.47546843
_cell_length_c   3.94995400
_cell_angle_alpha   90.00000000
_cell_angle_beta   90.00000000
_cell_angle_gamma   120.06971119
_symmetry_Int_Tables_number   1
_chemical_formula_structural   PrScP7(IrRu5)2
_chemical_formula_sum   'Pr1 Sc1 P7 Ir2 Ru10'
_cell_volume   304.96655681
_cell_formula_units_Z   1
loop_
 _symmetry_equiv_pos_site_id
 _symmetry_equiv_pos_as_xyz
  1  'x, y, z'
loop_
 _atom_site_type_symbol
 _atom_site_label
 _atom_site_symmetry_multiplicity
 _atom_site_fract_x
 _atom_site_fract_y
 _atom_site_fract_z
 _atom_site_occupancy
  Pr  Pr0  1  0.330867  0.665495  0.000000  1
  Sc  Sc1  1  0.668113  0.334008  0.500000  1
  P  P2  1  0.604958  0.718352  0.500000  1
  P  P3  1  0.000284  0.000798  0.000000  1
  P  P4  1  0.276745  0.882344  0.500000  1
  P  P5  1  0.110745  0.396682  0.500000  1
  P  P6  1  0.883996  0.570036  0.000000  1
  P  P7  1  0.431675  0.310186  0.000000  1
  P  P8  1  0.690554  0.119647  0.000000  1
  Ir  Ir9  1  0.556797  0.953211  0.500000  1
  Ir  Ir10  1  0.395727  0.441251  0.500000  1
  Ru  Ru11  1  0.915181  0.122720  0.500000  1
  Ru  Ru12  1  0.209678  0.086449  0.500000  1
  Ru  Ru13  1  0.877555  0.794034  0.500000  1
  Ru  Ru14  1  0.726316  0.893130  0.000000  1
  Ru  Ru15  1  0.107771  0.836187  0.000000  1
  Ru  Ru16  1  0.167383  0.272437  0.000000  1
  Ru  Ru17  1  0.428902  0.071921  0.000000  1
  Ru  Ru18  1  0.929773  0.354956  0.000000  1
  Ru  Ru19  1  0.644963  0.572352  0.000000  1
  Ru  Ru20  1  0.042019  0.603802  0.500000  1
