# generated using pymatgen
data_RbBaAlH6
_symmetry_space_group_name_H-M   'P 1'
_cell_length_a   5.72236658
_cell_length_b   5.72236637
_cell_length_c   5.72236600
_cell_angle_alpha   60.00000213
_cell_angle_beta   60.00000338
_cell_angle_gamma   60.00001102
_symmetry_Int_Tables_number   1
_chemical_formula_structural   RbBaAlH6
_chemical_formula_sum   'Rb1 Ba1 Al1 H6'
_cell_volume   132.49882400
_cell_formula_units_Z   1
loop_
 _symmetry_equiv_pos_site_id
 _symmetry_equiv_pos_as_xyz
  1  'x, y, z'
loop_
 _atom_site_type_symbol
 _atom_site_label
 _atom_site_symmetry_multiplicity
 _atom_site_fract_x
 _atom_site_fract_y
 _atom_site_fract_z
 _atom_site_occupancy
  Rb  Rb0  1  0.250000  0.250000  0.250000  1
  Ba  Ba1  1  0.750000  0.750000  0.750000  1
  Al  Al2  1  0.000000  0.000000  0.000000  1
  H  H3  1  0.781554  0.218446  0.218446  1
  H  H4  1  0.218446  0.781554  0.218446  1
  H  H5  1  0.781554  0.781554  0.218446  1
  H  H6  1  0.218446  0.781554  0.781554  1
  H  H7  1  0.781554  0.218446  0.781554  1
  H  H8  1  0.218446  0.218446  0.781554  1
