# generated using pymatgen
data_Y3Tm4Sn23Ru6
_symmetry_space_group_name_H-M   'P 1'
_cell_length_a   9.84484028
_cell_length_b   9.88014476
_cell_length_c   10.03646960
_cell_angle_alpha   89.99999799
_cell_angle_beta   89.94438138
_cell_angle_gamma   120.11870262
_symmetry_Int_Tables_number   1
_chemical_formula_structural   Y3Tm4Sn23Ru6
_chemical_formula_sum   'Y3 Tm4 Sn23 Ru6'
_cell_volume   844.42794872
_cell_formula_units_Z   1
loop_
 _symmetry_equiv_pos_site_id
 _symmetry_equiv_pos_as_xyz
  1  'x, y, z'
loop_
 _atom_site_type_symbol
 _atom_site_label
 _atom_site_symmetry_multiplicity
 _atom_site_fract_x
 _atom_site_fract_y
 _atom_site_fract_z
 _atom_site_occupancy
  Y  Y0  1  0.999602  0.999801  0.000421  1
  Y  Y1  1  0.515572  0.031339  0.694665  1
  Y  Y2  1  0.515572  0.484232  0.694665  1
  Tm  Tm3  1  0.028907  0.514454  0.304713  1
  Tm  Tm4  1  0.485937  0.972204  0.303812  1
  Tm  Tm5  1  0.485937  0.513733  0.303812  1
  Tm  Tm6  1  0.970751  0.485376  0.695095  1
  Sn  Sn7  1  0.999780  0.999890  0.499679  1
  Sn  Sn8  1  0.118165  0.880947  0.275934  1
  Sn  Sn9  1  0.761853  0.880927  0.273633  1
  Sn  Sn10  1  0.118165  0.237219  0.275934  1
  Sn  Sn11  1  0.882462  0.118900  0.724195  1
  Sn  Sn12  1  0.235795  0.117897  0.727052  1
  Sn  Sn13  1  0.882462  0.763561  0.724195  1
  Sn  Sn14  1  0.348723  0.000084  0.000038  1
  Sn  Sn15  1  0.650856  0.651334  0.000245  1
  Sn  Sn16  1  0.999833  0.348576  0.000384  1
  Sn  Sn17  1  0.348723  0.348639  0.000038  1
  Sn  Sn18  1  0.999833  0.651257  0.000384  1
  Sn  Sn19  1  0.650856  0.999523  0.000245  1
  Sn  Sn20  1  0.779987  0.556837  0.463709  1
  Sn  Sn21  1  0.779987  0.223150  0.463709  1
  Sn  Sn22  1  0.442599  0.221300  0.463240  1
  Sn  Sn23  1  0.219808  0.442929  0.535281  1
  Sn  Sn24  1  0.219808  0.776878  0.535281  1
  Sn  Sn25  1  0.556960  0.778479  0.534900  1
  Sn  Sn26  1  0.666874  0.333436  0.178943  1
  Sn  Sn27  1  0.332992  0.666496  0.821402  1
  Sn  Sn28  1  0.669298  0.334649  0.871996  1
  Sn  Sn29  1  0.333523  0.666762  0.131038  1
  Ru  Ru30  1  0.169829  0.828890  0.796994  1
  Ru  Ru31  1  0.660665  0.830333  0.797399  1
  Ru  Ru32  1  0.169829  0.340940  0.796994  1
  Ru  Ru33  1  0.828896  0.170030  0.203518  1
  Ru  Ru34  1  0.340265  0.170132  0.202937  1
  Ru  Ru35  1  0.828896  0.658865  0.203518  1
