# generated using pymatgen
data_Ac8Si5As
_symmetry_space_group_name_H-M   'P 1'
_cell_length_a   8.37678829
_cell_length_b   8.37678901
_cell_length_c   8.37678711
_cell_angle_alpha   109.40573469
_cell_angle_beta   109.60229175
_cell_angle_gamma   109.40572657
_symmetry_Int_Tables_number   1
_chemical_formula_structural   Ac8Si5As
_chemical_formula_sum   'Ac8 Si5 As1'
_cell_volume   452.48994932
_cell_formula_units_Z   1
loop_
 _symmetry_equiv_pos_site_id
 _symmetry_equiv_pos_as_xyz
  1  'x, y, z'
loop_
 _atom_site_type_symbol
 _atom_site_label
 _atom_site_symmetry_multiplicity
 _atom_site_fract_x
 _atom_site_fract_y
 _atom_site_fract_z
 _atom_site_occupancy
  Ac  Ac0  1  0.371145  0.500593  0.001629  1
  Ac  Ac1  1  0.868303  0.500223  0.001756  1
  Ac  Ac2  1  0.131920  0.133452  0.131697  1
  Ac  Ac3  1  0.501037  0.999407  0.370553  1
  Ac  Ac4  1  0.998244  0.366548  0.498468  1
  Ac  Ac5  1  0.998371  0.869516  0.498962  1
  Ac  Ac6  1  0.629448  0.630485  0.628856  1
  Ac  Ac7  1  0.501531  0.999776  0.868080  1
  Si  Si8  1  0.750702  0.875407  0.124376  1
  Si  Si9  1  0.624707  0.373674  0.249298  1
  Si  Si10  1  0.248968  0.624592  0.375293  1
  Si  Si11  1  0.375000  0.250000  0.625000  1
  Si  Si12  1  0.875623  0.126326  0.751032  1
  As  As13  1  0.125000  0.750000  0.874999  1
