# generated using pymatgen
data_Tb10Cd3Ru
_symmetry_space_group_name_H-M   'P 1'
_cell_length_a   9.65079900
_cell_length_b   9.65079916
_cell_length_c   9.89796200
_cell_angle_alpha   90.00000000
_cell_angle_beta   90.00000000
_cell_angle_gamma   120.00000287
_symmetry_Int_Tables_number   1
_chemical_formula_structural   Tb10Cd3Ru
_chemical_formula_sum   'Tb20 Cd6 Ru2'
_cell_volume   798.36768444
_cell_formula_units_Z   2
loop_
 _symmetry_equiv_pos_site_id
 _symmetry_equiv_pos_as_xyz
  1  'x, y, z'
loop_
 _atom_site_type_symbol
 _atom_site_label
 _atom_site_symmetry_multiplicity
 _atom_site_fract_x
 _atom_site_fract_y
 _atom_site_fract_z
 _atom_site_occupancy
  Tb  Tb0  1  0.000000  0.000000  0.500000  1
  Tb  Tb1  1  0.000000  0.000000  0.000000  1
  Tb  Tb2  1  0.209849  0.790151  0.439868  1
  Tb  Tb3  1  0.209849  0.419700  0.439868  1
  Tb  Tb4  1  0.580300  0.790151  0.439868  1
  Tb  Tb5  1  0.790151  0.209849  0.560132  1
  Tb  Tb6  1  0.790151  0.580300  0.560132  1
  Tb  Tb7  1  0.419700  0.209849  0.560132  1
  Tb  Tb8  1  0.790151  0.209849  0.939868  1
  Tb  Tb9  1  0.790151  0.580300  0.939868  1
  Tb  Tb10  1  0.419700  0.209849  0.939868  1
  Tb  Tb11  1  0.209849  0.790151  0.060132  1
  Tb  Tb12  1  0.209849  0.419700  0.060132  1
  Tb  Tb13  1  0.580300  0.790151  0.060132  1
  Tb  Tb14  1  0.541322  0.458678  0.250000  1
  Tb  Tb15  1  0.541322  0.082644  0.250000  1
  Tb  Tb16  1  0.917356  0.458678  0.250000  1
  Tb  Tb17  1  0.458678  0.541322  0.750000  1
  Tb  Tb18  1  0.458678  0.917356  0.750000  1
  Tb  Tb19  1  0.082644  0.541322  0.750000  1
  Cd  Cd20  1  0.885412  0.114588  0.250000  1
  Cd  Cd21  1  0.885412  0.770826  0.250000  1
  Cd  Cd22  1  0.229174  0.114588  0.250000  1
  Cd  Cd23  1  0.114588  0.885412  0.750000  1
  Cd  Cd24  1  0.114588  0.229174  0.750000  1
  Cd  Cd25  1  0.770826  0.885412  0.750000  1
  Ru  Ru26  1  0.333333  0.666667  0.250000  1
  Ru  Ru27  1  0.666667  0.333333  0.750000  1
