# generated using pymatgen
data_Be3Fe4Re4Si
_symmetry_space_group_name_H-M   'P 1'
_cell_length_a   4.58947154
_cell_length_b   4.56368224
_cell_length_c   7.39422743
_cell_angle_alpha   90.00000293
_cell_angle_beta   90.01314206
_cell_angle_gamma   119.81429944
_symmetry_Int_Tables_number   1
_chemical_formula_structural   Be3Fe4Re4Si
_chemical_formula_sum   'Be3 Fe4 Re4 Si1'
_cell_volume   134.37272733
_cell_formula_units_Z   1
loop_
 _symmetry_equiv_pos_site_id
 _symmetry_equiv_pos_as_xyz
  1  'x, y, z'
loop_
 _atom_site_type_symbol
 _atom_site_label
 _atom_site_symmetry_multiplicity
 _atom_site_fract_x
 _atom_site_fract_y
 _atom_site_fract_z
 _atom_site_occupancy
  Be  Be0  1  0.000000  0.002721  0.500000  1
  Be  Be1  1  0.829056  0.166992  0.260652  1
  Be  Be2  1  0.170944  0.337936  0.739348  1
  Fe  Fe3  1  0.828748  0.662257  0.252908  1
  Fe  Fe4  1  0.171252  0.833509  0.747092  1
  Fe  Fe5  1  0.663042  0.830608  0.745383  1
  Fe  Fe6  1  0.336958  0.167566  0.254617  1
  Re  Re7  1  0.328352  0.660025  0.066523  1
  Re  Re8  1  0.673291  0.336933  0.563584  1
  Re  Re9  1  0.671648  0.331672  0.933477  1
  Re  Re10  1  0.326709  0.663643  0.436416  1
  Si  Si11  1  0.000000  0.006137  0.000000  1
