# generated using pymatgen
data_La2PdPbAu
_symmetry_space_group_name_H-M   'P 1'
_cell_length_a   8.32515800
_cell_length_b   8.32713400
_cell_length_c   3.86650100
_cell_angle_alpha   90.00000000
_cell_angle_beta   90.00000000
_cell_angle_gamma   90.00000000
_symmetry_Int_Tables_number   1
_chemical_formula_structural   La2PdPbAu
_chemical_formula_sum   'La4 Pd2 Pb2 Au2'
_cell_volume   268.04404599
_cell_formula_units_Z   2
loop_
 _symmetry_equiv_pos_site_id
 _symmetry_equiv_pos_as_xyz
  1  'x, y, z'
loop_
 _atom_site_type_symbol
 _atom_site_label
 _atom_site_symmetry_multiplicity
 _atom_site_fract_x
 _atom_site_fract_y
 _atom_site_fract_z
 _atom_site_occupancy
  La  La0  1  0.681467  0.178094  0.500000  1
  La  La1  1  0.168754  0.323407  0.500000  1
  La  La2  1  0.818533  0.678094  0.500000  1
  La  La3  1  0.331246  0.823407  0.500000  1
  Pd  Pd4  1  0.625919  0.874461  0.000000  1
  Pd  Pd5  1  0.874081  0.374461  0.000000  1
  Pb  Pb6  1  0.993176  0.002704  0.000000  1
  Pb  Pb7  1  0.506824  0.502704  0.000000  1
  Au  Au8  1  0.381667  0.121335  0.000000  1
  Au  Au9  1  0.118333  0.621335  0.000000  1
