# generated using pymatgen
data_Hf18TaRe4As2W3
_symmetry_space_group_name_H-M   'P 1'
_cell_length_a   8.68152572
_cell_length_b   8.67442214
_cell_length_c   8.69204600
_cell_angle_alpha   90.00000000
_cell_angle_beta   90.00000000
_cell_angle_gamma   119.85365713
_symmetry_Int_Tables_number   1
_chemical_formula_structural   Hf18TaRe4As2W3
_chemical_formula_sum   'Hf18 Ta1 Re4 As2 W3'
_cell_volume   567.71164382
_cell_formula_units_Z   1
loop_
 _symmetry_equiv_pos_site_id
 _symmetry_equiv_pos_as_xyz
  1  'x, y, z'
loop_
 _atom_site_type_symbol
 _atom_site_label
 _atom_site_symmetry_multiplicity
 _atom_site_fract_x
 _atom_site_fract_y
 _atom_site_fract_z
 _atom_site_occupancy
  Hf  Hf0  1  0.805914  0.611335  0.544416  1
  Hf  Hf1  1  0.806102  0.194364  0.543030  1
  Hf  Hf2  1  0.388249  0.194083  0.543917  1
  Hf  Hf3  1  0.192533  0.385578  0.449757  1
  Hf  Hf4  1  0.193471  0.806639  0.450190  1
  Hf  Hf5  1  0.612270  0.806463  0.448409  1
  Hf  Hf6  1  0.192533  0.385578  0.050243  1
  Hf  Hf7  1  0.193471  0.806639  0.049810  1
  Hf  Hf8  1  0.612270  0.806463  0.051591  1
  Hf  Hf9  1  0.805914  0.611335  0.955584  1
  Hf  Hf10  1  0.806102  0.194364  0.956970  1
  Hf  Hf11  1  0.388249  0.194083  0.956083  1
  Hf  Hf12  1  0.460100  0.924673  0.750000  1
  Hf  Hf13  1  0.459024  0.536142  0.750000  1
  Hf  Hf14  1  0.077794  0.538684  0.750000  1
  Hf  Hf15  1  0.541847  0.084029  0.250000  1
  Hf  Hf16  1  0.541461  0.457956  0.250000  1
  Hf  Hf17  1  0.916629  0.458054  0.250000  1
  Ta  Ta18  1  0.780806  0.890576  0.750000  1
  Re  Re19  1  0.890552  0.110001  0.250000  1
  Re  Re20  1  0.219500  0.109585  0.250000  1
  Re  Re21  1  0.001200  0.000882  0.500432  1
  Re  Re22  1  0.001200  0.000882  0.999568  1
  As  As23  1  0.665688  0.331879  0.750000  1
  As  As24  1  0.331978  0.664787  0.250000  1
  W  W25  1  0.111096  0.219852  0.750000  1
  W  W26  1  0.111822  0.891075  0.750000  1
  W  W27  1  0.892223  0.784023  0.250000  1
