# generated using pymatgen
data_Ce2TmLu(AlRh)4
_symmetry_space_group_name_H-M   'P 1'
_cell_length_a   4.26508000
_cell_length_b   6.79971698
_cell_length_c   7.92850933
_cell_angle_alpha   90.11528565
_cell_angle_beta   90.00000000
_cell_angle_gamma   90.00000000
_symmetry_Int_Tables_number   1
_chemical_formula_structural   Ce2TmLu(AlRh)4
_chemical_formula_sum   'Ce2 Tm1 Lu1 Al4 Rh4'
_cell_volume   229.93690466
_cell_formula_units_Z   1
loop_
 _symmetry_equiv_pos_site_id
 _symmetry_equiv_pos_as_xyz
  1  'x, y, z'
loop_
 _atom_site_type_symbol
 _atom_site_label
 _atom_site_symmetry_multiplicity
 _atom_site_fract_x
 _atom_site_fract_y
 _atom_site_fract_z
 _atom_site_occupancy
  Ce  Ce0  1  0.750000  0.536722  0.825210  1
  Ce  Ce1  1  0.750000  0.036043  0.674335  1
  Tm  Tm2  1  0.250000  0.460232  0.184132  1
  Lu  Lu3  1  0.250000  0.959734  0.316072  1
  Al  Al4  1  0.750000  0.634159  0.433818  1
  Al  Al5  1  0.750000  0.133986  0.066241  1
  Al  Al6  1  0.250000  0.368310  0.554816  1
  Al  Al7  1  0.250000  0.869051  0.945655  1
  Rh  Rh8  1  0.750000  0.758916  0.117673  1
  Rh  Rh9  1  0.750000  0.256418  0.383313  1
  Rh  Rh10  1  0.250000  0.243340  0.874249  1
  Rh  Rh11  1  0.250000  0.743089  0.624484  1
