# generated using pymatgen
data_PdPb(S2O7)3
_symmetry_space_group_name_H-M   'P 1'
_cell_length_a   9.28730685
_cell_length_b   9.55410568
_cell_length_c   10.98411300
_cell_angle_alpha   89.26417433
_cell_angle_beta   93.27868847
_cell_angle_gamma   118.29425258
_symmetry_Int_Tables_number   1
_chemical_formula_structural   PdPb(S2O7)3
_chemical_formula_sum   'Pd2 Pb2 S12 O42'
_cell_volume   856.67839635
_cell_formula_units_Z   2
loop_
 _symmetry_equiv_pos_site_id
 _symmetry_equiv_pos_as_xyz
  1  'x, y, z'
loop_
 _atom_site_type_symbol
 _atom_site_label
 _atom_site_symmetry_multiplicity
 _atom_site_fract_x
 _atom_site_fract_y
 _atom_site_fract_z
 _atom_site_occupancy
  Pd  Pd0  1  0.021112  0.010359  0.744746  1
  Pd  Pd1  1  0.978888  0.989641  0.255254  1
  Pb  Pb2  1  0.319739  0.613999  0.628650  1
  Pb  Pb3  1  0.680261  0.386001  0.371350  1
  S  S4  1  0.801849  0.643153  0.679050  1
  S  S5  1  0.198151  0.356847  0.320950  1
  S  S6  1  0.365657  0.227132  0.651897  1
  S  S7  1  0.634343  0.772868  0.348103  1
  S  S8  1  0.306404  0.336011  0.877762  1
  S  S9  1  0.693596  0.663989  0.122238  1
  S  S10  1  0.074402  0.735799  0.861276  1
  S  S11  1  0.925598  0.264201  0.138724  1
  S  S12  1  0.894762  0.236870  0.622254  1
  S  S13  1  0.105238  0.763130  0.377746  1
  S  S14  1  0.681426  0.997568  0.788500  1
  S  S15  1  0.318574  0.002432  0.211500  1
  O  O16  1  0.085022  0.898851  0.879682  1
  O  O17  1  0.914978  0.101149  0.120318  1
  O  O18  1  0.919661  0.810794  0.639360  1
  O  O19  1  0.080339  0.189206  0.360640  1
  O  O20  1  0.227718  0.057513  0.657553  1
  O  O21  1  0.772282  0.942487  0.342447  1
  O  O22  1  0.417091  0.278393  0.795534  1
  O  O23  1  0.582909  0.721607  0.204466  1
  O  O24  1  0.785196  0.186632  0.741329  1
  O  O25  1  0.214804  0.813368  0.258671  1
  O  O26  1  0.877299  0.623327  0.812657  1
  O  O27  1  0.122701  0.376673  0.187343  1
  O  O28  1  0.818123  0.962449  0.837196  1
  O  O29  1  0.181877  0.037551  0.162804  1
  O  O30  1  0.942632  0.107087  0.606457  1
  O  O31  1  0.057368  0.892913  0.393543  1
  O  O32  1  0.313565  0.335615  0.596977  1
  O  O33  1  0.686435  0.664385  0.403023  1
  O  O34  1  0.128702  0.218324  0.842279  1
  O  O35  1  0.871298  0.781676  0.157721  1
  O  O36  1  0.173491  0.733107  0.765611  1
  O  O37  1  0.826509  0.266893  0.234389  1
  O  O38  1  0.336031  0.491444  0.835250  1
  O  O39  1  0.663969  0.508556  0.164750  1
  O  O40  1  0.794339  0.229160  0.514925  1
  O  O41  1  0.205661  0.770840  0.485075  1
  O  O42  1  0.816912  0.537217  0.594104  1
  O  O43  1  0.183088  0.462783  0.405896  1
  O  O44  1  0.357909  0.322923  0.999683  1
  O  O45  1  0.642091  0.677077  0.000317  1
  O  O46  1  0.083829  0.673883  0.978292  1
  O  O47  1  0.916171  0.326117  0.021708  1
  O  O48  1  0.589625  0.903112  0.682034  1
  O  O49  1  0.410375  0.096888  0.317966  1
  O  O50  1  0.597491  0.010092  0.888920  1
  O  O51  1  0.402509  0.989908  0.111080  1
  O  O52  1  0.503402  0.222068  0.603828  1
  O  O53  1  0.496598  0.777932  0.396172  1
  O  O54  1  0.027798  0.390624  0.658467  1
  O  O55  1  0.972202  0.609376  0.341533  1
  O  O56  1  0.640648  0.616950  0.701852  1
  O  O57  1  0.359352  0.383050  0.298148  1
