# generated using pymatgen
data_Ba2MgCu2Pd9O22
_symmetry_space_group_name_H-M   'P 1'
_cell_length_a   6.00808538
_cell_length_b   6.00808470
_cell_length_c   13.95118668
_cell_angle_alpha   89.84627612
_cell_angle_beta   90.15372518
_cell_angle_gamma   119.74449888
_symmetry_Int_Tables_number   1
_chemical_formula_structural   Ba2MgCu2Pd9O22
_chemical_formula_sum   'Ba2 Mg1 Cu2 Pd9 O22'
_cell_volume   437.24436499
_cell_formula_units_Z   1
loop_
 _symmetry_equiv_pos_site_id
 _symmetry_equiv_pos_as_xyz
  1  'x, y, z'
loop_
 _atom_site_type_symbol
 _atom_site_label
 _atom_site_symmetry_multiplicity
 _atom_site_fract_x
 _atom_site_fract_y
 _atom_site_fract_z
 _atom_site_occupancy
  Ba  Ba0  1  0.333023  0.666977  0.753490  1
  Ba  Ba1  1  0.666977  0.333023  0.246510  1
  Mg  Mg2  1  0.500000  0.500000  0.000000  1
  Cu  Cu3  1  0.333974  0.666026  0.219926  1
  Cu  Cu4  1  0.666026  0.333974  0.780074  1
  Pd  Pd5  1  0.005871  0.994129  0.148624  1
  Pd  Pd6  1  0.994129  0.005871  0.851376  1
  Pd  Pd7  1  0.000562  0.999438  0.650814  1
  Pd  Pd8  1  0.999438  0.000562  0.349186  1
  Pd  Pd9  1  0.500000  0.000000  0.000000  1
  Pd  Pd10  1  0.000000  0.500000  0.000000  1
  Pd  Pd11  1  0.500000  0.000000  0.500000  1
  Pd  Pd12  1  0.000000  0.500000  0.500000  1
  Pd  Pd13  1  0.500000  0.500000  0.500000  1
  O  O14  1  0.149272  0.296795  0.247161  1
  O  O15  1  0.850728  0.703205  0.752839  1
  O  O16  1  0.703205  0.850728  0.247161  1
  O  O17  1  0.296795  0.149272  0.752839  1
  O  O18  1  0.149737  0.850263  0.249824  1
  O  O19  1  0.850263  0.149737  0.750176  1
  O  O20  1  0.331673  0.668327  0.077519  1
  O  O21  1  0.668327  0.331673  0.922481  1
  O  O22  1  0.667268  0.332732  0.574296  1
  O  O23  1  0.332732  0.667268  0.425704  1
  O  O24  1  0.178534  0.355143  0.583214  1
  O  O25  1  0.821466  0.644857  0.416786  1
  O  O26  1  0.644857  0.821466  0.583214  1
  O  O27  1  0.827448  0.646446  0.084034  1
  O  O28  1  0.355143  0.178534  0.416786  1
  O  O29  1  0.172552  0.353554  0.915966  1
  O  O30  1  0.178277  0.821723  0.583084  1
  O  O31  1  0.353554  0.172552  0.084034  1
  O  O32  1  0.821723  0.178277  0.416916  1
  O  O33  1  0.646446  0.827448  0.915966  1
  O  O34  1  0.826460  0.173540  0.081074  1
  O  O35  1  0.173540  0.826460  0.918926  1
