# generated using pymatgen
data_Tm12Co2TcAu2
_symmetry_space_group_name_H-M   'P 1'
_cell_length_a   8.11595814
_cell_length_b   8.11577517
_cell_length_c   8.11596000
_cell_angle_alpha   108.84663986
_cell_angle_beta   108.77428183
_cell_angle_gamma   110.80192628
_symmetry_Int_Tables_number   1
_chemical_formula_structural   Tm12Co2TcAu2
_chemical_formula_sum   'Tm12 Co2 Tc1 Au2'
_cell_volume   411.34529976
_cell_formula_units_Z   1
loop_
 _symmetry_equiv_pos_site_id
 _symmetry_equiv_pos_as_xyz
  1  'x, y, z'
loop_
 _atom_site_type_symbol
 _atom_site_label
 _atom_site_symmetry_multiplicity
 _atom_site_fract_x
 _atom_site_fract_y
 _atom_site_fract_z
 _atom_site_occupancy
  Tm  Tm0  1  0.185664  0.433393  0.247729  1
  Tm  Tm1  1  0.814336  0.566607  0.752271  1
  Tm  Tm2  1  0.185651  0.937924  0.752272  1
  Tm  Tm3  1  0.937909  0.185656  0.752247  1
  Tm  Tm4  1  0.814349  0.062076  0.247728  1
  Tm  Tm5  1  0.062091  0.814344  0.247753  1
  Tm  Tm6  1  0.433409  0.185656  0.247748  1
  Tm  Tm7  1  0.566591  0.814344  0.752252  1
  Tm  Tm8  1  0.317574  0.317535  0.635111  1
  Tm  Tm9  1  0.682426  0.682465  0.364889  1
  Tm  Tm10  1  0.682424  0.317535  0.999962  1
  Tm  Tm11  1  0.317576  0.682465  0.000038  1
  Co  Co12  1  0.350282  0.350277  0.999994  1
  Co  Co13  1  0.649718  0.649723  0.000006  1
  Tc  Tc14  1  0.000000  0.000000  0.000000  1
  Au  Au15  1  0.000000  0.500000  0.500000  1
  Au  Au16  1  0.500000  0.000000  0.500000  1
