# generated using pymatgen
data_Ca2Ga9Pd2Pt
_symmetry_space_group_name_H-M   'P 1'
_cell_length_a   7.75098800
_cell_length_b   7.75098690
_cell_length_c   9.59626500
_cell_angle_alpha   90.00000000
_cell_angle_beta   90.00000000
_cell_angle_gamma   119.76317565
_symmetry_Int_Tables_number   1
_chemical_formula_structural   Ca2Ga9Pd2Pt
_chemical_formula_sum   'Ca4 Ga18 Pd4 Pt2'
_cell_volume   500.47039575
_cell_formula_units_Z   2
loop_
 _symmetry_equiv_pos_site_id
 _symmetry_equiv_pos_as_xyz
  1  'x, y, z'
loop_
 _atom_site_type_symbol
 _atom_site_label
 _atom_site_symmetry_multiplicity
 _atom_site_fract_x
 _atom_site_fract_y
 _atom_site_fract_z
 _atom_site_occupancy
  Ca  Ca0  1  0.669586  0.998664  0.250000  1
  Ca  Ca1  1  0.001336  0.330414  0.750000  1
  Ca  Ca2  1  0.998317  0.669175  0.250000  1
  Ca  Ca3  1  0.330825  0.001683  0.750000  1
  Ga  Ga4  1  0.665527  0.000286  0.920188  1
  Ga  Ga5  1  0.129489  0.129482  0.250000  1
  Ga  Ga6  1  0.999714  0.334473  0.420188  1
  Ga  Ga7  1  0.330659  0.331184  0.565557  1
  Ga  Ga8  1  0.339390  0.543994  0.250000  1
  Ga  Ga9  1  0.456006  0.660610  0.750000  1
  Ga  Ga10  1  0.870518  0.870511  0.750000  1
  Ga  Ga11  1  0.668816  0.669341  0.065557  1
  Ga  Ga12  1  0.668816  0.669341  0.434443  1
  Ga  Ga13  1  0.001468  0.665797  0.580127  1
  Ga  Ga14  1  0.001468  0.665797  0.919873  1
  Ga  Ga15  1  0.334203  0.998532  0.419873  1
  Ga  Ga16  1  0.660884  0.457540  0.750000  1
  Ga  Ga17  1  0.542460  0.339116  0.250000  1
  Ga  Ga18  1  0.330659  0.331184  0.934443  1
  Ga  Ga19  1  0.334203  0.998532  0.080127  1
  Ga  Ga20  1  0.665527  0.000286  0.579812  1
  Ga  Ga21  1  0.999714  0.334473  0.079812  1
  Pd  Pd22  1  0.330462  0.669538  0.500000  1
  Pd  Pd23  1  0.330462  0.669538  0.000000  1
  Pd  Pd24  1  0.999905  0.000095  0.000000  1
  Pd  Pd25  1  0.999905  0.000095  0.500000  1
  Pt  Pt26  1  0.669839  0.330161  0.500000  1
  Pt  Pt27  1  0.669839  0.330161  0.000000  1
