# generated using pymatgen
data_Tm3ScSb10
_symmetry_space_group_name_H-M   'P 1'
_cell_length_a   4.19554200
_cell_length_b   13.05711398
_cell_length_c   14.35017187
_cell_angle_alpha   78.69265901
_cell_angle_beta   90.00000000
_cell_angle_gamma   90.00000000
_symmetry_Int_Tables_number   1
_chemical_formula_structural   Tm3ScSb10
_chemical_formula_sum   'Tm6 Sc2 Sb20'
_cell_volume   770.86731090
_cell_formula_units_Z   2
loop_
 _symmetry_equiv_pos_site_id
 _symmetry_equiv_pos_as_xyz
  1  'x, y, z'
loop_
 _atom_site_type_symbol
 _atom_site_label
 _atom_site_symmetry_multiplicity
 _atom_site_fract_x
 _atom_site_fract_y
 _atom_site_fract_z
 _atom_site_occupancy
  Tm  Tm0  1  0.250000  0.660767  0.856440  1
  Tm  Tm1  1  0.750000  0.339233  0.143560  1
  Tm  Tm2  1  0.250000  0.668676  0.575507  1
  Tm  Tm3  1  0.750000  0.331324  0.424493  1
  Tm  Tm4  1  0.250000  0.953328  0.358234  1
  Tm  Tm5  1  0.750000  0.046672  0.641766  1
  Sc  Sc6  1  0.250000  0.395269  0.770155  1
  Sc  Sc7  1  0.750000  0.604731  0.229845  1
  Sb  Sb8  1  0.250000  0.146118  0.777982  1
  Sb  Sb9  1  0.750000  0.853882  0.222018  1
  Sb  Sb10  1  0.250000  0.143717  0.484381  1
  Sb  Sb11  1  0.750000  0.856283  0.515619  1
  Sb  Sb12  1  0.250000  0.153858  0.168733  1
  Sb  Sb13  1  0.750000  0.846142  0.831267  1
  Sb  Sb14  1  0.250000  0.421218  0.971963  1
  Sb  Sb15  1  0.750000  0.578782  0.028037  1
  Sb  Sb16  1  0.750000  0.030100  0.913067  1
  Sb  Sb17  1  0.250000  0.969900  0.086933  1
  Sb  Sb18  1  0.750000  0.139171  0.322139  1
  Sb  Sb19  1  0.250000  0.860829  0.677861  1
  Sb  Sb20  1  0.750000  0.279847  0.932890  1
  Sb  Sb21  1  0.250000  0.720153  0.067110  1
  Sb  Sb22  1  0.750000  0.287079  0.656392  1
  Sb  Sb23  1  0.250000  0.712921  0.343608  1
  Sb  Sb24  1  0.750000  0.571635  0.735217  1
  Sb  Sb25  1  0.250000  0.428365  0.264783  1
  Sb  Sb26  1  0.750000  0.570708  0.444403  1
  Sb  Sb27  1  0.250000  0.429292  0.555597  1
