# generated using pymatgen
data_Pr10Ga2Bi5Pb
_symmetry_space_group_name_H-M   'P 1'
_cell_length_a   9.78639896
_cell_length_b   9.78639708
_cell_length_c   6.67853700
_cell_angle_alpha   90.00000000
_cell_angle_beta   90.00000000
_cell_angle_gamma   120.05080826
_symmetry_Int_Tables_number   1
_chemical_formula_structural   Pr10Ga2Bi5Pb
_chemical_formula_sum   'Pr10 Ga2 Bi5 Pb1'
_cell_volume   553.64979185
_cell_formula_units_Z   1
loop_
 _symmetry_equiv_pos_site_id
 _symmetry_equiv_pos_as_xyz
  1  'x, y, z'
loop_
 _atom_site_type_symbol
 _atom_site_label
 _atom_site_symmetry_multiplicity
 _atom_site_fract_x
 _atom_site_fract_y
 _atom_site_fract_z
 _atom_site_occupancy
  Pr  Pr0  1  0.666286  0.333112  0.999448  1
  Pr  Pr1  1  0.333112  0.666286  0.999448  1
  Pr  Pr2  1  0.333112  0.666286  0.500552  1
  Pr  Pr3  1  0.666286  0.333112  0.500552  1
  Pr  Pr4  1  0.742255  0.742255  0.750000  1
  Pr  Pr5  1  0.257949  0.000186  0.750000  1
  Pr  Pr6  1  0.000186  0.257949  0.750000  1
  Pr  Pr7  1  0.257131  0.257131  0.250000  1
  Pr  Pr8  1  0.742556  0.000322  0.250000  1
  Pr  Pr9  1  0.000322  0.742556  0.250000  1
  Ga  Ga10  1  0.000444  0.000444  0.999511  1
  Ga  Ga11  1  0.000444  0.000444  0.500489  1
  Bi  Bi12  1  0.614597  0.999953  0.750000  1
  Bi  Bi13  1  0.999953  0.614597  0.750000  1
  Bi  Bi14  1  0.613812  0.613812  0.250000  1
  Bi  Bi15  1  0.385592  0.000123  0.250000  1
  Bi  Bi16  1  0.000123  0.385592  0.250000  1
  Pb  Pb17  1  0.385839  0.385839  0.750000  1
