# generated using pymatgen
data_Nd3In3SnRh2
_symmetry_space_group_name_H-M   'P 1'
_cell_length_a   7.75061100
_cell_length_b   7.75061073
_cell_length_c   4.21323400
_cell_angle_alpha   90.00000000
_cell_angle_beta   90.00000000
_cell_angle_gamma   119.99999688
_symmetry_Int_Tables_number   1
_chemical_formula_structural   Nd3In3SnRh2
_chemical_formula_sum   'Nd3 In3 Sn1 Rh2'
_cell_volume   219.18866488
_cell_formula_units_Z   1
loop_
 _symmetry_equiv_pos_site_id
 _symmetry_equiv_pos_as_xyz
  1  'x, y, z'
loop_
 _atom_site_type_symbol
 _atom_site_label
 _atom_site_symmetry_multiplicity
 _atom_site_fract_x
 _atom_site_fract_y
 _atom_site_fract_z
 _atom_site_occupancy
  Nd  Nd0  1  0.021205  0.602876  0.500000  1
  Nd  Nd1  1  0.581673  0.978795  0.500000  1
  Nd  Nd2  1  0.397124  0.418327  0.500000  1
  In  In3  1  0.015168  0.252202  0.000000  1
  In  In4  1  0.237035  0.984832  0.000000  1
  In  In5  1  0.747798  0.762965  0.000000  1
  Sn  Sn6  1  0.666667  0.333333  0.000000  1
  Rh  Rh7  1  0.000000  0.000000  0.500000  1
  Rh  Rh8  1  0.333333  0.666667  0.000000  1
