# generated using pymatgen
data_Dy7Ho3Zn3Bi2Au
_symmetry_space_group_name_H-M   'P 1'
_cell_length_a   8.65855655
_cell_length_b   8.65776130
_cell_length_c   8.66309734
_cell_angle_alpha   123.82118072
_cell_angle_beta   123.82216632
_cell_angle_gamma   83.45718716
_symmetry_Int_Tables_number   1
_chemical_formula_structural   Dy7Ho3Zn3Bi2Au
_chemical_formula_sum   'Dy7 Ho3 Zn3 Bi2 Au1'
_cell_volume   429.79069151
_cell_formula_units_Z   1
loop_
 _symmetry_equiv_pos_site_id
 _symmetry_equiv_pos_as_xyz
  1  'x, y, z'
loop_
 _atom_site_type_symbol
 _atom_site_label
 _atom_site_symmetry_multiplicity
 _atom_site_fract_x
 _atom_site_fract_y
 _atom_site_fract_z
 _atom_site_occupancy
  Dy  Dy0  1  0.204275  0.705661  0.194695  1
  Dy  Dy1  1  0.011924  0.204989  0.499981  1
  Dy  Dy2  1  0.705061  0.511268  0.500007  1
  Dy  Dy3  1  0.488870  0.990391  0.194219  1
  Dy  Dy4  1  0.794453  0.295861  0.805488  1
  Dy  Dy5  1  0.988988  0.795116  0.500113  1
  Dy  Dy6  1  0.295141  0.488247  0.500067  1
  Ho  Ho7  1  0.499647  0.499395  0.999253  1
  Ho  Ho8  1  0.999937  0.000373  0.000512  1
  Ho  Ho9  1  0.509696  0.011118  0.805114  1
  Zn  Zn10  1  0.138177  0.640031  0.778209  1
  Zn  Zn11  1  0.859800  0.361617  0.221511  1
  Zn  Zn12  1  0.639896  0.860033  0.500167  1
  Bi  Bi13  1  0.249233  0.250777  0.000024  1
  Bi  Bi14  1  0.748907  0.751064  0.999964  1
  Au  Au15  1  0.365994  0.134060  0.500676  1
