# generated using pymatgen
data_Li3Dy2HoInGe2
_symmetry_space_group_name_H-M   'P 1'
_cell_length_a   7.23999146
_cell_length_b   7.23999282
_cell_length_c   4.25715500
_cell_angle_alpha   90.00000000
_cell_angle_beta   90.00000000
_cell_angle_gamma   119.90553423
_symmetry_Int_Tables_number   1
_chemical_formula_structural   Li3Dy2HoInGe2
_chemical_formula_sum   'Li3 Dy2 Ho1 In1 Ge2'
_cell_volume   193.43671225
_cell_formula_units_Z   1
loop_
 _symmetry_equiv_pos_site_id
 _symmetry_equiv_pos_as_xyz
  1  'x, y, z'
loop_
 _atom_site_type_symbol
 _atom_site_label
 _atom_site_symmetry_multiplicity
 _atom_site_fract_x
 _atom_site_fract_y
 _atom_site_fract_z
 _atom_site_occupancy
  Li  Li0  1  0.251327  0.000052  0.500000  1
  Li  Li1  1  0.748541  0.748541  0.500000  1
  Li  Li2  1  0.000052  0.251327  0.500000  1
  Dy  Dy3  1  0.999962  0.557262  0.000000  1
  Dy  Dy4  1  0.557262  0.999962  0.000000  1
  Ho  Ho5  1  0.442776  0.442776  0.000000  1
  In  In6  1  0.000272  0.000272  0.000000  1
  Ge  Ge7  1  0.333501  0.666308  0.500000  1
  Ge  Ge8  1  0.666308  0.333501  0.500000  1
