# generated using pymatgen
data_TbCeZn3CuRu
_symmetry_space_group_name_H-M   'P 1'
_cell_length_a   7.12607300
_cell_length_b   7.11009559
_cell_length_c   5.08648476
_cell_angle_alpha   90.24698265
_cell_angle_beta   90.00000000
_cell_angle_gamma   90.00000000
_symmetry_Int_Tables_number   1
_chemical_formula_structural   TbCeZn3CuRu
_chemical_formula_sum   'Tb2 Ce2 Zn6 Cu2 Ru2'
_cell_volume   257.71483522
_cell_formula_units_Z   2
loop_
 _symmetry_equiv_pos_site_id
 _symmetry_equiv_pos_as_xyz
  1  'x, y, z'
loop_
 _atom_site_type_symbol
 _atom_site_label
 _atom_site_symmetry_multiplicity
 _atom_site_fract_x
 _atom_site_fract_y
 _atom_site_fract_z
 _atom_site_occupancy
  Tb  Tb0  1  0.000000  0.509640  0.758394  1
  Tb  Tb1  1  0.500000  0.993845  0.234187  1
  Ce  Ce2  1  0.000000  0.992459  0.011852  1
  Ce  Ce3  1  0.500000  0.507049  0.009481  1
  Zn  Zn4  1  0.813620  0.318239  0.287447  1
  Zn  Zn5  1  0.312854  0.186574  0.717549  1
  Zn  Zn6  1  0.186380  0.318239  0.287447  1
  Zn  Zn7  1  0.687146  0.186574  0.717549  1
  Zn  Zn8  1  0.689994  0.810419  0.703325  1
  Zn  Zn9  1  0.310006  0.810419  0.703325  1
  Cu  Cu10  1  0.180701  0.682315  0.280235  1
  Cu  Cu11  1  0.819299  0.682315  0.280235  1
  Ru  Ru12  1  0.500000  0.496737  0.504945  1
  Ru  Ru13  1  0.000000  0.005176  0.504030  1
