# generated using pymatgen
data_Hf6AlFePb
_symmetry_space_group_name_H-M   'P 1'
_cell_length_a   3.34036900
_cell_length_b   7.99568856
_cell_length_c   7.99569000
_cell_angle_alpha   120.00000595
_cell_angle_beta   90.00000000
_cell_angle_gamma   90.00000000
_symmetry_Int_Tables_number   1
_chemical_formula_structural   Hf6AlFePb
_chemical_formula_sum   'Hf6 Al1 Fe1 Pb1'
_cell_volume   184.94256120
_cell_formula_units_Z   1
loop_
 _symmetry_equiv_pos_site_id
 _symmetry_equiv_pos_as_xyz
  1  'x, y, z'
loop_
 _atom_site_type_symbol
 _atom_site_label
 _atom_site_symmetry_multiplicity
 _atom_site_fract_x
 _atom_site_fract_y
 _atom_site_fract_z
 _atom_site_occupancy
  Hf  Hf0  1  0.500000  0.754932  0.758996  1
  Hf  Hf1  1  0.500000  0.004064  0.245068  1
  Hf  Hf2  1  0.500000  0.241004  0.995936  1
  Hf  Hf3  1  0.000000  0.380639  0.398562  1
  Hf  Hf4  1  0.000000  0.017923  0.619361  1
  Hf  Hf5  1  0.000000  0.601438  0.982077  1
  Al  Al6  1  0.500000  0.333333  0.666667  1
  Fe  Fe7  1  0.000000  0.000000  0.000000  1
  Pb  Pb8  1  0.500000  0.666667  0.333333  1
