# generated using pymatgen
data_Pr3NdAl14(Ga2Ir3)2
_symmetry_space_group_name_H-M   'P 1'
_cell_length_a   7.60681906
_cell_length_b   7.60455149
_cell_length_c   9.70491300
_cell_angle_alpha   90.00000000
_cell_angle_beta   90.00000000
_cell_angle_gamma   119.44018714
_symmetry_Int_Tables_number   1
_chemical_formula_structural   Pr3NdAl14(Ga2Ir3)2
_chemical_formula_sum   'Pr3 Nd1 Al14 Ga4 Ir6'
_cell_volume   488.90143005
_cell_formula_units_Z   1
loop_
 _symmetry_equiv_pos_site_id
 _symmetry_equiv_pos_as_xyz
  1  'x, y, z'
loop_
 _atom_site_type_symbol
 _atom_site_label
 _atom_site_symmetry_multiplicity
 _atom_site_fract_x
 _atom_site_fract_y
 _atom_site_fract_z
 _atom_site_occupancy
  Pr  Pr0  1  0.997743  0.672680  0.250000  1
  Pr  Pr1  1  0.002263  0.327265  0.750000  1
  Pr  Pr2  1  0.668994  0.993155  0.250000  1
  Nd  Nd3  1  0.331033  0.006804  0.750000  1
  Al  Al4  1  0.002918  0.335000  0.071009  1
  Al  Al5  1  0.997426  0.665351  0.928788  1
  Al  Al6  1  0.997426  0.665351  0.571212  1
  Al  Al7  1  0.335591  0.004008  0.429068  1
  Al  Al8  1  0.002918  0.335000  0.428991  1
  Al  Al9  1  0.664050  0.995979  0.571476  1
  Al  Al10  1  0.664050  0.995979  0.928524  1
  Al  Al11  1  0.335591  0.004008  0.070932  1
  Al  Al12  1  0.334832  0.335104  0.549468  1
  Al  Al13  1  0.665163  0.664612  0.450805  1
  Al  Al14  1  0.665163  0.664612  0.049195  1
  Al  Al15  1  0.334832  0.335104  0.950532  1
  Al  Al16  1  0.546008  0.338813  0.250000  1
  Al  Al17  1  0.453862  0.661506  0.750000  1
  Ga  Ga18  1  0.132261  0.132988  0.250000  1
  Ga  Ga19  1  0.868247  0.867166  0.750000  1
  Ga  Ga20  1  0.337756  0.542864  0.250000  1
  Ga  Ga21  1  0.661820  0.456610  0.750000  1
  Ir  Ir22  1  0.670003  0.328842  0.002404  1
  Ir  Ir23  1  0.329845  0.671138  0.997304  1
  Ir  Ir24  1  0.329845  0.671138  0.502696  1
  Ir  Ir25  1  0.670003  0.328842  0.497596  1
  Ir  Ir26  1  0.000178  0.000039  0.999838  1
  Ir  Ir27  1  0.000178  0.000039  0.500162  1
