# generated using pymatgen
data_Ca6Al24Pd5Ru3
_symmetry_space_group_name_H-M   'P 1'
_cell_length_a   8.92806428
_cell_length_b   8.90614965
_cell_length_c   9.60794142
_cell_angle_alpha   89.99999926
_cell_angle_beta   89.90625724
_cell_angle_gamma   119.91883332
_symmetry_Int_Tables_number   1
_chemical_formula_structural   Ca6Al24Pd5Ru3
_chemical_formula_sum   'Ca6 Al24 Pd5 Ru3'
_cell_volume   662.15875436
_cell_formula_units_Z   1
loop_
 _symmetry_equiv_pos_site_id
 _symmetry_equiv_pos_as_xyz
  1  'x, y, z'
loop_
 _atom_site_type_symbol
 _atom_site_label
 _atom_site_symmetry_multiplicity
 _atom_site_fract_x
 _atom_site_fract_y
 _atom_site_fract_z
 _atom_site_occupancy
  Ca  Ca0  1  0.193114  0.387207  0.250753  1
  Ca  Ca1  1  0.806886  0.612793  0.749247  1
  Ca  Ca2  1  0.615839  0.807919  0.251425  1
  Ca  Ca3  1  0.384161  0.192081  0.748575  1
  Ca  Ca4  1  0.193114  0.805906  0.250753  1
  Ca  Ca5  1  0.806886  0.194094  0.749247  1
  Al  Al6  1  0.333378  0.666690  0.008102  1
  Al  Al7  1  0.666622  0.333310  0.991898  1
  Al  Al8  1  0.673035  0.336517  0.509063  1
  Al  Al9  1  0.326965  0.663483  0.490937  1
  Al  Al10  1  0.155318  0.321560  0.579555  1
  Al  Al11  1  0.844682  0.678440  0.420445  1
  Al  Al12  1  0.679119  0.839560  0.580466  1
  Al  Al13  1  0.840099  0.679915  0.081666  1
  Al  Al14  1  0.320881  0.160440  0.419534  1
  Al  Al15  1  0.159901  0.320085  0.918334  1
  Al  Al16  1  0.155318  0.833758  0.579555  1
  Al  Al17  1  0.319591  0.159795  0.080806  1
  Al  Al18  1  0.844682  0.166242  0.420445  1
  Al  Al19  1  0.680409  0.840205  0.919194  1
  Al  Al20  1  0.840099  0.160185  0.081666  1
  Al  Al21  1  0.159901  0.839815  0.918334  1
  Al  Al22  1  0.564223  0.126508  0.249970  1
  Al  Al23  1  0.435777  0.873492  0.750030  1
  Al  Al24  1  0.877852  0.438926  0.252891  1
  Al  Al25  1  0.122148  0.561074  0.747109  1
  Al  Al26  1  0.564223  0.437715  0.249970  1
  Al  Al27  1  0.435777  0.562285  0.750030  1
  Al  Al28  1  0.999647  0.999824  0.250132  1
  Al  Al29  1  0.000353  0.000176  0.749868  1
  Pd  Pd30  1  0.500000  0.000000  0.000000  1
  Pd  Pd31  1  0.000000  0.500000  0.000000  1
  Pd  Pd32  1  0.500000  0.000000  0.500000  1
  Pd  Pd33  1  0.500000  0.500000  0.000000  1
  Pd  Pd34  1  0.500000  0.500000  0.500000  1
  Ru  Ru35  1  0.000000  0.500000  0.500000  1
  Ru  Ru36  1  0.000000  0.000000  0.000000  1
  Ru  Ru37  1  0.000000  0.000000  0.500000  1
