# generated using pymatgen
data_U3Fe2NiSb3As
_symmetry_space_group_name_H-M   'P 1'
_cell_length_a   7.98650209
_cell_length_b   7.99920251
_cell_length_c   7.98650134
_cell_angle_alpha   108.86708695
_cell_angle_beta   109.43791833
_cell_angle_gamma   110.04642725
_symmetry_Int_Tables_number   1
_chemical_formula_structural   U3Fe2NiSb3As
_chemical_formula_sum   'U6 Fe4 Ni2 Sb6 As2'
_cell_volume   393.03980847
_cell_formula_units_Z   2
loop_
 _symmetry_equiv_pos_site_id
 _symmetry_equiv_pos_as_xyz
  1  'x, y, z'
loop_
 _atom_site_type_symbol
 _atom_site_label
 _atom_site_symmetry_multiplicity
 _atom_site_fract_x
 _atom_site_fract_y
 _atom_site_fract_z
 _atom_site_occupancy
  U  U0  1  0.861516  0.250000  0.111516  1
  U  U1  1  0.619138  0.750000  0.369138  1
  U  U2  1  0.260760  0.118926  0.861015  1
  U  U3  1  0.742089  0.381074  0.641833  1
  U  U4  1  0.120696  0.863909  0.250913  1
  U  U5  1  0.387004  0.636091  0.756787  1
  Fe  Fe6  1  0.398026  0.250000  0.648026  1
  Fe  Fe7  1  0.122666  0.750000  0.872666  1
  Fe  Fe8  1  0.267081  0.640191  0.382592  1
  Fe  Fe9  1  0.742401  0.859809  0.126890  1
  Ni  Ni10  1  0.619112  0.379011  0.241644  1
  Ni  Ni11  1  0.862634  0.120989  0.740101  1
  Sb  Sb12  1  0.998047  0.657316  0.497872  1
  Sb  Sb13  1  0.840555  0.842684  0.840731  1
  Sb  Sb14  1  0.500658  0.005384  0.171227  1
  Sb  Sb15  1  0.165843  0.494616  0.995275  1
  Sb  Sb16  1  0.003813  0.171307  0.497347  1
  Sb  Sb17  1  0.326041  0.328693  0.332506  1
  As  As18  1  0.662108  0.504837  0.004650  1
  As  As19  1  0.499814  0.995163  0.657271  1
