# generated using pymatgen
data_Tb(NdRh)2
_symmetry_space_group_name_H-M   'P 1'
_cell_length_a   7.56648203
_cell_length_b   7.56648182
_cell_length_c   7.56648301
_cell_angle_alpha   71.06898152
_cell_angle_beta   71.06897885
_cell_angle_gamma   71.06897329
_symmetry_Int_Tables_number   1
_chemical_formula_structural   Tb(NdRh)2
_chemical_formula_sum   'Tb3 Nd6 Rh6'
_cell_volume   375.78933614
_cell_formula_units_Z   3
loop_
 _symmetry_equiv_pos_site_id
 _symmetry_equiv_pos_as_xyz
  1  'x, y, z'
loop_
 _atom_site_type_symbol
 _atom_site_label
 _atom_site_symmetry_multiplicity
 _atom_site_fract_x
 _atom_site_fract_y
 _atom_site_fract_z
 _atom_site_occupancy
  Tb  Tb0  1  0.000000  0.000000  0.000000  1
  Tb  Tb1  1  0.799627  0.799627  0.799627  1
  Tb  Tb2  1  0.200373  0.200373  0.200373  1
  Nd  Nd3  1  0.162076  0.392173  0.665393  1
  Nd  Nd4  1  0.665393  0.162076  0.392173  1
  Nd  Nd5  1  0.392173  0.665393  0.162076  1
  Nd  Nd6  1  0.837924  0.607827  0.334607  1
  Nd  Nd7  1  0.334607  0.837924  0.607827  1
  Nd  Nd8  1  0.607827  0.334607  0.837924  1
  Rh  Rh9  1  0.960914  0.157221  0.591735  1
  Rh  Rh10  1  0.591735  0.960914  0.157221  1
  Rh  Rh11  1  0.157221  0.591735  0.960914  1
  Rh  Rh12  1  0.039086  0.842779  0.408265  1
  Rh  Rh13  1  0.408265  0.039086  0.842779  1
  Rh  Rh14  1  0.842779  0.408265  0.039086  1
