# generated using pymatgen
data_Tb2Ho5Th(ReB6)4
_symmetry_space_group_name_H-M   'P 1'
_cell_length_a   3.70417100
_cell_length_b   9.19034347
_cell_length_c   11.59442201
_cell_angle_alpha   90.04385909
_cell_angle_beta   90.00000000
_cell_angle_gamma   90.00000000
_symmetry_Int_Tables_number   1
_chemical_formula_structural   Tb2Ho5Th(ReB6)4
_chemical_formula_sum   'Tb2 Ho5 Th1 Re4 B24'
_cell_volume   394.70419865
_cell_formula_units_Z   1
loop_
 _symmetry_equiv_pos_site_id
 _symmetry_equiv_pos_as_xyz
  1  'x, y, z'
loop_
 _atom_site_type_symbol
 _atom_site_label
 _atom_site_symmetry_multiplicity
 _atom_site_fract_x
 _atom_site_fract_y
 _atom_site_fract_z
 _atom_site_occupancy
  Tb  Tb0  1  0.000000  0.677709  0.587236  1
  Tb  Tb1  1  0.000000  0.823433  0.085235  1
  Ho  Ho2  1  0.000000  0.175904  0.913971  1
  Ho  Ho3  1  0.000000  0.942167  0.369464  1
  Ho  Ho4  1  0.000000  0.056028  0.631252  1
  Ho  Ho5  1  0.000000  0.443468  0.128325  1
  Ho  Ho6  1  0.000000  0.557190  0.870462  1
  Th  Th7  1  0.000000  0.322482  0.414118  1
  Re  Re8  1  0.000000  0.638811  0.320559  1
  Re  Re9  1  0.000000  0.361551  0.680389  1
  Re  Re10  1  0.000000  0.138520  0.178354  1
  Re  Re11  1  0.000000  0.861875  0.820755  1
  B  B12  1  0.500000  0.555835  0.432090  1
  B  B13  1  0.500000  0.446620  0.569588  1
  B  B14  1  0.500000  0.053375  0.066422  1
  B  B15  1  0.500000  0.946674  0.932760  1
  B  B16  1  0.500000  0.750265  0.418091  1
  B  B17  1  0.500000  0.250594  0.584872  1
  B  B18  1  0.500000  0.248919  0.080130  1
  B  B19  1  0.500000  0.750751  0.918209  1
  B  B20  1  0.500000  0.792071  0.265290  1
  B  B21  1  0.500000  0.207935  0.736010  1
  B  B22  1  0.500000  0.290570  0.232178  1
  B  B23  1  0.500000  0.708112  0.765863  1
  B  B24  1  0.500000  0.631795  0.184689  1
  B  B25  1  0.500000  0.369452  0.815248  1
  B  B26  1  0.500000  0.129323  0.312334  1
  B  B27  1  0.500000  0.869104  0.686189  1
  B  B28  1  0.500000  0.982397  0.211221  1
  B  B29  1  0.500000  0.017215  0.788508  1
  B  B30  1  0.500000  0.485560  0.286187  1
  B  B31  1  0.500000  0.517678  0.713644  1
  B  B32  1  0.500000  0.600813  0.027571  1
  B  B33  1  0.500000  0.399378  0.971571  1
  B  B34  1  0.500000  0.097169  0.472949  1
  B  B35  1  0.500000  0.899258  0.528268  1
