# generated using pymatgen
data_Dy16Er4Ir11Os
_symmetry_space_group_name_H-M   'P 1'
_cell_length_a   10.87436500
_cell_length_b   10.87436500
_cell_length_c   6.39320400
_cell_angle_alpha   90.00000000
_cell_angle_beta   90.00000000
_cell_angle_gamma   90.00000000
_symmetry_Int_Tables_number   1
_chemical_formula_structural   Dy16Er4Ir11Os
_chemical_formula_sum   'Dy16 Er4 Ir11 Os1'
_cell_volume   756.00797125
_cell_formula_units_Z   1
loop_
 _symmetry_equiv_pos_site_id
 _symmetry_equiv_pos_as_xyz
  1  'x, y, z'
loop_
 _atom_site_type_symbol
 _atom_site_label
 _atom_site_symmetry_multiplicity
 _atom_site_fract_x
 _atom_site_fract_y
 _atom_site_fract_z
 _atom_site_occupancy
  Dy  Dy0  1  0.292188  0.087285  0.376638  1
  Dy  Dy1  1  0.292684  0.912755  0.880403  1
  Dy  Dy2  1  0.707316  0.087245  0.880403  1
  Dy  Dy3  1  0.707812  0.912715  0.376638  1
  Dy  Dy4  1  0.587245  0.792684  0.880403  1
  Dy  Dy5  1  0.587285  0.207812  0.376638  1
  Dy  Dy6  1  0.412715  0.792188  0.376638  1
  Dy  Dy7  1  0.412755  0.207316  0.880403  1
  Dy  Dy8  1  0.209295  0.411672  0.621430  1
  Dy  Dy9  1  0.209217  0.588097  0.121128  1
  Dy  Dy10  1  0.790783  0.411903  0.121128  1
  Dy  Dy11  1  0.790705  0.588328  0.621430  1
  Dy  Dy12  1  0.911903  0.709217  0.121128  1
  Dy  Dy13  1  0.911672  0.290705  0.621430  1
  Dy  Dy14  1  0.088328  0.709295  0.621430  1
  Dy  Dy15  1  0.088097  0.290783  0.121128  1
  Er  Er16  1  0.000000  0.000000  0.499411  1
  Er  Er17  1  0.000000  0.000000  0.999312  1
  Er  Er18  1  0.500000  0.500000  0.999312  1
  Er  Er19  1  0.500000  0.500000  0.499411  1
  Ir  Ir20  1  0.848174  0.153238  0.250217  1
  Ir  Ir21  1  0.848160  0.847067  0.749843  1
  Ir  Ir22  1  0.151840  0.152933  0.749843  1
  Ir  Ir23  1  0.151826  0.846762  0.250217  1
  Ir  Ir24  1  0.652933  0.348160  0.749843  1
  Ir  Ir25  1  0.653238  0.651826  0.250217  1
  Ir  Ir26  1  0.346762  0.348174  0.250217  1
  Ir  Ir27  1  0.347067  0.651840  0.749843  1
  Ir  Ir28  1  0.500000  0.000000  0.624114  1
  Ir  Ir29  1  0.000000  0.500000  0.876840  1
  Ir  Ir30  1  0.000000  0.500000  0.377178  1
  Os  Os31  1  0.500000  0.000000  0.125781  1
