# generated using pymatgen
data_Ca4Tb3Dy(BO4)4
_symmetry_space_group_name_H-M   'P 1'
_cell_length_a   3.62568100
_cell_length_b   9.70280744
_cell_length_c   10.54709248
_cell_angle_alpha   89.96540925
_cell_angle_beta   90.00000000
_cell_angle_gamma   90.00000000
_symmetry_Int_Tables_number   1
_chemical_formula_structural   Ca4Tb3Dy(BO4)4
_chemical_formula_sum   'Ca4 Tb3 Dy1 B4 O16'
_cell_volume   371.03910034
_cell_formula_units_Z   1
loop_
 _symmetry_equiv_pos_site_id
 _symmetry_equiv_pos_as_xyz
  1  'x, y, z'
loop_
 _atom_site_type_symbol
 _atom_site_label
 _atom_site_symmetry_multiplicity
 _atom_site_fract_x
 _atom_site_fract_y
 _atom_site_fract_z
 _atom_site_occupancy
  Ca  Ca0  1  0.250000  0.671254  0.083523  1
  Ca  Ca1  1  0.750000  0.328802  0.916275  1
  Ca  Ca2  1  0.750000  0.171407  0.416612  1
  Ca  Ca3  1  0.250000  0.828648  0.583600  1
  Tb  Tb4  1  0.250000  0.088140  0.112580  1
  Tb  Tb5  1  0.750000  0.911840  0.887374  1
  Tb  Tb6  1  0.750000  0.587993  0.387648  1
  Dy  Dy7  1  0.250000  0.411964  0.612289  1
  B  B8  1  0.250000  0.368041  0.199786  1
  B  B9  1  0.750000  0.631776  0.800027  1
  B  B10  1  0.750000  0.868035  0.300178  1
  B  B11  1  0.250000  0.132149  0.699697  1
  O  O12  1  0.250000  0.500070  0.250264  1
  O  O13  1  0.750000  0.499770  0.749397  1
  O  O14  1  0.750000  0.000102  0.249766  1
  O  O15  1  0.250000  0.000099  0.750238  1
  O  O16  1  0.250000  0.250525  0.276713  1
  O  O17  1  0.750000  0.749475  0.723321  1
  O  O18  1  0.750000  0.750497  0.223357  1
  O  O19  1  0.250000  0.250049  0.776146  1
  O  O20  1  0.250000  0.349475  0.068019  1
  O  O21  1  0.750000  0.650411  0.931845  1
  O  O22  1  0.750000  0.849368  0.431975  1
  O  O23  1  0.250000  0.150700  0.567947  1
  O  O24  1  0.250000  0.613529  0.506773  1
  O  O25  1  0.750000  0.385845  0.494645  1
  O  O26  1  0.750000  0.114216  0.993628  1
  O  O27  1  0.250000  0.885819  0.006377  1
