# generated using pymatgen
data_Hf3SiMo(AsRu)2
_symmetry_space_group_name_H-M   'P 1'
_cell_length_a   7.69656980
_cell_length_b   7.69657146
_cell_length_c   7.69657041
_cell_angle_alpha   126.61982667
_cell_angle_beta   123.43684203
_cell_angle_gamma   81.51675713
_symmetry_Int_Tables_number   1
_chemical_formula_structural   Hf3SiMo(AsRu)2
_chemical_formula_sum   'Hf6 Si2 Mo2 As4 Ru4'
_cell_volume   293.98285408
_cell_formula_units_Z   2
loop_
 _symmetry_equiv_pos_site_id
 _symmetry_equiv_pos_as_xyz
  1  'x, y, z'
loop_
 _atom_site_type_symbol
 _atom_site_label
 _atom_site_symmetry_multiplicity
 _atom_site_fract_x
 _atom_site_fract_y
 _atom_site_fract_z
 _atom_site_occupancy
  Hf  Hf0  1  0.462974  0.687756  0.724783  1
  Hf  Hf1  1  0.537026  0.261809  0.224783  1
  Hf  Hf2  1  0.748588  0.841411  0.592823  1
  Hf  Hf3  1  0.251412  0.844237  0.092823  1
  Hf  Hf4  1  0.057173  0.263504  0.706331  1
  Hf  Hf5  1  0.942827  0.649158  0.206331  1
  Si  Si6  1  0.275133  0.259728  0.484596  1
  Si  Si7  1  0.724867  0.209464  0.984596  1
  Mo  Mo8  1  0.500000  0.495761  0.995761  1
  Mo  Mo9  1  0.000000  0.495761  0.495761  1
  As  As10  1  0.327498  0.589319  0.252977  1
  As  As11  1  0.672502  0.925479  0.261821  1
  As  As12  1  0.163658  0.925479  0.752977  1
  As  As13  1  0.836342  0.589319  0.761821  1
  Ru  Ru14  1  0.094735  0.253608  0.101833  1
  Ru  Ru15  1  0.905265  0.007099  0.158874  1
  Ru  Ru16  1  0.348225  0.007099  0.601833  1
  Ru  Ru17  1  0.651775  0.253608  0.658874  1
