# generated using pymatgen
data_Tb4Ho4Cd2CoPd
_symmetry_space_group_name_H-M   'P 1'
_cell_length_a   9.61278117
_cell_length_b   9.60636350
_cell_length_c   9.61148907
_cell_angle_alpha   59.87226180
_cell_angle_beta   59.99666080
_cell_angle_gamma   59.99790584
_symmetry_Int_Tables_number   1
_chemical_formula_structural   Tb4Ho4Cd2CoPd
_chemical_formula_sum   'Tb8 Ho8 Cd4 Co2 Pd2'
_cell_volume   626.96736566
_cell_formula_units_Z   2
loop_
 _symmetry_equiv_pos_site_id
 _symmetry_equiv_pos_as_xyz
  1  'x, y, z'
loop_
 _atom_site_type_symbol
 _atom_site_label
 _atom_site_symmetry_multiplicity
 _atom_site_fract_x
 _atom_site_fract_y
 _atom_site_fract_z
 _atom_site_occupancy
  Tb  Tb0  1  0.934724  0.937074  0.565485  1
  Tb  Tb1  1  0.810325  0.190562  0.189340  1
  Tb  Tb2  1  0.933839  0.565095  0.566740  1
  Tb  Tb3  1  0.933977  0.564774  0.937613  1
  Tb  Tb4  1  0.821446  0.800908  0.187781  1
  Tb  Tb5  1  0.336238  0.351940  0.352113  1
  Tb  Tb6  1  0.560672  0.938612  0.938927  1
  Tb  Tb7  1  0.562398  0.937085  0.566258  1
  Ho  Ho8  1  0.188179  0.812716  0.812395  1
  Ho  Ho9  1  0.189524  0.187642  0.801885  1
  Ho  Ho10  1  0.344904  0.365757  0.943597  1
  Ho  Ho11  1  0.345451  0.944639  0.365293  1
  Ho  Ho12  1  0.820836  0.188729  0.800584  1
  Ho  Ho13  1  0.562195  0.564510  0.937884  1
  Ho  Ho14  1  0.191026  0.801374  0.187355  1
  Ho  Ho15  1  0.960046  0.350613  0.352537  1
  Cd  Cd16  1  0.581772  0.579157  0.257342  1
  Cd  Cd17  1  0.256297  0.580286  0.580509  1
  Cd  Cd18  1  0.583108  0.580273  0.580539  1
  Cd  Cd19  1  0.581501  0.257683  0.579274  1
  Co  Co20  1  0.142482  0.574562  0.140211  1
  Co  Co21  1  0.141594  0.139979  0.575538  1
  Pd  Pd22  1  0.568263  0.145371  0.137839  1
  Pd  Pd23  1  0.149210  0.140661  0.142965  1
