# generated using pymatgen
data_HoMg2Si(PPd4)5
_symmetry_space_group_name_H-M   'P 1'
_cell_length_a   8.60934210
_cell_length_b   8.61007472
_cell_length_c   8.61007402
_cell_angle_alpha   60.00671835
_cell_angle_beta   60.00280863
_cell_angle_gamma   60.00282152
_symmetry_Int_Tables_number   1
_chemical_formula_structural   HoMg2Si(PPd4)5
_chemical_formula_sum   'Ho1 Mg2 Si1 P5 Pd20'
_cell_volume   451.34568888
_cell_formula_units_Z   1
loop_
 _symmetry_equiv_pos_site_id
 _symmetry_equiv_pos_as_xyz
  1  'x, y, z'
loop_
 _atom_site_type_symbol
 _atom_site_label
 _atom_site_symmetry_multiplicity
 _atom_site_fract_x
 _atom_site_fract_y
 _atom_site_fract_z
 _atom_site_occupancy
  Ho  Ho0  1  0.750222  0.749778  0.749778  1
  Mg  Mg1  1  0.250130  0.249870  0.249870  1
  Mg  Mg2  1  0.999468  0.000532  0.000532  1
  Si  Si3  1  0.734957  0.265043  0.265043  1
  P  P4  1  0.264081  0.735919  0.735919  1
  P  P5  1  0.265224  0.734689  0.264040  1
  P  P6  1  0.736047  0.264040  0.734689  1
  P  P7  1  0.265224  0.264040  0.734689  1
  P  P8  1  0.736047  0.734689  0.264040  1
  Pd  Pd9  1  0.380906  0.382576  0.382576  1
  Pd  Pd10  1  0.615036  0.614871  0.614871  1
  Pd  Pd11  1  0.382288  0.382259  0.853165  1
  Pd  Pd12  1  0.382288  0.853165  0.382259  1
  Pd  Pd13  1  0.614474  0.616637  0.154414  1
  Pd  Pd14  1  0.614474  0.154414  0.616637  1
  Pd  Pd15  1  0.853941  0.382576  0.382576  1
  Pd  Pd16  1  0.155222  0.614871  0.614871  1
  Pd  Pd17  1  0.343260  0.999866  0.999866  1
  Pd  Pd18  1  0.657007  0.999866  0.999866  1
  Pd  Pd19  1  0.999064  0.344164  0.657707  1
  Pd  Pd20  1  0.999064  0.657707  0.344164  1
  Pd  Pd21  1  0.001033  0.344655  0.997968  1
  Pd  Pd22  1  0.656344  0.997968  0.344655  1
  Pd  Pd23  1  0.999319  0.656843  0.999749  1
  Pd  Pd24  1  0.344089  0.999749  0.656843  1
  Pd  Pd25  1  0.001033  0.997968  0.344655  1
  Pd  Pd26  1  0.999319  0.999749  0.656843  1
  Pd  Pd27  1  0.656344  0.344655  0.997968  1
  Pd  Pd28  1  0.344089  0.656843  0.999749  1
