# generated using pymatgen
data_LaSm(FeB)8
_symmetry_space_group_name_H-M   'P 1'
_cell_length_a   7.06836300
_cell_length_b   7.06836300
_cell_length_c   3.81303000
_cell_angle_alpha   90.00000000
_cell_angle_beta   90.00000000
_cell_angle_gamma   90.00000000
_symmetry_Int_Tables_number   1
_chemical_formula_structural   LaSm(FeB)8
_chemical_formula_sum   'La1 Sm1 Fe8 B8'
_cell_volume   190.50567257
_cell_formula_units_Z   1
loop_
 _symmetry_equiv_pos_site_id
 _symmetry_equiv_pos_as_xyz
  1  'x, y, z'
loop_
 _atom_site_type_symbol
 _atom_site_label
 _atom_site_symmetry_multiplicity
 _atom_site_fract_x
 _atom_site_fract_y
 _atom_site_fract_z
 _atom_site_occupancy
  La  La0  1  0.000000  0.000000  0.000000  1
  Sm  Sm1  1  0.500000  0.500000  0.500000  1
  Fe  Fe2  1  0.132966  0.388238  0.893513  1
  Fe  Fe3  1  0.867034  0.611762  0.893513  1
  Fe  Fe4  1  0.886617  0.370031  0.392769  1
  Fe  Fe5  1  0.113383  0.629969  0.392769  1
  Fe  Fe6  1  0.370031  0.113383  0.607231  1
  Fe  Fe7  1  0.629969  0.886617  0.607231  1
  Fe  Fe8  1  0.611762  0.132966  0.106487  1
  Fe  Fe9  1  0.388238  0.867034  0.106487  1
  B  B10  1  0.664084  0.796137  0.106952  1
  B  B11  1  0.335916  0.203863  0.106952  1
  B  B12  1  0.301946  0.832781  0.604599  1
  B  B13  1  0.698054  0.167219  0.604599  1
  B  B14  1  0.832781  0.698054  0.395401  1
  B  B15  1  0.167219  0.301946  0.395401  1
  B  B16  1  0.203863  0.664084  0.893048  1
  B  B17  1  0.796137  0.335916  0.893048  1
