# generated using pymatgen
data_Nd8Y9Tm3Si15Os
_symmetry_space_group_name_H-M   'P 1'
_cell_length_a   7.45697514
_cell_length_b   7.85528786
_cell_length_c   14.74746800
_cell_angle_alpha   90.00000000
_cell_angle_beta   90.00000000
_cell_angle_gamma   90.07601059
_symmetry_Int_Tables_number   1
_chemical_formula_structural   Nd8Y9Tm3Si15Os
_chemical_formula_sum   'Nd8 Y9 Tm3 Si15 Os1'
_cell_volume   863.85704637
_cell_formula_units_Z   1
loop_
 _symmetry_equiv_pos_site_id
 _symmetry_equiv_pos_as_xyz
  1  'x, y, z'
loop_
 _atom_site_type_symbol
 _atom_site_label
 _atom_site_symmetry_multiplicity
 _atom_site_fract_x
 _atom_site_fract_y
 _atom_site_fract_z
 _atom_site_occupancy
  Nd  Nd0  1  0.019761  0.183393  0.097494  1
  Nd  Nd1  1  0.982933  0.827485  0.903209  1
  Nd  Nd2  1  0.480802  0.678966  0.904290  1
  Nd  Nd3  1  0.982933  0.827485  0.596791  1
  Nd  Nd4  1  0.518666  0.320902  0.096859  1
  Nd  Nd5  1  0.019761  0.183393  0.402506  1
  Nd  Nd6  1  0.518666  0.320902  0.403141  1
  Nd  Nd7  1  0.480802  0.678966  0.595710  1
  Y  Y8  1  0.150446  0.510172  0.750000  1
  Y  Y9  1  0.312313  0.173755  0.626538  1
  Y  Y10  1  0.679488  0.824246  0.374695  1
  Y  Y11  1  0.178273  0.679945  0.375101  1
  Y  Y12  1  0.679488  0.824246  0.125305  1
  Y  Y13  1  0.830826  0.313539  0.625996  1
  Y  Y14  1  0.312313  0.173755  0.873462  1
  Y  Y15  1  0.830826  0.313539  0.874004  1
  Y  Y16  1  0.178273  0.679945  0.124899  1
  Tm  Tm17  1  0.843842  0.486600  0.250000  1
  Tm  Tm18  1  0.343887  0.015438  0.250000  1
  Tm  Tm19  1  0.665825  0.988120  0.750000  1
  Si  Si20  1  0.974910  0.893686  0.250000  1
  Si  Si21  1  0.475803  0.607642  0.250000  1
  Si  Si22  1  0.525532  0.394985  0.750000  1
  Si  Si23  1  0.276156  0.871083  0.750000  1
  Si  Si24  1  0.722265  0.128080  0.250000  1
  Si  Si25  1  0.223974  0.373493  0.250000  1
  Si  Si26  1  0.765003  0.620614  0.750000  1
  Si  Si27  1  0.150957  0.473015  0.537357  1
  Si  Si28  1  0.852671  0.531901  0.461063  1
  Si  Si29  1  0.352358  0.969275  0.460027  1
  Si  Si30  1  0.852671  0.531901  0.038937  1
  Si  Si31  1  0.645009  0.029910  0.537897  1
  Si  Si32  1  0.150957  0.473015  0.962643  1
  Si  Si33  1  0.645009  0.029910  0.962103  1
  Si  Si34  1  0.352358  0.969275  0.039973  1
  Os  Os35  1  0.024247  0.097421  0.750000  1
