# generated using pymatgen
data_Cs6TlBi3
_symmetry_space_group_name_H-M   'P 1'
_cell_length_a   6.65080600
_cell_length_b   11.81406947
_cell_length_c   13.85111563
_cell_angle_alpha   78.68951649
_cell_angle_beta   90.00000000
_cell_angle_gamma   90.00000000
_symmetry_Int_Tables_number   1
_chemical_formula_structural   Cs6TlBi3
_chemical_formula_sum   'Cs12 Tl2 Bi6'
_cell_volume   1067.18828705
_cell_formula_units_Z   2
loop_
 _symmetry_equiv_pos_site_id
 _symmetry_equiv_pos_as_xyz
  1  'x, y, z'
loop_
 _atom_site_type_symbol
 _atom_site_label
 _atom_site_symmetry_multiplicity
 _atom_site_fract_x
 _atom_site_fract_y
 _atom_site_fract_z
 _atom_site_occupancy
  Cs  Cs0  1  0.750000  0.453888  0.081893  1
  Cs  Cs1  1  0.250000  0.546112  0.918107  1
  Cs  Cs2  1  0.750000  0.739224  0.232424  1
  Cs  Cs3  1  0.250000  0.260776  0.767576  1
  Cs  Cs4  1  0.250000  0.565303  0.542966  1
  Cs  Cs5  1  0.750000  0.434697  0.457034  1
  Cs  Cs6  1  0.250000  0.863420  0.021395  1
  Cs  Cs7  1  0.750000  0.136580  0.978605  1
  Cs  Cs8  1  0.250000  0.875047  0.677144  1
  Cs  Cs9  1  0.750000  0.124953  0.322856  1
  Cs  Cs10  1  0.250000  0.922152  0.371574  1
  Cs  Cs11  1  0.750000  0.077848  0.628426  1
  Tl  Tl12  1  0.750000  0.678411  0.720052  1
  Tl  Tl13  1  0.250000  0.321589  0.279948  1
  Bi  Bi14  1  0.250000  0.210028  0.493671  1
  Bi  Bi15  1  0.750000  0.789972  0.506329  1
  Bi  Bi16  1  0.250000  0.575909  0.224431  1
  Bi  Bi17  1  0.750000  0.424091  0.775569  1
  Bi  Bi18  1  0.750000  0.828155  0.875650  1
  Bi  Bi19  1  0.250000  0.171845  0.124350  1
