# generated using pymatgen
data_PrSmDyRuBr3
_symmetry_space_group_name_H-M   'P 1'
_cell_length_a   4.23378500
_cell_length_b   8.63613379
_cell_length_c   12.07605898
_cell_angle_alpha   84.92387659
_cell_angle_beta   90.00000000
_cell_angle_gamma   90.00000000
_symmetry_Int_Tables_number   1
_chemical_formula_structural   PrSmDyRuBr3
_chemical_formula_sum   'Pr2 Sm2 Dy2 Ru2 Br6'
_cell_volume   439.81166677
_cell_formula_units_Z   2
loop_
 _symmetry_equiv_pos_site_id
 _symmetry_equiv_pos_as_xyz
  1  'x, y, z'
loop_
 _atom_site_type_symbol
 _atom_site_label
 _atom_site_symmetry_multiplicity
 _atom_site_fract_x
 _atom_site_fract_y
 _atom_site_fract_z
 _atom_site_occupancy
  Pr  Pr0  1  0.250000  0.880545  0.828161  1
  Pr  Pr1  1  0.750000  0.119455  0.171839  1
  Sm  Sm2  1  0.250000  0.285437  0.398925  1
  Sm  Sm3  1  0.750000  0.714563  0.601075  1
  Dy  Dy4  1  0.250000  0.873649  0.372608  1
  Dy  Dy5  1  0.750000  0.126351  0.627392  1
  Ru  Ru6  1  0.250000  0.936392  0.594664  1
  Ru  Ru7  1  0.750000  0.063608  0.405336  1
  Br  Br8  1  0.250000  0.417524  0.628701  1
  Br  Br9  1  0.750000  0.582476  0.371299  1
  Br  Br10  1  0.250000  0.876467  0.113961  1
  Br  Br11  1  0.750000  0.123533  0.886039  1
  Br  Br12  1  0.250000  0.368883  0.145853  1
  Br  Br13  1  0.750000  0.631117  0.854147  1
