# generated using pymatgen
data_Pr3ErSb10
_symmetry_space_group_name_H-M   'P 1'
_cell_length_a   4.30363000
_cell_length_b   13.51367073
_cell_length_c   15.10713849
_cell_angle_alpha   77.90285955
_cell_angle_beta   90.00000000
_cell_angle_gamma   90.00000000
_symmetry_Int_Tables_number   1
_chemical_formula_structural   Pr3ErSb10
_chemical_formula_sum   'Pr6 Er2 Sb20'
_cell_volume   859.08810000
_cell_formula_units_Z   2
loop_
 _symmetry_equiv_pos_site_id
 _symmetry_equiv_pos_as_xyz
  1  'x, y, z'
loop_
 _atom_site_type_symbol
 _atom_site_label
 _atom_site_symmetry_multiplicity
 _atom_site_fract_x
 _atom_site_fract_y
 _atom_site_fract_z
 _atom_site_occupancy
  Pr  Pr0  1  0.750000  0.334284  0.143183  1
  Pr  Pr1  1  0.250000  0.947688  0.362120  1
  Pr  Pr2  1  0.250000  0.665716  0.856817  1
  Pr  Pr3  1  0.250000  0.667722  0.576445  1
  Pr  Pr4  1  0.750000  0.052312  0.637880  1
  Pr  Pr5  1  0.750000  0.332278  0.423555  1
  Er  Er6  1  0.250000  0.397819  0.772516  1
  Er  Er7  1  0.750000  0.602181  0.227484  1
  Sb  Sb8  1  0.750000  0.853493  0.818294  1
  Sb  Sb9  1  0.250000  0.863266  0.674615  1
  Sb  Sb10  1  0.250000  0.143716  0.477123  1
  Sb  Sb11  1  0.750000  0.285784  0.933775  1
  Sb  Sb12  1  0.250000  0.148694  0.781522  1
  Sb  Sb13  1  0.750000  0.575447  0.440312  1
  Sb  Sb14  1  0.750000  0.136734  0.325385  1
  Sb  Sb15  1  0.250000  0.703711  0.350330  1
  Sb  Sb16  1  0.750000  0.296289  0.649670  1
  Sb  Sb17  1  0.750000  0.851306  0.218478  1
  Sb  Sb18  1  0.250000  0.419612  0.971900  1
  Sb  Sb19  1  0.250000  0.424553  0.559688  1
  Sb  Sb20  1  0.750000  0.571298  0.737093  1
  Sb  Sb21  1  0.250000  0.428702  0.262907  1
  Sb  Sb22  1  0.750000  0.856284  0.522877  1
  Sb  Sb23  1  0.750000  0.033904  0.889792  1
  Sb  Sb24  1  0.250000  0.714216  0.066225  1
  Sb  Sb25  1  0.250000  0.966096  0.110208  1
  Sb  Sb26  1  0.250000  0.146507  0.181706  1
  Sb  Sb27  1  0.750000  0.580388  0.028100  1
