# generated using pymatgen
data_Dy5HoEr4(In2Pt)4
_symmetry_space_group_name_H-M   'P 1'
_cell_length_a   3.61300900
_cell_length_b   8.15901327
_cell_length_c   18.21970860
_cell_angle_alpha   90.02944248
_cell_angle_beta   90.00000000
_cell_angle_gamma   90.00000000
_symmetry_Int_Tables_number   1
_chemical_formula_structural   Dy5HoEr4(In2Pt)4
_chemical_formula_sum   'Dy5 Ho1 Er4 In8 Pt4'
_cell_volume   537.09121923
_cell_formula_units_Z   1
loop_
 _symmetry_equiv_pos_site_id
 _symmetry_equiv_pos_as_xyz
  1  'x, y, z'
loop_
 _atom_site_type_symbol
 _atom_site_label
 _atom_site_symmetry_multiplicity
 _atom_site_fract_x
 _atom_site_fract_y
 _atom_site_fract_z
 _atom_site_occupancy
  Dy  Dy0  1  0.000000  0.242851  0.220027  1
  Dy  Dy1  1  0.000000  0.757165  0.779979  1
  Dy  Dy2  1  0.000000  0.257173  0.720031  1
  Dy  Dy3  1  0.000000  0.000011  0.000016  1
  Dy  Dy4  1  0.000000  0.499992  0.499994  1
  Ho  Ho5  1  0.000000  0.742942  0.279878  1
  Er  Er6  1  0.000000  0.116743  0.414429  1
  Er  Er7  1  0.000000  0.883192  0.585535  1
  Er  Er8  1  0.000000  0.383143  0.914435  1
  Er  Er9  1  0.000000  0.616858  0.085601  1
  In  In10  1  0.500000  0.422936  0.351082  1
  In  In11  1  0.500000  0.577215  0.648878  1
  In  In12  1  0.500000  0.077218  0.851122  1
  In  In13  1  0.500000  0.922696  0.148966  1
  In  In14  1  0.500000  0.293356  0.066336  1
  In  In15  1  0.500000  0.706683  0.933674  1
  In  In16  1  0.500000  0.206680  0.566326  1
  In  In17  1  0.500000  0.793271  0.433578  1
  Pt  Pt18  1  0.500000  0.024439  0.303816  1
  Pt  Pt19  1  0.500000  0.975024  0.696143  1
  Pt  Pt20  1  0.500000  0.475040  0.803869  1
  Pt  Pt21  1  0.500000  0.525371  0.196285  1
