# generated using pymatgen
data_Ta8Si6BW2
_symmetry_space_group_name_H-M   'P 1'
_cell_length_a   7.53449200
_cell_length_b   7.53449295
_cell_length_c   5.24600100
_cell_angle_alpha   90.00000000
_cell_angle_beta   90.00000000
_cell_angle_gamma   120.00000460
_symmetry_Int_Tables_number   1
_chemical_formula_structural   Ta8Si6BW2
_chemical_formula_sum   'Ta8 Si6 B1 W2'
_cell_volume   257.90929111
_cell_formula_units_Z   1
loop_
 _symmetry_equiv_pos_site_id
 _symmetry_equiv_pos_as_xyz
  1  'x, y, z'
loop_
 _atom_site_type_symbol
 _atom_site_label
 _atom_site_symmetry_multiplicity
 _atom_site_fract_x
 _atom_site_fract_y
 _atom_site_fract_z
 _atom_site_occupancy
  Ta  Ta0  1  0.000000  0.754824  0.252701  1
  Ta  Ta1  1  0.245176  0.245176  0.252701  1
  Ta  Ta2  1  0.754824  0.000000  0.252701  1
  Ta  Ta3  1  0.000000  0.245176  0.747299  1
  Ta  Ta4  1  0.754824  0.754824  0.747299  1
  Ta  Ta5  1  0.245176  0.000000  0.747299  1
  Ta  Ta6  1  0.333333  0.666667  0.500000  1
  Ta  Ta7  1  0.666667  0.333333  0.500000  1
  Si  Si8  1  0.000000  0.398883  0.233916  1
  Si  Si9  1  0.601117  0.601117  0.233916  1
  Si  Si10  1  0.398883  0.000000  0.233916  1
  Si  Si11  1  0.000000  0.601117  0.766084  1
  Si  Si12  1  0.398883  0.398883  0.766084  1
  Si  Si13  1  0.601117  0.000000  0.766084  1
  B  B14  1  0.000000  0.000000  0.500000  1
  W  W15  1  0.666667  0.333333  0.000000  1
  W  W16  1  0.333333  0.666667  0.000000  1
