# generated using pymatgen
data_DyY15Cd3AgIr4
_symmetry_space_group_name_H-M   'P 1'
_cell_length_a   9.67188023
_cell_length_b   9.67188012
_cell_length_c   9.67187989
_cell_angle_alpha   59.84512018
_cell_angle_beta   59.84511806
_cell_angle_gamma   59.84512720
_symmetry_Int_Tables_number   1
_chemical_formula_structural   DyY15Cd3AgIr4
_chemical_formula_sum   'Dy1 Y15 Cd3 Ag1 Ir4'
_cell_volume   637.51224182
_cell_formula_units_Z   1
loop_
 _symmetry_equiv_pos_site_id
 _symmetry_equiv_pos_as_xyz
  1  'x, y, z'
loop_
 _atom_site_type_symbol
 _atom_site_label
 _atom_site_symmetry_multiplicity
 _atom_site_fract_x
 _atom_site_fract_y
 _atom_site_fract_z
 _atom_site_occupancy
  Dy  Dy0  1  0.348920  0.348920  0.348920  1
  Y  Y1  1  0.349985  0.349985  0.952171  1
  Y  Y2  1  0.349985  0.952171  0.349985  1
  Y  Y3  1  0.952171  0.349985  0.349985  1
  Y  Y4  1  0.809453  0.189750  0.189750  1
  Y  Y5  1  0.187640  0.809808  0.809808  1
  Y  Y6  1  0.189750  0.809453  0.189750  1
  Y  Y7  1  0.809808  0.187640  0.809808  1
  Y  Y8  1  0.189750  0.189750  0.809453  1
  Y  Y9  1  0.809808  0.809808  0.187640  1
  Y  Y10  1  0.936848  0.561208  0.561208  1
  Y  Y11  1  0.562000  0.936405  0.936405  1
  Y  Y12  1  0.561208  0.936848  0.561208  1
  Y  Y13  1  0.936405  0.562000  0.936405  1
  Y  Y14  1  0.561208  0.561208  0.936848  1
  Y  Y15  1  0.936405  0.936405  0.562000  1
  Cd  Cd16  1  0.581234  0.581234  0.259173  1
  Cd  Cd17  1  0.581234  0.259173  0.581234  1
  Cd  Cd18  1  0.259173  0.581234  0.581234  1
  Ag  Ag19  1  0.582773  0.582773  0.582773  1
  Ir  Ir20  1  0.141531  0.141531  0.141531  1
  Ir  Ir21  1  0.143597  0.143597  0.575517  1
  Ir  Ir22  1  0.143597  0.575517  0.143597  1
  Ir  Ir23  1  0.575517  0.143597  0.143597  1
