# generated using pymatgen
data_K3CuS13
_symmetry_space_group_name_H-M   'P 1'
_cell_length_a   4.88714300
_cell_length_b   13.12810176
_cell_length_c   14.57386468
_cell_angle_alpha   86.79181530
_cell_angle_beta   90.00000000
_cell_angle_gamma   90.00000000
_symmetry_Int_Tables_number   1
_chemical_formula_structural   K3CuS13
_chemical_formula_sum   'K6 Cu2 S26'
_cell_volume   933.57786270
_cell_formula_units_Z   2
loop_
 _symmetry_equiv_pos_site_id
 _symmetry_equiv_pos_as_xyz
  1  'x, y, z'
loop_
 _atom_site_type_symbol
 _atom_site_label
 _atom_site_symmetry_multiplicity
 _atom_site_fract_x
 _atom_site_fract_y
 _atom_site_fract_z
 _atom_site_occupancy
  K  K0  1  0.227721  0.178426  0.708861  1
  K  K1  1  0.227721  0.321574  0.291139  1
  K  K2  1  0.178474  0.250000  0.000000  1
  K  K3  1  0.821526  0.750000  0.000000  1
  K  K4  1  0.772279  0.821574  0.291139  1
  K  K5  1  0.772279  0.678426  0.708861  1
  Cu  Cu6  1  0.000000  0.500000  0.500000  1
  Cu  Cu7  1  0.000000  0.000000  0.500000  1
  S  S8  1  0.266358  0.545606  0.618920  1
  S  S9  1  0.671413  0.562752  0.276860  1
  S  S10  1  0.328587  0.062752  0.276860  1
  S  S11  1  0.328587  0.437248  0.723140  1
  S  S12  1  0.914500  0.524668  0.162993  1
  S  S13  1  0.914500  0.975332  0.837007  1
  S  S14  1  0.085500  0.475332  0.837007  1
  S  S15  1  0.085500  0.024668  0.162993  1
  S  S16  1  0.684666  0.426230  0.088893  1
  S  S17  1  0.671413  0.937248  0.723140  1
  S  S18  1  0.315334  0.573770  0.911107  1
  S  S19  1  0.315334  0.926230  0.088893  1
  S  S20  1  0.703546  0.279803  0.146343  1
  S  S21  1  0.703546  0.220197  0.853657  1
  S  S22  1  0.296454  0.720197  0.853657  1
  S  S23  1  0.296454  0.779803  0.146343  1
  S  S24  1  0.085444  0.653683  0.426816  1
  S  S25  1  0.085444  0.846317  0.573184  1
  S  S26  1  0.914556  0.346317  0.573184  1
  S  S27  1  0.914556  0.153683  0.426816  1
  S  S28  1  0.674069  0.250000  0.500000  1
  S  S29  1  0.325931  0.750000  0.500000  1
  S  S30  1  0.733642  0.454394  0.381080  1
  S  S31  1  0.733642  0.045606  0.618920  1
  S  S32  1  0.684666  0.073770  0.911107  1
  S  S33  1  0.266358  0.954394  0.381080  1
