# generated using pymatgen
data_Sc4As10PbO22
_symmetry_space_group_name_H-M   'P 1'
_cell_length_a   10.57744354
_cell_length_b   10.27360494
_cell_length_c   12.38074400
_cell_angle_alpha   65.37013389
_cell_angle_beta   97.26013759
_cell_angle_gamma   99.47307339
_symmetry_Int_Tables_number   1
_chemical_formula_structural   Sc4As10PbO22
_chemical_formula_sum   'Sc8 As20 Pb2 O44'
_cell_volume   1203.80554223
_cell_formula_units_Z   2
loop_
 _symmetry_equiv_pos_site_id
 _symmetry_equiv_pos_as_xyz
  1  'x, y, z'
loop_
 _atom_site_type_symbol
 _atom_site_label
 _atom_site_symmetry_multiplicity
 _atom_site_fract_x
 _atom_site_fract_y
 _atom_site_fract_z
 _atom_site_occupancy
  Sc  Sc0  1  0.515618  0.208671  0.263023  1
  Sc  Sc1  1  0.484382  0.791329  0.736977  1
  Sc  Sc2  1  0.749275  0.668869  0.836194  1
  Sc  Sc3  1  0.250725  0.331131  0.163806  1
  Sc  Sc4  1  0.981085  0.242119  0.276492  1
  Sc  Sc5  1  0.018915  0.757881  0.723508  1
  Sc  Sc6  1  0.747818  0.398837  0.093332  1
  Sc  Sc7  1  0.252182  0.601163  0.906668  1
  As  As8  1  0.832288  0.458993  0.695251  1
  As  As9  1  0.167712  0.541007  0.304749  1
  As  As10  1  0.762601  0.373085  0.381755  1
  As  As11  1  0.237399  0.626915  0.618245  1
  As  As12  1  0.564262  0.594168  0.600220  1
  As  As13  1  0.435738  0.405832  0.399780  1
  As  As14  1  0.512396  0.598414  0.123617  1
  As  As15  1  0.487604  0.401586  0.876383  1
  As  As16  1  0.964112  0.714414  0.471158  1
  As  As17  1  0.035888  0.285586  0.528842  1
  As  As18  1  0.545344  0.138066  0.676429  1
  As  As19  1  0.454656  0.861934  0.323571  1
  As  As20  1  0.943383  0.992743  0.825888  1
  As  As21  1  0.056617  0.007257  0.174112  1
  As  As22  1  0.663541  0.926770  0.930747  1
  As  As23  1  0.336459  0.073230  0.069253  1
  As  As24  1  0.993863  0.315745  0.963355  1
  As  As25  1  0.006137  0.684255  0.036645  1
  As  As26  1  0.729952  0.024032  0.213099  1
  As  As27  1  0.270048  0.975968  0.786901  1
  Pb  Pb28  1  0.753756  0.995393  0.511707  1
  Pb  Pb29  1  0.246244  0.004607  0.488293  1
  O  O30  1  0.867530  0.582199  0.768338  1
  O  O31  1  0.132470  0.417801  0.231662  1
  O  O32  1  0.652353  0.186481  0.166494  1
  O  O33  1  0.347647  0.813519  0.833506  1
  O  O34  1  0.848510  0.603722  0.003573  1
  O  O35  1  0.151490  0.396278  0.996427  1
  O  O36  1  0.631766  0.786864  0.874045  1
  O  O37  1  0.368234  0.213136  0.125955  1
  O  O38  1  0.883113  0.857449  0.765672  1
  O  O39  1  0.116887  0.142551  0.234328  1
  O  O40  1  0.909446  0.303259  0.086069  1
  O  O41  1  0.090554  0.696741  0.913931  1
  O  O42  1  0.588786  0.438356  0.161715  1
  O  O43  1  0.411214  0.561644  0.838285  1
  O  O44  1  0.646801  0.462927  0.924152  1
  O  O45  1  0.353199  0.537073  0.075848  1
  O  O46  1  0.622341  0.707393  0.681082  1
  O  O47  1  0.377659  0.292607  0.318918  1
  O  O48  1  0.792523  0.045314  0.835158  1
  O  O49  1  0.207477  0.954686  0.164842  1
  O  O50  1  0.850027  0.058608  0.315867  1
  O  O51  1  0.149973  0.941392  0.684133  1
  O  O52  1  0.569102  0.995228  0.639623  1
  O  O53  1  0.430898  0.004772  0.360377  1
  O  O54  1  0.715232  0.555460  0.575642  1
  O  O55  1  0.284768  0.444540  0.424358  1
  O  O56  1  0.632434  0.897469  0.339923  1
  O  O57  1  0.367566  0.102531  0.660077  1
  O  O58  1  0.947133  0.818723  0.550415  1
  O  O59  1  0.052867  0.181277  0.449585  1
  O  O60  1  0.959772  0.529754  0.594552  1
  O  O61  1  0.040228  0.470246  0.405448  1
  O  O62  1  0.545324  0.044269  0.842411  1
  O  O63  1  0.454676  0.955731  0.157589  1
  O  O64  1  0.521488  0.425130  0.727305  1
  O  O65  1  0.478512  0.574870  0.272695  1
  O  O66  1  0.843565  0.373628  0.260444  1
  O  O67  1  0.156434  0.626372  0.739556  1
  O  O68  1  0.857914  0.255527  0.514628  1
  O  O69  1  0.142086  0.744473  0.485372  1
  O  O70  1  0.645497  0.219388  0.398882  1
  O  O71  1  0.354503  0.780612  0.601118  1
  O  O72  1  0.967585  0.868368  0.981600  1
  O  O73  1  0.032415  0.131632  0.018400  1
