# generated using pymatgen
data_LuCr(BrO3)6
_symmetry_space_group_name_H-M   'P 1'
_cell_length_a   9.38978200
_cell_length_b   9.38978069
_cell_length_c   5.73186200
_cell_angle_alpha   90.00000000
_cell_angle_beta   90.00000000
_cell_angle_gamma   119.99998920
_symmetry_Int_Tables_number   1
_chemical_formula_structural   LuCr(BrO3)6
_chemical_formula_sum   'Lu1 Cr1 Br6 O18'
_cell_volume   437.66051114
_cell_formula_units_Z   1
loop_
 _symmetry_equiv_pos_site_id
 _symmetry_equiv_pos_as_xyz
  1  'x, y, z'
loop_
 _atom_site_type_symbol
 _atom_site_label
 _atom_site_symmetry_multiplicity
 _atom_site_fract_x
 _atom_site_fract_y
 _atom_site_fract_z
 _atom_site_occupancy
  Lu  Lu0  1  0.333333  0.666667  0.186816  1
  Cr  Cr1  1  0.666667  0.333333  0.695249  1
  Br  Br2  1  0.686638  0.034130  0.372073  1
  Br  Br3  1  0.332292  0.994337  0.854066  1
  Br  Br4  1  0.005663  0.337954  0.854066  1
  Br  Br5  1  0.347491  0.313362  0.372073  1
  Br  Br6  1  0.965870  0.652509  0.372073  1
  Br  Br7  1  0.662046  0.667708  0.854066  1
  O  O8  1  0.777804  0.814817  0.035619  1
  O  O9  1  0.934245  0.770905  0.548314  1
  O  O10  1  0.836660  0.065755  0.548314  1
  O  O11  1  0.185183  0.962987  0.035619  1
  O  O12  1  0.037013  0.222196  0.035619  1
  O  O13  1  0.229095  0.163340  0.548314  1
  O  O14  1  0.716059  0.519879  0.916858  1
  O  O15  1  0.167419  0.707156  0.418691  1
  O  O16  1  0.544325  0.413953  0.491648  1
  O  O17  1  0.112607  0.533967  0.967844  1
  O  O18  1  0.421360  0.887393  0.967844  1
  O  O19  1  0.586047  0.130372  0.491648  1
  O  O20  1  0.869628  0.455675  0.491648  1
  O  O21  1  0.466033  0.578640  0.967844  1
  O  O22  1  0.292844  0.460264  0.418691  1
  O  O23  1  0.803821  0.283941  0.916858  1
  O  O24  1  0.480121  0.196179  0.916858  1
  O  O25  1  0.539736  0.832581  0.418691  1
