# generated using pymatgen
data_Na4Ti7VSe16
_symmetry_space_group_name_H-M   'P 1'
_cell_length_a   6.22514761
_cell_length_b   7.21540871
_cell_length_c   14.99968803
_cell_angle_alpha   89.94936401
_cell_angle_beta   90.05147841
_cell_angle_gamma   90.00527766
_symmetry_Int_Tables_number   1
_chemical_formula_structural   Na4Ti7VSe16
_chemical_formula_sum   'Na4 Ti7 V1 Se16'
_cell_volume   673.74021424
_cell_formula_units_Z   1
loop_
 _symmetry_equiv_pos_site_id
 _symmetry_equiv_pos_as_xyz
  1  'x, y, z'
loop_
 _atom_site_type_symbol
 _atom_site_label
 _atom_site_symmetry_multiplicity
 _atom_site_fract_x
 _atom_site_fract_y
 _atom_site_fract_z
 _atom_site_occupancy
  Na  Na0  1  0.337857  0.999472  0.000985  1
  Na  Na1  1  0.662143  0.500528  0.499015  1
  Na  Na2  1  0.020181  0.000070  0.498683  1
  Na  Na3  1  0.979819  0.499930  0.001317  1
  Ti  Ti4  1  0.997520  0.007825  0.249561  1
  Ti  Ti5  1  0.999038  0.999942  0.750320  1
  Ti  Ti6  1  0.002480  0.492175  0.250439  1
  Ti  Ti7  1  0.000962  0.500058  0.749680  1
  Ti  Ti8  1  0.500000  0.750000  0.750000  1
  Ti  Ti9  1  0.500000  0.750000  0.250000  1
  Ti  Ti10  1  0.500000  0.250000  0.750000  1
  V  V11  1  0.500000  0.250000  0.250000  1
  Se  Se12  1  0.831443  0.249883  0.353906  1
  Se  Se13  1  0.833222  0.750026  0.646766  1
  Se  Se14  1  0.165586  0.750299  0.149010  1
  Se  Se15  1  0.166632  0.249836  0.853152  1
  Se  Se16  1  0.168557  0.250117  0.146094  1
  Se  Se17  1  0.166778  0.749974  0.853234  1
  Se  Se18  1  0.834414  0.749701  0.350990  1
  Se  Se19  1  0.833368  0.250164  0.646848  1
  Se  Se20  1  0.667424  0.000956  0.148185  1
  Se  Se21  1  0.668808  0.999801  0.852546  1
  Se  Se22  1  0.332576  0.499044  0.351815  1
  Se  Se23  1  0.331192  0.500199  0.647454  1
  Se  Se24  1  0.336262  0.000720  0.350388  1
  Se  Se25  1  0.335127  0.000074  0.648190  1
  Se  Se26  1  0.663738  0.499280  0.149612  1
  Se  Se27  1  0.664873  0.499926  0.851810  1
