# generated using pymatgen
data_Zr2(CuIr)3
_symmetry_space_group_name_H-M   'P 1'
_cell_length_a   5.66254200
_cell_length_b   5.66254317
_cell_length_c   4.44437300
_cell_angle_alpha   90.00000000
_cell_angle_beta   90.00000000
_cell_angle_gamma   120.00000483
_symmetry_Int_Tables_number   1
_chemical_formula_structural   Zr2(CuIr)3
_chemical_formula_sum   'Zr2 Cu3 Ir3'
_cell_volume   123.41389915
_cell_formula_units_Z   1
loop_
 _symmetry_equiv_pos_site_id
 _symmetry_equiv_pos_as_xyz
  1  'x, y, z'
loop_
 _atom_site_type_symbol
 _atom_site_label
 _atom_site_symmetry_multiplicity
 _atom_site_fract_x
 _atom_site_fract_y
 _atom_site_fract_z
 _atom_site_occupancy
  Zr  Zr0  1  0.333333  0.666666  0.750000  1
  Zr  Zr1  1  0.666667  0.333333  0.250000  1
  Cu  Cu2  1  0.151538  0.303076  0.250000  1
  Cu  Cu3  1  0.696924  0.848462  0.250000  1
  Cu  Cu4  1  0.151539  0.848462  0.250000  1
  Ir  Ir5  1  0.840259  0.680518  0.750000  1
  Ir  Ir6  1  0.319483  0.159741  0.750000  1
  Ir  Ir7  1  0.840257  0.159741  0.750000  1
