# generated using pymatgen
data_Hf16NbPt7
_symmetry_space_group_name_H-M   'P 1'
_cell_length_a   8.88979372
_cell_length_b   8.88979436
_cell_length_c   8.88979418
_cell_angle_alpha   59.74399186
_cell_angle_beta   59.74399738
_cell_angle_gamma   59.74399694
_symmetry_Int_Tables_number   1
_chemical_formula_structural   Hf16NbPt7
_chemical_formula_sum   'Hf16 Nb1 Pt7'
_cell_volume   493.88740481
_cell_formula_units_Z   1
loop_
 _symmetry_equiv_pos_site_id
 _symmetry_equiv_pos_as_xyz
  1  'x, y, z'
loop_
 _atom_site_type_symbol
 _atom_site_label
 _atom_site_symmetry_multiplicity
 _atom_site_fract_x
 _atom_site_fract_y
 _atom_site_fract_z
 _atom_site_occupancy
  Hf  Hf0  1  0.161062  0.610372  0.610372  1
  Hf  Hf1  1  0.610372  0.161062  0.610372  1
  Hf  Hf2  1  0.610372  0.610372  0.161062  1
  Hf  Hf3  1  0.629148  0.629148  0.629148  1
  Hf  Hf4  1  0.814007  0.814007  0.174809  1
  Hf  Hf5  1  0.182022  0.182022  0.815485  1
  Hf  Hf6  1  0.814007  0.174809  0.814007  1
  Hf  Hf7  1  0.182022  0.815485  0.182022  1
  Hf  Hf8  1  0.174809  0.814007  0.814007  1
  Hf  Hf9  1  0.815485  0.182022  0.182022  1
  Hf  Hf10  1  0.439910  0.439910  0.057701  1
  Hf  Hf11  1  0.052533  0.052533  0.451929  1
  Hf  Hf12  1  0.439910  0.057701  0.439910  1
  Hf  Hf13  1  0.052533  0.451929  0.052533  1
  Hf  Hf14  1  0.057701  0.439910  0.439910  1
  Hf  Hf15  1  0.451929  0.052533  0.052533  1
  Nb  Nb16  1  0.830852  0.830852  0.830852  1
  Pt  Pt17  1  0.799258  0.407077  0.407077  1
  Pt  Pt18  1  0.407077  0.799258  0.407077  1
  Pt  Pt19  1  0.407077  0.407077  0.799258  1
  Pt  Pt20  1  0.395056  0.395056  0.395056  1
  Pt  Pt21  1  0.468712  0.852070  0.852070  1
  Pt  Pt22  1  0.852070  0.468712  0.852070  1
  Pt  Pt23  1  0.852070  0.852070  0.468712  1
