# generated using pymatgen
data_ErZr(Ni2P)4
_symmetry_space_group_name_H-M   'P 1'
_cell_length_a   6.99715999
_cell_length_b   6.99715999
_cell_length_c   3.57790700
_cell_angle_alpha   90.00000000
_cell_angle_beta   90.00000000
_cell_angle_gamma   90.65122962
_symmetry_Int_Tables_number   1
_chemical_formula_structural   ErZr(Ni2P)4
_chemical_formula_sum   'Er1 Zr1 Ni8 P4'
_cell_volume   175.16389878
_cell_formula_units_Z   1
loop_
 _symmetry_equiv_pos_site_id
 _symmetry_equiv_pos_as_xyz
  1  'x, y, z'
loop_
 _atom_site_type_symbol
 _atom_site_label
 _atom_site_symmetry_multiplicity
 _atom_site_fract_x
 _atom_site_fract_y
 _atom_site_fract_z
 _atom_site_occupancy
  Er  Er0  1  0.000000  0.000000  0.500000  1
  Zr  Zr1  1  0.500000  0.500000  0.000000  1
  Ni  Ni2  1  0.334662  0.084740  0.000000  1
  Ni  Ni3  1  0.584014  0.164693  0.500000  1
  Ni  Ni4  1  0.415986  0.835307  0.500000  1
  Ni  Ni5  1  0.665338  0.915260  0.000000  1
  Ni  Ni6  1  0.164693  0.584014  0.500000  1
  Ni  Ni7  1  0.835307  0.415986  0.500000  1
  Ni  Ni8  1  0.084740  0.334662  0.000000  1
  Ni  Ni9  1  0.915260  0.665338  0.000000  1
  P  P10  1  0.773520  0.226480  0.000000  1
  P  P11  1  0.714071  0.714071  0.500000  1
  P  P12  1  0.285929  0.285929  0.500000  1
  P  P13  1  0.226480  0.773520  0.000000  1
