# generated using pymatgen
data_Nd4Cd2IrAu3
_symmetry_space_group_name_H-M   'P 1'
_cell_length_a   3.89953100
_cell_length_b   8.05663092
_cell_length_c   8.05663092
_cell_angle_alpha   90.22056023
_cell_angle_beta   90.00000000
_cell_angle_gamma   90.00000000
_symmetry_Int_Tables_number   1
_chemical_formula_structural   Nd4Cd2IrAu3
_chemical_formula_sum   'Nd4 Cd2 Ir1 Au3'
_cell_volume   253.11395929
_cell_formula_units_Z   1
loop_
 _symmetry_equiv_pos_site_id
 _symmetry_equiv_pos_as_xyz
  1  'x, y, z'
loop_
 _atom_site_type_symbol
 _atom_site_label
 _atom_site_symmetry_multiplicity
 _atom_site_fract_x
 _atom_site_fract_y
 _atom_site_fract_z
 _atom_site_occupancy
  Nd  Nd0  1  0.500000  0.169869  0.669869  1
  Nd  Nd1  1  0.500000  0.812609  0.312609  1
  Nd  Nd2  1  0.500000  0.349326  0.178950  1
  Nd  Nd3  1  0.500000  0.678950  0.849326  1
  Cd  Cd4  1  0.000000  0.998571  0.002918  1
  Cd  Cd5  1  0.000000  0.502918  0.498571  1
  Ir  Ir6  1  0.000000  0.624388  0.124388  1
  Au  Au7  1  0.000000  0.371060  0.871060  1
  Au  Au8  1  0.000000  0.867998  0.624311  1
  Au  Au9  1  0.000000  0.124311  0.367998  1
