# generated using pymatgen
data_Ac2Si4Ni17Ir
_symmetry_space_group_name_H-M   'P 1'
_cell_length_a   7.71009677
_cell_length_b   7.71009555
_cell_length_c   7.71009620
_cell_angle_alpha   99.66583422
_cell_angle_beta   99.66581912
_cell_angle_gamma   131.62075325
_symmetry_Int_Tables_number   1
_chemical_formula_structural   Ac2Si4Ni17Ir
_chemical_formula_sum   'Ac2 Si4 Ni17 Ir1'
_cell_volume   312.54418319
_cell_formula_units_Z   1
loop_
 _symmetry_equiv_pos_site_id
 _symmetry_equiv_pos_as_xyz
  1  'x, y, z'
loop_
 _atom_site_type_symbol
 _atom_site_label
 _atom_site_symmetry_multiplicity
 _atom_site_fract_x
 _atom_site_fract_y
 _atom_site_fract_z
 _atom_site_occupancy
  Ac  Ac0  1  0.000000  0.000000  0.000000  1
  Ac  Ac1  1  0.250000  0.750000  0.500000  1
  Si  Si2  1  0.126155  0.375797  0.750359  1
  Si  Si3  1  0.624203  0.873845  0.249641  1
  Si  Si4  1  0.624203  0.374562  0.750359  1
  Si  Si5  1  0.625438  0.375797  0.249641  1
  Ni  Ni6  1  0.500000  0.500000  0.000000  1
  Ni  Ni7  1  0.192067  0.521522  0.078499  1
  Ni  Ni8  1  0.192067  0.113568  0.670544  1
  Ni  Ni9  1  0.772642  0.938778  0.580637  1
  Ni  Ni10  1  0.772642  0.192006  0.833864  1
  Ni  Ni11  1  0.443024  0.521522  0.329456  1
  Ni  Ni12  1  0.443024  0.113568  0.921501  1
  Ni  Ni13  1  0.358141  0.938778  0.166136  1
  Ni  Ni14  1  0.358141  0.192006  0.419363  1
  Ni  Ni15  1  0.061222  0.227358  0.419363  1
  Ni  Ni16  1  0.061222  0.641859  0.833864  1
  Ni  Ni17  1  0.478478  0.807933  0.921501  1
  Ni  Ni18  1  0.478478  0.556976  0.670544  1
  Ni  Ni19  1  0.807994  0.227358  0.166136  1
  Ni  Ni20  1  0.807994  0.641859  0.580637  1
  Ni  Ni21  1  0.886432  0.807933  0.329456  1
  Ni  Ni22  1  0.886432  0.556976  0.078499  1
  Ir  Ir23  1  0.750000  0.250000  0.500000  1
