# generated using pymatgen
data_Nd19InIr12
_symmetry_space_group_name_H-M   'P 1'
_cell_length_a   11.26908900
_cell_length_b   11.26908900
_cell_length_c   6.51134700
_cell_angle_alpha   90.00000000
_cell_angle_beta   90.00000000
_cell_angle_gamma   90.00000000
_symmetry_Int_Tables_number   1
_chemical_formula_structural   Nd19InIr12
_chemical_formula_sum   'Nd19 In1 Ir12'
_cell_volume   826.89136717
_cell_formula_units_Z   1
loop_
 _symmetry_equiv_pos_site_id
 _symmetry_equiv_pos_as_xyz
  1  'x, y, z'
loop_
 _atom_site_type_symbol
 _atom_site_label
 _atom_site_symmetry_multiplicity
 _atom_site_fract_x
 _atom_site_fract_y
 _atom_site_fract_z
 _atom_site_occupancy
  Nd  Nd0  1  0.086703  0.281963  0.115060  1
  Nd  Nd1  1  0.792746  0.410912  0.118107  1
  Nd  Nd2  1  0.207254  0.589088  0.118107  1
  Nd  Nd3  1  0.913297  0.718037  0.115060  1
  Nd  Nd4  1  0.410714  0.791999  0.384812  1
  Nd  Nd5  1  0.589286  0.208001  0.384812  1
  Nd  Nd6  1  0.290271  0.088822  0.384495  1
  Nd  Nd7  1  0.709729  0.911178  0.384495  1
  Nd  Nd8  1  0.410912  0.207254  0.881893  1
  Nd  Nd9  1  0.718037  0.086703  0.884940  1
  Nd  Nd10  1  0.281963  0.913297  0.884940  1
  Nd  Nd11  1  0.589088  0.792746  0.881893  1
  Nd  Nd12  1  0.088822  0.709729  0.615505  1
  Nd  Nd13  1  0.911178  0.290271  0.615505  1
  Nd  Nd14  1  0.208001  0.410714  0.615188  1
  Nd  Nd15  1  0.791999  0.589286  0.615188  1
  Nd  Nd16  1  0.500000  0.500000  0.000000  1
  Nd  Nd17  1  0.500000  0.500000  0.500000  1
  Nd  Nd18  1  0.000000  0.000000  0.500000  1
  In  In19  1  0.000000  0.000000  0.000000  1
  Ir  Ir20  1  0.153970  0.847163  0.252007  1
  Ir  Ir21  1  0.345135  0.345859  0.247737  1
  Ir  Ir22  1  0.654865  0.654141  0.247737  1
  Ir  Ir23  1  0.846030  0.152837  0.252007  1
  Ir  Ir24  1  0.345859  0.654865  0.752263  1
  Ir  Ir25  1  0.152837  0.153970  0.747993  1
  Ir  Ir26  1  0.847163  0.846030  0.747993  1
  Ir  Ir27  1  0.654141  0.345135  0.752263  1
  Ir  Ir28  1  0.000000  0.500000  0.376881  1
  Ir  Ir29  1  0.500000  0.000000  0.119244  1
  Ir  Ir30  1  0.500000  0.000000  0.623119  1
  Ir  Ir31  1  0.000000  0.500000  0.880756  1
