# generated using pymatgen
data_EuDy2TaO7
_symmetry_space_group_name_H-M   'P 1'
_cell_length_a   6.49367674
_cell_length_b   6.49367652
_cell_length_c   7.56446700
_cell_angle_alpha   90.00000000
_cell_angle_beta   90.00000000
_cell_angle_gamma   108.83337625
_symmetry_Int_Tables_number   1
_chemical_formula_structural   EuDy2TaO7
_chemical_formula_sum   'Eu2 Dy4 Ta2 O14'
_cell_volume   301.89960276
_cell_formula_units_Z   2
loop_
 _symmetry_equiv_pos_site_id
 _symmetry_equiv_pos_as_xyz
  1  'x, y, z'
loop_
 _atom_site_type_symbol
 _atom_site_label
 _atom_site_symmetry_multiplicity
 _atom_site_fract_x
 _atom_site_fract_y
 _atom_site_fract_z
 _atom_site_occupancy
  Eu  Eu0  1  0.503660  0.503660  0.500000  1
  Eu  Eu1  1  0.496340  0.496340  0.000000  1
  Dy  Dy2  1  0.000025  0.465750  0.748644  1
  Dy  Dy3  1  0.999975  0.534250  0.248644  1
  Dy  Dy4  1  0.534250  0.999975  0.751356  1
  Dy  Dy5  1  0.465750  0.000025  0.251356  1
  Ta  Ta6  1  0.999883  0.999883  0.500000  1
  Ta  Ta7  1  0.000117  0.000117  0.000000  1
  O  O8  1  0.639594  0.360406  0.750000  1
  O  O9  1  0.360406  0.639594  0.250000  1
  O  O10  1  0.933943  0.066057  0.750000  1
  O  O11  1  0.066057  0.933943  0.250000  1
  O  O12  1  0.931358  0.679456  0.531828  1
  O  O13  1  0.068642  0.320544  0.031828  1
  O  O14  1  0.320544  0.068642  0.968172  1
  O  O15  1  0.679456  0.931358  0.468172  1
  O  O16  1  0.366064  0.633936  0.750000  1
  O  O17  1  0.633936  0.366064  0.250000  1
  O  O18  1  0.935464  0.682443  0.965057  1
  O  O19  1  0.064536  0.317557  0.465057  1
  O  O20  1  0.317557  0.064536  0.534943  1
  O  O21  1  0.682443  0.935464  0.034943  1
