# generated using pymatgen
data_Gd8InHg3Pd8
_symmetry_space_group_name_H-M   'P 1'
_cell_length_a   7.72258400
_cell_length_b   7.72258400
_cell_length_c   7.51041400
_cell_angle_alpha   90.00000000
_cell_angle_beta   90.00000000
_cell_angle_gamma   90.00000000
_symmetry_Int_Tables_number   1
_chemical_formula_structural   Gd8InHg3Pd8
_chemical_formula_sum   'Gd8 In1 Hg3 Pd8'
_cell_volume   447.90835057
_cell_formula_units_Z   1
loop_
 _symmetry_equiv_pos_site_id
 _symmetry_equiv_pos_as_xyz
  1  'x, y, z'
loop_
 _atom_site_type_symbol
 _atom_site_label
 _atom_site_symmetry_multiplicity
 _atom_site_fract_x
 _atom_site_fract_y
 _atom_site_fract_z
 _atom_site_occupancy
  Gd  Gd0  1  0.668360  0.671510  0.499787  1
  Gd  Gd1  1  0.822856  0.177513  0.499781  1
  Gd  Gd2  1  0.677513  0.677144  0.000219  1
  Gd  Gd3  1  0.828490  0.168360  0.000213  1
  Gd  Gd4  1  0.177144  0.822487  0.499781  1
  Gd  Gd5  1  0.322487  0.322856  0.000219  1
  Gd  Gd6  1  0.171510  0.831640  0.000213  1
  Gd  Gd7  1  0.331640  0.328490  0.499787  1
  In  In8  1  0.000000  0.500000  0.750000  1
  Hg  Hg9  1  0.000000  0.500000  0.250000  1
  Hg  Hg10  1  0.500000  0.000000  0.750000  1
  Hg  Hg11  1  0.500000  0.000000  0.250000  1
  Pd  Pd12  1  0.627137  0.372161  0.241751  1
  Pd  Pd13  1  0.366842  0.624036  0.757142  1
  Pd  Pd14  1  0.875964  0.866842  0.742858  1
  Pd  Pd15  1  0.633158  0.375964  0.757142  1
  Pd  Pd16  1  0.372863  0.627839  0.241751  1
  Pd  Pd17  1  0.127839  0.127137  0.258249  1
  Pd  Pd18  1  0.872161  0.872863  0.258249  1
  Pd  Pd19  1  0.124036  0.133158  0.742858  1
