# generated using pymatgen
data_GaTcMo6(PtN)2
_symmetry_space_group_name_H-M   'P 1'
_cell_length_a   6.86846290
_cell_length_b   6.90430438
_cell_length_c   6.89846000
_cell_angle_alpha   90.00000000
_cell_angle_beta   90.00000000
_cell_angle_gamma   89.04691512
_symmetry_Int_Tables_number   1
_chemical_formula_structural   GaTcMo6(PtN)2
_chemical_formula_sum   'Ga2 Tc2 Mo12 Pt4 N4'
_cell_volume   327.09322433
_cell_formula_units_Z   2
loop_
 _symmetry_equiv_pos_site_id
 _symmetry_equiv_pos_as_xyz
  1  'x, y, z'
loop_
 _atom_site_type_symbol
 _atom_site_label
 _atom_site_symmetry_multiplicity
 _atom_site_fract_x
 _atom_site_fract_y
 _atom_site_fract_z
 _atom_site_occupancy
  Ga  Ga0  1  0.816390  0.321250  0.184650  1
  Ga  Ga1  1  0.683610  0.678750  0.684650  1
  Tc  Tc2  1  0.181459  0.812551  0.317831  1
  Tc  Tc3  1  0.318541  0.187449  0.817831  1
  Mo  Mo4  1  0.804595  0.957881  0.368565  1
  Mo  Mo5  1  0.695405  0.042119  0.868565  1
  Mo  Mo6  1  0.204025  0.462125  0.124788  1
  Mo  Mo7  1  0.295975  0.537875  0.624788  1
  Mo  Mo8  1  0.972702  0.371719  0.796856  1
  Mo  Mo9  1  0.046400  0.875365  0.698209  1
  Mo  Mo10  1  0.453600  0.124635  0.198209  1
  Mo  Mo11  1  0.527298  0.628281  0.296856  1
  Mo  Mo12  1  0.368777  0.808329  0.964907  1
  Mo  Mo13  1  0.881528  0.711010  0.047945  1
  Mo  Mo14  1  0.131223  0.191671  0.464907  1
  Mo  Mo15  1  0.618472  0.288990  0.547945  1
  Pt  Pt16  1  0.573258  0.440570  0.936900  1
  Pt  Pt17  1  0.445104  0.932898  0.561425  1
  Pt  Pt18  1  0.926742  0.559430  0.436900  1
  Pt  Pt19  1  0.054896  0.067102  0.061425  1
  N  N20  1  0.875446  0.123699  0.624355  1
  N  N21  1  0.624554  0.876301  0.124355  1
  N  N22  1  0.127902  0.628700  0.873569  1
  N  N23  1  0.372098  0.371300  0.373569  1
