# generated using pymatgen
data_MgSc2B2Ir3Rh2
_symmetry_space_group_name_H-M   'P 1'
_cell_length_a   9.54259202
_cell_length_b   9.49819802
_cell_length_c   3.04853200
_cell_angle_alpha   90.00000000
_cell_angle_beta   90.00000000
_cell_angle_gamma   89.99214008
_symmetry_Int_Tables_number   1
_chemical_formula_structural   MgSc2B2Ir3Rh2
_chemical_formula_sum   'Mg2 Sc4 B4 Ir6 Rh4'
_cell_volume   276.31109912
_cell_formula_units_Z   2
loop_
 _symmetry_equiv_pos_site_id
 _symmetry_equiv_pos_as_xyz
  1  'x, y, z'
loop_
 _atom_site_type_symbol
 _atom_site_label
 _atom_site_symmetry_multiplicity
 _atom_site_fract_x
 _atom_site_fract_y
 _atom_site_fract_z
 _atom_site_occupancy
  Mg  Mg0  1  0.999503  0.001543  0.000000  1
  Mg  Mg1  1  0.498678  0.500407  0.000000  1
  Sc  Sc2  1  0.677316  0.177423  0.000000  1
  Sc  Sc3  1  0.321509  0.823787  0.000000  1
  Sc  Sc4  1  0.176944  0.322161  0.000000  1
  Sc  Sc5  1  0.822975  0.677770  0.000000  1
  B  B6  1  0.125284  0.626166  0.000000  1
  B  B7  1  0.873760  0.374929  0.000000  1
  B  B8  1  0.626236  0.874519  0.000000  1
  B  B9  1  0.374049  0.125145  0.000000  1
  Ir  Ir10  1  0.500419  0.999627  0.500000  1
  Ir  Ir11  1  0.000965  0.499031  0.500000  1
  Ir  Ir12  1  0.221233  0.070699  0.500000  1
  Ir  Ir13  1  0.779299  0.928917  0.500000  1
  Ir  Ir14  1  0.070586  0.779857  0.500000  1
  Ir  Ir15  1  0.720959  0.428506  0.500000  1
  Rh  Rh16  1  0.930712  0.219908  0.500000  1
  Rh  Rh17  1  0.279347  0.570150  0.500000  1
  Rh  Rh18  1  0.569983  0.719611  0.500000  1
  Rh  Rh19  1  0.430244  0.279843  0.500000  1
