# generated using pymatgen
data_Tb2Fe3Ni7P6
_symmetry_space_group_name_H-M   'P 1'
_cell_length_a   3.70363100
_cell_length_b   10.31523200
_cell_length_c   11.89359800
_cell_angle_alpha   90.00000000
_cell_angle_beta   90.00000000
_cell_angle_gamma   90.00000000
_symmetry_Int_Tables_number   1
_chemical_formula_structural   Tb2Fe3Ni7P6
_chemical_formula_sum   'Tb4 Fe6 Ni14 P12'
_cell_volume   454.38079398
_cell_formula_units_Z   2
loop_
 _symmetry_equiv_pos_site_id
 _symmetry_equiv_pos_as_xyz
  1  'x, y, z'
loop_
 _atom_site_type_symbol
 _atom_site_label
 _atom_site_symmetry_multiplicity
 _atom_site_fract_x
 _atom_site_fract_y
 _atom_site_fract_z
 _atom_site_occupancy
  Tb  Tb0  1  0.250000  0.575915  0.704338  1
  Tb  Tb1  1  0.250000  0.924085  0.204338  1
  Tb  Tb2  1  0.750000  0.419239  0.295336  1
  Tb  Tb3  1  0.750000  0.080761  0.795336  1
  Fe  Fe4  1  0.750000  0.125435  0.298958  1
  Fe  Fe5  1  0.750000  0.374565  0.798958  1
  Fe  Fe6  1  0.250000  0.465405  0.932525  1
  Fe  Fe7  1  0.250000  0.034595  0.432525  1
  Fe  Fe8  1  0.750000  0.539250  0.068747  1
  Fe  Fe9  1  0.750000  0.960750  0.568747  1
  Ni  Ni10  1  0.250000  0.716690  0.998185  1
  Ni  Ni11  1  0.250000  0.783310  0.498185  1
  Ni  Ni12  1  0.750000  0.289189  0.008040  1
  Ni  Ni13  1  0.750000  0.210811  0.508040  1
  Ni  Ni14  1  0.250000  0.406370  0.485274  1
  Ni  Ni15  1  0.250000  0.093630  0.985274  1
  Ni  Ni16  1  0.750000  0.590062  0.511658  1
  Ni  Ni17  1  0.750000  0.909938  0.011658  1
  Ni  Ni18  1  0.250000  0.226610  0.171919  1
  Ni  Ni19  1  0.250000  0.273390  0.671919  1
  Ni  Ni20  1  0.750000  0.773049  0.824380  1
  Ni  Ni21  1  0.750000  0.726951  0.324380  1
  Ni  Ni22  1  0.250000  0.874798  0.702955  1
  Ni  Ni23  1  0.250000  0.625202  0.202955  1
  P  P24  1  0.250000  0.429654  0.111107  1
  P  P25  1  0.250000  0.070346  0.611107  1
  P  P26  1  0.750000  0.568959  0.887183  1
  P  P27  1  0.750000  0.931041  0.387183  1
  P  P28  1  0.250000  0.273101  0.864078  1
  P  P29  1  0.250000  0.226899  0.364078  1
  P  P30  1  0.750000  0.733707  0.131705  1
  P  P31  1  0.750000  0.766293  0.631705  1
  P  P32  1  0.250000  0.604376  0.393406  1
  P  P33  1  0.250000  0.895624  0.893406  1
  P  P34  1  0.750000  0.392605  0.610207  1
  P  P35  1  0.750000  0.107395  0.110207  1
