# generated using pymatgen
data_Dy2Er2Ir7Ru
_symmetry_space_group_name_H-M   'P 1'
_cell_length_a   5.35454708
_cell_length_b   5.35437420
_cell_length_c   8.68284301
_cell_angle_alpha   89.99999855
_cell_angle_beta   89.99828674
_cell_angle_gamma   60.00105964
_symmetry_Int_Tables_number   1
_chemical_formula_structural   Dy2Er2Ir7Ru
_chemical_formula_sum   'Dy2 Er2 Ir7 Ru1'
_cell_volume   215.59003225
_cell_formula_units_Z   1
loop_
 _symmetry_equiv_pos_site_id
 _symmetry_equiv_pos_as_xyz
  1  'x, y, z'
loop_
 _atom_site_type_symbol
 _atom_site_label
 _atom_site_symmetry_multiplicity
 _atom_site_fract_x
 _atom_site_fract_y
 _atom_site_fract_z
 _atom_site_occupancy
  Dy  Dy0  1  0.333323  0.333339  0.565958  1
  Dy  Dy1  1  0.666677  0.666661  0.434042  1
  Er  Er2  1  0.666680  0.666661  0.066735  1
  Er  Er3  1  0.333320  0.333339  0.933265  1
  Ir  Ir4  1  0.000000  0.000000  0.500000  1
  Ir  Ir5  1  0.830556  0.338901  0.751607  1
  Ir  Ir6  1  0.338935  0.830533  0.751583  1
  Ir  Ir7  1  0.830556  0.830544  0.751607  1
  Ir  Ir8  1  0.169444  0.661099  0.248393  1
  Ir  Ir9  1  0.661065  0.169467  0.248417  1
  Ir  Ir10  1  0.169444  0.169456  0.248393  1
  Ru  Ru11  1  0.000000  0.000000  0.000000  1
