# generated using pymatgen
data_Gd4Er5ScPb8
_symmetry_space_group_name_H-M   'P 1'
_cell_length_a   8.11578400
_cell_length_b   8.20779500
_cell_length_c   15.52995000
_cell_angle_alpha   90.00000000
_cell_angle_beta   90.00000000
_cell_angle_gamma   90.00000000
_symmetry_Int_Tables_number   1
_chemical_formula_structural   Gd4Er5ScPb8
_chemical_formula_sum   'Gd8 Er10 Sc2 Pb16'
_cell_volume   1034.49176582
_cell_formula_units_Z   2
loop_
 _symmetry_equiv_pos_site_id
 _symmetry_equiv_pos_as_xyz
  1  'x, y, z'
loop_
 _atom_site_type_symbol
 _atom_site_label
 _atom_site_symmetry_multiplicity
 _atom_site_fract_x
 _atom_site_fract_y
 _atom_site_fract_z
 _atom_site_occupancy
  Gd  Gd0  1  0.526790  0.321936  0.902886  1
  Gd  Gd1  1  0.026790  0.178064  0.597114  1
  Gd  Gd2  1  0.474773  0.678720  0.405369  1
  Gd  Gd3  1  0.974773  0.821280  0.094631  1
  Gd  Gd4  1  0.474773  0.678720  0.094631  1
  Gd  Gd5  1  0.974773  0.821280  0.405369  1
  Gd  Gd6  1  0.526790  0.321936  0.597114  1
  Gd  Gd7  1  0.026790  0.178064  0.902886  1
  Er  Er8  1  0.365752  0.844840  0.875590  1
  Er  Er9  1  0.865752  0.655160  0.624410  1
  Er  Er10  1  0.634211  0.156019  0.378522  1
  Er  Er11  1  0.134211  0.343981  0.121478  1
  Er  Er12  1  0.634211  0.156019  0.121478  1
  Er  Er13  1  0.134211  0.343981  0.378522  1
  Er  Er14  1  0.365752  0.844840  0.624410  1
  Er  Er15  1  0.865752  0.655160  0.875590  1
  Er  Er16  1  0.801232  0.495096  0.250000  1
  Er  Er17  1  0.301232  0.004904  0.250000  1
  Sc  Sc18  1  0.197846  0.505441  0.750000  1
  Sc  Sc19  1  0.697846  0.994559  0.750000  1
  Pb  Pb20  1  0.292444  0.039540  0.042301  1
  Pb  Pb21  1  0.792444  0.460460  0.457699  1
  Pb  Pb22  1  0.708373  0.961258  0.546553  1
  Pb  Pb23  1  0.208373  0.538742  0.953447  1
  Pb  Pb24  1  0.708373  0.961258  0.953447  1
  Pb  Pb25  1  0.208373  0.538742  0.546553  1
  Pb  Pb26  1  0.292444  0.039540  0.457699  1
  Pb  Pb27  1  0.792444  0.460460  0.042301  1
  Pb  Pb28  1  0.556397  0.624045  0.750000  1
  Pb  Pb29  1  0.056397  0.875955  0.750000  1
  Pb  Pb30  1  0.439593  0.374781  0.250000  1
  Pb  Pb31  1  0.939593  0.125219  0.250000  1
  Pb  Pb32  1  0.337332  0.159194  0.750000  1
  Pb  Pb33  1  0.837332  0.340806  0.750000  1
  Pb  Pb34  1  0.662913  0.846311  0.250000  1
  Pb  Pb35  1  0.162913  0.653689  0.250000  1
