# generated using pymatgen
data_CsUI6
_symmetry_space_group_name_H-M   'P 1'
_cell_length_a   12.14693600
_cell_length_b   8.54891715
_cell_length_c   8.50598700
_cell_angle_alpha   90.01251585
_cell_angle_beta   90.00033620
_cell_angle_gamma   89.99924581
_symmetry_Int_Tables_number   1
_chemical_formula_structural   CsUI6
_chemical_formula_sum   'Cs2 U2 I12'
_cell_volume   883.28845856
_cell_formula_units_Z   2
loop_
 _symmetry_equiv_pos_site_id
 _symmetry_equiv_pos_as_xyz
  1  'x, y, z'
loop_
 _atom_site_type_symbol
 _atom_site_label
 _atom_site_symmetry_multiplicity
 _atom_site_fract_x
 _atom_site_fract_y
 _atom_site_fract_z
 _atom_site_occupancy
  Cs  Cs0  1  0.735728  0.252703  0.270423  1
  Cs  Cs1  1  0.235756  0.747307  0.729580  1
  U  U2  1  0.992645  0.248872  0.752902  1
  U  U3  1  0.492643  0.751137  0.247088  1
  I  I4  1  0.488870  0.993576  0.492700  1
  I  I5  1  0.750828  0.247847  0.762819  1
  I  I6  1  0.998113  0.006694  0.996132  1
  I  I7  1  0.995825  0.492799  0.994845  1
  I  I8  1  0.498104  0.993388  0.003836  1
  I  I9  1  0.734291  0.749985  0.254719  1
  I  I10  1  0.250757  0.752181  0.237163  1
  I  I11  1  0.488211  0.509322  0.493392  1
  I  I12  1  0.988883  0.006471  0.507359  1
  I  I13  1  0.988192  0.490626  0.506647  1
  I  I14  1  0.234233  0.249950  0.745281  1
  I  I15  1  0.495824  0.507141  0.005112  1
