# generated using pymatgen
data_Li4LaNd3Rh4
_symmetry_space_group_name_H-M   'P 1'
_cell_length_a   4.03201000
_cell_length_b   7.15151970
_cell_length_c   8.62747191
_cell_angle_alpha   89.71001585
_cell_angle_beta   90.00000000
_cell_angle_gamma   90.00000000
_symmetry_Int_Tables_number   1
_chemical_formula_structural   Li4LaNd3Rh4
_chemical_formula_sum   'Li4 La1 Nd3 Rh4'
_cell_volume   248.76995730
_cell_formula_units_Z   1
loop_
 _symmetry_equiv_pos_site_id
 _symmetry_equiv_pos_as_xyz
  1  'x, y, z'
loop_
 _atom_site_type_symbol
 _atom_site_label
 _atom_site_symmetry_multiplicity
 _atom_site_fract_x
 _atom_site_fract_y
 _atom_site_fract_z
 _atom_site_occupancy
  Li  Li0  1  0.750000  0.627590  0.553885  1
  Li  Li1  1  0.250000  0.376607  0.446498  1
  Li  Li2  1  0.250000  0.869709  0.051955  1
  Li  Li3  1  0.750000  0.128688  0.944948  1
  La  La4  1  0.750000  0.043267  0.319855  1
  Nd  Nd5  1  0.250000  0.954525  0.682475  1
  Nd  Nd6  1  0.250000  0.453879  0.819597  1
  Nd  Nd7  1  0.750000  0.543824  0.178633  1
  Rh  Rh8  1  0.750000  0.740835  0.869297  1
  Rh  Rh9  1  0.250000  0.256731  0.132412  1
  Rh  Rh10  1  0.250000  0.762947  0.368919  1
  Rh  Rh11  1  0.750000  0.241398  0.631525  1
