# generated using pymatgen
data_CaYNi12As7
_symmetry_space_group_name_H-M   'P 1'
_cell_length_a   9.38662300
_cell_length_b   9.38662291
_cell_length_c   3.83221100
_cell_angle_alpha   90.00000000
_cell_angle_beta   90.00000000
_cell_angle_gamma   120.00001090
_symmetry_Int_Tables_number   1
_chemical_formula_structural   CaYNi12As7
_chemical_formula_sum   'Ca1 Y1 Ni12 As7'
_cell_volume   292.41439187
_cell_formula_units_Z   1
loop_
 _symmetry_equiv_pos_site_id
 _symmetry_equiv_pos_as_xyz
  1  'x, y, z'
loop_
 _atom_site_type_symbol
 _atom_site_label
 _atom_site_symmetry_multiplicity
 _atom_site_fract_x
 _atom_site_fract_y
 _atom_site_fract_z
 _atom_site_occupancy
  Ca  Ca0  1  0.666667  0.333333  0.500000  1
  Y  Y1  1  0.000000  0.000000  0.000000  1
  Ni  Ni2  1  0.386944  0.283315  0.000000  1
  Ni  Ni3  1  0.896370  0.613056  0.000000  1
  Ni  Ni4  1  0.716685  0.103630  0.000000  1
  Ni  Ni5  1  0.613296  0.795418  0.000000  1
  Ni  Ni6  1  0.182121  0.386704  0.000000  1
  Ni  Ni7  1  0.204582  0.817879  0.000000  1
  Ni  Ni8  1  0.758193  0.717330  0.500000  1
  Ni  Ni9  1  0.959137  0.241807  0.500000  1
  Ni  Ni10  1  0.282670  0.040863  0.500000  1
  Ni  Ni11  1  0.429604  0.553545  0.500000  1
  Ni  Ni12  1  0.123940  0.570396  0.500000  1
  Ni  Ni13  1  0.446455  0.876060  0.500000  1
  As  As14  1  0.619845  0.549941  0.000000  1
  As  As15  1  0.930097  0.380155  0.000000  1
  As  As16  1  0.450059  0.069903  0.000000  1
  As  As17  1  0.739264  0.965469  0.500000  1
  As  As18  1  0.226206  0.260736  0.500000  1
  As  As19  1  0.034531  0.773794  0.500000  1
  As  As20  1  0.333333  0.666667  0.000000  1
