# generated using pymatgen
data_Th2Fe3Re14C3
_symmetry_space_group_name_H-M   'P 1'
_cell_length_a   6.95732634
_cell_length_b   6.95732582
_cell_length_c   6.95732600
_cell_angle_alpha   82.75202018
_cell_angle_beta   82.75201242
_cell_angle_gamma   82.75201209
_symmetry_Int_Tables_number   1
_chemical_formula_structural   Th2Fe3Re14C3
_chemical_formula_sum   'Th2 Fe3 Re14 C3'
_cell_volume   329.31843002
_cell_formula_units_Z   1
loop_
 _symmetry_equiv_pos_site_id
 _symmetry_equiv_pos_as_xyz
  1  'x, y, z'
loop_
 _atom_site_type_symbol
 _atom_site_label
 _atom_site_symmetry_multiplicity
 _atom_site_fract_x
 _atom_site_fract_y
 _atom_site_fract_z
 _atom_site_occupancy
  Th  Th0  1  0.649380  0.649380  0.649380  1
  Th  Th1  1  0.350620  0.350620  0.350620  1
  Fe  Fe2  1  0.000000  0.000000  0.500000  1
  Fe  Fe3  1  0.500000  0.000000  0.000000  1
  Fe  Fe4  1  0.000000  0.500000  0.000000  1
  Re  Re5  1  0.723410  0.276590  0.000000  1
  Re  Re6  1  0.000000  0.723410  0.276590  1
  Re  Re7  1  0.276590  0.000000  0.723410  1
  Re  Re8  1  0.000000  0.276590  0.723410  1
  Re  Re9  1  0.723410  0.000000  0.276590  1
  Re  Re10  1  0.276590  0.723410  0.000000  1
  Re  Re11  1  0.345475  0.345475  0.862298  1
  Re  Re12  1  0.862298  0.345475  0.345475  1
  Re  Re13  1  0.345475  0.862298  0.345475  1
  Re  Re14  1  0.654525  0.654525  0.137702  1
  Re  Re15  1  0.137702  0.654525  0.654525  1
  Re  Re16  1  0.654525  0.137702  0.654525  1
  Re  Re17  1  0.897779  0.897779  0.897779  1
  Re  Re18  1  0.102221  0.102221  0.102221  1
  C  C19  1  0.500000  0.500000  0.000000  1
  C  C20  1  0.000000  0.500000  0.500000  1
  C  C21  1  0.500000  0.000000  0.500000  1
