# generated using pymatgen
data_La3Nd3(MgAu5)2
_symmetry_space_group_name_H-M   'P 1'
_cell_length_a   8.14720743
_cell_length_b   8.14720730
_cell_length_c   8.14720836
_cell_angle_alpha   65.99020300
_cell_angle_beta   65.99019963
_cell_angle_gamma   65.99019524
_symmetry_Int_Tables_number   1
_chemical_formula_structural   La3Nd3(MgAu5)2
_chemical_formula_sum   'La3 Nd3 Mg2 Au10'
_cell_volume   431.96890279
_cell_formula_units_Z   1
loop_
 _symmetry_equiv_pos_site_id
 _symmetry_equiv_pos_as_xyz
  1  'x, y, z'
loop_
 _atom_site_type_symbol
 _atom_site_label
 _atom_site_symmetry_multiplicity
 _atom_site_fract_x
 _atom_site_fract_y
 _atom_site_fract_z
 _atom_site_occupancy
  La  La0  1  0.892826  0.190541  0.621839  1
  La  La1  1  0.621839  0.892826  0.190541  1
  La  La2  1  0.190541  0.621839  0.892826  1
  Nd  Nd3  1  0.106870  0.805174  0.382250  1
  Nd  Nd4  1  0.382250  0.106870  0.805174  1
  Nd  Nd5  1  0.805174  0.382250  0.106870  1
  Mg  Mg6  1  0.653528  0.653528  0.653528  1
  Mg  Mg7  1  0.345692  0.345692  0.345692  1
  Au  Au8  1  0.004375  0.004375  0.004375  1
  Au  Au9  1  0.498994  0.498994  0.498994  1
  Au  Au10  1  0.797884  0.797884  0.797884  1
  Au  Au11  1  0.198508  0.198508  0.198508  1
  Au  Au12  1  0.942243  0.548475  0.320365  1
  Au  Au13  1  0.320365  0.942243  0.548475  1
  Au  Au14  1  0.548475  0.320365  0.942243  1
  Au  Au15  1  0.060502  0.448025  0.681909  1
  Au  Au16  1  0.681909  0.060502  0.448025  1
  Au  Au17  1  0.448025  0.681909  0.060502  1
