# generated using pymatgen
data_Sr9Sc(Pa2N7)2
_symmetry_space_group_name_H-M   'P 1'
_cell_length_a   6.24303620
_cell_length_b   9.51059406
_cell_length_c   9.40915700
_cell_angle_alpha   119.80458490
_cell_angle_beta   95.04336097
_cell_angle_gamma   103.96733482
_symmetry_Int_Tables_number   1
_chemical_formula_structural   Sr9Sc(Pa2N7)2
_chemical_formula_sum   'Sr9 Sc1 Pa4 N14'
_cell_volume   455.87755079
_cell_formula_units_Z   1
loop_
 _symmetry_equiv_pos_site_id
 _symmetry_equiv_pos_as_xyz
  1  'x, y, z'
loop_
 _atom_site_type_symbol
 _atom_site_label
 _atom_site_symmetry_multiplicity
 _atom_site_fract_x
 _atom_site_fract_y
 _atom_site_fract_z
 _atom_site_occupancy
  Sr  Sr0  1  0.225950  0.944301  0.565369  1
  Sr  Sr1  1  0.740561  0.305532  0.860787  1
  Sr  Sr2  1  0.221793  0.659020  0.142676  1
  Sr  Sr3  1  0.233964  0.803195  0.853748  1
  Sr  Sr4  1  0.730599  0.160567  0.142850  1
  Sr  Sr5  1  0.237390  0.379209  0.719956  1
  Sr  Sr6  1  0.738160  0.881221  0.718123  1
  Sr  Sr7  1  0.228367  0.087318  0.285487  1
  Sr  Sr8  1  0.732757  0.018572  0.433489  1
  Sc  Sc9  1  0.703533  0.604542  0.291897  1
  Pa  Pa10  1  0.728070  0.449096  0.566150  1
  Pa  Pa11  1  0.232742  0.520671  0.425758  1
  Pa  Pa12  1  0.247703  0.237146  0.001086  1
  Pa  Pa13  1  0.733985  0.733911  0.007734  1
  N  N14  1  0.497502  0.604140  0.685845  1
  N  N15  1  0.474851  0.371079  0.296648  1
  N  N16  1  0.960380  0.650920  0.528727  1
  N  N17  1  0.990671  0.316847  0.447482  1
  N  N18  1  0.515589  0.225970  0.561579  1
  N  N19  1  0.476101  0.734606  0.422703  1
  N  N20  1  0.025032  0.141777  0.753435  1
  N  N21  1  0.928408  0.805970  0.264325  1
  N  N22  1  0.445389  0.078100  0.874391  1
  N  N23  1  0.964910  0.959444  0.005241  1
  N  N24  1  0.505107  0.488813  0.031209  1
  N  N25  1  0.046567  0.390498  0.147189  1
  N  N26  1  0.920086  0.568925  0.847032  1
  N  N27  1  0.513830  0.878612  0.119083  1
