# generated using pymatgen
data_Tm7Lu5Fe3AgHg
_symmetry_space_group_name_H-M   'P 1'
_cell_length_a   8.13585306
_cell_length_b   8.14017082
_cell_length_c   8.13585164
_cell_angle_alpha   109.41774559
_cell_angle_beta   107.54685532
_cell_angle_gamma   111.45009050
_symmetry_Int_Tables_number   1
_chemical_formula_structural   Tm7Lu5Fe3AgHg
_chemical_formula_sum   'Tm7 Lu5 Fe3 Ag1 Hg1'
_cell_volume   414.41328297
_cell_formula_units_Z   1
loop_
 _symmetry_equiv_pos_site_id
 _symmetry_equiv_pos_as_xyz
  1  'x, y, z'
loop_
 _atom_site_type_symbol
 _atom_site_label
 _atom_site_symmetry_multiplicity
 _atom_site_fract_x
 _atom_site_fract_y
 _atom_site_fract_z
 _atom_site_occupancy
  Tm  Tm0  1  0.308630  0.309038  0.618016  1
  Tm  Tm1  1  0.690858  0.691514  0.381450  1
  Tm  Tm2  1  0.691022  0.309038  0.000408  1
  Tm  Tm3  1  0.310064  0.691514  0.000655  1
  Tm  Tm4  1  0.190605  0.435748  0.245143  1
  Tm  Tm5  1  0.809055  0.564234  0.755179  1
  Tm  Tm6  1  0.191324  0.946073  0.754749  1
  Lu  Lu7  1  0.952541  0.187524  0.764764  1
  Lu  Lu8  1  0.808600  0.053135  0.244534  1
  Lu  Lu9  1  0.047257  0.813268  0.234663  1
  Lu  Lu10  1  0.422759  0.187524  0.234982  1
  Lu  Lu11  1  0.578605  0.813268  0.766012  1
  Fe  Fe12  1  0.380956  0.380525  0.999569  1
  Fe  Fe13  1  0.619281  0.619461  0.000180  1
  Fe  Fe14  1  0.999982  0.000704  0.000722  1
  Ag  Ag15  1  0.998580  0.497871  0.499291  1
  Hg  Hg16  1  0.499878  0.999562  0.499684  1
