# generated using pymatgen
data_Li2Sc2As6Rh7
_symmetry_space_group_name_H-M   'P 1'
_cell_length_a   7.08335109
_cell_length_b   6.99117518
_cell_length_c   7.08335223
_cell_angle_alpha   109.36617363
_cell_angle_beta   110.20754666
_cell_angle_gamma   109.36618269
_symmetry_Int_Tables_number   1
_chemical_formula_structural   Li2Sc2As6Rh7
_chemical_formula_sum   'Li2 Sc2 As6 Rh7'
_cell_volume   268.24371461
_cell_formula_units_Z   1
loop_
 _symmetry_equiv_pos_site_id
 _symmetry_equiv_pos_as_xyz
  1  'x, y, z'
loop_
 _atom_site_type_symbol
 _atom_site_label
 _atom_site_symmetry_multiplicity
 _atom_site_fract_x
 _atom_site_fract_y
 _atom_site_fract_z
 _atom_site_occupancy
  Li  Li0  1  0.000000  0.000000  0.500000  1
  Li  Li1  1  0.500000  0.000000  0.000000  1
  Sc  Sc2  1  0.000000  0.500000  0.000000  1
  Sc  Sc3  1  0.500000  0.500000  0.500000  1
  As  As4  1  0.686753  0.697928  0.011175  1
  As  As5  1  0.313247  0.302072  0.988825  1
  As  As6  1  0.011175  0.697928  0.686753  1
  As  As7  1  0.988825  0.302072  0.313247  1
  As  As8  1  0.686877  0.000000  0.686877  1
  As  As9  1  0.313123  0.000000  0.313123  1
  Rh  Rh10  1  0.000000  0.000000  0.000000  1
  Rh  Rh11  1  0.250000  0.500000  0.750000  1
  Rh  Rh12  1  0.749654  0.253563  0.503909  1
  Rh  Rh13  1  0.503909  0.253563  0.749654  1
  Rh  Rh14  1  0.496091  0.746437  0.250346  1
  Rh  Rh15  1  0.750000  0.500000  0.250000  1
  Rh  Rh16  1  0.250346  0.746437  0.496091  1
