# generated using pymatgen
data_Dy4YZr3(As3Rh4)4
_symmetry_space_group_name_H-M   'P 1'
_cell_length_a   13.31864448
_cell_length_b   13.32482306
_cell_length_c   4.00859800
_cell_angle_alpha   90.00000000
_cell_angle_beta   90.00000000
_cell_angle_gamma   120.01534729
_symmetry_Int_Tables_number   1
_chemical_formula_structural   Dy4YZr3(As3Rh4)4
_chemical_formula_sum   'Dy4 Y1 Zr3 As12 Rh16'
_cell_volume   615.99534451
_cell_formula_units_Z   1
loop_
 _symmetry_equiv_pos_site_id
 _symmetry_equiv_pos_as_xyz
  1  'x, y, z'
loop_
 _atom_site_type_symbol
 _atom_site_label
 _atom_site_symmetry_multiplicity
 _atom_site_fract_x
 _atom_site_fract_y
 _atom_site_fract_z
 _atom_site_occupancy
  Dy  Dy0  1  0.187559  0.187570  0.500000  1
  Dy  Dy1  1  0.812441  0.000010  0.500000  1
  Dy  Dy2  1  0.333318  0.666631  0.000000  1
  Dy  Dy3  1  0.666682  0.333312  0.000000  1
  Y  Y4  1  0.000000  0.812470  0.500000  1
  Zr  Zr5  1  0.556395  0.556386  0.000000  1
  Zr  Zr6  1  0.443605  0.999991  0.000000  1
  Zr  Zr7  1  0.000000  0.443543  0.000000  1
  As  As8  1  0.824616  0.824765  0.000000  1
  As  As9  1  0.175384  0.000149  0.000000  1
  As  As10  1  0.000000  0.175295  0.000000  1
  As  As11  1  0.170696  0.485806  0.500000  1
  As  As12  1  0.514212  0.684907  0.500000  1
  As  As13  1  0.315051  0.829275  0.500000  1
  As  As14  1  0.684949  0.514224  0.500000  1
  As  As15  1  0.829304  0.315110  0.500000  1
  As  As16  1  0.485788  0.170695  0.500000  1
  As  As17  1  0.354177  0.354155  0.000000  1
  As  As18  1  0.645823  0.999977  0.000000  1
  As  As19  1  0.000000  0.645556  0.000000  1
  Rh  Rh20  1  0.719287  0.719366  0.500000  1
  Rh  Rh21  1  0.280713  0.000079  0.500000  1
  Rh  Rh22  1  0.000000  0.280667  0.500000  1
  Rh  Rh23  1  0.176488  0.373804  0.000000  1
  Rh  Rh24  1  0.626157  0.802743  0.000000  1
  Rh  Rh25  1  0.197484  0.823575  0.000000  1
  Rh  Rh26  1  0.802516  0.626090  0.000000  1
  Rh  Rh27  1  0.823512  0.197316  0.000000  1
  Rh  Rh28  1  0.373843  0.176586  0.000000  1
  Rh  Rh29  1  0.354824  0.482408  0.500000  1
  Rh  Rh30  1  0.517515  0.872322  0.500000  1
  Rh  Rh31  1  0.127589  0.645080  0.500000  1
  Rh  Rh32  1  0.872411  0.517490  0.500000  1
  Rh  Rh33  1  0.645176  0.127583  0.500000  1
  Rh  Rh34  1  0.482485  0.354806  0.500000  1
  Rh  Rh35  1  0.000000  0.000259  0.000000  1
