# generated using pymatgen
data_Ti8Al15Os4Rh3
_symmetry_space_group_name_H-M   'P 1'
_cell_length_a   8.65854261
_cell_length_b   8.65787670
_cell_length_c   8.67529644
_cell_angle_alpha   119.96047320
_cell_angle_beta   119.89132877
_cell_angle_gamma   90.03702497
_symmetry_Int_Tables_number   1
_chemical_formula_structural   Ti8Al15Os4Rh3
_chemical_formula_sum   'Ti8 Al15 Os4 Rh3'
_cell_volume   460.74008162
_cell_formula_units_Z   1
loop_
 _symmetry_equiv_pos_site_id
 _symmetry_equiv_pos_as_xyz
  1  'x, y, z'
loop_
 _atom_site_type_symbol
 _atom_site_label
 _atom_site_symmetry_multiplicity
 _atom_site_fract_x
 _atom_site_fract_y
 _atom_site_fract_z
 _atom_site_occupancy
  Ti  Ti0  1  0.781257  0.285517  0.068951  1
  Ti  Ti1  1  0.224082  0.292617  0.506127  1
  Ti  Ti2  1  0.215048  0.715176  0.507162  1
  Ti  Ti3  1  0.225413  0.721148  0.931363  1
  Ti  Ti4  1  0.788245  0.719375  0.497202  1
  Ti  Ti5  1  0.774663  0.273764  0.489943  1
  Ti  Ti6  1  0.375677  0.121745  0.744687  1
  Ti  Ti7  1  0.382666  0.633911  0.259346  1
  Al  Al8  1  0.996573  0.495951  0.500073  1
  Al  Al9  1  0.149740  0.344827  0.190033  1
  Al  Al10  1  0.153529  0.966040  0.811680  1
  Al  Al11  1  0.148955  0.347640  0.804884  1
  Al  Al12  1  0.537887  0.346690  0.193459  1
  Al  Al13  1  0.849230  0.650957  0.803353  1
  Al  Al14  1  0.849911  0.040259  0.193900  1
  Al  Al15  1  0.844872  0.653167  0.187282  1
  Al  Al16  1  0.471500  0.657192  0.814003  1
  Al  Al17  1  0.378374  0.121515  0.257752  1
  Al  Al18  1  0.861470  0.121910  0.741530  1
  Al  Al19  1  0.620844  0.875246  0.254505  1
  Al  Al20  1  0.621250  0.364646  0.744636  1
  Al  Al21  1  0.619510  0.877009  0.741955  1
  Al  Al22  1  0.136814  0.878725  0.259103  1
  Os  Os23  1  0.999794  0.999113  0.501072  1
  Os  Os24  1  0.499559  0.001081  0.000277  1
  Os  Os25  1  0.496963  0.498030  0.999337  1
  Os  Os26  1  0.497308  0.498927  0.497667  1
  Rh  Rh27  1  0.999926  0.499757  0.000082  1
  Rh  Rh28  1  0.999373  0.999044  0.998888  1
  Rh  Rh29  1  0.499563  0.999016  0.499746  1
