# generated using pymatgen
data_Tb5Ce(Zn3C)2
_symmetry_space_group_name_H-M   'P 1'
_cell_length_a   9.22766039
_cell_length_b   9.22846802
_cell_length_c   9.23982804
_cell_angle_alpha   60.01913771
_cell_angle_beta   60.04356542
_cell_angle_gamma   60.00290531
_symmetry_Int_Tables_number   1
_chemical_formula_structural   Tb5Ce(Zn3C)2
_chemical_formula_sum   'Tb10 Ce2 Zn12 C4'
_cell_volume   556.65389235
_cell_formula_units_Z   2
loop_
 _symmetry_equiv_pos_site_id
 _symmetry_equiv_pos_as_xyz
  1  'x, y, z'
loop_
 _atom_site_type_symbol
 _atom_site_label
 _atom_site_symmetry_multiplicity
 _atom_site_fract_x
 _atom_site_fract_y
 _atom_site_fract_z
 _atom_site_occupancy
  Tb  Tb0  1  0.448124  0.050714  0.053038  1
  Tb  Tb1  1  0.053448  0.052050  0.447721  1
  Tb  Tb2  1  0.446781  0.052050  0.447721  1
  Tb  Tb3  1  0.051521  0.446952  0.450006  1
  Tb  Tb4  1  0.804095  0.804270  0.195627  1
  Tb  Tb5  1  0.196008  0.804270  0.195627  1
  Tb  Tb6  1  0.804840  0.195528  0.194791  1
  Tb  Tb7  1  0.196426  0.195245  0.803890  1
  Tb  Tb8  1  0.804439  0.195245  0.803890  1
  Tb  Tb9  1  0.195385  0.804699  0.804531  1
  Ce  Ce10  1  0.448314  0.447390  0.053125  1
  Ce  Ce11  1  0.051171  0.447390  0.053125  1
  Zn  Zn12  1  0.827371  0.826523  0.518735  1
  Zn  Zn13  1  0.827274  0.521112  0.824340  1
  Zn  Zn14  1  0.520661  0.828280  0.825954  1
  Zn  Zn15  1  0.825105  0.828280  0.825954  1
  Zn  Zn16  1  0.423322  0.424048  0.729308  1
  Zn  Zn17  1  0.422840  0.730531  0.423788  1
  Zn  Zn18  1  0.729449  0.422198  0.424820  1
  Zn  Zn19  1  0.423532  0.422198  0.424820  1
  Zn  Zn20  1  0.623881  0.627112  0.125125  1
  Zn  Zn21  1  0.625453  0.124670  0.624423  1
  Zn  Zn22  1  0.124638  0.626325  0.622874  1
  Zn  Zn23  1  0.626163  0.626325  0.622874  1
  C  C24  1  0.126027  0.124753  0.623193  1
  C  C25  1  0.129376  0.613830  0.127417  1
  C  C26  1  0.618280  0.129004  0.126641  1
  C  C27  1  0.126075  0.129004  0.126641  1
