# generated using pymatgen
data_DyEr19(FeBi2)4
_symmetry_space_group_name_H-M   'P 1'
_cell_length_a   7.94934981
_cell_length_b   8.83794100
_cell_length_c   12.38352600
_cell_angle_alpha   90.00000000
_cell_angle_beta   90.04821168
_cell_angle_gamma   90.00000000
_symmetry_Int_Tables_number   1
_chemical_formula_structural   DyEr19(FeBi2)4
_chemical_formula_sum   'Dy1 Er19 Fe4 Bi8'
_cell_volume   870.01526617
_cell_formula_units_Z   1
loop_
 _symmetry_equiv_pos_site_id
 _symmetry_equiv_pos_as_xyz
  1  'x, y, z'
loop_
 _atom_site_type_symbol
 _atom_site_label
 _atom_site_symmetry_multiplicity
 _atom_site_fract_x
 _atom_site_fract_y
 _atom_site_fract_z
 _atom_site_occupancy
  Dy  Dy0  1  0.655201  0.750000  0.699905  1
  Er  Er1  1  0.344668  0.250000  0.300299  1
  Er  Er2  1  0.154548  0.250000  0.800922  1
  Er  Er3  1  0.845121  0.750000  0.199184  1
  Er  Er4  1  0.119556  0.750000  0.815161  1
  Er  Er5  1  0.881055  0.250000  0.184870  1
  Er  Er6  1  0.619370  0.250000  0.684955  1
  Er  Er7  1  0.381127  0.750000  0.315286  1
  Er  Er8  1  0.555451  0.750000  0.995536  1
  Er  Er9  1  0.443884  0.250000  0.004930  1
  Er  Er10  1  0.055516  0.250000  0.504173  1
  Er  Er11  1  0.945056  0.750000  0.495289  1
  Er  Er12  1  0.828196  0.464741  0.936553  1
  Er  Er13  1  0.171804  0.534924  0.063487  1
  Er  Er14  1  0.327929  0.534499  0.563135  1
  Er  Er15  1  0.171804  0.965076  0.063487  1
  Er  Er16  1  0.671879  0.464695  0.436220  1
  Er  Er17  1  0.828196  0.035259  0.936553  1
  Er  Er18  1  0.671879  0.035305  0.436220  1
  Er  Er19  1  0.327929  0.965501  0.563135  1
  Fe  Fe20  1  0.932712  0.750000  0.992116  1
  Fe  Fe21  1  0.067589  0.250000  0.008126  1
  Fe  Fe22  1  0.432274  0.250000  0.507676  1
  Fe  Fe23  1  0.567076  0.750000  0.492312  1
  Bi  Bi24  1  0.934439  0.007386  0.673439  1
  Bi  Bi25  1  0.066176  0.992983  0.326275  1
  Bi  Bi26  1  0.433039  0.993802  0.826762  1
  Bi  Bi27  1  0.066176  0.507017  0.326275  1
  Bi  Bi28  1  0.566437  0.006841  0.173759  1
  Bi  Bi29  1  0.934439  0.492614  0.673439  1
  Bi  Bi30  1  0.566437  0.493159  0.173759  1
  Bi  Bi31  1  0.433039  0.506198  0.826762  1
