# generated using pymatgen
data_TbLu3ScSb3
_symmetry_space_group_name_H-M   'P 1'
_cell_length_a   7.91710100
_cell_length_b   9.10764600
_cell_length_c   11.63416400
_cell_angle_alpha   90.00000000
_cell_angle_beta   90.00000000
_cell_angle_gamma   90.00000000
_symmetry_Int_Tables_number   1
_chemical_formula_structural   TbLu3ScSb3
_chemical_formula_sum   'Tb4 Lu12 Sc4 Sb12'
_cell_volume   838.89481237
_cell_formula_units_Z   4
loop_
 _symmetry_equiv_pos_site_id
 _symmetry_equiv_pos_as_xyz
  1  'x, y, z'
loop_
 _atom_site_type_symbol
 _atom_site_label
 _atom_site_symmetry_multiplicity
 _atom_site_fract_x
 _atom_site_fract_y
 _atom_site_fract_z
 _atom_site_occupancy
  Tb  Tb0  1  0.183916  0.750000  0.721338  1
  Tb  Tb1  1  0.683916  0.750000  0.778662  1
  Tb  Tb2  1  0.816084  0.250000  0.278662  1
  Tb  Tb3  1  0.316084  0.250000  0.221338  1
  Lu  Lu4  1  0.196753  0.562879  0.439340  1
  Lu  Lu5  1  0.696753  0.937121  0.060660  1
  Lu  Lu6  1  0.803247  0.062879  0.560660  1
  Lu  Lu7  1  0.303247  0.437121  0.939340  1
  Lu  Lu8  1  0.803247  0.437121  0.560660  1
  Lu  Lu9  1  0.303247  0.062879  0.939340  1
  Lu  Lu10  1  0.196753  0.937121  0.439340  1
  Lu  Lu11  1  0.696753  0.562879  0.060660  1
  Lu  Lu12  1  0.855214  0.750000  0.284210  1
  Lu  Lu13  1  0.355214  0.750000  0.215790  1
  Lu  Lu14  1  0.144786  0.250000  0.715790  1
  Lu  Lu15  1  0.644786  0.250000  0.784210  1
  Sc  Sc16  1  0.028071  0.750000  0.989196  1
  Sc  Sc17  1  0.528071  0.750000  0.510804  1
  Sc  Sc18  1  0.971929  0.250000  0.010804  1
  Sc  Sc19  1  0.471929  0.250000  0.489196  1
  Sb  Sb20  1  0.933530  0.494170  0.831508  1
  Sb  Sb21  1  0.433530  0.005830  0.668492  1
  Sb  Sb22  1  0.066470  0.994170  0.168492  1
  Sb  Sb23  1  0.566470  0.505830  0.331508  1
  Sb  Sb24  1  0.066470  0.505830  0.168492  1
  Sb  Sb25  1  0.566470  0.994170  0.331508  1
  Sb  Sb26  1  0.933530  0.005830  0.831508  1
  Sb  Sb27  1  0.433530  0.494170  0.668492  1
  Sb  Sb28  1  0.906142  0.750000  0.538915  1
  Sb  Sb29  1  0.406142  0.750000  0.961085  1
  Sb  Sb30  1  0.093858  0.250000  0.461085  1
  Sb  Sb31  1  0.593858  0.250000  0.038915  1
