# generated using pymatgen
data_Dy2Mn3Co9P7
_symmetry_space_group_name_H-M   'P 1'
_cell_length_a   9.09304200
_cell_length_b   9.09304218
_cell_length_c   3.60111900
_cell_angle_alpha   90.00000000
_cell_angle_beta   90.00000000
_cell_angle_gamma   120.00000662
_symmetry_Int_Tables_number   1
_chemical_formula_structural   Dy2Mn3Co9P7
_chemical_formula_sum   'Dy2 Mn3 Co9 P7'
_cell_volume   257.86148442
_cell_formula_units_Z   1
loop_
 _symmetry_equiv_pos_site_id
 _symmetry_equiv_pos_as_xyz
  1  'x, y, z'
loop_
 _atom_site_type_symbol
 _atom_site_label
 _atom_site_symmetry_multiplicity
 _atom_site_fract_x
 _atom_site_fract_y
 _atom_site_fract_z
 _atom_site_occupancy
  Dy  Dy0  1  0.666667  0.333333  0.000000  1
  Dy  Dy1  1  0.333333  0.666667  0.500000  1
  Mn  Mn2  1  0.101403  0.221211  0.500000  1
  Mn  Mn3  1  0.778789  0.880193  0.500000  1
  Mn  Mn4  1  0.119807  0.898597  0.500000  1
  Co  Co5  1  0.060822  0.429971  0.000000  1
  Co  Co6  1  0.570029  0.630851  0.000000  1
  Co  Co7  1  0.369149  0.939178  0.000000  1
  Co  Co8  1  0.275512  0.158095  0.000000  1
  Co  Co9  1  0.841905  0.117417  0.000000  1
  Co  Co10  1  0.882583  0.724488  0.000000  1
  Co  Co11  1  0.437215  0.386606  0.500000  1
  Co  Co12  1  0.613394  0.050609  0.500000  1
  Co  Co13  1  0.949391  0.562785  0.500000  1
  P  P14  1  0.300965  0.412364  0.000000  1
  P  P15  1  0.587636  0.888601  0.000000  1
  P  P16  1  0.111399  0.699035  0.000000  1
  P  P17  1  0.406232  0.116995  0.500000  1
  P  P18  1  0.883005  0.289236  0.500000  1
  P  P19  1  0.710764  0.593768  0.500000  1
  P  P20  1  0.000000  0.000000  0.000000  1
