# generated using pymatgen
data_Y3TmAl4(Ga7Ir3)2
_symmetry_space_group_name_H-M   'P 1'
_cell_length_a   7.56814878
_cell_length_b   7.56543743
_cell_length_c   9.50927600
_cell_angle_alpha   90.00000000
_cell_angle_beta   90.00000000
_cell_angle_gamma   119.67908196
_symmetry_Int_Tables_number   1
_chemical_formula_structural   Y3TmAl4(Ga7Ir3)2
_chemical_formula_sum   'Y3 Tm1 Al4 Ga14 Ir6'
_cell_volume   473.03920883
_cell_formula_units_Z   1
loop_
 _symmetry_equiv_pos_site_id
 _symmetry_equiv_pos_as_xyz
  1  'x, y, z'
loop_
 _atom_site_type_symbol
 _atom_site_label
 _atom_site_symmetry_multiplicity
 _atom_site_fract_x
 _atom_site_fract_y
 _atom_site_fract_z
 _atom_site_occupancy
  Y  Y0  1  0.999711  0.329923  0.750000  1
  Y  Y1  1  0.670097  0.000290  0.250000  1
  Y  Y2  1  0.329898  0.999666  0.750000  1
  Tm  Tm3  1  0.000773  0.670250  0.250000  1
  Al  Al4  1  0.331712  0.331713  0.553324  1
  Al  Al5  1  0.668755  0.668230  0.445854  1
  Al  Al6  1  0.668755  0.668230  0.054146  1
  Al  Al7  1  0.331712  0.331713  0.946676  1
  Ga  Ga8  1  0.126700  0.126205  0.250000  1
  Ga  Ga9  1  0.873122  0.873057  0.750000  1
  Ga  Ga10  1  0.000589  0.335994  0.080185  1
  Ga  Ga11  1  0.999456  0.664797  0.921005  1
  Ga  Ga12  1  0.999456  0.664797  0.578995  1
  Ga  Ga13  1  0.334492  0.999884  0.419854  1
  Ga  Ga14  1  0.000589  0.335994  0.419815  1
  Ga  Ga15  1  0.664777  0.999391  0.579560  1
  Ga  Ga16  1  0.664777  0.999391  0.920440  1
  Ga  Ga17  1  0.334492  0.999884  0.080146  1
  Ga  Ga18  1  0.346917  0.550055  0.250000  1
  Ga  Ga19  1  0.652692  0.450036  0.750000  1
  Ga  Ga20  1  0.550960  0.348218  0.250000  1
  Ga  Ga21  1  0.449939  0.652605  0.750000  1
  Ir  Ir22  1  0.669546  0.330594  0.000261  1
  Ir  Ir23  1  0.330432  0.669541  0.000270  1
  Ir  Ir24  1  0.330432  0.669541  0.499730  1
  Ir  Ir25  1  0.669546  0.330594  0.499739  1
  Ir  Ir26  1  0.999835  0.999704  0.000359  1
  Ir  Ir27  1  0.999835  0.999704  0.499641  1
