# generated using pymatgen
data_Ce3In3IrRhAu
_symmetry_space_group_name_H-M   'P 1'
_cell_length_a   7.67004700
_cell_length_b   7.67004727
_cell_length_c   4.06495300
_cell_angle_alpha   90.00000000
_cell_angle_beta   90.00000000
_cell_angle_gamma   120.00001176
_symmetry_Int_Tables_number   1
_chemical_formula_structural   Ce3In3IrRhAu
_chemical_formula_sum   'Ce3 In3 Ir1 Rh1 Au1'
_cell_volume   207.10098986
_cell_formula_units_Z   1
loop_
 _symmetry_equiv_pos_site_id
 _symmetry_equiv_pos_as_xyz
  1  'x, y, z'
loop_
 _atom_site_type_symbol
 _atom_site_label
 _atom_site_symmetry_multiplicity
 _atom_site_fract_x
 _atom_site_fract_y
 _atom_site_fract_z
 _atom_site_occupancy
  Ce  Ce0  1  0.982915  0.581563  0.000000  1
  Ce  Ce1  1  0.418437  0.401352  0.000000  1
  Ce  Ce2  1  0.598648  0.017085  0.000000  1
  In  In3  1  0.753017  0.750091  0.500000  1
  In  In4  1  0.997074  0.246983  0.500000  1
  In  In5  1  0.249909  0.002926  0.500000  1
  Ir  Ir6  1  0.666667  0.333333  0.500000  1
  Rh  Rh7  1  0.000000  0.000000  0.000000  1
  Au  Au8  1  0.333333  0.666667  0.500000  1
