# generated using pymatgen
data_LaGd(SnRh)2
_symmetry_space_group_name_H-M   'P 1'
_cell_length_a   7.55776300
_cell_length_b   7.55776346
_cell_length_c   8.02640500
_cell_angle_alpha   90.00000000
_cell_angle_beta   90.00000000
_cell_angle_gamma   120.00000235
_symmetry_Int_Tables_number   1
_chemical_formula_structural   LaGd(SnRh)2
_chemical_formula_sum   'La3 Gd3 Sn6 Rh6'
_cell_volume   397.04365102
_cell_formula_units_Z   3
loop_
 _symmetry_equiv_pos_site_id
 _symmetry_equiv_pos_as_xyz
  1  'x, y, z'
loop_
 _atom_site_type_symbol
 _atom_site_label
 _atom_site_symmetry_multiplicity
 _atom_site_fract_x
 _atom_site_fract_y
 _atom_site_fract_z
 _atom_site_occupancy
  La  La0  1  0.000022  0.412020  0.750000  1
  La  La1  1  0.587980  0.588001  0.750000  1
  La  La2  1  0.411999  0.999978  0.750000  1
  Gd  Gd3  1  0.999939  0.408299  0.250000  1
  Gd  Gd4  1  0.591701  0.591642  0.250000  1
  Gd  Gd5  1  0.408358  0.000061  0.250000  1
  Sn  Sn6  1  0.254813  0.254828  0.493187  1
  Sn  Sn7  1  0.000015  0.745187  0.493187  1
  Sn  Sn8  1  0.000015  0.745187  0.006813  1
  Sn  Sn9  1  0.745172  0.999985  0.493187  1
  Sn  Sn10  1  0.745172  0.999985  0.006813  1
  Sn  Sn11  1  0.254813  0.254828  0.006813  1
  Rh  Rh12  1  0.333333  0.666667  0.489118  1
  Rh  Rh13  1  0.666667  0.333333  0.489698  1
  Rh  Rh14  1  0.333333  0.666667  0.010882  1
  Rh  Rh15  1  0.000000  0.000000  0.750000  1
  Rh  Rh16  1  0.000000  0.000000  0.250000  1
  Rh  Rh17  1  0.666667  0.333333  0.010302  1
