# generated using pymatgen
data_Pr2Er6Sc12Ga5Si11
_symmetry_space_group_name_H-M   'P 1'
_cell_length_a   7.16104735
_cell_length_b   7.42180392
_cell_length_c   14.23681969
_cell_angle_alpha   90.00070798
_cell_angle_beta   90.23153471
_cell_angle_gamma   90.11974452
_symmetry_Int_Tables_number   1
_chemical_formula_structural   Pr2Er6Sc12Ga5Si11
_chemical_formula_sum   'Pr2 Er6 Sc12 Ga5 Si11'
_cell_volume   756.64908607
_cell_formula_units_Z   1
loop_
 _symmetry_equiv_pos_site_id
 _symmetry_equiv_pos_as_xyz
  1  'x, y, z'
loop_
 _atom_site_type_symbol
 _atom_site_label
 _atom_site_symmetry_multiplicity
 _atom_site_fract_x
 _atom_site_fract_y
 _atom_site_fract_z
 _atom_site_occupancy
  Pr  Pr0  1  0.512009  0.327557  0.097681  1
  Pr  Pr1  1  0.010575  0.171429  0.097755  1
  Er  Er2  1  0.011914  0.174842  0.402417  1
  Er  Er3  1  0.511759  0.324876  0.402843  1
  Er  Er4  1  0.492633  0.675756  0.895167  1
  Er  Er5  1  0.488280  0.678621  0.598564  1
  Er  Er6  1  0.988653  0.822271  0.598417  1
  Er  Er7  1  0.990020  0.828071  0.895911  1
  Sc  Sc8  1  0.329743  0.172225  0.625695  1
  Sc  Sc9  1  0.669679  0.823254  0.377417  1
  Sc  Sc10  1  0.664775  0.998100  0.750116  1
  Sc  Sc11  1  0.169397  0.676484  0.377262  1
  Sc  Sc12  1  0.827273  0.325765  0.871408  1
  Sc  Sc13  1  0.829718  0.327563  0.625595  1
  Sc  Sc14  1  0.835339  0.500151  0.255123  1
  Sc  Sc15  1  0.335753  0.999438  0.255810  1
  Sc  Sc16  1  0.332389  0.174018  0.870077  1
  Sc  Sc17  1  0.167177  0.672341  0.129582  1
  Sc  Sc18  1  0.666785  0.827154  0.128369  1
  Sc  Sc19  1  0.163608  0.501074  0.749369  1
  Ga  Ga20  1  0.160522  0.461154  0.539359  1
  Ga  Ga21  1  0.842799  0.550371  0.034371  1
  Ga  Ga22  1  0.341950  0.949246  0.033407  1
  Ga  Ga23  1  0.161209  0.466185  0.956899  1
  Ga  Ga24  1  0.661249  0.038567  0.539449  1
  Si  Si25  1  0.286721  0.871421  0.747685  1
  Si  Si26  1  0.465458  0.618905  0.254783  1
  Si  Si27  1  0.032087  0.115532  0.747828  1
  Si  Si28  1  0.532395  0.387025  0.747252  1
  Si  Si29  1  0.965219  0.881397  0.254366  1
  Si  Si30  1  0.711442  0.124598  0.256239  1
  Si  Si31  1  0.342111  0.964943  0.461743  1
  Si  Si32  1  0.842385  0.534700  0.461581  1
  Si  Si33  1  0.787722  0.629138  0.747319  1
  Si  Si34  1  0.212258  0.374768  0.256061  1
  Si  Si35  1  0.656994  0.031062  0.957082  1
