# generated using pymatgen
data_NaPr2Er(Si5Pt3)2
_symmetry_space_group_name_H-M   'P 1'
_cell_length_a   8.22072683
_cell_length_b   8.27224792
_cell_length_c   8.27224776
_cell_angle_alpha   137.22596260
_cell_angle_beta   104.49063922
_cell_angle_gamma   90.99742112
_symmetry_Int_Tables_number   1
_chemical_formula_structural   NaPr2Er(Si5Pt3)2
_chemical_formula_sum   'Na1 Pr2 Er1 Si10 Pt6'
_cell_volume   352.15508047
_cell_formula_units_Z   1
loop_
 _symmetry_equiv_pos_site_id
 _symmetry_equiv_pos_as_xyz
  1  'x, y, z'
loop_
 _atom_site_type_symbol
 _atom_site_label
 _atom_site_symmetry_multiplicity
 _atom_site_fract_x
 _atom_site_fract_y
 _atom_site_fract_z
 _atom_site_occupancy
  Na  Na0  1  0.863936  0.628069  0.235867  1
  Pr  Pr1  1  0.395475  0.128916  0.266558  1
  Pr  Pr2  1  0.606873  0.874056  0.732817  1
  Er  Er3  1  0.139076  0.368958  0.770119  1
  Si  Si4  1  0.500403  0.747170  0.247928  1
  Si  Si5  1  0.500403  0.252473  0.753231  1
  Si  Si6  1  0.226205  0.980194  0.746994  1
  Si  Si7  1  0.772296  0.522012  0.752009  1
  Si  Si8  1  0.772296  0.020287  0.250284  1
  Si  Si9  1  0.226205  0.479210  0.246010  1
  Si  Si10  1  0.036455  0.884936  0.151521  1
  Si  Si11  1  0.963286  0.115131  0.848156  1
  Si  Si12  1  0.740716  0.391251  0.349465  1
  Si  Si13  1  0.257885  0.608181  0.649704  1
  Pt  Pt14  1  0.001674  0.753220  0.755989  1
  Pt  Pt15  1  0.001674  0.245686  0.248454  1
  Pt  Pt16  1  0.247576  0.862201  0.385374  1
  Pt  Pt17  1  0.750291  0.138327  0.611964  1
  Pt  Pt18  1  0.476612  0.364561  0.112050  1
  Pt  Pt19  1  0.520664  0.635160  0.885504  1
