# generated using pymatgen
data_TbDyPa4(Al3Os)8
_symmetry_space_group_name_H-M   'P 1'
_cell_length_a   8.85377925
_cell_length_b   8.85377892
_cell_length_c   9.46132000
_cell_angle_alpha   90.00000000
_cell_angle_beta   90.00000000
_cell_angle_gamma   119.67084934
_symmetry_Int_Tables_number   1
_chemical_formula_structural   TbDyPa4(Al3Os)8
_chemical_formula_sum   'Tb1 Dy1 Pa4 Al24 Os8'
_cell_volume   644.42240863
_cell_formula_units_Z   1
loop_
 _symmetry_equiv_pos_site_id
 _symmetry_equiv_pos_as_xyz
  1  'x, y, z'
loop_
 _atom_site_type_symbol
 _atom_site_label
 _atom_site_symmetry_multiplicity
 _atom_site_fract_x
 _atom_site_fract_y
 _atom_site_fract_z
 _atom_site_occupancy
  Tb  Tb0  1  0.196465  0.803535  0.250000  1
  Dy  Dy1  1  0.803261  0.196739  0.750000  1
  Pa  Pa2  1  0.198307  0.393465  0.250000  1
  Pa  Pa3  1  0.801568  0.606365  0.750000  1
  Pa  Pa4  1  0.606535  0.801693  0.250000  1
  Pa  Pa5  1  0.393635  0.198432  0.750000  1
  Al  Al6  1  0.331653  0.668347  0.018859  1
  Al  Al7  1  0.668427  0.331573  0.981022  1
  Al  Al8  1  0.668427  0.331573  0.518978  1
  Al  Al9  1  0.331653  0.668347  0.481141  1
  Al  Al10  1  0.161904  0.324739  0.577706  1
  Al  Al11  1  0.838013  0.675225  0.422313  1
  Al  Al12  1  0.675261  0.838096  0.577706  1
  Al  Al13  1  0.838013  0.675225  0.077687  1
  Al  Al14  1  0.324775  0.161987  0.422313  1
  Al  Al15  1  0.161904  0.324739  0.922294  1
  Al  Al16  1  0.162558  0.837442  0.579249  1
  Al  Al17  1  0.324775  0.161987  0.077687  1
  Al  Al18  1  0.837445  0.162555  0.420851  1
  Al  Al19  1  0.675261  0.838096  0.922294  1
  Al  Al20  1  0.837445  0.162555  0.079149  1
  Al  Al21  1  0.162558  0.837442  0.920751  1
  Al  Al22  1  0.560664  0.123329  0.250000  1
  Al  Al23  1  0.439470  0.876814  0.750000  1
  Al  Al24  1  0.876671  0.439336  0.250000  1
  Al  Al25  1  0.123186  0.560530  0.750000  1
  Al  Al26  1  0.563869  0.436131  0.250000  1
  Al  Al27  1  0.436116  0.563884  0.750000  1
  Al  Al28  1  0.999323  0.000677  0.250000  1
  Al  Al29  1  0.000595  0.999405  0.750000  1
  Os  Os30  1  0.500145  0.000049  0.999895  1
  Os  Os31  1  0.999951  0.499855  0.999895  1
  Os  Os32  1  0.500145  0.000049  0.500105  1
  Os  Os33  1  0.500035  0.499965  0.999944  1
  Os  Os34  1  0.999951  0.499855  0.500105  1
  Os  Os35  1  0.500035  0.499965  0.500056  1
  Os  Os36  1  0.000002  0.999998  0.999959  1
  Os  Os37  1  0.000002  0.999998  0.500041  1
