# generated using pymatgen
data_La2NdRuI3
_symmetry_space_group_name_H-M   'P 1'
_cell_length_a   4.37925100
_cell_length_b   9.58067922
_cell_length_c   12.52696493
_cell_angle_alpha   87.25278879
_cell_angle_beta   90.00000000
_cell_angle_gamma   90.00000000
_symmetry_Int_Tables_number   1
_chemical_formula_structural   La2NdRuI3
_chemical_formula_sum   'La4 Nd2 Ru2 I6'
_cell_volume   524.97979133
_cell_formula_units_Z   2
loop_
 _symmetry_equiv_pos_site_id
 _symmetry_equiv_pos_as_xyz
  1  'x, y, z'
loop_
 _atom_site_type_symbol
 _atom_site_label
 _atom_site_symmetry_multiplicity
 _atom_site_fract_x
 _atom_site_fract_y
 _atom_site_fract_z
 _atom_site_occupancy
  La  La0  1  0.750000  0.118486  0.670142  1
  La  La1  1  0.250000  0.881514  0.329858  1
  La  La2  1  0.750000  0.096988  0.102920  1
  La  La3  1  0.250000  0.903012  0.897080  1
  Nd  Nd4  1  0.250000  0.315222  0.879963  1
  Nd  Nd5  1  0.750000  0.684778  0.120037  1
  Ru  Ru6  1  0.750000  0.114093  0.870170  1
  Ru  Ru7  1  0.250000  0.885907  0.129830  1
  I  I8  1  0.750000  0.131682  0.379904  1
  I  I9  1  0.250000  0.868318  0.620096  1
  I  I10  1  0.250000  0.370840  0.624273  1
  I  I11  1  0.750000  0.629160  0.375727  1
  I  I12  1  0.750000  0.604200  0.867886  1
  I  I13  1  0.250000  0.395800  0.132114  1
