# generated using pymatgen
data_Tb3TmSc4In3Co
_symmetry_space_group_name_H-M   'P 1'
_cell_length_a   9.93359200
_cell_length_b   9.93359198
_cell_length_c   6.97161100
_cell_angle_alpha   90.00000000
_cell_angle_beta   90.00000000
_cell_angle_gamma   120.00000007
_symmetry_Int_Tables_number   1
_chemical_formula_structural   Tb3TmSc4In3Co
_chemical_formula_sum   'Tb6 Tm2 Sc8 In6 Co2'
_cell_volume   595.76695897
_cell_formula_units_Z   2
loop_
 _symmetry_equiv_pos_site_id
 _symmetry_equiv_pos_as_xyz
  1  'x, y, z'
loop_
 _atom_site_type_symbol
 _atom_site_label
 _atom_site_symmetry_multiplicity
 _atom_site_fract_x
 _atom_site_fract_y
 _atom_site_fract_z
 _atom_site_occupancy
  Tb  Tb0  1  0.533109  0.066219  0.509011  1
  Tb  Tb1  1  0.933781  0.466891  0.509011  1
  Tb  Tb2  1  0.533109  0.466891  0.509011  1
  Tb  Tb3  1  0.466891  0.933781  0.009011  1
  Tb  Tb4  1  0.066219  0.533109  0.009011  1
  Tb  Tb5  1  0.466891  0.533109  0.009011  1
  Tm  Tm6  1  0.000000  0.000000  0.503860  1
  Tm  Tm7  1  0.000000  0.000000  0.003860  1
  Sc  Sc8  1  0.179494  0.358990  0.716790  1
  Sc  Sc9  1  0.641010  0.820506  0.716790  1
  Sc  Sc10  1  0.179494  0.820506  0.716790  1
  Sc  Sc11  1  0.820506  0.641010  0.216790  1
  Sc  Sc12  1  0.358990  0.179494  0.216790  1
  Sc  Sc13  1  0.820506  0.179494  0.216790  1
  Sc  Sc14  1  0.666667  0.333333  0.912649  1
  Sc  Sc15  1  0.333333  0.666667  0.412649  1
  In  In16  1  0.837206  0.674411  0.770894  1
  In  In17  1  0.325589  0.162794  0.770894  1
  In  In18  1  0.837206  0.162794  0.770894  1
  In  In19  1  0.162794  0.325589  0.270894  1
  In  In20  1  0.674411  0.837206  0.270894  1
  In  In21  1  0.162794  0.837206  0.270894  1
  Co  Co22  1  0.666667  0.333333  0.272404  1
  Co  Co23  1  0.333333  0.666667  0.772404  1
