# generated using pymatgen
data_Ho2Tc3Ir
_symmetry_space_group_name_H-M   'P 1'
_cell_length_a   5.23303700
_cell_length_b   5.23303590
_cell_length_c   9.27189200
_cell_angle_alpha   90.00000000
_cell_angle_beta   90.00000000
_cell_angle_gamma   120.00000063
_symmetry_Int_Tables_number   1
_chemical_formula_structural   Ho2Tc3Ir
_chemical_formula_sum   'Ho4 Tc6 Ir2'
_cell_volume   219.89052329
_cell_formula_units_Z   2
loop_
 _symmetry_equiv_pos_site_id
 _symmetry_equiv_pos_as_xyz
  1  'x, y, z'
loop_
 _atom_site_type_symbol
 _atom_site_label
 _atom_site_symmetry_multiplicity
 _atom_site_fract_x
 _atom_site_fract_y
 _atom_site_fract_z
 _atom_site_occupancy
  Ho  Ho0  1  0.333333  0.666667  0.435401  1
  Ho  Ho1  1  0.666667  0.333333  0.564599  1
  Ho  Ho2  1  0.666667  0.333333  0.935401  1
  Ho  Ho3  1  0.333333  0.666667  0.064599  1
  Tc  Tc4  1  0.829636  0.170364  0.250000  1
  Tc  Tc5  1  0.829636  0.659272  0.250000  1
  Tc  Tc6  1  0.340728  0.170364  0.250000  1
  Tc  Tc7  1  0.170364  0.829636  0.750000  1
  Tc  Tc8  1  0.170364  0.340728  0.750000  1
  Tc  Tc9  1  0.659272  0.829636  0.750000  1
  Ir  Ir10  1  0.000000  0.000000  0.500000  1
  Ir  Ir11  1  0.000000  0.000000  0.000000  1
