# generated using pymatgen
data_LiPrP3Rh4
_symmetry_space_group_name_H-M   'P 1'
_cell_length_a   3.99305800
_cell_length_b   10.85812000
_cell_length_c   12.82239200
_cell_angle_alpha   90.00000000
_cell_angle_beta   90.00000000
_cell_angle_gamma   90.00000000
_symmetry_Int_Tables_number   1
_chemical_formula_structural   LiPrP3Rh4
_chemical_formula_sum   'Li4 Pr4 P12 Rh16'
_cell_volume   555.94176977
_cell_formula_units_Z   4
loop_
 _symmetry_equiv_pos_site_id
 _symmetry_equiv_pos_as_xyz
  1  'x, y, z'
loop_
 _atom_site_type_symbol
 _atom_site_label
 _atom_site_symmetry_multiplicity
 _atom_site_fract_x
 _atom_site_fract_y
 _atom_site_fract_z
 _atom_site_occupancy
  Li  Li0  1  0.250000  0.707551  0.993323  1
  Li  Li1  1  0.250000  0.792449  0.493323  1
  Li  Li2  1  0.750000  0.292449  0.006677  1
  Li  Li3  1  0.750000  0.207551  0.506677  1
  Pr  Pr4  1  0.250000  0.573402  0.701865  1
  Pr  Pr5  1  0.250000  0.926598  0.201865  1
  Pr  Pr6  1  0.750000  0.426598  0.298135  1
  Pr  Pr7  1  0.750000  0.073402  0.798135  1
  P  P8  1  0.250000  0.430629  0.115622  1
  P  P9  1  0.250000  0.069371  0.615622  1
  P  P10  1  0.750000  0.569371  0.884378  1
  P  P11  1  0.750000  0.930629  0.384378  1
  P  P12  1  0.250000  0.263777  0.856909  1
  P  P13  1  0.250000  0.236223  0.356909  1
  P  P14  1  0.750000  0.736223  0.143091  1
  P  P15  1  0.750000  0.763777  0.643091  1
  P  P16  1  0.250000  0.606067  0.393386  1
  P  P17  1  0.250000  0.893933  0.893386  1
  P  P18  1  0.750000  0.393933  0.606614  1
  P  P19  1  0.750000  0.106067  0.106614  1
  Rh  Rh20  1  0.250000  0.406771  0.478977  1
  Rh  Rh21  1  0.250000  0.093229  0.978977  1
  Rh  Rh22  1  0.750000  0.593229  0.521023  1
  Rh  Rh23  1  0.750000  0.906771  0.021023  1
  Rh  Rh24  1  0.250000  0.229666  0.170450  1
  Rh  Rh25  1  0.250000  0.270334  0.670450  1
  Rh  Rh26  1  0.750000  0.770334  0.829550  1
  Rh  Rh27  1  0.750000  0.729666  0.329550  1
  Rh  Rh28  1  0.250000  0.872833  0.699393  1
  Rh  Rh29  1  0.250000  0.627167  0.199393  1
  Rh  Rh30  1  0.750000  0.127167  0.300607  1
  Rh  Rh31  1  0.750000  0.372833  0.800607  1
  Rh  Rh32  1  0.250000  0.460349  0.934086  1
  Rh  Rh33  1  0.250000  0.039651  0.434086  1
  Rh  Rh34  1  0.750000  0.539651  0.065914  1
  Rh  Rh35  1  0.750000  0.960349  0.565914  1
