# generated using pymatgen
data_Y4Lu6Ga7Si
_symmetry_space_group_name_H-M   'P 1'
_cell_length_a   7.44660000
_cell_length_b   7.67879620
_cell_length_c   14.85256000
_cell_angle_alpha   90.00000000
_cell_angle_beta   90.00000000
_cell_angle_gamma   90.25692467
_symmetry_Int_Tables_number   1
_chemical_formula_structural   Y4Lu6Ga7Si
_chemical_formula_sum   'Y8 Lu12 Ga14 Si2'
_cell_volume   849.27456294
_cell_formula_units_Z   2
loop_
 _symmetry_equiv_pos_site_id
 _symmetry_equiv_pos_as_xyz
  1  'x, y, z'
loop_
 _atom_site_type_symbol
 _atom_site_label
 _atom_site_symmetry_multiplicity
 _atom_site_fract_x
 _atom_site_fract_y
 _atom_site_fract_z
 _atom_site_occupancy
  Y  Y0  1  0.014335  0.179951  0.096567  1
  Y  Y1  1  0.985665  0.820049  0.903433  1
  Y  Y2  1  0.487401  0.679328  0.904255  1
  Y  Y3  1  0.985665  0.820049  0.596567  1
  Y  Y4  1  0.512599  0.320672  0.095745  1
  Y  Y5  1  0.014335  0.179951  0.403433  1
  Y  Y6  1  0.512599  0.320672  0.404255  1
  Y  Y7  1  0.487401  0.679328  0.595745  1
  Lu  Lu8  1  0.162590  0.507457  0.750000  1
  Lu  Lu9  1  0.837410  0.492543  0.250000  1
  Lu  Lu10  1  0.335545  0.009279  0.250000  1
  Lu  Lu11  1  0.664455  0.990721  0.750000  1
  Lu  Lu12  1  0.330493  0.173954  0.621717  1
  Lu  Lu13  1  0.669507  0.826046  0.378283  1
  Lu  Lu14  1  0.171978  0.670957  0.377428  1
  Lu  Lu15  1  0.669507  0.826046  0.121717  1
  Lu  Lu16  1  0.828022  0.329043  0.622572  1
  Lu  Lu17  1  0.330493  0.173954  0.878283  1
  Lu  Lu18  1  0.828022  0.329043  0.877428  1
  Lu  Lu19  1  0.171978  0.670957  0.122572  1
  Ga  Ga20  1  0.034541  0.114246  0.750000  1
  Ga  Ga21  1  0.965459  0.885754  0.250000  1
  Ga  Ga22  1  0.465657  0.607700  0.250000  1
  Ga  Ga23  1  0.534343  0.392300  0.750000  1
  Ga  Ga24  1  0.282204  0.871752  0.750000  1
  Ga  Ga25  1  0.717796  0.128248  0.250000  1
  Ga  Ga26  1  0.157972  0.467313  0.540377  1
  Ga  Ga27  1  0.842028  0.532687  0.459623  1
  Ga  Ga28  1  0.339604  0.967070  0.459358  1
  Ga  Ga29  1  0.842028  0.532687  0.040377  1
  Ga  Ga30  1  0.660396  0.032930  0.540642  1
  Ga  Ga31  1  0.157972  0.467313  0.959623  1
  Ga  Ga32  1  0.660396  0.032930  0.959358  1
  Ga  Ga33  1  0.339604  0.967070  0.040642  1
  Si  Si34  1  0.218228  0.374315  0.250000  1
  Si  Si35  1  0.781772  0.625685  0.750000  1
