# generated using pymatgen
data_Dy2HoSc3FeBi2
_symmetry_space_group_name_H-M   'P 1'
_cell_length_a   7.97002822
_cell_length_b   7.97137128
_cell_length_c   4.17307800
_cell_angle_alpha   90.00000000
_cell_angle_beta   90.00000000
_cell_angle_gamma   119.99977714
_symmetry_Int_Tables_number   1
_chemical_formula_structural   Dy2HoSc3FeBi2
_chemical_formula_sum   'Dy2 Ho1 Sc3 Fe1 Bi2'
_cell_volume   229.60482281
_cell_formula_units_Z   1
loop_
 _symmetry_equiv_pos_site_id
 _symmetry_equiv_pos_as_xyz
  1  'x, y, z'
loop_
 _atom_site_type_symbol
 _atom_site_label
 _atom_site_symmetry_multiplicity
 _atom_site_fract_x
 _atom_site_fract_y
 _atom_site_fract_z
 _atom_site_occupancy
  Dy  Dy0  1  0.000090  0.613985  0.000000  1
  Dy  Dy1  1  0.386030  0.385937  0.000000  1
  Ho  Ho2  1  0.614433  0.999980  0.000000  1
  Sc  Sc3  1  0.220975  0.999993  0.500000  1
  Sc  Sc4  1  0.999655  0.220782  0.500000  1
  Sc  Sc5  1  0.778957  0.779288  0.500000  1
  Fe  Fe6  1  0.999454  0.000007  0.000000  1
  Bi  Bi7  1  0.333793  0.667157  0.500000  1
  Bi  Bi8  1  0.666613  0.332870  0.500000  1
