# generated using pymatgen
data_LuSc2Pa(CrB6)2
_symmetry_space_group_name_H-M   'P 1'
_cell_length_a   3.47338500
_cell_length_b   8.96846748
_cell_length_c   11.33166251
_cell_angle_alpha   90.09561099
_cell_angle_beta   90.00000000
_cell_angle_gamma   90.00000000
_symmetry_Int_Tables_number   1
_chemical_formula_structural   LuSc2Pa(CrB6)2
_chemical_formula_sum   'Lu2 Sc4 Pa2 Cr4 B24'
_cell_volume   352.99145241
_cell_formula_units_Z   2
loop_
 _symmetry_equiv_pos_site_id
 _symmetry_equiv_pos_as_xyz
  1  'x, y, z'
loop_
 _atom_site_type_symbol
 _atom_site_label
 _atom_site_symmetry_multiplicity
 _atom_site_fract_x
 _atom_site_fract_y
 _atom_site_fract_z
 _atom_site_occupancy
  Lu  Lu0  1  0.000000  0.822494  0.085055  1
  Lu  Lu1  1  0.000000  0.177506  0.914945  1
  Sc  Sc2  1  0.000000  0.443967  0.128001  1
  Sc  Sc3  1  0.000000  0.556033  0.871999  1
  Sc  Sc4  1  0.000000  0.944003  0.369684  1
  Sc  Sc5  1  0.000000  0.055997  0.630316  1
  Pa  Pa6  1  0.000000  0.320628  0.414181  1
  Pa  Pa7  1  0.000000  0.679372  0.585819  1
  Cr  Cr8  1  0.000000  0.142518  0.182481  1
  Cr  Cr9  1  0.000000  0.857482  0.817519  1
  Cr  Cr10  1  0.000000  0.639272  0.319953  1
  Cr  Cr11  1  0.000000  0.360728  0.680047  1
  B  B12  1  0.500000  0.054164  0.066581  1
  B  B13  1  0.500000  0.945836  0.933419  1
  B  B14  1  0.500000  0.555078  0.431033  1
  B  B15  1  0.500000  0.444922  0.568967  1
  B  B16  1  0.500000  0.251882  0.080495  1
  B  B17  1  0.500000  0.748118  0.919505  1
  B  B18  1  0.500000  0.753309  0.415924  1
  B  B19  1  0.500000  0.246691  0.584076  1
  B  B20  1  0.500000  0.293888  0.233726  1
  B  B21  1  0.500000  0.706112  0.766274  1
  B  B22  1  0.500000  0.794560  0.262871  1
  B  B23  1  0.500000  0.205440  0.737129  1
  B  B24  1  0.500000  0.129023  0.315314  1
  B  B25  1  0.500000  0.870977  0.684686  1
  B  B26  1  0.500000  0.630591  0.182095  1
  B  B27  1  0.500000  0.369409  0.817905  1
  B  B28  1  0.500000  0.483084  0.284679  1
  B  B29  1  0.500000  0.516916  0.715321  1
  B  B30  1  0.500000  0.981495  0.211826  1
  B  B31  1  0.500000  0.018505  0.788174  1
  B  B32  1  0.500000  0.098154  0.473417  1
  B  B33  1  0.500000  0.901846  0.526583  1
  B  B34  1  0.500000  0.598510  0.026727  1
  B  B35  1  0.500000  0.401490  0.973273  1
