# generated using pymatgen
data_Dy5Y2Er(WO6)4
_symmetry_space_group_name_H-M   'P 1'
_cell_length_a   5.39966215
_cell_length_b   7.71487446
_cell_length_c   11.47373418
_cell_angle_alpha   75.47117386
_cell_angle_beta   90.00055969
_cell_angle_gamma   89.97375846
_symmetry_Int_Tables_number   1
_chemical_formula_structural   Dy5Y2Er(WO6)4
_chemical_formula_sum   'Dy5 Y2 Er1 W4 O24'
_cell_volume   462.68477726
_cell_formula_units_Z   1
loop_
 _symmetry_equiv_pos_site_id
 _symmetry_equiv_pos_as_xyz
  1  'x, y, z'
loop_
 _atom_site_type_symbol
 _atom_site_label
 _atom_site_symmetry_multiplicity
 _atom_site_fract_x
 _atom_site_fract_y
 _atom_site_fract_z
 _atom_site_occupancy
  Dy  Dy0  1  0.184201  0.205920  0.422132  1
  Dy  Dy1  1  0.183908  0.794521  0.077583  1
  Dy  Dy2  1  0.815742  0.794120  0.577745  1
  Dy  Dy3  1  0.740575  0.000275  0.249578  1
  Dy  Dy4  1  0.259507  0.000323  0.750529  1
  Y  Y5  1  0.683984  0.499862  0.249930  1
  Y  Y6  1  0.316246  0.499564  0.750408  1
  Er  Er7  1  0.815988  0.206463  0.921762  1
  W  W8  1  0.255860  0.275884  0.114530  1
  W  W9  1  0.255684  0.723884  0.384978  1
  W  W10  1  0.744376  0.723723  0.884990  1
  W  W11  1  0.744571  0.275964  0.615379  1
  O  O12  1  0.457710  0.208503  0.272470  1
  O  O13  1  0.457578  0.791262  0.227117  1
  O  O14  1  0.542221  0.790871  0.727317  1
  O  O15  1  0.543880  0.208398  0.773872  1
  O  O16  1  0.044251  0.061069  0.103770  1
  O  O17  1  0.044612  0.939354  0.395605  1
  O  O18  1  0.953495  0.940868  0.895754  1
  O  O19  1  0.955578  0.060754  0.604398  1
  O  O20  1  0.981275  0.288849  0.228462  1
  O  O21  1  0.980833  0.711132  0.271446  1
  O  O22  1  0.019361  0.711525  0.771738  1
  O  O23  1  0.018681  0.288583  0.729453  1
  O  O24  1  0.848058  0.364994  0.452319  1
  O  O25  1  0.848204  0.635037  0.047855  1
  O  O26  1  0.151948  0.634790  0.547944  1
  O  O27  1  0.149609  0.364184  0.951860  1
  O  O28  1  0.639599  0.509287  0.614744  1
  O  O29  1  0.641272  0.489686  0.885431  1
  O  O30  1  0.360316  0.490510  0.385289  1
  O  O31  1  0.359854  0.509097  0.114345  1
  O  O32  1  0.466153  0.153519  0.570043  1
  O  O33  1  0.465667  0.846116  0.930484  1
  O  O34  1  0.533774  0.846738  0.430448  1
  O  O35  1  0.535430  0.154371  0.068294  1
