# generated using pymatgen
data_Sc6Ti4Al12Ru6Rh
_symmetry_space_group_name_H-M   'P 1'
_cell_length_a   8.82141759
_cell_length_b   8.82141794
_cell_length_c   8.83642100
_cell_angle_alpha   59.94372731
_cell_angle_beta   59.94372598
_cell_angle_gamma   60.06933595
_symmetry_Int_Tables_number   1
_chemical_formula_structural   Sc6Ti4Al12Ru6Rh
_chemical_formula_sum   'Sc6 Ti4 Al12 Ru6 Rh1'
_cell_volume   486.06564476
_cell_formula_units_Z   1
loop_
 _symmetry_equiv_pos_site_id
 _symmetry_equiv_pos_as_xyz
  1  'x, y, z'
loop_
 _atom_site_type_symbol
 _atom_site_label
 _atom_site_symmetry_multiplicity
 _atom_site_fract_x
 _atom_site_fract_y
 _atom_site_fract_z
 _atom_site_occupancy
  Sc  Sc0  1  0.706693  0.293300  0.290562  1
  Sc  Sc1  1  0.706693  0.293300  0.709445  1
  Sc  Sc2  1  0.707534  0.707534  0.292466  1
  Sc  Sc3  1  0.293300  0.706693  0.709445  1
  Sc  Sc4  1  0.293300  0.706693  0.290562  1
  Sc  Sc5  1  0.293064  0.293064  0.706936  1
  Ti  Ti6  1  0.641176  0.119563  0.119630  1
  Ti  Ti7  1  0.119563  0.641176  0.119630  1
  Ti  Ti8  1  0.120992  0.120992  0.641495  1
  Ti  Ti9  1  0.120992  0.120992  0.116519  1
  Al  Al10  1  0.357969  0.880463  0.880784  1
  Al  Al11  1  0.880463  0.357969  0.880784  1
  Al  Al12  1  0.880338  0.880338  0.357783  1
  Al  Al13  1  0.880338  0.880338  0.881543  1
  Al  Al14  1  0.998803  0.333659  0.333769  1
  Al  Al15  1  0.333659  0.998803  0.333769  1
  Al  Al16  1  0.333232  0.333232  0.000384  1
  Al  Al17  1  0.333232  0.333232  0.333152  1
  Al  Al18  1  0.002417  0.665456  0.666064  1
  Al  Al19  1  0.665456  0.002417  0.666064  1
  Al  Al20  1  0.666665  0.666665  0.000533  1
  Al  Al21  1  0.666665  0.666665  0.666139  1
  Ru  Ru22  1  0.999959  0.999959  0.000041  1
  Ru  Ru23  1  0.497706  0.001373  0.001697  1
  Ru  Ru24  1  0.497706  0.001373  0.499223  1
  Ru  Ru25  1  0.498622  0.498622  0.001378  1
  Ru  Ru26  1  0.001373  0.497706  0.499223  1
  Ru  Ru27  1  0.001373  0.497706  0.001697  1
  Rh  Rh28  1  0.000716  0.000716  0.499284  1
