# generated using pymatgen
data_Sc4Al24FePt8
_symmetry_space_group_name_H-M   'P 1'
_cell_length_a   7.43143302
_cell_length_b   7.43692849
_cell_length_c   13.01566446
_cell_angle_alpha   84.52838537
_cell_angle_beta   79.05479959
_cell_angle_gamma   60.00953185
_symmetry_Int_Tables_number   1
_chemical_formula_structural   Sc4Al24FePt8
_chemical_formula_sum   'Sc4 Al24 Fe1 Pt8'
_cell_volume   611.69074051
_cell_formula_units_Z   1
loop_
 _symmetry_equiv_pos_site_id
 _symmetry_equiv_pos_as_xyz
  1  'x, y, z'
loop_
 _atom_site_type_symbol
 _atom_site_label
 _atom_site_symmetry_multiplicity
 _atom_site_fract_x
 _atom_site_fract_y
 _atom_site_fract_z
 _atom_site_occupancy
  Sc  Sc0  1  0.395328  0.166467  0.810979  1
  Sc  Sc1  1  0.604653  0.833541  0.189056  1
  Sc  Sc2  1  0.730679  0.498349  0.811198  1
  Sc  Sc3  1  0.269317  0.501633  0.188843  1
  Al  Al4  1  0.691021  0.823452  0.945900  1
  Al  Al5  1  0.308984  0.176554  0.054104  1
  Al  Al6  1  0.145602  0.832644  0.563036  1
  Al  Al7  1  0.854400  0.167356  0.436954  1
  Al  Al8  1  0.480016  0.167455  0.560422  1
  Al  Al9  1  0.519987  0.832543  0.439567  1
  Al  Al10  1  0.221230  0.165849  0.320422  1
  Al  Al11  1  0.778761  0.834152  0.679577  1
  Al  Al12  1  0.435634  0.504995  0.679596  1
  Al  Al13  1  0.564374  0.494996  0.320404  1
  Al  Al14  1  0.107523  0.162970  0.676759  1
  Al  Al15  1  0.892480  0.837031  0.323237  1
  Al  Al16  1  0.345246  0.496086  0.946020  1
  Al  Al17  1  0.654743  0.503927  0.053986  1
  Al  Al18  1  0.015861  0.183237  0.952844  1
  Al  Al19  1  0.984143  0.816750  0.047153  1
  Al  Al20  1  0.187210  0.498389  0.439631  1
  Al  Al21  1  0.812790  0.501611  0.560360  1
  Al  Al22  1  0.732584  0.163826  0.181605  1
  Al  Al23  1  0.267420  0.836175  0.818387  1
  Al  Al24  1  0.059103  0.615372  0.823043  1
  Al  Al25  1  0.940901  0.384637  0.176948  1
  Al  Al26  1  0.853254  0.043691  0.818065  1
  Al  Al27  1  0.146746  0.956308  0.181927  1
  Fe  Fe28  1  0.999999  0.500004  0.000008  1
  Pt  Pt29  1  0.119849  0.492632  0.639731  1
  Pt  Pt30  1  0.880153  0.507366  0.360260  1
  Pt  Pt31  1  0.656803  0.171551  0.999938  1
  Pt  Pt32  1  0.343198  0.828456  0.000059  1
  Pt  Pt33  1  0.536805  0.166455  0.360888  1
  Pt  Pt34  1  0.463197  0.833542  0.639103  1
  Pt  Pt35  1  0.778204  0.176078  0.637894  1
  Pt  Pt36  1  0.221801  0.823919  0.362097  1
