# generated using pymatgen
data_K8BaSr3(HfAs4)2
_symmetry_space_group_name_H-M   'P 1'
_cell_length_a   10.52170150
_cell_length_b   10.47565891
_cell_length_c   7.93600065
_cell_angle_alpha   88.25903337
_cell_angle_beta   88.67918223
_cell_angle_gamma   119.50562904
_symmetry_Int_Tables_number   1
_chemical_formula_structural   K8BaSr3(HfAs4)2
_chemical_formula_sum   'K8 Ba1 Sr3 Hf2 As8'
_cell_volume   760.19688333
_cell_formula_units_Z   1
loop_
 _symmetry_equiv_pos_site_id
 _symmetry_equiv_pos_as_xyz
  1  'x, y, z'
loop_
 _atom_site_type_symbol
 _atom_site_label
 _atom_site_symmetry_multiplicity
 _atom_site_fract_x
 _atom_site_fract_y
 _atom_site_fract_z
 _atom_site_occupancy
  K  K0  1  0.475222  0.941390  0.382979  1
  K  K1  1  0.939221  0.473169  0.884550  1
  K  K2  1  0.865193  0.721169  0.171738  1
  K  K3  1  0.269941  0.127865  0.235548  1
  K  K4  1  0.854920  0.138360  0.199839  1
  K  K5  1  0.128285  0.268329  0.736622  1
  K  K6  1  0.719852  0.864936  0.674044  1
  K  K7  1  0.139680  0.857241  0.700752  1
  Ba  Ba8  1  0.066944  0.532725  0.394076  1
  Sr  Sr9  1  0.476306  0.531804  0.375869  1
  Sr  Sr10  1  0.531733  0.069852  0.891609  1
  Sr  Sr11  1  0.530618  0.474513  0.876113  1
  Hf  Hf12  1  0.661687  0.333244  0.490987  1
  Hf  Hf13  1  0.337617  0.665786  0.987968  1
  As  As14  1  0.643090  0.329968  0.160095  1
  As  As15  1  0.336592  0.644387  0.660084  1
  As  As16  1  0.212501  0.399077  0.125018  1
  As  As17  1  0.608186  0.798182  0.078507  1
  As  As18  1  0.210073  0.809841  0.091548  1
  As  As19  1  0.793127  0.606448  0.578173  1
  As  As20  1  0.398618  0.209002  0.629249  1
  As  As21  1  0.800711  0.202829  0.602695  1
