# generated using pymatgen
data_Cs2RbNpF6
_symmetry_space_group_name_H-M   'P 1'
_cell_length_a   6.90302412
_cell_length_b   6.91203256
_cell_length_c   7.02994500
_cell_angle_alpha   60.97244387
_cell_angle_beta   89.73269436
_cell_angle_gamma   60.37300769
_symmetry_Int_Tables_number   1
_chemical_formula_structural   Cs2RbNpF6
_chemical_formula_sum   'Cs2 Rb1 Np1 F6'
_cell_volume   242.43333238
_cell_formula_units_Z   1
loop_
 _symmetry_equiv_pos_site_id
 _symmetry_equiv_pos_as_xyz
  1  'x, y, z'
loop_
 _atom_site_type_symbol
 _atom_site_label
 _atom_site_symmetry_multiplicity
 _atom_site_fract_x
 _atom_site_fract_y
 _atom_site_fract_z
 _atom_site_occupancy
  Cs  Cs0  1  0.746124  0.503270  0.242494  1
  Cs  Cs1  1  0.253875  0.496730  0.757506  1
  Rb  Rb2  1  0.499999  0.000000  0.500000  1
  Np  Np3  1  0.000000  0.000000  0.000000  1
  F  F4  1  0.279552  0.008009  0.166337  1
  F  F5  1  0.262809  0.545417  0.179389  1
  F  F6  1  0.862698  0.930953  0.309864  1
  F  F7  1  0.137302  0.069048  0.690136  1
  F  F8  1  0.737191  0.454584  0.820611  1
  F  F9  1  0.720447  0.991992  0.833663  1
