# generated using pymatgen
data_AsRhBr18
_symmetry_space_group_name_H-M   'P 1'
_cell_length_a   9.12069655
_cell_length_b   9.17096753
_cell_length_c   9.10134983
_cell_angle_alpha   92.80028091
_cell_angle_beta   92.85527420
_cell_angle_gamma   92.72463875
_symmetry_Int_Tables_number   1
_chemical_formula_structural   AsRhBr18
_chemical_formula_sum   'As1 Rh1 Br18'
_cell_volume   758.48157349
_cell_formula_units_Z   1
loop_
 _symmetry_equiv_pos_site_id
 _symmetry_equiv_pos_as_xyz
  1  'x, y, z'
loop_
 _atom_site_type_symbol
 _atom_site_label
 _atom_site_symmetry_multiplicity
 _atom_site_fract_x
 _atom_site_fract_y
 _atom_site_fract_z
 _atom_site_occupancy
  As  As0  1  0.500000  0.500000  0.500000  1
  Rh  Rh1  1  0.000000  0.000000  0.000000  1
  Br  Br2  1  0.791818  0.475292  0.530173  1
  Br  Br3  1  0.529732  0.790213  0.474529  1
  Br  Br4  1  0.475497  0.530858  0.792147  1
  Br  Br5  1  0.208182  0.524708  0.469827  1
  Br  Br6  1  0.470268  0.209787  0.525471  1
  Br  Br7  1  0.524503  0.469142  0.207853  1
  Br  Br8  1  0.899184  0.366255  0.765478  1
  Br  Br9  1  0.764794  0.897720  0.366779  1
  Br  Br10  1  0.366922  0.765251  0.899060  1
  Br  Br11  1  0.100816  0.633745  0.234522  1
  Br  Br12  1  0.235206  0.102280  0.633221  1
  Br  Br13  1  0.633078  0.234749  0.100940  1
  Br  Br14  1  0.007686  0.968430  0.725731  1
  Br  Br15  1  0.726352  0.007720  0.967392  1
  Br  Br16  1  0.967320  0.727504  0.006723  1
  Br  Br17  1  0.992314  0.031570  0.274269  1
  Br  Br18  1  0.273648  0.992280  0.032608  1
  Br  Br19  1  0.032680  0.272496  0.993277  1
