# generated using pymatgen
data_Sr4Co2SnO9
_symmetry_space_group_name_H-M   'P 1'
_cell_length_a   9.74142000
_cell_length_b   9.74141984
_cell_length_c   7.94948400
_cell_angle_alpha   90.00000000
_cell_angle_beta   90.00000000
_cell_angle_gamma   120.00000056
_symmetry_Int_Tables_number   1
_chemical_formula_structural   Sr4Co2SnO9
_chemical_formula_sum   'Sr12 Co6 Sn3 O27'
_cell_volume   653.30216608
_cell_formula_units_Z   3
loop_
 _symmetry_equiv_pos_site_id
 _symmetry_equiv_pos_as_xyz
  1  'x, y, z'
loop_
 _atom_site_type_symbol
 _atom_site_label
 _atom_site_symmetry_multiplicity
 _atom_site_fract_x
 _atom_site_fract_y
 _atom_site_fract_z
 _atom_site_occupancy
  Sr  Sr0  1  0.367682  0.000000  0.000000  1
  Sr  Sr1  1  0.000000  0.367683  0.000000  1
  Sr  Sr2  1  0.632318  0.632318  0.000000  1
  Sr  Sr3  1  0.301155  0.336484  0.257175  1
  Sr  Sr4  1  0.035328  0.698844  0.257175  1
  Sr  Sr5  1  0.663516  0.964671  0.257175  1
  Sr  Sr6  1  0.325396  0.000000  0.499999  1
  Sr  Sr7  1  0.000000  0.325397  0.499999  1
  Sr  Sr8  1  0.674603  0.674603  0.499999  1
  Sr  Sr9  1  0.698844  0.035329  0.742823  1
  Sr  Sr10  1  0.336485  0.301155  0.742823  1
  Sr  Sr11  1  0.964671  0.663515  0.742823  1
  Co  Co12  1  0.333334  0.666667  0.102342  1
  Co  Co13  1  0.000000  0.000000  0.342745  1
  Co  Co14  1  0.333334  0.666667  0.418476  1
  Co  Co15  1  0.666667  0.333334  0.581522  1
  Co  Co16  1  0.000000  0.000000  0.657253  1
  Co  Co17  1  0.666667  0.333334  0.897656  1
  Sn  Sn18  1  0.000000  0.000000  0.000000  1
  Sn  Sn19  1  0.666667  0.333334  0.241963  1
  Sn  Sn20  1  0.333334  0.666667  0.758036  1
  O  O21  1  0.681697  0.183240  0.053991  1
  O  O22  1  0.501543  0.318303  0.053991  1
  O  O23  1  0.816760  0.498457  0.053991  1
  O  O24  1  0.161878  0.007363  0.186595  1
  O  O25  1  0.992636  0.154516  0.186595  1
  O  O26  1  0.845484  0.838121  0.186595  1
  O  O27  1  0.170060  0.520139  0.259936  1
  O  O28  1  0.479861  0.649921  0.259936  1
  O  O29  1  0.350078  0.829939  0.259936  1
  O  O30  1  0.684049  0.186731  0.428037  1
  O  O31  1  0.502682  0.315951  0.428037  1
  O  O32  1  0.813269  0.497318  0.428037  1
  O  O33  1  0.849175  0.000000  0.499999  1
  O  O34  1  0.150824  0.150825  0.499999  1
  O  O35  1  0.000000  0.849176  0.499999  1
  O  O36  1  0.315952  0.502683  0.571962  1
  O  O37  1  0.186732  0.684049  0.571962  1
  O  O38  1  0.497316  0.813268  0.571962  1
  O  O39  1  0.520139  0.170062  0.740062  1
  O  O40  1  0.829938  0.350077  0.740062  1
  O  O41  1  0.649922  0.479861  0.740062  1
  O  O42  1  0.007364  0.161878  0.813404  1
  O  O43  1  0.838121  0.845484  0.813404  1
  O  O44  1  0.154516  0.992636  0.813404  1
  O  O45  1  0.318303  0.501542  0.946007  1
  O  O46  1  0.183240  0.681697  0.946007  1
  O  O47  1  0.498457  0.816760  0.946007  1
