# generated using pymatgen
data_YbZn7Ag4Au
_symmetry_space_group_name_H-M   'P 1'
_cell_length_a   7.03903018
_cell_length_b   7.03902888
_cell_length_c   7.03902800
_cell_angle_alpha   97.66810189
_cell_angle_beta   97.68118424
_cell_angle_gamma   137.13047039
_symmetry_Int_Tables_number   1
_chemical_formula_structural   YbZn7Ag4Au
_chemical_formula_sum   'Yb1 Zn7 Ag4 Au1'
_cell_volume   220.86708797
_cell_formula_units_Z   1
loop_
 _symmetry_equiv_pos_site_id
 _symmetry_equiv_pos_as_xyz
  1  'x, y, z'
loop_
 _atom_site_type_symbol
 _atom_site_label
 _atom_site_symmetry_multiplicity
 _atom_site_fract_x
 _atom_site_fract_y
 _atom_site_fract_z
 _atom_site_occupancy
  Yb  Yb0  1  0.005466  0.000000  0.005466  1
  Zn  Zn1  1  0.000944  0.497084  0.999029  1
  Zn  Zn2  1  0.501946  0.502916  0.503861  1
  Zn  Zn3  1  0.000945  0.001916  0.503862  1
  Zn  Zn4  1  0.501946  0.998084  0.999029  1
  Zn  Zn5  1  0.287295  0.500000  0.787295  1
  Zn  Zn6  1  0.498051  0.719143  0.217193  1
  Zn  Zn7  1  0.498051  0.280857  0.778908  1
  Ag  Ag8  1  0.352856  0.000000  0.352856  1
  Ag  Ag9  1  0.000582  0.655941  0.656527  1
  Ag  Ag10  1  0.000586  0.344059  0.344641  1
  Ag  Ag11  1  0.659740  0.000000  0.659740  1
  Au  Au12  1  0.691591  0.500000  0.191591  1
