# generated using pymatgen
data_Sc3Ga3Ni2Au
_symmetry_space_group_name_H-M   'P 1'
_cell_length_a   7.09048300
_cell_length_b   7.09048427
_cell_length_c   3.41548300
_cell_angle_alpha   90.00000000
_cell_angle_beta   90.00000000
_cell_angle_gamma   120.00000809
_symmetry_Int_Tables_number   1
_chemical_formula_structural   Sc3Ga3Ni2Au
_chemical_formula_sum   'Sc3 Ga3 Ni2 Au1'
_cell_volume   148.70803746
_cell_formula_units_Z   1
loop_
 _symmetry_equiv_pos_site_id
 _symmetry_equiv_pos_as_xyz
  1  'x, y, z'
loop_
 _atom_site_type_symbol
 _atom_site_label
 _atom_site_symmetry_multiplicity
 _atom_site_fract_x
 _atom_site_fract_y
 _atom_site_fract_z
 _atom_site_occupancy
  Sc  Sc0  1  0.393357  0.980391  0.499999  1
  Sc  Sc1  1  0.019609  0.412967  0.499999  1
  Sc  Sc2  1  0.587032  0.606642  0.499999  1
  Ga  Ga3  1  0.740611  0.992527  0.000000  1
  Ga  Ga4  1  0.251917  0.259390  0.000000  1
  Ga  Ga5  1  0.007473  0.748082  0.000000  1
  Ni  Ni6  1  0.333334  0.666667  0.000000  1
  Ni  Ni7  1  0.000000  0.000000  0.499999  1
  Au  Au8  1  0.666666  0.333333  0.000000  1
