# generated using pymatgen
data_V4CN
_symmetry_space_group_name_H-M   'P 1'
_cell_length_a   4.50925700
_cell_length_b   4.98231500
_cell_length_c   5.72643000
_cell_angle_alpha   90.00000000
_cell_angle_beta   90.00000000
_cell_angle_gamma   90.00000000
_symmetry_Int_Tables_number   1
_chemical_formula_structural   V4CN
_chemical_formula_sum   'V8 C2 N2'
_cell_volume   128.65306172
_cell_formula_units_Z   2
loop_
 _symmetry_equiv_pos_site_id
 _symmetry_equiv_pos_as_xyz
  1  'x, y, z'
loop_
 _atom_site_type_symbol
 _atom_site_label
 _atom_site_symmetry_multiplicity
 _atom_site_fract_x
 _atom_site_fract_y
 _atom_site_fract_z
 _atom_site_occupancy
  V  V0  1  0.242907  0.075570  0.879782  1
  V  V1  1  0.742907  0.924430  0.620218  1
  V  V2  1  0.257093  0.575570  0.620218  1
  V  V3  1  0.757093  0.424430  0.879782  1
  V  V4  1  0.245262  0.579036  0.114675  1
  V  V5  1  0.745262  0.420964  0.385325  1
  V  V6  1  0.254738  0.079036  0.385325  1
  V  V7  1  0.754738  0.920964  0.114675  1
  C  C8  1  0.500000  0.250000  0.126296  1
  C  C9  1  0.000000  0.750000  0.373704  1
  N  N10  1  0.500000  0.750000  0.872834  1
  N  N11  1  0.000000  0.250000  0.627166  1
