# generated using pymatgen
data_Nd2Th2Al17SiRh6
_symmetry_space_group_name_H-M   'P 1'
_cell_length_a   7.64673200
_cell_length_b   7.62771453
_cell_length_c   9.55119375
_cell_angle_alpha   90.04999521
_cell_angle_beta   89.91349731
_cell_angle_gamma   119.54362014
_symmetry_Int_Tables_number   1
_chemical_formula_structural   Nd2Th2Al17SiRh6
_chemical_formula_sum   'Nd2 Th2 Al17 Si1 Rh6'
_cell_volume   484.65980269
_cell_formula_units_Z   1
loop_
 _symmetry_equiv_pos_site_id
 _symmetry_equiv_pos_as_xyz
  1  'x, y, z'
loop_
 _atom_site_type_symbol
 _atom_site_label
 _atom_site_symmetry_multiplicity
 _atom_site_fract_x
 _atom_site_fract_y
 _atom_site_fract_z
 _atom_site_occupancy
  Nd  Nd0  1  0.673851  0.998736  0.747910  1
  Nd  Nd1  1  0.329933  0.005910  0.250063  1
  Th  Th2  1  0.995066  0.665330  0.747797  1
  Th  Th3  1  0.004180  0.329531  0.253908  1
  Al  Al4  1  0.131913  0.131006  0.749626  1
  Al  Al5  1  0.867775  0.869893  0.249202  1
  Al  Al6  1  0.997405  0.671879  0.423088  1
  Al  Al7  1  0.997898  0.667837  0.074522  1
  Al  Al8  1  0.336924  0.003063  0.927529  1
  Al  Al9  1  0.002795  0.332161  0.929697  1
  Al  Al10  1  0.662223  0.995958  0.071752  1
  Al  Al11  1  0.658305  0.991547  0.426004  1
  Al  Al12  1  0.336995  0.003650  0.573213  1
  Al  Al13  1  0.336711  0.334264  0.048123  1
  Al  Al14  1  0.664433  0.666547  0.951937  1
  Al  Al15  1  0.663721  0.665919  0.549007  1
  Al  Al16  1  0.338753  0.334508  0.452220  1
  Al  Al17  1  0.342684  0.547239  0.750209  1
  Al  Al18  1  0.659178  0.452761  0.250086  1
  Al  Al19  1  0.543738  0.339316  0.750280  1
  Al  Al20  1  0.453387  0.659644  0.249452  1
  Si  Si21  1  0.003100  0.332707  0.573993  1
  Rh  Rh22  1  0.681421  0.330966  0.501692  1
  Rh  Rh23  1  0.318776  0.662449  0.500876  1
  Rh  Rh24  1  0.325391  0.668867  0.999170  1
  Rh  Rh25  1  0.674473  0.330527  0.999096  1
  Rh  Rh26  1  0.999075  0.007027  0.500382  1
  Rh  Rh27  1  0.999896  0.000756  0.999166  1
