# generated using pymatgen
data_Sm4Bi4Sb2Rh7
_symmetry_space_group_name_H-M   'P 1'
_cell_length_a   7.82342551
_cell_length_b   7.79385613
_cell_length_c   7.79385492
_cell_angle_alpha   110.04245397
_cell_angle_beta   109.11101689
_cell_angle_gamma   109.11101881
_symmetry_Int_Tables_number   1
_chemical_formula_structural   Sm4Bi4Sb2Rh7
_chemical_formula_sum   'Sm4 Bi4 Sb2 Rh7'
_cell_volume   366.47802525
_cell_formula_units_Z   1
loop_
 _symmetry_equiv_pos_site_id
 _symmetry_equiv_pos_as_xyz
  1  'x, y, z'
loop_
 _atom_site_type_symbol
 _atom_site_label
 _atom_site_symmetry_multiplicity
 _atom_site_fract_x
 _atom_site_fract_y
 _atom_site_fract_z
 _atom_site_occupancy
  Sm  Sm0  1  0.472716  0.002993  0.002993  1
  Sm  Sm1  1  0.003821  0.501911  0.001911  1
  Sm  Sm2  1  0.003821  0.001911  0.501911  1
  Sm  Sm3  1  0.472716  0.469723  0.469723  1
  Bi  Bi4  1  0.983474  0.306453  0.306453  1
  Bi  Bi5  1  0.688593  0.992435  0.696158  1
  Bi  Bi6  1  0.688593  0.696158  0.992435  1
  Bi  Bi7  1  0.983474  0.677021  0.677021  1
  Sb  Sb8  1  0.327741  0.992172  0.335569  1
  Sb  Sb9  1  0.327741  0.335569  0.992172  1
  Rh  Rh10  1  0.085959  0.042980  0.042980  1
  Rh  Rh11  1  0.497057  0.748528  0.248528  1
  Rh  Rh12  1  0.739120  0.498761  0.240358  1
  Rh  Rh13  1  0.244499  0.745725  0.498773  1
  Rh  Rh14  1  0.244499  0.498773  0.745725  1
  Rh  Rh15  1  0.497057  0.248528  0.748528  1
  Rh  Rh16  1  0.739120  0.240358  0.498761  1
