# generated using pymatgen
data_Ba8Y3Tm(CoO5)4
_symmetry_space_group_name_H-M   'P 1'
_cell_length_a   6.15489607
_cell_length_b   7.96427696
_cell_length_c   12.48145586
_cell_angle_alpha   91.32814846
_cell_angle_beta   89.98733660
_cell_angle_gamma   89.98842855
_symmetry_Int_Tables_number   1
_chemical_formula_structural   Ba8Y3Tm(CoO5)4
_chemical_formula_sum   'Ba8 Y3 Tm1 Co4 O20'
_cell_volume   611.66779037
_cell_formula_units_Z   1
loop_
 _symmetry_equiv_pos_site_id
 _symmetry_equiv_pos_as_xyz
  1  'x, y, z'
loop_
 _atom_site_type_symbol
 _atom_site_label
 _atom_site_symmetry_multiplicity
 _atom_site_fract_x
 _atom_site_fract_y
 _atom_site_fract_z
 _atom_site_occupancy
  Ba  Ba0  1  0.758828  0.491371  0.360906  1
  Ba  Ba1  1  0.742258  0.993916  0.861438  1
  Ba  Ba2  1  0.241178  0.506842  0.640293  1
  Ba  Ba3  1  0.257775  0.008241  0.137134  1
  Ba  Ba4  1  0.753853  0.993472  0.382698  1
  Ba  Ba5  1  0.746707  0.492631  0.882513  1
  Ba  Ba6  1  0.245681  0.007552  0.619285  1
  Ba  Ba7  1  0.253286  0.505989  0.115856  1
  Y  Y8  1  0.748554  0.262066  0.629236  1
  Y  Y9  1  0.751920  0.761836  0.128306  1
  Y  Y10  1  0.251769  0.737878  0.371404  1
  Tm  Tm11  1  0.248362  0.239109  0.871214  1
  Co  Co12  1  0.740014  0.746023  0.592507  1
  Co  Co13  1  0.758320  0.245935  0.090473  1
  Co  Co14  1  0.259147  0.253761  0.407856  1
  Co  Co15  1  0.240642  0.753904  0.907309  1
  O  O16  1  0.757811  0.969638  0.636047  1
  O  O17  1  0.742826  0.469138  0.134006  1
  O  O18  1  0.242256  0.030444  0.364546  1
  O  O19  1  0.256366  0.528015  0.865817  1
  O  O20  1  0.737151  0.053972  0.168140  1
  O  O21  1  0.763535  0.553913  0.669920  1
  O  O22  1  0.262306  0.950103  0.833276  1
  O  O23  1  0.236478  0.445532  0.330370  1
  O  O24  1  0.545536  0.746642  0.272374  1
  O  O25  1  0.963690  0.247080  0.770924  1
  O  O26  1  0.458330  0.252849  0.731906  1
  O  O27  1  0.045189  0.753050  0.227367  1
  O  O28  1  0.528273  0.231537  0.985723  1
  O  O29  1  0.965125  0.730799  0.486225  1
  O  O30  1  0.467065  0.768415  0.012657  1
  O  O31  1  0.033553  0.269048  0.514187  1
  O  O32  1  0.031046  0.235220  0.016283  1
  O  O33  1  0.465727  0.736173  0.521477  1
  O  O34  1  0.967472  0.763569  0.979193  1
  O  O35  1  0.531973  0.264337  0.481135  1
