# generated using pymatgen
data_Hf3Ti3BeSb2
_symmetry_space_group_name_H-M   'P 1'
_cell_length_a   7.25460500
_cell_length_b   7.25460592
_cell_length_c   3.75774100
_cell_angle_alpha   90.00000000
_cell_angle_beta   90.00000000
_cell_angle_gamma   120.00000036
_symmetry_Int_Tables_number   1
_chemical_formula_structural   Hf3Ti3BeSb2
_chemical_formula_sum   'Hf3 Ti3 Be1 Sb2'
_cell_volume   171.27148780
_cell_formula_units_Z   1
loop_
 _symmetry_equiv_pos_site_id
 _symmetry_equiv_pos_as_xyz
  1  'x, y, z'
loop_
 _atom_site_type_symbol
 _atom_site_label
 _atom_site_symmetry_multiplicity
 _atom_site_fract_x
 _atom_site_fract_y
 _atom_site_fract_z
 _atom_site_occupancy
  Hf  Hf0  1  0.615001  0.000000  0.000000  1
  Hf  Hf1  1  0.384999  0.384999  0.000000  1
  Hf  Hf2  1  0.000000  0.615002  0.000000  1
  Ti  Ti3  1  0.226144  0.000000  0.499999  1
  Ti  Ti4  1  0.000000  0.226144  0.499999  1
  Ti  Ti5  1  0.773857  0.773856  0.499999  1
  Be  Be6  1  0.000000  0.000000  0.000000  1
  Sb  Sb7  1  0.666667  0.333334  0.499999  1
  Sb  Sb8  1  0.333334  0.666667  0.499999  1
