# generated using pymatgen
data_Ho4Tm5LuIn8
_symmetry_space_group_name_H-M   'P 1'
_cell_length_a   9.18125145
_cell_length_b   9.18125041
_cell_length_c   6.61904300
_cell_angle_alpha   90.00185738
_cell_angle_beta   90.00186421
_cell_angle_gamma   119.72852567
_symmetry_Int_Tables_number   1
_chemical_formula_structural   Ho4Tm5LuIn8
_chemical_formula_sum   'Ho4 Tm5 Lu1 In8'
_cell_volume   484.51931695
_cell_formula_units_Z   1
loop_
 _symmetry_equiv_pos_site_id
 _symmetry_equiv_pos_as_xyz
  1  'x, y, z'
loop_
 _atom_site_type_symbol
 _atom_site_label
 _atom_site_symmetry_multiplicity
 _atom_site_fract_x
 _atom_site_fract_y
 _atom_site_fract_z
 _atom_site_occupancy
  Ho  Ho0  1  0.291925  0.000686  0.750035  1
  Ho  Ho1  1  0.708043  0.999247  0.249961  1
  Ho  Ho2  1  0.000753  0.291957  0.750039  1
  Ho  Ho3  1  0.999314  0.708075  0.249965  1
  Tm  Tm4  1  0.334839  0.665161  0.500000  1
  Tm  Tm5  1  0.665158  0.334842  0.500000  1
  Tm  Tm6  1  0.665163  0.334837  0.000000  1
  Tm  Tm7  1  0.710050  0.710071  0.750030  1
  Tm  Tm8  1  0.289929  0.289950  0.249970  1
  Lu  Lu9  1  0.334857  0.665143  0.000000  1
  In  In10  1  0.999997  0.000003  0.500000  1
  In  In11  1  0.000004  0.999996  0.000000  1
  In  In12  1  0.629942  0.999517  0.750033  1
  In  In13  1  0.369984  0.000369  0.249969  1
  In  In14  1  0.999631  0.630016  0.750031  1
  In  In15  1  0.000483  0.370058  0.249967  1
  In  In16  1  0.373653  0.373725  0.750049  1
  In  In17  1  0.626275  0.626347  0.249951  1
