# generated using pymatgen
data_YbFeN2
_symmetry_space_group_name_H-M   'P 1'
_cell_length_a   5.61354855
_cell_length_b   7.64375500
_cell_length_c   5.13113186
_cell_angle_alpha   90.00000000
_cell_angle_beta   115.79841072
_cell_angle_gamma   90.00000000
_symmetry_Int_Tables_number   1
_chemical_formula_structural   YbFeN2
_chemical_formula_sum   'Yb4 Fe4 N8'
_cell_volume   198.22551051
_cell_formula_units_Z   4
loop_
 _symmetry_equiv_pos_site_id
 _symmetry_equiv_pos_as_xyz
  1  'x, y, z'
loop_
 _atom_site_type_symbol
 _atom_site_label
 _atom_site_symmetry_multiplicity
 _atom_site_fract_x
 _atom_site_fract_y
 _atom_site_fract_z
 _atom_site_occupancy
  Yb  Yb0  1  0.329688  0.898499  0.666440  1
  Yb  Yb1  1  0.670312  0.398499  0.833560  1
  Yb  Yb2  1  0.670312  0.101501  0.333560  1
  Yb  Yb3  1  0.329688  0.601501  0.166440  1
  Fe  Fe4  1  0.092617  0.366994  0.615416  1
  Fe  Fe5  1  0.907383  0.866994  0.884584  1
  Fe  Fe6  1  0.907383  0.633006  0.384584  1
  Fe  Fe7  1  0.092617  0.133006  0.115416  1
  N  N8  1  0.260766  0.926464  0.105721  1
  N  N9  1  0.739234  0.426464  0.394279  1
  N  N10  1  0.739234  0.073536  0.894279  1
  N  N11  1  0.260766  0.573536  0.605721  1
  N  N12  1  0.159098  0.323234  0.972170  1
  N  N13  1  0.840902  0.823234  0.527830  1
  N  N14  1  0.840902  0.676766  0.027830  1
  N  N15  1  0.159098  0.176766  0.472170  1
