# generated using pymatgen
data_Ac8HoPt6
_symmetry_space_group_name_H-M   'P 1'
_cell_length_a   8.07151991
_cell_length_b   8.07151943
_cell_length_c   8.07152033
_cell_angle_alpha   72.10956302
_cell_angle_beta   72.10956243
_cell_angle_gamma   72.10957165
_symmetry_Int_Tables_number   1
_chemical_formula_structural   Ac8HoPt6
_chemical_formula_sum   'Ac8 Ho1 Pt6'
_cell_volume   462.89258710
_cell_formula_units_Z   1
loop_
 _symmetry_equiv_pos_site_id
 _symmetry_equiv_pos_as_xyz
  1  'x, y, z'
loop_
 _atom_site_type_symbol
 _atom_site_label
 _atom_site_symmetry_multiplicity
 _atom_site_fract_x
 _atom_site_fract_y
 _atom_site_fract_z
 _atom_site_occupancy
  Ac  Ac0  1  0.386966  0.676936  0.159948  1
  Ac  Ac1  1  0.198123  0.198123  0.198123  1
  Ac  Ac2  1  0.840052  0.613034  0.323064  1
  Ac  Ac3  1  0.676936  0.159948  0.386966  1
  Ac  Ac4  1  0.323064  0.840052  0.613034  1
  Ac  Ac5  1  0.159948  0.386966  0.676936  1
  Ac  Ac6  1  0.801877  0.801877  0.801877  1
  Ac  Ac7  1  0.613034  0.323064  0.840052  1
  Ho  Ho8  1  0.000000  0.000000  0.000000  1
  Pt  Pt9  1  0.845122  0.394875  0.037299  1
  Pt  Pt10  1  0.605125  0.962701  0.154878  1
  Pt  Pt11  1  0.037299  0.845122  0.394875  1
  Pt  Pt12  1  0.962701  0.154878  0.605125  1
  Pt  Pt13  1  0.394875  0.037299  0.845122  1
  Pt  Pt14  1  0.154878  0.605125  0.962701  1
