# generated using pymatgen
data_Zr2TaWN6
_symmetry_space_group_name_H-M   'P 1'
_cell_length_a   5.17503419
_cell_length_b   5.17503390
_cell_length_c   7.40546996
_cell_angle_alpha   90.44459470
_cell_angle_beta   89.55540684
_cell_angle_gamma   145.87598565
_symmetry_Int_Tables_number   1
_chemical_formula_structural   Zr2TaWN6
_chemical_formula_sum   'Zr2 Ta1 W1 N6'
_cell_volume   111.25429128
_cell_formula_units_Z   1
loop_
 _symmetry_equiv_pos_site_id
 _symmetry_equiv_pos_as_xyz
  1  'x, y, z'
loop_
 _atom_site_type_symbol
 _atom_site_label
 _atom_site_symmetry_multiplicity
 _atom_site_fract_x
 _atom_site_fract_y
 _atom_site_fract_z
 _atom_site_occupancy
  Zr  Zr0  1  0.745958  0.254042  0.249741  1
  Zr  Zr1  1  0.254042  0.745958  0.750259  1
  Ta  Ta2  1  0.000000  0.000000  0.000000  1
  W  W3  1  0.000000  0.000000  0.500000  1
  N  N4  1  0.084822  0.915178  0.254716  1
  N  N5  1  0.915178  0.084822  0.745284  1
  N  N6  1  0.363457  0.636543  0.431394  1
  N  N7  1  0.636543  0.363457  0.568606  1
  N  N8  1  0.361340  0.638660  0.071876  1
  N  N9  1  0.638660  0.361340  0.928124  1
