# generated using pymatgen
data_LiTbDy(Co3P2)3
_symmetry_space_group_name_H-M   'P 1'
_cell_length_a   3.67030100
_cell_length_b   10.25748600
_cell_length_c   11.82044000
_cell_angle_alpha   90.00000000
_cell_angle_beta   90.00000000
_cell_angle_gamma   90.00000000
_symmetry_Int_Tables_number   1
_chemical_formula_structural   LiTbDy(Co3P2)3
_chemical_formula_sum   'Li2 Tb2 Dy2 Co18 P12'
_cell_volume   445.01664762
_cell_formula_units_Z   2
loop_
 _symmetry_equiv_pos_site_id
 _symmetry_equiv_pos_as_xyz
  1  'x, y, z'
loop_
 _atom_site_type_symbol
 _atom_site_label
 _atom_site_symmetry_multiplicity
 _atom_site_fract_x
 _atom_site_fract_y
 _atom_site_fract_z
 _atom_site_occupancy
  Li  Li0  1  0.250000  0.701819  0.991112  1
  Li  Li1  1  0.250000  0.798181  0.491112  1
  Tb  Tb2  1  0.750000  0.420437  0.297645  1
  Tb  Tb3  1  0.750000  0.079563  0.797645  1
  Dy  Dy4  1  0.250000  0.579433  0.701985  1
  Dy  Dy5  1  0.250000  0.920567  0.201985  1
  Co  Co6  1  0.750000  0.289108  0.008709  1
  Co  Co7  1  0.750000  0.210892  0.508709  1
  Co  Co8  1  0.250000  0.403850  0.487692  1
  Co  Co9  1  0.250000  0.096150  0.987692  1
  Co  Co10  1  0.750000  0.590983  0.514511  1
  Co  Co11  1  0.750000  0.909017  0.014511  1
  Co  Co12  1  0.250000  0.224109  0.174546  1
  Co  Co13  1  0.250000  0.275891  0.674546  1
  Co  Co14  1  0.750000  0.779684  0.826343  1
  Co  Co15  1  0.750000  0.720316  0.326343  1
  Co  Co16  1  0.250000  0.880484  0.698531  1
  Co  Co17  1  0.250000  0.619516  0.198531  1
  Co  Co18  1  0.750000  0.120931  0.299781  1
  Co  Co19  1  0.750000  0.379069  0.799781  1
  Co  Co20  1  0.250000  0.463735  0.931356  1
  Co  Co21  1  0.250000  0.036265  0.431356  1
  Co  Co22  1  0.750000  0.533359  0.066066  1
  Co  Co23  1  0.750000  0.966641  0.566066  1
  P  P24  1  0.250000  0.422420  0.111674  1
  P  P25  1  0.250000  0.077580  0.611674  1
  P  P26  1  0.750000  0.577127  0.884082  1
  P  P27  1  0.750000  0.922873  0.384082  1
  P  P28  1  0.250000  0.268463  0.866964  1
  P  P29  1  0.250000  0.231537  0.366964  1
  P  P30  1  0.750000  0.729472  0.138201  1
  P  P31  1  0.750000  0.770528  0.638201  1
  P  P32  1  0.250000  0.602322  0.393769  1
  P  P33  1  0.250000  0.897678  0.893769  1
  P  P34  1  0.750000  0.395341  0.607033  1
  P  P35  1  0.750000  0.104659  0.107033  1
