# generated using pymatgen
data_Ho10Pb6C
_symmetry_space_group_name_H-M   'P 1'
_cell_length_a   9.01511700
_cell_length_b   9.01511732
_cell_length_c   6.63266300
_cell_angle_alpha   90.00000000
_cell_angle_beta   90.00000000
_cell_angle_gamma   119.99999515
_symmetry_Int_Tables_number   1
_chemical_formula_structural   Ho10Pb6C
_chemical_formula_sum   'Ho10 Pb6 C1'
_cell_volume   466.83277072
_cell_formula_units_Z   1
loop_
 _symmetry_equiv_pos_site_id
 _symmetry_equiv_pos_as_xyz
  1  'x, y, z'
loop_
 _atom_site_type_symbol
 _atom_site_label
 _atom_site_symmetry_multiplicity
 _atom_site_fract_x
 _atom_site_fract_y
 _atom_site_fract_z
 _atom_site_occupancy
  Ho  Ho0  1  0.000000  0.774692  0.278147  1
  Ho  Ho1  1  0.225308  0.225308  0.278147  1
  Ho  Ho2  1  0.774692  0.000000  0.278147  1
  Ho  Ho3  1  0.000000  0.225308  0.721853  1
  Ho  Ho4  1  0.774692  0.774692  0.721853  1
  Ho  Ho5  1  0.225308  0.000000  0.721853  1
  Ho  Ho6  1  0.333333  0.666667  0.000000  1
  Ho  Ho7  1  0.666667  0.333333  0.000000  1
  Ho  Ho8  1  0.666667  0.333333  0.500000  1
  Ho  Ho9  1  0.333333  0.666667  0.500000  1
  Pb  Pb10  1  0.000000  0.399438  0.251178  1
  Pb  Pb11  1  0.600562  0.600562  0.251178  1
  Pb  Pb12  1  0.399438  0.000000  0.251178  1
  Pb  Pb13  1  0.000000  0.600562  0.748822  1
  Pb  Pb14  1  0.399438  0.399438  0.748822  1
  Pb  Pb15  1  0.600562  0.000000  0.748822  1
  C  C16  1  0.000000  0.000000  0.500000  1
