# generated using pymatgen
data_Yb(GaCu)6
_symmetry_space_group_name_H-M   'P 1'
_cell_length_a   6.60537301
_cell_length_b   6.60537301
_cell_length_c   6.60537395
_cell_angle_alpha   133.78798967
_cell_angle_beta   100.05676723
_cell_angle_gamma   97.66520094
_symmetry_Int_Tables_number   1
_chemical_formula_structural   Yb(GaCu)6
_chemical_formula_sum   'Yb1 Ga6 Cu6'
_cell_volume   191.30549535
_cell_formula_units_Z   1
loop_
 _symmetry_equiv_pos_site_id
 _symmetry_equiv_pos_as_xyz
  1  'x, y, z'
loop_
 _atom_site_type_symbol
 _atom_site_label
 _atom_site_symmetry_multiplicity
 _atom_site_fract_x
 _atom_site_fract_y
 _atom_site_fract_z
 _atom_site_occupancy
  Yb  Yb0  1  0.000000  0.000000  0.000000  1
  Ga  Ga1  1  0.348928  0.000000  0.348928  1
  Ga  Ga2  1  0.651072  0.000000  0.651072  1
  Ga  Ga3  1  0.653119  0.653119  0.000000  1
  Ga  Ga4  1  0.346881  0.346881  0.000000  1
  Ga  Ga5  1  0.188915  0.688915  0.500000  1
  Ga  Ga6  1  0.811085  0.311085  0.500000  1
  Cu  Cu7  1  0.763565  0.500000  0.263565  1
  Cu  Cu8  1  0.236435  0.500000  0.736435  1
  Cu  Cu9  1  0.000000  0.000000  0.500000  1
  Cu  Cu10  1  0.000000  0.500000  0.000000  1
  Cu  Cu11  1  0.500000  0.000000  0.000000  1
  Cu  Cu12  1  0.500000  0.500000  0.500000  1
