# generated using pymatgen
data_Ta3VIr2C
_symmetry_space_group_name_H-M   'P 1'
_cell_length_a   8.35043972
_cell_length_b   8.34997767
_cell_length_c   8.34942200
_cell_angle_alpha   59.99362816
_cell_angle_beta   59.99602154
_cell_angle_gamma   59.99842395
_symmetry_Int_Tables_number   1
_chemical_formula_structural   Ta3VIr2C
_chemical_formula_sum   'Ta12 V4 Ir8 C4'
_cell_volume   411.62043293
_cell_formula_units_Z   4
loop_
 _symmetry_equiv_pos_site_id
 _symmetry_equiv_pos_as_xyz
  1  'x, y, z'
loop_
 _atom_site_type_symbol
 _atom_site_label
 _atom_site_symmetry_multiplicity
 _atom_site_fract_x
 _atom_site_fract_y
 _atom_site_fract_z
 _atom_site_occupancy
  Ta  Ta0  1  0.811540  0.811559  0.188415  1
  Ta  Ta1  1  0.188526  0.188553  0.811462  1
  Ta  Ta2  1  0.811490  0.188358  0.811529  1
  Ta  Ta3  1  0.188405  0.811484  0.188604  1
  Ta  Ta4  1  0.188346  0.811503  0.811525  1
  Ta  Ta5  1  0.811470  0.188419  0.188597  1
  Ta  Ta6  1  0.438455  0.438444  0.061576  1
  Ta  Ta7  1  0.061465  0.061457  0.438541  1
  Ta  Ta8  1  0.438511  0.061628  0.438474  1
  Ta  Ta9  1  0.061609  0.438507  0.061399  1
  Ta  Ta10  1  0.061646  0.438492  0.438470  1
  Ta  Ta11  1  0.438529  0.061592  0.061391  1
  V  V12  1  0.124995  0.624991  0.625056  1
  V  V13  1  0.625033  0.125007  0.625027  1
  V  V14  1  0.625026  0.624989  0.125004  1
  V  V15  1  0.625006  0.624979  0.625011  1
  Ir  Ir16  1  0.755838  0.414649  0.414753  1
  Ir  Ir17  1  0.414625  0.755969  0.414698  1
  Ir  Ir18  1  0.414625  0.414600  0.756054  1
  Ir  Ir19  1  0.414630  0.414611  0.414709  1
  Ir  Ir20  1  0.494127  0.835361  0.835259  1
  Ir  Ir21  1  0.835375  0.494050  0.835290  1
  Ir  Ir22  1  0.835386  0.835406  0.493910  1
  Ir  Ir23  1  0.835358  0.835384  0.835265  1
  C  C24  1  0.624995  0.125003  0.124998  1
  C  C25  1  0.124997  0.625005  0.124996  1
  C  C26  1  0.124998  0.125002  0.624993  1
  C  C27  1  0.124995  0.124999  0.124995  1
