# generated using pymatgen
data_Sm7Sc3Si8O3
_symmetry_space_group_name_H-M   'P 1'
_cell_length_a   10.41103500
_cell_length_b   10.41103493
_cell_length_c   4.26779500
_cell_angle_alpha   90.00000000
_cell_angle_beta   90.00000000
_cell_angle_gamma   119.99999704
_symmetry_Int_Tables_number   1
_chemical_formula_structural   Sm7Sc3Si8O3
_chemical_formula_sum   'Sm7 Sc3 Si8 O3'
_cell_volume   400.61020218
_cell_formula_units_Z   1
loop_
 _symmetry_equiv_pos_site_id
 _symmetry_equiv_pos_as_xyz
  1  'x, y, z'
loop_
 _atom_site_type_symbol
 _atom_site_label
 _atom_site_symmetry_multiplicity
 _atom_site_fract_x
 _atom_site_fract_y
 _atom_site_fract_z
 _atom_site_occupancy
  Sm  Sm0  1  0.213605  0.786395  0.000000  1
  Sm  Sm1  1  0.213605  0.427210  0.000000  1
  Sm  Sm2  1  0.786395  0.572790  0.000000  1
  Sm  Sm3  1  0.427210  0.213605  0.000000  1
  Sm  Sm4  1  0.000000  0.000000  0.000000  1
  Sm  Sm5  1  0.572790  0.786395  0.000000  1
  Sm  Sm6  1  0.786395  0.213605  0.000000  1
  Sc  Sc7  1  0.500000  0.000000  0.500000  1
  Sc  Sc8  1  0.000000  0.500000  0.500000  1
  Sc  Sc9  1  0.500000  0.500000  0.500000  1
  Si  Si10  1  0.666667  0.333333  0.500000  1
  Si  Si11  1  0.000000  0.771166  0.500000  1
  Si  Si12  1  0.333333  0.666667  0.500000  1
  Si  Si13  1  0.228834  0.228834  0.500000  1
  Si  Si14  1  0.771166  0.771166  0.500000  1
  Si  Si15  1  0.771166  0.000000  0.500000  1
  Si  Si16  1  0.228834  0.000000  0.500000  1
  Si  Si17  1  0.000000  0.228834  0.500000  1
  O  O18  1  0.500000  0.500000  0.000000  1
  O  O19  1  0.500000  0.000000  0.000000  1
  O  O20  1  0.000000  0.500000  0.000000  1
