# generated using pymatgen
data_YbMnTeO
_symmetry_space_group_name_H-M   'P 1'
_cell_length_a   6.25593500
_cell_length_b   8.30918500
_cell_length_c   6.25770000
_cell_angle_alpha   90.00000000
_cell_angle_beta   90.00000000
_cell_angle_gamma   90.00000000
_symmetry_Int_Tables_number   1
_chemical_formula_structural   YbMnTeO
_chemical_formula_sum   'Yb4 Mn4 Te4 O4'
_cell_volume   325.28601715
_cell_formula_units_Z   4
loop_
 _symmetry_equiv_pos_site_id
 _symmetry_equiv_pos_as_xyz
  1  'x, y, z'
loop_
 _atom_site_type_symbol
 _atom_site_label
 _atom_site_symmetry_multiplicity
 _atom_site_fract_x
 _atom_site_fract_y
 _atom_site_fract_z
 _atom_site_occupancy
  Yb  Yb0  1  0.250012  0.499695  0.375452  1
  Yb  Yb1  1  0.750012  0.500305  0.375452  1
  Yb  Yb2  1  0.249987  0.499695  0.875452  1
  Yb  Yb3  1  0.749987  0.500305  0.875452  1
  Mn  Mn4  1  0.999323  0.170701  0.123623  1
  Mn  Mn5  1  0.499323  0.829299  0.123623  1
  Mn  Mn6  1  0.500676  0.170701  0.623624  1
  Mn  Mn7  1  0.000677  0.829299  0.623624  1
  Te  Te8  1  0.499874  0.173014  0.125466  1
  Te  Te9  1  0.999873  0.826987  0.125466  1
  Te  Te10  1  0.000126  0.173014  0.625467  1
  Te  Te11  1  0.500125  0.826987  0.625467  1
  O  O12  1  0.999810  0.417671  0.125455  1
  O  O13  1  0.499810  0.582329  0.125455  1
  O  O14  1  0.500189  0.417671  0.625456  1
  O  O15  1  0.000190  0.582329  0.625456  1
