# generated using pymatgen
data_TiAlCo20ReB6
_symmetry_space_group_name_H-M   'P 1'
_cell_length_a   7.39807535
_cell_length_b   7.39807550
_cell_length_c   7.39807500
_cell_angle_alpha   59.99999776
_cell_angle_beta   59.99999708
_cell_angle_gamma   59.99999357
_symmetry_Int_Tables_number   1
_chemical_formula_structural   TiAlCo20ReB6
_chemical_formula_sum   'Ti1 Al1 Co20 Re1 B6'
_cell_volume   286.31308938
_cell_formula_units_Z   1
loop_
 _symmetry_equiv_pos_site_id
 _symmetry_equiv_pos_as_xyz
  1  'x, y, z'
loop_
 _atom_site_type_symbol
 _atom_site_label
 _atom_site_symmetry_multiplicity
 _atom_site_fract_x
 _atom_site_fract_y
 _atom_site_fract_z
 _atom_site_occupancy
  Ti  Ti0  1  0.750000  0.750000  0.750000  1
  Al  Al1  1  0.000000  0.000000  0.000000  1
  Co  Co2  1  0.616816  0.616816  0.149555  1
  Co  Co3  1  0.616816  0.149555  0.616816  1
  Co  Co4  1  0.149555  0.616816  0.616816  1
  Co  Co5  1  0.616816  0.616816  0.616816  1
  Co  Co6  1  0.380853  0.380853  0.857438  1
  Co  Co7  1  0.380853  0.857438  0.380853  1
  Co  Co8  1  0.857438  0.380853  0.380853  1
  Co  Co9  1  0.380853  0.380853  0.380853  1
  Co  Co10  1  0.000597  0.000597  0.341007  1
  Co  Co11  1  0.657799  0.000597  0.341007  1
  Co  Co12  1  0.000597  0.657799  0.341007  1
  Co  Co13  1  0.657799  0.341007  0.000597  1
  Co  Co14  1  0.000597  0.341007  0.000597  1
  Co  Co15  1  0.000597  0.341007  0.657799  1
  Co  Co16  1  0.341007  0.657799  0.000597  1
  Co  Co17  1  0.341007  0.000597  0.657799  1
  Co  Co18  1  0.341007  0.000597  0.000597  1
  Co  Co19  1  0.000597  0.000597  0.657799  1
  Co  Co20  1  0.000597  0.657799  0.000597  1
  Co  Co21  1  0.657799  0.000597  0.000597  1
  Re  Re22  1  0.250000  0.250000  0.250000  1
  B  B23  1  0.724170  0.724170  0.275830  1
  B  B24  1  0.275830  0.724170  0.275830  1
  B  B25  1  0.724170  0.275830  0.275830  1
  B  B26  1  0.275830  0.275830  0.724170  1
  B  B27  1  0.724170  0.275830  0.724170  1
  B  B28  1  0.275830  0.724170  0.724170  1
