# generated using pymatgen
data_Zr4Ge2B4IrRu9
_symmetry_space_group_name_H-M   'P 1'
_cell_length_a   9.41942090
_cell_length_b   9.41942090
_cell_length_c   3.08187300
_cell_angle_alpha   90.00000000
_cell_angle_beta   90.00000000
_cell_angle_gamma   89.60521798
_symmetry_Int_Tables_number   1
_chemical_formula_structural   Zr4Ge2B4IrRu9
_chemical_formula_sum   'Zr4 Ge2 B4 Ir1 Ru9'
_cell_volume   273.43420142
_cell_formula_units_Z   1
loop_
 _symmetry_equiv_pos_site_id
 _symmetry_equiv_pos_as_xyz
  1  'x, y, z'
loop_
 _atom_site_type_symbol
 _atom_site_label
 _atom_site_symmetry_multiplicity
 _atom_site_fract_x
 _atom_site_fract_y
 _atom_site_fract_z
 _atom_site_occupancy
  Zr  Zr0  1  0.679300  0.179300  0.000000  1
  Zr  Zr1  1  0.320700  0.820700  0.000000  1
  Zr  Zr2  1  0.175279  0.324721  0.000000  1
  Zr  Zr3  1  0.824721  0.675279  0.000000  1
  Ge  Ge4  1  0.000000  0.000000  0.000000  1
  Ge  Ge5  1  0.500000  0.500000  0.000000  1
  B  B6  1  0.122423  0.622423  0.000000  1
  B  B7  1  0.877577  0.377577  0.000000  1
  B  B8  1  0.625406  0.874594  0.000000  1
  B  B9  1  0.374594  0.125406  0.000000  1
  Ir  Ir10  1  0.500000  0.000000  0.500000  1
  Ru  Ru11  1  0.215851  0.067599  0.500000  1
  Ru  Ru12  1  0.784149  0.932401  0.500000  1
  Ru  Ru13  1  0.067230  0.784880  0.500000  1
  Ru  Ru14  1  0.715120  0.432770  0.500000  1
  Ru  Ru15  1  0.932770  0.215120  0.500000  1
  Ru  Ru16  1  0.284880  0.567230  0.500000  1
  Ru  Ru17  1  0.567599  0.715851  0.500000  1
  Ru  Ru18  1  0.432401  0.284149  0.500000  1
  Ru  Ru19  1  0.000000  0.500000  0.500000  1
