# generated using pymatgen
data_Sc22FeOs3Rh4
_symmetry_space_group_name_H-M   'P 1'
_cell_length_a   9.45579366
_cell_length_b   9.47509392
_cell_length_c   9.47509462
_cell_angle_alpha   59.86528393
_cell_angle_beta   60.06736651
_cell_angle_gamma   60.06736133
_symmetry_Int_Tables_number   1
_chemical_formula_structural   Sc22FeOs3Rh4
_chemical_formula_sum   'Sc22 Fe1 Os3 Rh4'
_cell_volume   600.26982136
_cell_formula_units_Z   1
loop_
 _symmetry_equiv_pos_site_id
 _symmetry_equiv_pos_as_xyz
  1  'x, y, z'
loop_
 _atom_site_type_symbol
 _atom_site_label
 _atom_site_symmetry_multiplicity
 _atom_site_fract_x
 _atom_site_fract_y
 _atom_site_fract_z
 _atom_site_occupancy
  Sc  Sc0  1  0.841505  0.842806  0.842806  1
  Sc  Sc1  1  0.527116  0.157194  0.157194  1
  Sc  Sc2  1  0.157194  0.158495  0.527116  1
  Sc  Sc3  1  0.157194  0.527116  0.158495  1
  Sc  Sc4  1  0.842806  0.841505  0.472884  1
  Sc  Sc5  1  0.842806  0.472884  0.841505  1
  Sc  Sc6  1  0.472884  0.842806  0.842806  1
  Sc  Sc7  1  0.158495  0.157194  0.157194  1
  Sc  Sc8  1  0.196841  0.803159  0.196841  1
  Sc  Sc9  1  0.197030  0.802970  0.802970  1
  Sc  Sc10  1  0.802970  0.197030  0.197030  1
  Sc  Sc11  1  0.803159  0.803159  0.196841  1
  Sc  Sc12  1  0.196841  0.196841  0.803159  1
  Sc  Sc13  1  0.803159  0.196841  0.803159  1
  Sc  Sc14  1  0.382084  0.387412  0.387412  1
  Sc  Sc15  1  0.156910  0.612588  0.612588  1
  Sc  Sc16  1  0.612588  0.156910  0.617916  1
  Sc  Sc17  1  0.612588  0.617916  0.156910  1
  Sc  Sc18  1  0.387412  0.843090  0.382084  1
  Sc  Sc19  1  0.387412  0.382084  0.843090  1
  Sc  Sc20  1  0.843090  0.387412  0.387412  1
  Sc  Sc21  1  0.617916  0.612588  0.612588  1
  Fe  Fe22  1  0.500000  0.500000  0.500000  1
  Os  Os23  1  0.000000  0.500000  0.500000  1
  Os  Os24  1  0.500000  0.000000  0.000000  1
  Os  Os25  1  0.000000  0.000000  0.000000  1
  Rh  Rh26  1  0.500000  0.500000  0.000000  1
  Rh  Rh27  1  0.000000  0.000000  0.500000  1
  Rh  Rh28  1  0.500000  0.000000  0.500000  1
  Rh  Rh29  1  0.000000  0.500000  0.000000  1
