# generated using pymatgen
data_ErLu3(ReB6)2
_symmetry_space_group_name_H-M   'P 1'
_cell_length_a   3.62785300
_cell_length_b   9.07806776
_cell_length_c   11.43959396
_cell_angle_alpha   89.99393372
_cell_angle_beta   90.00000000
_cell_angle_gamma   90.00000000
_symmetry_Int_Tables_number   1
_chemical_formula_structural   ErLu3(ReB6)2
_chemical_formula_sum   'Er2 Lu6 Re4 B24'
_cell_volume   376.75038856
_cell_formula_units_Z   2
loop_
 _symmetry_equiv_pos_site_id
 _symmetry_equiv_pos_as_xyz
  1  'x, y, z'
loop_
 _atom_site_type_symbol
 _atom_site_label
 _atom_site_symmetry_multiplicity
 _atom_site_fract_x
 _atom_site_fract_y
 _atom_site_fract_z
 _atom_site_occupancy
  Er  Er0  1  0.000000  0.322689  0.413731  1
  Er  Er1  1  0.000000  0.677311  0.586269  1
  Lu  Lu2  1  0.000000  0.823069  0.086010  1
  Lu  Lu3  1  0.000000  0.176931  0.913990  1
  Lu  Lu4  1  0.000000  0.943246  0.370094  1
  Lu  Lu5  1  0.000000  0.056754  0.629906  1
  Lu  Lu6  1  0.000000  0.443121  0.129082  1
  Lu  Lu7  1  0.000000  0.556879  0.870918  1
  Re  Re8  1  0.000000  0.639065  0.319675  1
  Re  Re9  1  0.000000  0.360935  0.680325  1
  Re  Re10  1  0.000000  0.138428  0.178919  1
  Re  Re11  1  0.000000  0.861572  0.821081  1
  B  B12  1  0.500000  0.553196  0.432848  1
  B  B13  1  0.500000  0.446804  0.567152  1
  B  B14  1  0.500000  0.052844  0.066197  1
  B  B15  1  0.500000  0.947156  0.933803  1
  B  B16  1  0.500000  0.750673  0.418551  1
  B  B17  1  0.500000  0.249327  0.581449  1
  B  B18  1  0.500000  0.250213  0.080135  1
  B  B19  1  0.500000  0.749787  0.919865  1
  B  B20  1  0.500000  0.793298  0.264264  1
  B  B21  1  0.500000  0.206702  0.735736  1
  B  B22  1  0.500000  0.292815  0.234282  1
  B  B23  1  0.500000  0.707185  0.765718  1
  B  B24  1  0.500000  0.630526  0.183797  1
  B  B25  1  0.500000  0.369474  0.816203  1
  B  B26  1  0.500000  0.129914  0.315010  1
  B  B27  1  0.500000  0.870086  0.684990  1
  B  B28  1  0.500000  0.980611  0.211667  1
  B  B29  1  0.500000  0.019389  0.788333  1
  B  B30  1  0.500000  0.481117  0.287044  1
  B  B31  1  0.500000  0.518883  0.712956  1
  B  B32  1  0.500000  0.599471  0.027662  1
  B  B33  1  0.500000  0.400529  0.972338  1
  B  B34  1  0.500000  0.098474  0.472562  1
  B  B35  1  0.500000  0.901526  0.527438  1
