# generated using pymatgen
data_BaCeTi4N7
_symmetry_space_group_name_H-M   'P 1'
_cell_length_a   6.51787700
_cell_length_b   6.51787706
_cell_length_c   10.59162900
_cell_angle_alpha   90.00000000
_cell_angle_beta   90.00000000
_cell_angle_gamma   119.99998445
_symmetry_Int_Tables_number   1
_chemical_formula_structural   BaCeTi4N7
_chemical_formula_sum   'Ba2 Ce2 Ti8 N14'
_cell_volume   389.67790807
_cell_formula_units_Z   2
loop_
 _symmetry_equiv_pos_site_id
 _symmetry_equiv_pos_as_xyz
  1  'x, y, z'
loop_
 _atom_site_type_symbol
 _atom_site_label
 _atom_site_symmetry_multiplicity
 _atom_site_fract_x
 _atom_site_fract_y
 _atom_site_fract_z
 _atom_site_occupancy
  Ba  Ba0  1  0.666667  0.333333  0.582262  1
  Ba  Ba1  1  0.333333  0.666667  0.082262  1
  Ce  Ce2  1  0.666667  0.333333  0.949716  1
  Ce  Ce3  1  0.333333  0.666667  0.449716  1
  Ti  Ti4  1  0.169360  0.338719  0.763125  1
  Ti  Ti5  1  0.830640  0.169360  0.263125  1
  Ti  Ti6  1  0.338719  0.169360  0.263125  1
  Ti  Ti7  1  0.661281  0.830640  0.763125  1
  Ti  Ti8  1  0.169360  0.830640  0.763125  1
  Ti  Ti9  1  0.830640  0.661281  0.263125  1
  Ti  Ti10  1  0.000000  0.000000  0.022807  1
  Ti  Ti11  1  0.000000  0.000000  0.522807  1
  N  N12  1  0.000000  0.000000  0.830820  1
  N  N13  1  0.000000  0.000000  0.330820  1
  N  N14  1  0.841617  0.683234  0.083954  1
  N  N15  1  0.158383  0.841617  0.583954  1
  N  N16  1  0.683234  0.841617  0.583954  1
  N  N17  1  0.316766  0.158383  0.083954  1
  N  N18  1  0.841617  0.158383  0.083954  1
  N  N19  1  0.158383  0.316766  0.583954  1
  N  N20  1  0.493798  0.506202  0.815327  1
  N  N21  1  0.987595  0.493798  0.315327  1
  N  N22  1  0.506202  0.012405  0.315327  1
  N  N23  1  0.493798  0.987595  0.815327  1
  N  N24  1  0.506202  0.493798  0.315327  1
  N  N25  1  0.012405  0.506202  0.815327  1
