# generated using pymatgen
data_LiLa8HgRu2
_symmetry_space_group_name_H-M   'P 1'
_cell_length_a   10.05955965
_cell_length_b   10.07617388
_cell_length_c   10.07617371
_cell_angle_alpha   59.95863036
_cell_angle_beta   60.05453742
_cell_angle_gamma   60.05453052
_symmetry_Int_Tables_number   1
_chemical_formula_structural   LiLa8HgRu2
_chemical_formula_sum   'Li2 La16 Hg2 Ru4'
_cell_volume   722.56441804
_cell_formula_units_Z   2
loop_
 _symmetry_equiv_pos_site_id
 _symmetry_equiv_pos_as_xyz
  1  'x, y, z'
loop_
 _atom_site_type_symbol
 _atom_site_label
 _atom_site_symmetry_multiplicity
 _atom_site_fract_x
 _atom_site_fract_y
 _atom_site_fract_z
 _atom_site_occupancy
  Li  Li0  1  0.816336  0.541202  0.826127  1
  Li  Li1  1  0.816336  0.826127  0.541202  1
  La  La2  1  0.808293  0.191707  0.191707  1
  La  La3  1  0.194702  0.188452  0.809686  1
  La  La4  1  0.807161  0.809686  0.188452  1
  La  La5  1  0.187952  0.812048  0.812048  1
  La  La6  1  0.597256  0.595092  0.210397  1
  La  La7  1  0.440392  0.059608  0.059608  1
  La  La8  1  0.062535  0.438677  0.061479  1
  La  La9  1  0.437309  0.061479  0.438677  1
  La  La10  1  0.217848  0.593885  0.593885  1
  La  La11  1  0.064690  0.435310  0.435310  1
  La  La12  1  0.597256  0.210397  0.595092  1
  La  La13  1  0.594383  0.593885  0.593885  1
  La  La14  1  0.194702  0.809686  0.188452  1
  La  La15  1  0.807161  0.188452  0.809686  1
  La  La16  1  0.062535  0.061479  0.438677  1
  La  La17  1  0.437309  0.438677  0.061479  1
  Hg  Hg18  1  0.838790  0.828656  0.828656  1
  Hg  Hg19  1  0.503900  0.828656  0.828656  1
  Ru  Ru20  1  0.842074  0.385003  0.385003  1
  Ru  Ru21  1  0.387920  0.385003  0.385003  1
  Ru  Ru22  1  0.391580  0.833451  0.383388  1
  Ru  Ru23  1  0.391580  0.383388  0.833451  1
