# generated using pymatgen
data_Ho2Fe2P6Ru3Rh5
_symmetry_space_group_name_H-M   'P 1'
_cell_length_a   3.85156500
_cell_length_b   10.72790200
_cell_length_c   12.33580200
_cell_angle_alpha   90.00000000
_cell_angle_beta   90.00000000
_cell_angle_gamma   90.00000000
_symmetry_Int_Tables_number   1
_chemical_formula_structural   Ho2Fe2P6Ru3Rh5
_chemical_formula_sum   'Ho4 Fe4 P12 Ru6 Rh10'
_cell_volume   509.70561638
_cell_formula_units_Z   2
loop_
 _symmetry_equiv_pos_site_id
 _symmetry_equiv_pos_as_xyz
  1  'x, y, z'
loop_
 _atom_site_type_symbol
 _atom_site_label
 _atom_site_symmetry_multiplicity
 _atom_site_fract_x
 _atom_site_fract_y
 _atom_site_fract_z
 _atom_site_occupancy
  Ho  Ho0  1  0.250000  0.582954  0.708019  1
  Ho  Ho1  1  0.250000  0.917046  0.208019  1
  Ho  Ho2  1  0.750000  0.415915  0.292333  1
  Ho  Ho3  1  0.750000  0.084085  0.792333  1
  Fe  Fe4  1  0.250000  0.462553  0.934334  1
  Fe  Fe5  1  0.250000  0.037447  0.434334  1
  Fe  Fe6  1  0.750000  0.537863  0.064747  1
  Fe  Fe7  1  0.750000  0.962137  0.564747  1
  P  P8  1  0.250000  0.428026  0.106404  1
  P  P9  1  0.250000  0.071974  0.606404  1
  P  P10  1  0.750000  0.571790  0.892686  1
  P  P11  1  0.750000  0.928210  0.392686  1
  P  P12  1  0.250000  0.268381  0.873621  1
  P  P13  1  0.250000  0.231619  0.373621  1
  P  P14  1  0.750000  0.728914  0.128606  1
  P  P15  1  0.750000  0.771086  0.628606  1
  P  P16  1  0.250000  0.597614  0.391797  1
  P  P17  1  0.250000  0.902386  0.891797  1
  P  P18  1  0.750000  0.399207  0.606018  1
  P  P19  1  0.750000  0.100793  0.106018  1
  Ru  Ru20  1  0.250000  0.711529  0.988126  1
  Ru  Ru21  1  0.250000  0.788471  0.488126  1
  Ru  Ru22  1  0.750000  0.290019  0.011480  1
  Ru  Ru23  1  0.750000  0.209981  0.511480  1
  Ru  Ru24  1  0.250000  0.406370  0.487600  1
  Ru  Ru25  1  0.250000  0.093630  0.987600  1
  Rh  Rh26  1  0.750000  0.595484  0.515552  1
  Rh  Rh27  1  0.750000  0.904516  0.015552  1
  Rh  Rh28  1  0.250000  0.232908  0.178125  1
  Rh  Rh29  1  0.250000  0.267092  0.678125  1
  Rh  Rh30  1  0.750000  0.767976  0.822028  1
  Rh  Rh31  1  0.750000  0.732024  0.322028  1
  Rh  Rh32  1  0.250000  0.885633  0.701607  1
  Rh  Rh33  1  0.250000  0.614367  0.201607  1
  Rh  Rh34  1  0.750000  0.113623  0.296916  1
  Rh  Rh35  1  0.750000  0.386377  0.796916  1
