# generated using pymatgen
data_Ba3YbNiO6
_symmetry_space_group_name_H-M   'P 1'
_cell_length_a   7.07121896
_cell_length_b   7.07120061
_cell_length_c   7.07118641
_cell_angle_alpha   93.09155227
_cell_angle_beta   93.09116284
_cell_angle_gamma   93.09153970
_symmetry_Int_Tables_number   1
_chemical_formula_structural   Ba3YbNiO6
_chemical_formula_sum   'Ba6 Yb2 Ni2 O12'
_cell_volume   351.97195343
_cell_formula_units_Z   2
loop_
 _symmetry_equiv_pos_site_id
 _symmetry_equiv_pos_as_xyz
  1  'x, y, z'
loop_
 _atom_site_type_symbol
 _atom_site_label
 _atom_site_symmetry_multiplicity
 _atom_site_fract_x
 _atom_site_fract_y
 _atom_site_fract_z
 _atom_site_occupancy
  Ba  Ba0  1  0.613785  0.886218  0.250002  1
  Ba  Ba1  1  0.886215  0.249998  0.613785  1
  Ba  Ba2  1  0.250001  0.613786  0.886216  1
  Ba  Ba3  1  0.113781  0.749998  0.386213  1
  Ba  Ba4  1  0.749997  0.386210  0.113783  1
  Ba  Ba5  1  0.386213  0.113780  0.749996  1
  Yb  Yb6  1  0.249994  0.249996  0.249993  1
  Yb  Yb7  1  0.750004  0.750000  0.750005  1
  Ni  Ni8  1  0.500017  0.500029  0.500014  1
  Ni  Ni9  1  0.000001  0.000001  0.000002  1
  O  O10  1  0.541710  0.231232  0.412496  1
  O  O11  1  0.231232  0.412503  0.541713  1
  O  O12  1  0.412498  0.541718  0.231234  1
  O  O13  1  0.041704  0.912495  0.731222  1
  O  O14  1  0.912502  0.731219  0.041707  1
  O  O15  1  0.731218  0.041698  0.912498  1
  O  O16  1  0.458288  0.768767  0.587503  1
  O  O17  1  0.768767  0.587495  0.458286  1
  O  O18  1  0.587501  0.458279  0.768766  1
  O  O19  1  0.958295  0.087501  0.268776  1
  O  O20  1  0.087496  0.268777  0.958292  1
  O  O21  1  0.268780  0.958299  0.087499  1
