# generated using pymatgen
data_YHo19Ir5Rh7
_symmetry_space_group_name_H-M   'P 1'
_cell_length_a   10.85226646
_cell_length_b   10.85336518
_cell_length_c   6.35924706
_cell_angle_alpha   89.99013416
_cell_angle_beta   90.00753816
_cell_angle_gamma   90.08643078
_symmetry_Int_Tables_number   1
_chemical_formula_structural   YHo19Ir5Rh7
_chemical_formula_sum   'Y1 Ho19 Ir5 Rh7'
_cell_volume   749.01421102
_cell_formula_units_Z   1
loop_
 _symmetry_equiv_pos_site_id
 _symmetry_equiv_pos_as_xyz
  1  'x, y, z'
loop_
 _atom_site_type_symbol
 _atom_site_label
 _atom_site_symmetry_multiplicity
 _atom_site_fract_x
 _atom_site_fract_y
 _atom_site_fract_z
 _atom_site_occupancy
  Y  Y0  1  0.290175  0.088296  0.377629  1
  Ho  Ho1  1  0.290805  0.909498  0.879734  1
  Ho  Ho2  1  0.708695  0.089987  0.878966  1
  Ho  Ho3  1  0.708299  0.910001  0.378321  1
  Ho  Ho4  1  0.587579  0.789870  0.879412  1
  Ho  Ho5  1  0.587535  0.209958  0.379193  1
  Ho  Ho6  1  0.410849  0.790112  0.379404  1
  Ho  Ho7  1  0.412438  0.209909  0.879195  1
  Ho  Ho8  1  0.210026  0.412535  0.620501  1
  Ho  Ho9  1  0.209640  0.589186  0.120460  1
  Ho  Ho10  1  0.790089  0.412693  0.120795  1
  Ho  Ho11  1  0.790184  0.587729  0.620901  1
  Ho  Ho12  1  0.911793  0.709188  0.121801  1
  Ho  Ho13  1  0.910142  0.291383  0.620913  1
  Ho  Ho14  1  0.090296  0.709238  0.620397  1
  Ho  Ho15  1  0.089761  0.291945  0.121597  1
  Ho  Ho16  1  0.999704  0.999638  0.500247  1
  Ho  Ho17  1  0.000197  0.999975  0.999888  1
  Ho  Ho18  1  0.499939  0.499727  0.000050  1
  Ho  Ho19  1  0.500318  0.500155  0.499851  1
  Ir  Ir20  1  0.152888  0.846121  0.249698  1
  Ir  Ir21  1  0.654677  0.345361  0.750019  1
  Ir  Ir22  1  0.654928  0.654463  0.249740  1
  Ir  Ir23  1  0.345668  0.346057  0.249779  1
  Ir  Ir24  1  0.346088  0.653904  0.749977  1
  Rh  Rh25  1  0.846541  0.153368  0.250000  1
  Rh  Rh26  1  0.845721  0.846512  0.749839  1
  Rh  Rh27  1  0.152901  0.154480  0.751624  1
  Rh  Rh28  1  0.501369  0.999929  0.122225  1
  Rh  Rh29  1  0.501293  0.999855  0.624498  1
  Rh  Rh30  1  0.999755  0.499503  0.876349  1
  Rh  Rh31  1  0.999706  0.499426  0.376995  1
