# generated using pymatgen
data_U2TcMoC4
_symmetry_space_group_name_H-M   'P 1'
_cell_length_a   3.18797200
_cell_length_b   5.63211800
_cell_length_c   11.06633300
_cell_angle_alpha   90.00000000
_cell_angle_beta   90.00000000
_cell_angle_gamma   90.00000000
_symmetry_Int_Tables_number   1
_chemical_formula_structural   U2TcMoC4
_chemical_formula_sum   'U4 Tc2 Mo2 C8'
_cell_volume   198.69639063
_cell_formula_units_Z   2
loop_
 _symmetry_equiv_pos_site_id
 _symmetry_equiv_pos_as_xyz
  1  'x, y, z'
loop_
 _atom_site_type_symbol
 _atom_site_label
 _atom_site_symmetry_multiplicity
 _atom_site_fract_x
 _atom_site_fract_y
 _atom_site_fract_z
 _atom_site_occupancy
  U  U0  1  0.250000  0.079533  0.856299  1
  U  U1  1  0.750000  0.918684  0.140941  1
  U  U2  1  0.250000  0.579533  0.643701  1
  U  U3  1  0.750000  0.418684  0.359059  1
  Tc  Tc4  1  0.750000  0.077778  0.600919  1
  Tc  Tc5  1  0.750000  0.577778  0.899081  1
  Mo  Mo6  1  0.250000  0.921061  0.399468  1
  Mo  Mo7  1  0.250000  0.421061  0.100532  1
  C  C8  1  0.250000  0.747593  0.992209  1
  C  C9  1  0.750000  0.251754  0.005659  1
  C  C10  1  0.250000  0.247593  0.507791  1
  C  C11  1  0.750000  0.751754  0.494341  1
  C  C12  1  0.250000  0.164507  0.242996  1
  C  C13  1  0.750000  0.339091  0.744883  1
  C  C14  1  0.250000  0.664507  0.257004  1
  C  C15  1  0.750000  0.839091  0.755117  1
