# generated using pymatgen
data_Pr8Sc12Ga3Si13
_symmetry_space_group_name_H-M   'P 1'
_cell_length_a   7.29016720
_cell_length_b   7.57053526
_cell_length_c   14.37924026
_cell_angle_alpha   89.98507064
_cell_angle_beta   90.06262755
_cell_angle_gamma   90.08716848
_symmetry_Int_Tables_number   1
_chemical_formula_structural   Pr8Sc12Ga3Si13
_chemical_formula_sum   'Pr8 Sc12 Ga3 Si13'
_cell_volume   793.59557762
_cell_formula_units_Z   1
loop_
 _symmetry_equiv_pos_site_id
 _symmetry_equiv_pos_as_xyz
  1  'x, y, z'
loop_
 _atom_site_type_symbol
 _atom_site_label
 _atom_site_symmetry_multiplicity
 _atom_site_fract_x
 _atom_site_fract_y
 _atom_site_fract_z
 _atom_site_occupancy
  Pr  Pr0  1  0.011924  0.171933  0.401608  1
  Pr  Pr1  1  0.513494  0.326492  0.401250  1
  Pr  Pr2  1  0.487998  0.672269  0.900125  1
  Pr  Pr3  1  0.489645  0.675303  0.598370  1
  Pr  Pr4  1  0.986595  0.828385  0.598128  1
  Pr  Pr5  1  0.987884  0.828043  0.900111  1
  Pr  Pr6  1  0.510653  0.326455  0.098831  1
  Pr  Pr7  1  0.010841  0.173455  0.098880  1
  Sc  Sc8  1  0.331930  0.173941  0.626239  1
  Sc  Sc9  1  0.669972  0.824057  0.374838  1
  Sc  Sc10  1  0.661077  0.001727  0.749791  1
  Sc  Sc11  1  0.171610  0.677002  0.374004  1
  Sc  Sc12  1  0.830027  0.322348  0.873455  1
  Sc  Sc13  1  0.826839  0.323787  0.625555  1
  Sc  Sc14  1  0.838914  0.501299  0.251662  1
  Sc  Sc15  1  0.338865  0.998353  0.251410  1
  Sc  Sc16  1  0.329919  0.176650  0.873491  1
  Sc  Sc17  1  0.170716  0.674252  0.126488  1
  Sc  Sc18  1  0.670869  0.825845  0.126430  1
  Sc  Sc19  1  0.160221  0.497921  0.751347  1
  Ga  Ga20  1  0.154786  0.460264  0.539703  1
  Ga  Ga21  1  0.845963  0.539887  0.039292  1
  Ga  Ga22  1  0.345878  0.960263  0.039412  1
  Si  Si23  1  0.287749  0.882495  0.749540  1
  Si  Si24  1  0.465988  0.624929  0.250355  1
  Si  Si25  1  0.034406  0.125709  0.750073  1
  Si  Si26  1  0.533881  0.375790  0.749479  1
  Si  Si27  1  0.965679  0.875120  0.250371  1
  Si  Si28  1  0.712158  0.117122  0.250463  1
  Si  Si29  1  0.152928  0.460984  0.959701  1
  Si  Si30  1  0.650419  0.037601  0.539059  1
  Si  Si31  1  0.349313  0.962378  0.460645  1
  Si  Si32  1  0.847205  0.538899  0.460106  1
  Si  Si33  1  0.788651  0.617318  0.749875  1
  Si  Si34  1  0.212183  0.382659  0.250508  1
  Si  Si35  1  0.652819  0.039063  0.959404  1
