# generated using pymatgen
data_Yb2V(Ni3P2)3
_symmetry_space_group_name_H-M   'P 1'
_cell_length_a   3.72305900
_cell_length_b   10.54915400
_cell_length_c   12.00662300
_cell_angle_alpha   90.00000000
_cell_angle_beta   90.00000000
_cell_angle_gamma   90.00000000
_symmetry_Int_Tables_number   1
_chemical_formula_structural   Yb2V(Ni3P2)3
_chemical_formula_sum   'Yb4 V2 Ni18 P12'
_cell_volume   471.56159204
_cell_formula_units_Z   2
loop_
 _symmetry_equiv_pos_site_id
 _symmetry_equiv_pos_as_xyz
  1  'x, y, z'
loop_
 _atom_site_type_symbol
 _atom_site_label
 _atom_site_symmetry_multiplicity
 _atom_site_fract_x
 _atom_site_fract_y
 _atom_site_fract_z
 _atom_site_occupancy
  Yb  Yb0  1  0.250000  0.582622  0.704160  1
  Yb  Yb1  1  0.250000  0.917378  0.204160  1
  Yb  Yb2  1  0.750000  0.416630  0.295854  1
  Yb  Yb3  1  0.750000  0.083370  0.795854  1
  V  V4  1  0.250000  0.705775  0.988880  1
  V  V5  1  0.250000  0.794225  0.488880  1
  Ni  Ni6  1  0.750000  0.284387  0.010545  1
  Ni  Ni7  1  0.750000  0.215613  0.510545  1
  Ni  Ni8  1  0.250000  0.407190  0.487667  1
  Ni  Ni9  1  0.250000  0.092810  0.987667  1
  Ni  Ni10  1  0.750000  0.591691  0.512210  1
  Ni  Ni11  1  0.750000  0.908309  0.012210  1
  Ni  Ni12  1  0.250000  0.219746  0.178663  1
  Ni  Ni13  1  0.250000  0.280254  0.678663  1
  Ni  Ni14  1  0.750000  0.781301  0.821987  1
  Ni  Ni15  1  0.750000  0.718699  0.321987  1
  Ni  Ni16  1  0.250000  0.887951  0.700776  1
  Ni  Ni17  1  0.250000  0.612049  0.200776  1
  Ni  Ni18  1  0.750000  0.116981  0.300450  1
  Ni  Ni19  1  0.750000  0.383019  0.800450  1
  Ni  Ni20  1  0.250000  0.465700  0.930468  1
  Ni  Ni21  1  0.250000  0.034300  0.430468  1
  Ni  Ni22  1  0.750000  0.527959  0.068932  1
  Ni  Ni23  1  0.750000  0.972041  0.568932  1
  P  P24  1  0.250000  0.415714  0.111969  1
  P  P25  1  0.250000  0.084286  0.611969  1
  P  P26  1  0.750000  0.584275  0.886691  1
  P  P27  1  0.750000  0.915725  0.386691  1
  P  P28  1  0.250000  0.269216  0.869915  1
  P  P29  1  0.250000  0.230784  0.369915  1
  P  P30  1  0.750000  0.729178  0.130512  1
  P  P31  1  0.750000  0.770822  0.630512  1
  P  P32  1  0.250000  0.599466  0.392139  1
  P  P33  1  0.250000  0.900534  0.892139  1
  P  P34  1  0.750000  0.398021  0.608184  1
  P  P35  1  0.750000  0.101979  0.108184  1
