# generated using pymatgen
data_TaBe9NbW
_symmetry_space_group_name_H-M   'P 1'
_cell_length_a   7.44606948
_cell_length_b   7.44606983
_cell_length_c   7.44606959
_cell_angle_alpha   35.23152952
_cell_angle_beta   35.23152449
_cell_angle_gamma   35.23152336
_symmetry_Int_Tables_number   1
_chemical_formula_structural   TaBe9NbW
_chemical_formula_sum   'Ta1 Be9 Nb1 W1'
_cell_volume   122.72153052
_cell_formula_units_Z   1
loop_
 _symmetry_equiv_pos_site_id
 _symmetry_equiv_pos_as_xyz
  1  'x, y, z'
loop_
 _atom_site_type_symbol
 _atom_site_label
 _atom_site_symmetry_multiplicity
 _atom_site_fract_x
 _atom_site_fract_y
 _atom_site_fract_z
 _atom_site_occupancy
  Ta  Ta0  1  0.142263  0.142263  0.142263  1
  Be  Be1  1  0.500296  0.500296  0.500296  1
  Be  Be2  1  0.334817  0.334817  0.334818  1
  Be  Be3  1  0.666036  0.666036  0.666035  1
  Be  Be4  1  0.075800  0.585012  0.585012  1
  Be  Be5  1  0.585012  0.585012  0.075800  1
  Be  Be6  1  0.585012  0.075800  0.585012  1
  Be  Be7  1  0.416146  0.921339  0.416146  1
  Be  Be8  1  0.921339  0.416146  0.416146  1
  Be  Be9  1  0.416146  0.416146  0.921339  1
  Nb  Nb10  1  0.998952  0.998952  0.998952  1
  W  W11  1  0.858182  0.858182  0.858182  1
