# generated using pymatgen
data_Tm4AlCo4
_symmetry_space_group_name_H-M   'P 1'
_cell_length_a   5.41707227
_cell_length_b   5.41707156
_cell_length_c   8.84953933
_cell_angle_alpha   70.97535014
_cell_angle_beta   70.97535155
_cell_angle_gamma   43.18747839
_symmetry_Int_Tables_number   1
_chemical_formula_structural   Tm4AlCo4
_chemical_formula_sum   'Tm4 Al1 Co4'
_cell_volume   166.44668293
_cell_formula_units_Z   1
loop_
 _symmetry_equiv_pos_site_id
 _symmetry_equiv_pos_as_xyz
  1  'x, y, z'
loop_
 _atom_site_type_symbol
 _atom_site_label
 _atom_site_symmetry_multiplicity
 _atom_site_fract_x
 _atom_site_fract_y
 _atom_site_fract_z
 _atom_site_occupancy
  Tm  Tm0  1  0.745255  0.745255  0.662936  1
  Tm  Tm1  1  0.254745  0.254745  0.337064  1
  Tm  Tm2  1  0.391015  0.391015  0.886606  1
  Tm  Tm3  1  0.608985  0.608985  0.113394  1
  Al  Al4  1  0.500000  0.500000  0.500000  1
  Co  Co5  1  0.037952  0.037952  0.645307  1
  Co  Co6  1  0.962048  0.962048  0.354693  1
  Co  Co7  1  0.094241  0.094241  0.880903  1
  Co  Co8  1  0.905759  0.905759  0.119097  1
