# generated using pymatgen
data_Tm12In2Si3Tc
_symmetry_space_group_name_H-M   'P 1'
_cell_length_a   8.46618942
_cell_length_b   8.46618898
_cell_length_c   8.46618900
_cell_angle_alpha   112.70967277
_cell_angle_beta   112.61490378
_cell_angle_gamma   103.26190794
_symmetry_Int_Tables_number   1
_chemical_formula_structural   Tm12In2Si3Tc
_chemical_formula_sum   'Tm12 In2 Si3 Tc1'
_cell_volume   463.08050362
_cell_formula_units_Z   1
loop_
 _symmetry_equiv_pos_site_id
 _symmetry_equiv_pos_as_xyz
  1  'x, y, z'
loop_
 _atom_site_type_symbol
 _atom_site_label
 _atom_site_symmetry_multiplicity
 _atom_site_fract_x
 _atom_site_fract_y
 _atom_site_fract_z
 _atom_site_occupancy
  Tm  Tm0  1  0.185487  0.288315  0.468102  1
  Tm  Tm1  1  0.820214  0.717385  0.531898  1
  Tm  Tm2  1  0.185487  0.717385  0.897170  1
  Tm  Tm3  1  0.820214  0.288315  0.102830  1
  Tm  Tm4  1  0.315325  0.622258  0.306933  1
  Tm  Tm5  1  0.677807  0.379587  0.701779  1
  Tm  Tm6  1  0.315325  0.008390  0.693067  1
  Tm  Tm7  1  0.677807  0.976028  0.298221  1
  Tm  Tm8  1  0.448690  0.244640  0.204051  1
  Tm  Tm9  1  0.546116  0.757555  0.788561  1
  Tm  Tm10  1  0.040588  0.244640  0.795949  1
  Tm  Tm11  1  0.968993  0.757555  0.211439  1
  In  In12  1  0.502877  0.502877  0.000000  1
  In  In13  1  0.992212  0.992212  0.000000  1
  Si  Si14  1  0.875198  0.375198  0.500000  1
  Si  Si15  1  0.360545  0.004694  0.355851  1
  Si  Si16  1  0.648843  0.004694  0.644149  1
  Tc  Tc17  1  0.118272  0.618272  0.500000  1
