# generated using pymatgen
data_EuCrReO8
_symmetry_space_group_name_H-M   'P 1'
_cell_length_a   6.08595600
_cell_length_b   6.08595643
_cell_length_c   6.39464600
_cell_angle_alpha   90.00000000
_cell_angle_beta   90.00000000
_cell_angle_gamma   119.99999766
_symmetry_Int_Tables_number   1
_chemical_formula_structural   EuCrReO8
_chemical_formula_sum   'Eu1 Cr1 Re1 O8'
_cell_volume   205.11848329
_cell_formula_units_Z   1
loop_
 _symmetry_equiv_pos_site_id
 _symmetry_equiv_pos_as_xyz
  1  'x, y, z'
loop_
 _atom_site_type_symbol
 _atom_site_label
 _atom_site_symmetry_multiplicity
 _atom_site_fract_x
 _atom_site_fract_y
 _atom_site_fract_z
 _atom_site_occupancy
  Eu  Eu0  1  0.000000  0.000000  0.969587  1
  Cr  Cr1  1  0.666667  0.333333  0.704999  1
  Re  Re2  1  0.333333  0.666667  0.298574  1
  O  O3  1  0.369670  0.214728  0.794878  1
  O  O4  1  0.191908  0.839448  0.207119  1
  O  O5  1  0.160552  0.352459  0.207119  1
  O  O6  1  0.666667  0.333333  0.452423  1
  O  O7  1  0.333333  0.666667  0.568425  1
  O  O8  1  0.845058  0.630330  0.794878  1
  O  O9  1  0.785272  0.154942  0.794878  1
  O  O10  1  0.647541  0.808092  0.207119  1
