# generated using pymatgen
data_ErLu3ThPt4
_symmetry_space_group_name_H-M   'P 1'
_cell_length_a   7.47937300
_cell_length_b   7.52054500
_cell_length_c   14.54904900
_cell_angle_alpha   90.00000000
_cell_angle_beta   90.00000000
_cell_angle_gamma   90.00000000
_symmetry_Int_Tables_number   1
_chemical_formula_structural   ErLu3ThPt4
_chemical_formula_sum   'Er4 Lu12 Th4 Pt16'
_cell_volume   818.36889296
_cell_formula_units_Z   4
loop_
 _symmetry_equiv_pos_site_id
 _symmetry_equiv_pos_as_xyz
  1  'x, y, z'
loop_
 _atom_site_type_symbol
 _atom_site_label
 _atom_site_symmetry_multiplicity
 _atom_site_fract_x
 _atom_site_fract_y
 _atom_site_fract_z
 _atom_site_occupancy
  Er  Er0  1  0.498567  0.321205  0.404939  1
  Er  Er1  1  0.998567  0.178795  0.095061  1
  Er  Er2  1  0.501433  0.678795  0.904939  1
  Er  Er3  1  0.001433  0.821205  0.595061  1
  Lu  Lu4  1  0.655796  0.167919  0.622605  1
  Lu  Lu5  1  0.155796  0.332081  0.877395  1
  Lu  Lu6  1  0.344204  0.832081  0.122605  1
  Lu  Lu7  1  0.844204  0.667919  0.377395  1
  Lu  Lu8  1  0.341783  0.833654  0.374289  1
  Lu  Lu9  1  0.841783  0.666346  0.125711  1
  Lu  Lu10  1  0.658217  0.166346  0.874289  1
  Lu  Lu11  1  0.158217  0.333654  0.625711  1
  Lu  Lu12  1  0.820217  0.506721  0.750070  1
  Lu  Lu13  1  0.320217  0.993279  0.749930  1
  Lu  Lu14  1  0.179783  0.493279  0.250070  1
  Lu  Lu15  1  0.679783  0.006721  0.249930  1
  Th  Th16  1  0.498539  0.679827  0.591543  1
  Th  Th17  1  0.998539  0.820173  0.908457  1
  Th  Th18  1  0.501461  0.320173  0.091543  1
  Th  Th19  1  0.001461  0.179827  0.408457  1
  Pt  Pt20  1  0.683165  0.965023  0.458683  1
  Pt  Pt21  1  0.183165  0.534977  0.041317  1
  Pt  Pt22  1  0.316835  0.034977  0.958683  1
  Pt  Pt23  1  0.816835  0.465023  0.541317  1
  Pt  Pt24  1  0.315121  0.034336  0.540793  1
  Pt  Pt25  1  0.815121  0.465664  0.959207  1
  Pt  Pt26  1  0.684879  0.965664  0.040793  1
  Pt  Pt27  1  0.184879  0.534336  0.459207  1
  Pt  Pt28  1  0.455761  0.383958  0.750118  1
  Pt  Pt29  1  0.955761  0.116042  0.749882  1
  Pt  Pt30  1  0.544239  0.616042  0.250118  1
  Pt  Pt31  1  0.044239  0.883958  0.249882  1
  Pt  Pt32  1  0.681854  0.855519  0.749794  1
  Pt  Pt33  1  0.181854  0.644481  0.750206  1
  Pt  Pt34  1  0.318146  0.144481  0.249794  1
  Pt  Pt35  1  0.818146  0.355519  0.250206  1
