# generated using pymatgen
data_Zr8Nb11Si16Mo
_symmetry_space_group_name_H-M   'P 1'
_cell_length_a   6.69223291
_cell_length_b   6.87271647
_cell_length_c   13.14055600
_cell_angle_alpha   90.00000000
_cell_angle_beta   90.00000000
_cell_angle_gamma   90.09054168
_symmetry_Int_Tables_number   1
_chemical_formula_structural   Zr8Nb11Si16Mo
_chemical_formula_sum   'Zr8 Nb11 Si16 Mo1'
_cell_volume   604.38360382
_cell_formula_units_Z   1
loop_
 _symmetry_equiv_pos_site_id
 _symmetry_equiv_pos_as_xyz
  1  'x, y, z'
loop_
 _atom_site_type_symbol
 _atom_site_label
 _atom_site_symmetry_multiplicity
 _atom_site_fract_x
 _atom_site_fract_y
 _atom_site_fract_z
 _atom_site_occupancy
  Zr  Zr0  1  0.496602  0.672874  0.594292  1
  Zr  Zr1  1  0.998280  0.827609  0.906134  1
  Zr  Zr2  1  0.502120  0.327533  0.094427  1
  Zr  Zr3  1  0.002097  0.173135  0.405498  1
  Zr  Zr4  1  0.502120  0.327533  0.405573  1
  Zr  Zr5  1  0.002097  0.173135  0.094502  1
  Zr  Zr6  1  0.496602  0.672874  0.905708  1
  Zr  Zr7  1  0.998280  0.827609  0.593866  1
  Nb  Nb8  1  0.664196  0.169941  0.624441  1
  Nb  Nb9  1  0.164797  0.328637  0.875549  1
  Nb  Nb10  1  0.335443  0.828545  0.123815  1
  Nb  Nb11  1  0.836847  0.671432  0.377193  1
  Nb  Nb12  1  0.335443  0.828545  0.376185  1
  Nb  Nb13  1  0.836847  0.671432  0.122807  1
  Nb  Nb14  1  0.664196  0.169941  0.875559  1
  Nb  Nb15  1  0.164797  0.328637  0.624451  1
  Nb  Nb16  1  0.338137  0.001999  0.750000  1
  Nb  Nb17  1  0.162537  0.503567  0.250000  1
  Nb  Nb18  1  0.661793  0.996582  0.250000  1
  Si  Si19  1  0.669805  0.963501  0.461374  1
  Si  Si20  1  0.170301  0.536355  0.038140  1
  Si  Si21  1  0.330006  0.036664  0.961189  1
  Si  Si22  1  0.829601  0.463286  0.540904  1
  Si  Si23  1  0.330006  0.036664  0.538811  1
  Si  Si24  1  0.829601  0.463286  0.959096  1
  Si  Si25  1  0.669805  0.963501  0.038626  1
  Si  Si26  1  0.170301  0.536355  0.461860  1
  Si  Si27  1  0.466689  0.388120  0.750000  1
  Si  Si28  1  0.960540  0.116562  0.750000  1
  Si  Si29  1  0.538894  0.614552  0.250000  1
  Si  Si30  1  0.037611  0.885613  0.250000  1
  Si  Si31  1  0.705546  0.858572  0.750000  1
  Si  Si32  1  0.199588  0.635111  0.750000  1
  Si  Si33  1  0.295709  0.136543  0.250000  1
  Si  Si34  1  0.795467  0.363755  0.250000  1
  Mo  Mo35  1  0.837302  0.500000  0.750000  1
