# generated using pymatgen
data_DyFe(PRh)2
_symmetry_space_group_name_H-M   'P 1'
_cell_length_a   3.80365300
_cell_length_b   11.13813800
_cell_length_c   12.42831200
_cell_angle_alpha   90.00000000
_cell_angle_beta   90.00000000
_cell_angle_gamma   90.00000000
_symmetry_Int_Tables_number   1
_chemical_formula_structural   DyFe(PRh)2
_chemical_formula_sum   'Dy6 Fe6 P12 Rh12'
_cell_volume   526.53304423
_cell_formula_units_Z   6
loop_
 _symmetry_equiv_pos_site_id
 _symmetry_equiv_pos_as_xyz
  1  'x, y, z'
loop_
 _atom_site_type_symbol
 _atom_site_label
 _atom_site_symmetry_multiplicity
 _atom_site_fract_x
 _atom_site_fract_y
 _atom_site_fract_z
 _atom_site_occupancy
  Dy  Dy0  1  0.000000  0.500000  0.522507  1
  Dy  Dy1  1  0.500000  0.000000  0.477493  1
  Dy  Dy2  1  0.500000  0.821567  0.193703  1
  Dy  Dy3  1  0.500000  0.178433  0.193703  1
  Dy  Dy4  1  0.000000  0.678433  0.806297  1
  Dy  Dy5  1  0.000000  0.321567  0.806297  1
  Fe  Fe6  1  0.000000  0.500000  0.993155  1
  Fe  Fe7  1  0.500000  0.000000  0.006845  1
  Fe  Fe8  1  0.500000  0.334821  0.995903  1
  Fe  Fe9  1  0.500000  0.665179  0.995903  1
  Fe  Fe10  1  0.000000  0.165179  0.004097  1
  Fe  Fe11  1  0.000000  0.834821  0.004097  1
  P  P12  1  0.500000  0.500000  0.896180  1
  P  P13  1  0.000000  0.000000  0.103820  1
  P  P14  1  0.500000  0.500000  0.344297  1
  P  P15  1  0.000000  0.000000  0.655703  1
  P  P16  1  0.500000  0.313943  0.622790  1
  P  P17  1  0.500000  0.686057  0.622790  1
  P  P18  1  0.000000  0.186057  0.377210  1
  P  P19  1  0.000000  0.813943  0.377210  1
  P  P20  1  0.500000  0.838317  0.907675  1
  P  P21  1  0.500000  0.161683  0.907675  1
  P  P22  1  0.000000  0.661683  0.092325  1
  P  P23  1  0.000000  0.338317  0.092325  1
  Rh  Rh24  1  0.500000  0.500000  0.154878  1
  Rh  Rh25  1  0.000000  0.000000  0.845122  1
  Rh  Rh26  1  0.500000  0.500000  0.705900  1
  Rh  Rh27  1  0.000000  0.000000  0.294100  1
  Rh  Rh28  1  0.500000  0.295592  0.428419  1
  Rh  Rh29  1  0.500000  0.704408  0.428419  1
  Rh  Rh30  1  0.000000  0.204408  0.571581  1
  Rh  Rh31  1  0.000000  0.795592  0.571581  1
  Rh  Rh32  1  0.500000  0.874239  0.718536  1
  Rh  Rh33  1  0.500000  0.125761  0.718536  1
  Rh  Rh34  1  0.000000  0.625761  0.281464  1
  Rh  Rh35  1  0.000000  0.374239  0.281464  1
