# generated using pymatgen
data_Ni8Bi8As
_symmetry_space_group_name_H-M   'P 1'
_cell_length_a   4.24345900
_cell_length_b   10.22541100
_cell_length_c   17.75487100
_cell_angle_alpha   90.00000000
_cell_angle_beta   90.00000000
_cell_angle_gamma   90.00000000
_symmetry_Int_Tables_number   1
_chemical_formula_structural   Ni8Bi8As
_chemical_formula_sum   'Ni16 Bi16 As2'
_cell_volume   770.40360208
_cell_formula_units_Z   2
loop_
 _symmetry_equiv_pos_site_id
 _symmetry_equiv_pos_as_xyz
  1  'x, y, z'
loop_
 _atom_site_type_symbol
 _atom_site_label
 _atom_site_symmetry_multiplicity
 _atom_site_fract_x
 _atom_site_fract_y
 _atom_site_fract_z
 _atom_site_occupancy
  Ni  Ni0  1  0.493906  0.804544  0.967172  1
  Ni  Ni1  1  0.493906  0.195456  0.032828  1
  Ni  Ni2  1  0.506094  0.695456  0.467172  1
  Ni  Ni3  1  0.506094  0.304544  0.532828  1
  Ni  Ni4  1  0.007769  0.905290  0.899144  1
  Ni  Ni5  1  0.007769  0.094710  0.100856  1
  Ni  Ni6  1  0.992231  0.594710  0.399144  1
  Ni  Ni7  1  0.992231  0.405290  0.600856  1
  Ni  Ni8  1  0.002023  0.818341  0.054835  1
  Ni  Ni9  1  0.002023  0.181659  0.945165  1
  Ni  Ni10  1  0.997977  0.681659  0.554835  1
  Ni  Ni11  1  0.997977  0.318341  0.445165  1
  Ni  Ni12  1  0.492847  0.937294  0.110902  1
  Ni  Ni13  1  0.492847  0.062706  0.889098  1
  Ni  Ni14  1  0.507153  0.562706  0.610902  1
  Ni  Ni15  1  0.507153  0.437294  0.389098  1
  Bi  Bi16  1  0.504599  0.831383  0.814444  1
  Bi  Bi17  1  0.504599  0.168617  0.185556  1
  Bi  Bi18  1  0.495401  0.668617  0.314444  1
  Bi  Bi19  1  0.495401  0.331383  0.685556  1
  Bi  Bi20  1  0.501630  0.671924  0.098699  1
  Bi  Bi21  1  0.501630  0.328076  0.901301  1
  Bi  Bi22  1  0.498370  0.828076  0.598699  1
  Bi  Bi23  1  0.498370  0.171924  0.401301  1
  Bi  Bi24  1  0.995205  0.647087  0.937066  1
  Bi  Bi25  1  0.995205  0.352913  0.062934  1
  Bi  Bi26  1  0.004795  0.852913  0.437066  1
  Bi  Bi27  1  0.004795  0.147087  0.562934  1
  Bi  Bi28  1  0.995419  0.896347  0.202049  1
  Bi  Bi29  1  0.995419  0.103653  0.797951  1
  Bi  Bi30  1  0.004581  0.603653  0.702049  1
  Bi  Bi31  1  0.004581  0.396347  0.297951  1
  As  As32  1  0.745693  0.000000  0.000000  1
  As  As33  1  0.254307  0.500000  0.500000  1
