# generated using pymatgen
data_Lu2In(Ni10P3)2
_symmetry_space_group_name_H-M   'P 1'
_cell_length_a   7.93198110
_cell_length_b   7.93023227
_cell_length_c   7.93355139
_cell_angle_alpha   60.00419523
_cell_angle_beta   60.01521564
_cell_angle_gamma   60.00261754
_symmetry_Int_Tables_number   1
_chemical_formula_structural   Lu2In(Ni10P3)2
_chemical_formula_sum   'Lu2 In1 Ni20 P6'
_cell_volume   352.93318848
_cell_formula_units_Z   1
loop_
 _symmetry_equiv_pos_site_id
 _symmetry_equiv_pos_as_xyz
  1  'x, y, z'
loop_
 _atom_site_type_symbol
 _atom_site_label
 _atom_site_symmetry_multiplicity
 _atom_site_fract_x
 _atom_site_fract_y
 _atom_site_fract_z
 _atom_site_occupancy
  Lu  Lu0  1  0.000005  0.999951  0.000076  1
  Lu  Lu1  1  0.749985  0.750128  0.749822  1
  In  In2  1  0.249997  0.249841  0.250143  1
  Ni  Ni3  1  0.384048  0.383998  0.847872  1
  Ni  Ni4  1  0.613268  0.613227  0.613169  1
  Ni  Ni5  1  0.998106  0.352974  0.998112  1
  Ni  Ni6  1  0.352877  0.998146  0.998121  1
  Ni  Ni7  1  0.998166  0.352857  0.650811  1
  Ni  Ni8  1  0.847922  0.384005  0.384031  1
  Ni  Ni9  1  0.352737  0.998202  0.650865  1
  Ni  Ni10  1  0.998106  0.998158  0.352858  1
  Ni  Ni11  1  0.650813  0.352845  0.998166  1
  Ni  Ni12  1  0.998054  0.650889  0.352917  1
  Ni  Ni13  1  0.998126  0.998193  0.650860  1
  Ni  Ni14  1  0.352810  0.650759  0.998218  1
  Ni  Ni15  1  0.650965  0.998085  0.998057  1
  Ni  Ni16  1  0.998051  0.650869  0.998101  1
  Ni  Ni17  1  0.384104  0.847798  0.384057  1
  Ni  Ni18  1  0.613344  0.613267  0.160217  1
  Ni  Ni19  1  0.613254  0.160408  0.613201  1
  Ni  Ni20  1  0.160162  0.613281  0.613317  1
  Ni  Ni21  1  0.384091  0.384015  0.384131  1
  Ni  Ni22  1  0.650961  0.998118  0.352814  1
  P  P23  1  0.263384  0.263335  0.736642  1
  P  P24  1  0.736649  0.736669  0.263390  1
  P  P25  1  0.736658  0.263310  0.263403  1
  P  P26  1  0.263383  0.736642  0.736626  1
  P  P27  1  0.263336  0.736647  0.263394  1
  P  P28  1  0.736636  0.263389  0.736609  1
