# generated using pymatgen
data_Tm2Lu4TcIr
_symmetry_space_group_name_H-M   'P 1'
_cell_length_a   6.19652400
_cell_length_b   7.29386400
_cell_length_c   8.92680300
_cell_angle_alpha   90.00000000
_cell_angle_beta   90.00000000
_cell_angle_gamma   90.00000000
_symmetry_Int_Tables_number   1
_chemical_formula_structural   Tm2Lu4TcIr
_chemical_formula_sum   'Tm4 Lu8 Tc2 Ir2'
_cell_volume   403.46117418
_cell_formula_units_Z   2
loop_
 _symmetry_equiv_pos_site_id
 _symmetry_equiv_pos_as_xyz
  1  'x, y, z'
loop_
 _atom_site_type_symbol
 _atom_site_label
 _atom_site_symmetry_multiplicity
 _atom_site_fract_x
 _atom_site_fract_y
 _atom_site_fract_z
 _atom_site_occupancy
  Tm  Tm0  1  0.874431  0.539577  0.250000  1
  Tm  Tm1  1  0.625569  0.039577  0.250000  1
  Tm  Tm2  1  0.132310  0.459600  0.750000  1
  Tm  Tm3  1  0.367690  0.959600  0.750000  1
  Lu  Lu4  1  0.332631  0.675912  0.065229  1
  Lu  Lu5  1  0.167369  0.175912  0.434771  1
  Lu  Lu6  1  0.665472  0.324258  0.560426  1
  Lu  Lu7  1  0.834528  0.824258  0.939574  1
  Lu  Lu8  1  0.665472  0.324258  0.939574  1
  Lu  Lu9  1  0.834528  0.824258  0.560426  1
  Lu  Lu10  1  0.332631  0.675912  0.434771  1
  Lu  Lu11  1  0.167369  0.175912  0.065229  1
  Tc  Tc12  1  0.036213  0.884635  0.250000  1
  Tc  Tc13  1  0.463787  0.384635  0.250000  1
  Ir  Ir14  1  0.955744  0.115848  0.750000  1
  Ir  Ir15  1  0.544256  0.615848  0.750000  1
