# generated using pymatgen
data_TmLu3Al18(PtRh)3
_symmetry_space_group_name_H-M   'P 1'
_cell_length_a   7.56176615
_cell_length_b   7.56380865
_cell_length_c   9.38002910
_cell_angle_alpha   89.99006621
_cell_angle_beta   89.99321503
_cell_angle_gamma   119.61366277
_symmetry_Int_Tables_number   1
_chemical_formula_structural   TmLu3Al18(PtRh)3
_chemical_formula_sum   'Tm1 Lu3 Al18 Pt3 Rh3'
_cell_volume   466.41890979
_cell_formula_units_Z   1
loop_
 _symmetry_equiv_pos_site_id
 _symmetry_equiv_pos_as_xyz
  1  'x, y, z'
loop_
 _atom_site_type_symbol
 _atom_site_label
 _atom_site_symmetry_multiplicity
 _atom_site_fract_x
 _atom_site_fract_y
 _atom_site_fract_z
 _atom_site_occupancy
  Tm  Tm0  1  0.996208  0.670781  0.250511  1
  Lu  Lu1  1  0.006023  0.330874  0.749596  1
  Lu  Lu2  1  0.669041  0.993774  0.250367  1
  Lu  Lu3  1  0.329025  0.004142  0.749328  1
  Al  Al4  1  0.123977  0.124772  0.250761  1
  Al  Al5  1  0.875326  0.876278  0.749352  1
  Al  Al6  1  0.999400  0.330919  0.076622  1
  Al  Al7  1  0.999596  0.669114  0.922348  1
  Al  Al8  1  0.997224  0.664944  0.576051  1
  Al  Al9  1  0.335256  0.002988  0.424797  1
  Al  Al10  1  0.995060  0.330582  0.424679  1
  Al  Al11  1  0.668851  0.004871  0.575812  1
  Al  Al12  1  0.668676  0.000770  0.922935  1
  Al  Al13  1  0.331234  0.000888  0.076770  1
  Al  Al14  1  0.331612  0.328425  0.554940  1
  Al  Al15  1  0.671253  0.668238  0.445835  1
  Al  Al16  1  0.670360  0.670729  0.057800  1
  Al  Al17  1  0.329342  0.329539  0.941282  1
  Al  Al18  1  0.340275  0.544423  0.250646  1
  Al  Al19  1  0.659479  0.450614  0.746610  1
  Al  Al20  1  0.549032  0.340091  0.253486  1
  Al  Al21  1  0.455301  0.660034  0.749462  1
  Pt  Pt22  1  0.672225  0.327718  0.999817  1
  Pt  Pt23  1  0.327100  0.672971  0.999936  1
  Pt  Pt24  1  0.327143  0.672478  0.500112  1
  Rh  Rh25  1  0.672046  0.328105  0.500217  1
  Rh  Rh26  1  0.000048  0.000775  0.999817  1
  Rh  Rh27  1  0.999887  0.000162  0.500112  1
