# generated using pymatgen
data_Er16In4Co3Ni
_symmetry_space_group_name_H-M   'P 1'
_cell_length_a   9.47269509
_cell_length_b   9.46234082
_cell_length_c   9.46234100
_cell_angle_alpha   59.99999587
_cell_angle_beta   60.03614760
_cell_angle_gamma   60.03614839
_symmetry_Int_Tables_number   1
_chemical_formula_structural   Er16In4Co3Ni
_chemical_formula_sum   'Er16 In4 Co3 Ni1'
_cell_volume   600.05740718
_cell_formula_units_Z   1
loop_
 _symmetry_equiv_pos_site_id
 _symmetry_equiv_pos_as_xyz
  1  'x, y, z'
loop_
 _atom_site_type_symbol
 _atom_site_label
 _atom_site_symmetry_multiplicity
 _atom_site_fract_x
 _atom_site_fract_y
 _atom_site_fract_z
 _atom_site_occupancy
  Er  Er0  1  0.343228  0.348743  0.348743  1
  Er  Er1  1  0.343228  0.348743  0.959286  1
  Er  Er2  1  0.343228  0.959286  0.348743  1
  Er  Er3  1  0.961978  0.346008  0.346008  1
  Er  Er4  1  0.816082  0.187877  0.187877  1
  Er  Er5  1  0.188329  0.812023  0.812023  1
  Er  Er6  1  0.188329  0.812023  0.187625  1
  Er  Er7  1  0.816082  0.187877  0.808163  1
  Er  Er8  1  0.188329  0.187625  0.812023  1
  Er  Er9  1  0.816082  0.808163  0.187877  1
  Er  Er10  1  0.937356  0.561858  0.561858  1
  Er  Er11  1  0.559862  0.938431  0.938431  1
  Er  Er12  1  0.559862  0.938431  0.563278  1
  Er  Er13  1  0.937356  0.561858  0.938928  1
  Er  Er14  1  0.559862  0.563278  0.938431  1
  Er  Er15  1  0.937356  0.938928  0.561858  1
  In  In16  1  0.583253  0.582333  0.582333  1
  In  In17  1  0.583253  0.582333  0.252081  1
  In  In18  1  0.583253  0.252081  0.582333  1
  In  In19  1  0.251797  0.582734  0.582734  1
  Co  Co20  1  0.141818  0.140651  0.140651  1
  Co  Co21  1  0.141818  0.140651  0.576880  1
  Co  Co22  1  0.141818  0.576880  0.140651  1
  Ni  Ni23  1  0.576441  0.141187  0.141187  1
