# generated using pymatgen
data_Mg4SnSbPd10
_symmetry_space_group_name_H-M   'P 1'
_cell_length_a   4.25158700
_cell_length_b   5.61882913
_cell_length_c   11.00420526
_cell_angle_alpha   89.97500223
_cell_angle_beta   90.00000000
_cell_angle_gamma   90.00000000
_symmetry_Int_Tables_number   1
_chemical_formula_structural   Mg4SnSbPd10
_chemical_formula_sum   'Mg4 Sn1 Sb1 Pd10'
_cell_volume   262.87878413
_cell_formula_units_Z   1
loop_
 _symmetry_equiv_pos_site_id
 _symmetry_equiv_pos_as_xyz
  1  'x, y, z'
loop_
 _atom_site_type_symbol
 _atom_site_label
 _atom_site_symmetry_multiplicity
 _atom_site_fract_x
 _atom_site_fract_y
 _atom_site_fract_z
 _atom_site_occupancy
  Mg  Mg0  1  0.500000  0.173211  0.140776  1
  Mg  Mg1  1  0.500000  0.826789  0.859224  1
  Mg  Mg2  1  0.500000  0.328008  0.641883  1
  Mg  Mg3  1  0.500000  0.671992  0.358117  1
  Sn  Sn4  1  0.000000  0.500000  0.000000  1
  Sb  Sb5  1  0.000000  0.000000  0.500000  1
  Pd  Pd6  1  0.500000  0.194324  0.388149  1
  Pd  Pd7  1  0.500000  0.805676  0.611851  1
  Pd  Pd8  1  0.500000  0.305359  0.887153  1
  Pd  Pd9  1  0.500000  0.694641  0.112847  1
  Pd  Pd10  1  0.000000  0.425042  0.244549  1
  Pd  Pd11  1  0.000000  0.574958  0.755451  1
  Pd  Pd12  1  0.000000  0.074587  0.744612  1
  Pd  Pd13  1  0.000000  0.925413  0.255388  1
  Pd  Pd14  1  0.000000  0.000000  0.000000  1
  Pd  Pd15  1  0.000000  0.500000  0.500000  1
