# generated using pymatgen
data_Zr2TaRh5
_symmetry_space_group_name_H-M   'P 1'
_cell_length_a   5.61720163
_cell_length_b   5.61720084
_cell_length_c   8.59656000
_cell_angle_alpha   90.00000000
_cell_angle_beta   90.00000000
_cell_angle_gamma   102.07288993
_symmetry_Int_Tables_number   1
_chemical_formula_structural   Zr2TaRh5
_chemical_formula_sum   'Zr4 Ta2 Rh10'
_cell_volume   265.24747214
_cell_formula_units_Z   2
loop_
 _symmetry_equiv_pos_site_id
 _symmetry_equiv_pos_as_xyz
  1  'x, y, z'
loop_
 _atom_site_type_symbol
 _atom_site_label
 _atom_site_symmetry_multiplicity
 _atom_site_fract_x
 _atom_site_fract_y
 _atom_site_fract_z
 _atom_site_occupancy
  Zr  Zr0  1  0.790060  0.209940  0.500000  1
  Zr  Zr1  1  0.209940  0.790060  0.000000  1
  Zr  Zr2  1  0.209940  0.790060  0.500000  1
  Zr  Zr3  1  0.790060  0.209940  0.000000  1
  Ta  Ta4  1  0.576774  0.576774  0.750000  1
  Ta  Ta5  1  0.423226  0.423226  0.250000  1
  Rh  Rh6  1  0.702326  0.702326  0.030859  1
  Rh  Rh7  1  0.702326  0.702326  0.469141  1
  Rh  Rh8  1  0.297674  0.297674  0.969141  1
  Rh  Rh9  1  0.297674  0.297674  0.530859  1
  Rh  Rh10  1  0.486804  0.010749  0.750000  1
  Rh  Rh11  1  0.513196  0.989251  0.250000  1
  Rh  Rh12  1  0.018764  0.018764  0.250000  1
  Rh  Rh13  1  0.981236  0.981236  0.750000  1
  Rh  Rh14  1  0.010749  0.486804  0.750000  1
  Rh  Rh15  1  0.989251  0.513196  0.250000  1
