# generated using pymatgen
data_Hf8FeCo(Si8Ni5)2
_symmetry_space_group_name_H-M   'P 1'
_cell_length_a   5.18314500
_cell_length_b   6.85832908
_cell_length_c   13.64573560
_cell_angle_alpha   89.86994939
_cell_angle_beta   90.00000000
_cell_angle_gamma   90.00000000
_symmetry_Int_Tables_number   1
_chemical_formula_structural   Hf8FeCo(Si8Ni5)2
_chemical_formula_sum   'Hf8 Fe1 Co1 Si16 Ni10'
_cell_volume   485.07345801
_cell_formula_units_Z   1
loop_
 _symmetry_equiv_pos_site_id
 _symmetry_equiv_pos_as_xyz
  1  'x, y, z'
loop_
 _atom_site_type_symbol
 _atom_site_label
 _atom_site_symmetry_multiplicity
 _atom_site_fract_x
 _atom_site_fract_y
 _atom_site_fract_z
 _atom_site_occupancy
  Hf  Hf0  1  0.248049  0.400634  0.145680  1
  Hf  Hf1  1  0.747953  0.095536  0.146254  1
  Hf  Hf2  1  0.251892  0.098059  0.645579  1
  Hf  Hf3  1  0.751925  0.403981  0.646231  1
  Hf  Hf4  1  0.248049  0.599366  0.354320  1
  Hf  Hf5  1  0.747953  0.904464  0.353746  1
  Hf  Hf6  1  0.251892  0.901941  0.854421  1
  Hf  Hf7  1  0.751925  0.596019  0.853769  1
  Fe  Fe8  1  0.247083  0.000000  0.250000  1
  Co  Co9  1  0.252613  0.500000  0.750000  1
  Si  Si10  1  0.247599  0.019882  0.072215  1
  Si  Si11  1  0.747639  0.526083  0.431267  1
  Si  Si12  1  0.752469  0.025045  0.568673  1
  Si  Si13  1  0.495240  0.751196  0.188614  1
  Si  Si14  1  0.004518  0.251412  0.810946  1
  Si  Si15  1  0.500210  0.250907  0.810929  1
  Si  Si16  1  0.247599  0.980118  0.427785  1
  Si  Si17  1  0.252405  0.519829  0.928343  1
  Si  Si18  1  0.999733  0.750546  0.188508  1
  Si  Si19  1  0.747639  0.473917  0.068733  1
  Si  Si20  1  0.252405  0.480171  0.571657  1
  Si  Si21  1  0.495240  0.248804  0.311386  1
  Si  Si22  1  0.004518  0.748588  0.689054  1
  Si  Si23  1  0.752469  0.974955  0.931327  1
  Si  Si24  1  0.500210  0.749093  0.689071  1
  Si  Si25  1  0.999733  0.249454  0.311492  1
  Ni  Ni26  1  0.999478  0.248177  0.979398  1
  Ni  Ni27  1  0.501174  0.252052  0.480146  1
  Ni  Ni28  1  0.752533  0.000000  0.750000  1
  Ni  Ni29  1  0.499499  0.244880  0.979393  1
  Ni  Ni30  1  0.747367  0.500000  0.250000  1
  Ni  Ni31  1  0.499499  0.755120  0.520607  1
  Ni  Ni32  1  0.000421  0.255162  0.480245  1
  Ni  Ni33  1  0.000421  0.744838  0.019755  1
  Ni  Ni34  1  0.501174  0.747948  0.019854  1
  Ni  Ni35  1  0.999478  0.751823  0.520602  1
