# generated using pymatgen
data_K3Ag(PAu)2
_symmetry_space_group_name_H-M   'P 1'
_cell_length_a   7.65122954
_cell_length_b   7.41402666
_cell_length_c   7.65122957
_cell_angle_alpha   48.26531007
_cell_angle_beta   49.43958347
_cell_angle_gamma   48.26531140
_symmetry_Int_Tables_number   1
_chemical_formula_structural   K3Ag(PAu)2
_chemical_formula_sum   'K3 Ag1 P2 Au2'
_cell_volume   224.35607044
_cell_formula_units_Z   1
loop_
 _symmetry_equiv_pos_site_id
 _symmetry_equiv_pos_as_xyz
  1  'x, y, z'
loop_
 _atom_site_type_symbol
 _atom_site_label
 _atom_site_symmetry_multiplicity
 _atom_site_fract_x
 _atom_site_fract_y
 _atom_site_fract_z
 _atom_site_occupancy
  K  K0  1  0.910172  0.911088  0.910172  1
  K  K1  1  0.500000  0.500000  0.500000  1
  K  K2  1  0.089828  0.088912  0.089828  1
  Ag  Ag3  1  0.500000  0.000000  0.500000  1
  P  P4  1  0.249139  0.255082  0.249139  1
  P  P5  1  0.750861  0.744918  0.750861  1
  Au  Au6  1  0.000000  0.500000  0.500000  1
  Au  Au7  1  0.500000  0.500000  0.000000  1
