# generated using pymatgen
data_Pr2GaFe(Tc5C)3
_symmetry_space_group_name_H-M   'P 1'
_cell_length_a   7.01927928
_cell_length_b   6.95527694
_cell_length_c   6.96636822
_cell_angle_alpha   82.79242698
_cell_angle_beta   82.44823827
_cell_angle_gamma   83.04859722
_symmetry_Int_Tables_number   1
_chemical_formula_structural   Pr2GaFe(Tc5C)3
_chemical_formula_sum   'Pr2 Ga1 Fe1 Tc15 C3'
_cell_volume   332.59628046
_cell_formula_units_Z   1
loop_
 _symmetry_equiv_pos_site_id
 _symmetry_equiv_pos_as_xyz
  1  'x, y, z'
loop_
 _atom_site_type_symbol
 _atom_site_label
 _atom_site_symmetry_multiplicity
 _atom_site_fract_x
 _atom_site_fract_y
 _atom_site_fract_z
 _atom_site_occupancy
  Pr  Pr0  1  0.652820  0.651509  0.650943  1
  Pr  Pr1  1  0.347180  0.348491  0.349057  1
  Ga  Ga2  1  0.500000  0.000000  0.000000  1
  Fe  Fe3  1  0.000000  0.500000  0.000000  1
  Tc  Tc4  1  0.000000  0.000000  0.500000  1
  Tc  Tc5  1  0.725415  0.278512  0.001054  1
  Tc  Tc6  1  0.000490  0.722535  0.273109  1
  Tc  Tc7  1  0.276949  0.996930  0.724867  1
  Tc  Tc8  1  0.999510  0.277465  0.726891  1
  Tc  Tc9  1  0.723051  0.003070  0.275133  1
  Tc  Tc10  1  0.274585  0.721488  0.998946  1
  Tc  Tc11  1  0.342463  0.350501  0.860406  1
  Tc  Tc12  1  0.862433  0.353277  0.347414  1
  Tc  Tc13  1  0.349020  0.855877  0.350877  1
  Tc  Tc14  1  0.657537  0.649499  0.139594  1
  Tc  Tc15  1  0.137567  0.646723  0.652586  1
  Tc  Tc16  1  0.650980  0.144123  0.649123  1
  Tc  Tc17  1  0.908314  0.899235  0.901061  1
  Tc  Tc18  1  0.091686  0.100765  0.098939  1
  C  C19  1  0.500000  0.500000  0.000000  1
  C  C20  1  0.000000  0.500000  0.500000  1
  C  C21  1  0.500000  0.000000  0.500000  1
