# generated using pymatgen
data_Lu12In2Os2Ru
_symmetry_space_group_name_H-M   'P 1'
_cell_length_a   8.26811461
_cell_length_b   8.26811463
_cell_length_c   8.26811399
_cell_angle_alpha   109.36000513
_cell_angle_beta   109.36000290
_cell_angle_gamma   109.69388101
_symmetry_Int_Tables_number   1
_chemical_formula_structural   Lu12In2Os2Ru
_chemical_formula_sum   'Lu12 In2 Os2 Ru1'
_cell_volume   435.10355746
_cell_formula_units_Z   1
loop_
 _symmetry_equiv_pos_site_id
 _symmetry_equiv_pos_as_xyz
  1  'x, y, z'
loop_
 _atom_site_type_symbol
 _atom_site_label
 _atom_site_symmetry_multiplicity
 _atom_site_fract_x
 _atom_site_fract_y
 _atom_site_fract_z
 _atom_site_occupancy
  Lu  Lu0  1  0.314980  0.314980  0.632048  1
  Lu  Lu1  1  0.682931  0.682931  0.367952  1
  Lu  Lu2  1  0.682931  0.314980  0.000000  1
  Lu  Lu3  1  0.314980  0.682931  0.000000  1
  Lu  Lu4  1  0.186014  0.427267  0.241254  1
  Lu  Lu5  1  0.814113  0.573013  0.758900  1
  Lu  Lu6  1  0.186014  0.944759  0.758746  1
  Lu  Lu7  1  0.944759  0.186014  0.758746  1
  Lu  Lu8  1  0.814113  0.055214  0.241100  1
  Lu  Lu9  1  0.055214  0.814113  0.241100  1
  Lu  Lu10  1  0.427267  0.186014  0.241254  1
  Lu  Lu11  1  0.573013  0.814113  0.758900  1
  In  In12  1  0.999481  0.499481  0.500000  1
  In  In13  1  0.499481  0.999481  0.500000  1
  Os  Os14  1  0.350738  0.350738  0.000000  1
  Os  Os15  1  0.999928  0.999928  0.000000  1
  Ru  Ru16  1  0.654042  0.654042  0.000000  1
