# generated using pymatgen
data_Sc8Al15Rh7
_symmetry_space_group_name_H-M   'P 1'
_cell_length_a   8.90632534
_cell_length_b   8.90632558
_cell_length_c   8.90632529
_cell_angle_alpha   120.11906758
_cell_angle_beta   119.97770445
_cell_angle_gamma   89.91626268
_symmetry_Int_Tables_number   1
_chemical_formula_structural   Sc8Al15Rh7
_chemical_formula_sum   'Sc8 Al15 Rh7'
_cell_volume   499.18506949
_cell_formula_units_Z   1
loop_
 _symmetry_equiv_pos_site_id
 _symmetry_equiv_pos_as_xyz
  1  'x, y, z'
loop_
 _atom_site_type_symbol
 _atom_site_label
 _atom_site_symmetry_multiplicity
 _atom_site_fract_x
 _atom_site_fract_y
 _atom_site_fract_z
 _atom_site_occupancy
  Sc  Sc0  1  0.790003  0.283583  0.063880  1
  Sc  Sc1  1  0.219703  0.283583  0.493580  1
  Sc  Sc2  1  0.209180  0.709180  0.500000  1
  Sc  Sc3  1  0.219703  0.726124  0.936120  1
  Sc  Sc4  1  0.790003  0.726124  0.506420  1
  Sc  Sc5  1  0.773189  0.273189  0.500000  1
  Sc  Sc6  1  0.379217  0.119869  0.740652  1
  Sc  Sc7  1  0.379217  0.638566  0.259348  1
  Al  Al8  1  0.991419  0.491419  0.500000  1
  Al  Al9  1  0.159522  0.337039  0.177517  1
  Al  Al10  1  0.159522  0.982005  0.822483  1
  Al  Al11  1  0.153373  0.342797  0.810576  1
  Al  Al12  1  0.532220  0.342797  0.189424  1
  Al  Al13  1  0.841134  0.655981  0.814849  1
  Al  Al14  1  0.841134  0.026285  0.185151  1
  Al  Al15  1  0.837772  0.659030  0.178742  1
  Al  Al16  1  0.480288  0.659030  0.821258  1
  Al  Al17  1  0.379123  0.123367  0.255756  1
  Al  Al18  1  0.867612  0.123367  0.744244  1
  Al  Al19  1  0.621489  0.874067  0.252578  1
  Al  Al20  1  0.621489  0.368910  0.747422  1
  Al  Al21  1  0.621742  0.876727  0.745015  1
  Al  Al22  1  0.131710  0.876727  0.254985  1
  Rh  Rh23  1  0.995124  0.998678  0.497914  1
  Rh  Rh24  1  0.500765  0.998678  0.003555  1
  Rh  Rh25  1  0.501018  0.501018  0.000000  1
  Rh  Rh26  1  0.500765  0.497210  0.502086  1
  Rh  Rh27  1  0.995124  0.497210  0.996445  1
  Rh  Rh28  1  0.999838  0.999838  0.000000  1
  Rh  Rh29  1  0.507600  0.007600  0.500000  1
