# generated using pymatgen
data_Dy8Co(Si4Pt)3
_symmetry_space_group_name_H-M   'P 1'
_cell_length_a   8.10045900
_cell_length_b   8.10046024
_cell_length_c   8.10156900
_cell_angle_alpha   90.00000000
_cell_angle_beta   90.00000000
_cell_angle_gamma   119.99999084
_symmetry_Int_Tables_number   1
_chemical_formula_structural   Dy8Co(Si4Pt)3
_chemical_formula_sum   'Dy8 Co1 Si12 Pt3'
_cell_volume   460.38284247
_cell_formula_units_Z   1
loop_
 _symmetry_equiv_pos_site_id
 _symmetry_equiv_pos_as_xyz
  1  'x, y, z'
loop_
 _atom_site_type_symbol
 _atom_site_label
 _atom_site_symmetry_multiplicity
 _atom_site_fract_x
 _atom_site_fract_y
 _atom_site_fract_z
 _atom_site_occupancy
  Dy  Dy0  1  0.000000  0.000000  0.251243  1
  Dy  Dy1  1  0.000000  0.000000  0.748375  1
  Dy  Dy2  1  0.998490  0.499245  0.253837  1
  Dy  Dy3  1  0.500755  0.499245  0.253837  1
  Dy  Dy4  1  0.504015  0.008028  0.746654  1
  Dy  Dy5  1  0.500755  0.001510  0.253837  1
  Dy  Dy6  1  0.504015  0.495985  0.746654  1
  Dy  Dy7  1  0.991972  0.495985  0.746654  1
  Co  Co8  1  0.666667  0.333333  0.492502  1
  Si  Si9  1  0.165745  0.331488  0.000487  1
  Si  Si10  1  0.668512  0.834255  0.000487  1
  Si  Si11  1  0.163922  0.327843  0.499970  1
  Si  Si12  1  0.329584  0.164793  0.999356  1
  Si  Si13  1  0.165745  0.834255  0.000487  1
  Si  Si14  1  0.672157  0.836078  0.499970  1
  Si  Si15  1  0.835207  0.670416  0.999356  1
  Si  Si16  1  0.346177  0.173089  0.499906  1
  Si  Si17  1  0.163922  0.836078  0.499970  1
  Si  Si18  1  0.826911  0.653823  0.499906  1
  Si  Si19  1  0.835207  0.164793  0.999356  1
  Si  Si20  1  0.826911  0.173089  0.499906  1
  Pt  Pt21  1  0.333333  0.666667  0.996103  1
  Pt  Pt22  1  0.333333  0.666667  0.505795  1
  Pt  Pt23  1  0.666667  0.333333  0.005350  1
