# generated using pymatgen
data_Ho4Tm6Ga3Bi2Ir
_symmetry_space_group_name_H-M   'P 1'
_cell_length_a   8.60855519
_cell_length_b   8.61359760
_cell_length_c   8.71633172
_cell_angle_alpha   125.30052055
_cell_angle_beta   125.28455214
_cell_angle_gamma   80.23254097
_symmetry_Int_Tables_number   1
_chemical_formula_structural   Ho4Tm6Ga3Bi2Ir
_chemical_formula_sum   'Ho4 Tm6 Ga3 Bi2 Ir1'
_cell_volume   417.30693502
_cell_formula_units_Z   1
loop_
 _symmetry_equiv_pos_site_id
 _symmetry_equiv_pos_as_xyz
  1  'x, y, z'
loop_
 _atom_site_type_symbol
 _atom_site_label
 _atom_site_symmetry_multiplicity
 _atom_site_fract_x
 _atom_site_fract_y
 _atom_site_fract_z
 _atom_site_occupancy
  Ho  Ho0  1  0.997619  0.484125  0.199457  1
  Ho  Ho1  1  0.298146  0.784655  0.800516  1
  Ho  Ho2  1  0.462573  0.305491  0.500006  1
  Ho  Ho3  1  0.796647  0.983549  0.499982  1
  Tm  Tm4  1  0.000257  0.001538  0.003820  1
  Tm  Tm5  1  0.496435  0.497725  0.996182  1
  Tm  Tm6  1  0.016841  0.501965  0.798264  1
  Tm  Tm7  1  0.718574  0.203692  0.201754  1
  Tm  Tm8  1  0.516566  0.706324  0.500013  1
  Tm  Tm9  1  0.195700  0.038663  0.500018  1
  Ga  Ga10  1  0.358113  0.855413  0.215517  1
  Ga  Ga11  1  0.642590  0.139892  0.784485  1
  Ga  Ga12  1  0.862990  0.635418  0.499997  1
  Bi  Bi13  1  0.755020  0.744586  0.999511  1
  Bi  Bi14  1  0.255506  0.245066  0.000483  1
  Ir  Ir15  1  0.126427  0.371893  0.499996  1
