# generated using pymatgen
data_Y6Lu10Cd4TcNi3
_symmetry_space_group_name_H-M   'P 1'
_cell_length_a   9.50363983
_cell_length_b   9.50364023
_cell_length_c   9.50364048
_cell_angle_alpha   59.38501911
_cell_angle_beta   59.38502268
_cell_angle_gamma   59.38501859
_symmetry_Int_Tables_number   1
_chemical_formula_structural   Y6Lu10Cd4TcNi3
_chemical_formula_sum   'Y6 Lu10 Cd4 Tc1 Ni3'
_cell_volume   598.45793526
_cell_formula_units_Z   1
loop_
 _symmetry_equiv_pos_site_id
 _symmetry_equiv_pos_as_xyz
  1  'x, y, z'
loop_
 _atom_site_type_symbol
 _atom_site_label
 _atom_site_symmetry_multiplicity
 _atom_site_fract_x
 _atom_site_fract_y
 _atom_site_fract_z
 _atom_site_occupancy
  Y  Y0  1  0.187331  0.812740  0.812740  1
  Y  Y1  1  0.804679  0.191609  0.191609  1
  Y  Y2  1  0.812740  0.187331  0.812740  1
  Y  Y3  1  0.191609  0.804679  0.191609  1
  Y  Y4  1  0.812740  0.812740  0.187331  1
  Y  Y5  1  0.191609  0.191609  0.804679  1
  Lu  Lu6  1  0.596625  0.596625  0.596625  1
  Lu  Lu7  1  0.601937  0.601937  0.205362  1
  Lu  Lu8  1  0.601937  0.205362  0.601937  1
  Lu  Lu9  1  0.205362  0.601937  0.601937  1
  Lu  Lu10  1  0.063623  0.435235  0.435235  1
  Lu  Lu11  1  0.434458  0.063430  0.063430  1
  Lu  Lu12  1  0.435235  0.063623  0.435235  1
  Lu  Lu13  1  0.063430  0.434458  0.063430  1
  Lu  Lu14  1  0.435235  0.435235  0.063623  1
  Lu  Lu15  1  0.063430  0.063430  0.434458  1
  Cd  Cd16  1  0.828838  0.828838  0.828838  1
  Cd  Cd17  1  0.829179  0.829179  0.507333  1
  Cd  Cd18  1  0.829179  0.507333  0.829179  1
  Cd  Cd19  1  0.507333  0.829179  0.829179  1
  Tc  Tc20  1  0.395120  0.395120  0.395120  1
  Ni  Ni21  1  0.391583  0.391583  0.825199  1
  Ni  Ni22  1  0.391583  0.825199  0.391583  1
  Ni  Ni23  1  0.825199  0.391583  0.391583  1
