# generated using pymatgen
data_Ac5TbZn4Pd12Rh
_symmetry_space_group_name_H-M   'P 1'
_cell_length_a   8.55186543
_cell_length_b   8.55181002
_cell_length_c   8.55186662
_cell_angle_alpha   109.49242421
_cell_angle_beta   109.49201521
_cell_angle_gamma   109.42949339
_symmetry_Int_Tables_number   1
_chemical_formula_structural   Ac5TbZn4Pd12Rh
_chemical_formula_sum   'Ac5 Tb1 Zn4 Pd12 Rh1'
_cell_volume   481.45571770
_cell_formula_units_Z   1
loop_
 _symmetry_equiv_pos_site_id
 _symmetry_equiv_pos_as_xyz
  1  'x, y, z'
loop_
 _atom_site_type_symbol
 _atom_site_label
 _atom_site_symmetry_multiplicity
 _atom_site_fract_x
 _atom_site_fract_y
 _atom_site_fract_z
 _atom_site_occupancy
  Ac  Ac0  1  0.297569  0.998947  0.298622  1
  Ac  Ac1  1  0.998921  0.297524  0.298602  1
  Ac  Ac2  1  0.296750  0.296746  0.999997  1
  Ac  Ac3  1  0.700325  0.998947  0.701378  1
  Ac  Ac4  1  0.998949  0.700355  0.701407  1
  Tb  Tb5  1  0.695115  0.695118  0.000003  1
  Zn  Zn6  1  0.998787  0.998778  0.493996  1
  Zn  Zn7  1  0.998782  0.504793  0.000003  1
  Zn  Zn8  1  0.504782  0.998778  0.999991  1
  Zn  Zn9  1  0.504789  0.504793  0.506011  1
  Pd  Pd10  1  0.337272  0.337302  0.668940  1
  Pd  Pd11  1  0.672551  0.997866  0.325316  1
  Pd  Pd12  1  0.997871  0.672532  0.325325  1
  Pd  Pd13  1  0.668361  0.337302  0.000030  1
  Pd  Pd14  1  0.329179  0.657956  0.328778  1
  Pd  Pd15  1  0.000388  0.329173  0.671216  1
  Pd  Pd16  1  0.337264  0.668330  0.999956  1
  Pd  Pd17  1  0.329162  0.000383  0.671220  1
  Pd  Pd18  1  0.657955  0.329173  0.328786  1
  Pd  Pd19  1  0.668374  0.668330  0.331067  1
  Pd  Pd20  1  0.672539  0.347225  0.674686  1
  Pd  Pd21  1  0.347207  0.672532  0.674660  1
  Rh  Rh22  1  0.987108  0.987118  0.000010  1
