# generated using pymatgen
data_Dy8Si12IrPt2Rh
_symmetry_space_group_name_H-M   'P 1'
_cell_length_a   8.17144100
_cell_length_b   8.17144119
_cell_length_c   7.96360900
_cell_angle_alpha   90.00000000
_cell_angle_beta   90.00000000
_cell_angle_gamma   119.99999518
_symmetry_Int_Tables_number   1
_chemical_formula_structural   Dy8Si12IrPt2Rh
_chemical_formula_sum   'Dy8 Si12 Ir1 Pt2 Rh1'
_cell_volume   460.50875401
_cell_formula_units_Z   1
loop_
 _symmetry_equiv_pos_site_id
 _symmetry_equiv_pos_as_xyz
  1  'x, y, z'
loop_
 _atom_site_type_symbol
 _atom_site_label
 _atom_site_symmetry_multiplicity
 _atom_site_fract_x
 _atom_site_fract_y
 _atom_site_fract_z
 _atom_site_occupancy
  Dy  Dy0  1  0.000000  0.000000  0.250599  1
  Dy  Dy1  1  0.000000  0.000000  0.749548  1
  Dy  Dy2  1  0.012561  0.506280  0.250028  1
  Dy  Dy3  1  0.493720  0.506280  0.250028  1
  Dy  Dy4  1  0.509214  0.018428  0.749973  1
  Dy  Dy5  1  0.493720  0.987439  0.250028  1
  Dy  Dy6  1  0.509214  0.490786  0.749973  1
  Dy  Dy7  1  0.981572  0.490786  0.749973  1
  Si  Si8  1  0.164508  0.329015  0.000921  1
  Si  Si9  1  0.670985  0.835492  0.000921  1
  Si  Si10  1  0.164232  0.328461  0.499251  1
  Si  Si11  1  0.334328  0.167165  0.998705  1
  Si  Si12  1  0.164508  0.835492  0.000921  1
  Si  Si13  1  0.671539  0.835768  0.499251  1
  Si  Si14  1  0.832835  0.665672  0.998705  1
  Si  Si15  1  0.335155  0.167578  0.501965  1
  Si  Si16  1  0.164232  0.835768  0.499251  1
  Si  Si17  1  0.832422  0.664845  0.501965  1
  Si  Si18  1  0.832835  0.167165  0.998705  1
  Si  Si19  1  0.832422  0.167578  0.501965  1
  Ir  Ir20  1  0.666667  0.333333  0.032772  1
  Pt  Pt21  1  0.333333  0.666667  0.975598  1
  Pt  Pt22  1  0.333333  0.666667  0.524838  1
  Rh  Rh23  1  0.666667  0.333333  0.464117  1
