# generated using pymatgen
data_NaNd6NiCl12
_symmetry_space_group_name_H-M   'P 1'
_cell_length_a   9.05396943
_cell_length_b   9.21458623
_cell_length_c   9.23591721
_cell_angle_alpha   107.67069964
_cell_angle_beta   107.58842646
_cell_angle_gamma   106.77197319
_symmetry_Int_Tables_number   1
_chemical_formula_structural   NaNd6NiCl12
_chemical_formula_sum   'Na1 Nd6 Ni1 Cl12'
_cell_volume   635.56341427
_cell_formula_units_Z   1
loop_
 _symmetry_equiv_pos_site_id
 _symmetry_equiv_pos_as_xyz
  1  'x, y, z'
loop_
 _atom_site_type_symbol
 _atom_site_label
 _atom_site_symmetry_multiplicity
 _atom_site_fract_x
 _atom_site_fract_y
 _atom_site_fract_z
 _atom_site_occupancy
  Na  Na0  1  0.500000  0.500000  0.500000  1
  Nd  Nd1  1  0.317420  0.112732  0.027983  1
  Nd  Nd2  1  0.028297  0.330867  0.121460  1
  Nd  Nd3  1  0.122520  0.031163  0.331210  1
  Nd  Nd4  1  0.877479  0.968837  0.668790  1
  Nd  Nd5  1  0.971703  0.669133  0.878539  1
  Nd  Nd6  1  0.682580  0.887268  0.972016  1
  Ni  Ni7  1  0.000000  0.000000  0.000000  1
  Cl  Cl8  1  0.681792  0.211590  0.069316  1
  Cl  Cl9  1  0.366848  0.449503  0.160803  1
  Cl  Cl10  1  0.071854  0.686947  0.210739  1
  Cl  Cl11  1  0.788338  0.929428  0.313567  1
  Cl  Cl12  1  0.455539  0.161644  0.368005  1
  Cl  Cl13  1  0.158308  0.367195  0.452583  1
  Cl  Cl14  1  0.841693  0.632805  0.547418  1
  Cl  Cl15  1  0.544461  0.838357  0.631995  1
  Cl  Cl16  1  0.211661  0.070572  0.686433  1
  Cl  Cl17  1  0.928146  0.313053  0.789260  1
  Cl  Cl18  1  0.633153  0.550498  0.839197  1
  Cl  Cl19  1  0.318208  0.788409  0.930684  1
