# generated using pymatgen
data_SmY2Mg3Pb2Au
_symmetry_space_group_name_H-M   'P 1'
_cell_length_a   7.63393254
_cell_length_b   7.63393358
_cell_length_c   4.55081900
_cell_angle_alpha   90.00000000
_cell_angle_beta   90.00000000
_cell_angle_gamma   120.31125966
_symmetry_Int_Tables_number   1
_chemical_formula_structural   SmY2Mg3Pb2Au
_chemical_formula_sum   'Sm1 Y2 Mg3 Pb2 Au1'
_cell_volume   228.95291623
_cell_formula_units_Z   1
loop_
 _symmetry_equiv_pos_site_id
 _symmetry_equiv_pos_as_xyz
  1  'x, y, z'
loop_
 _atom_site_type_symbol
 _atom_site_label
 _atom_site_symmetry_multiplicity
 _atom_site_fract_x
 _atom_site_fract_y
 _atom_site_fract_z
 _atom_site_occupancy
  Sm  Sm0  1  0.405667  0.405667  0.000000  1
  Y  Y1  1  0.596247  0.000707  0.000000  1
  Y  Y2  1  0.000707  0.596247  0.000000  1
  Mg  Mg3  1  0.232458  0.999656  0.500000  1
  Mg  Mg4  1  0.999656  0.232458  0.500000  1
  Mg  Mg5  1  0.767270  0.767270  0.500000  1
  Pb  Pb6  1  0.331901  0.668822  0.500000  1
  Pb  Pb7  1  0.668822  0.331901  0.500000  1
  Au  Au8  1  0.997273  0.997273  0.000000  1
