# generated using pymatgen
data_SrCa9(Tc2N7)2
_symmetry_space_group_name_H-M   'P 1'
_cell_length_a   6.14106598
_cell_length_b   9.01741777
_cell_length_c   8.95377819
_cell_angle_alpha   115.70105244
_cell_angle_beta   98.34938879
_cell_angle_gamma   88.75788282
_symmetry_Int_Tables_number   1
_chemical_formula_structural   SrCa9(Tc2N7)2
_chemical_formula_sum   'Sr1 Ca9 Tc4 N14'
_cell_volume   441.56665954
_cell_formula_units_Z   1
loop_
 _symmetry_equiv_pos_site_id
 _symmetry_equiv_pos_as_xyz
  1  'x, y, z'
loop_
 _atom_site_type_symbol
 _atom_site_label
 _atom_site_symmetry_multiplicity
 _atom_site_fract_x
 _atom_site_fract_y
 _atom_site_fract_z
 _atom_site_occupancy
  Sr  Sr0  1  0.722237  0.001266  0.421093  1
  Ca  Ca1  1  0.840892  0.591110  0.323485  1
  Ca  Ca2  1  0.265236  0.987309  0.560923  1
  Ca  Ca3  1  0.702976  0.420456  0.864158  1
  Ca  Ca4  1  0.299935  0.579366  0.139046  1
  Ca  Ca5  1  0.405762  0.792152  0.925559  1
  Ca  Ca6  1  0.599121  0.206231  0.081667  1
  Ca  Ca7  1  0.154377  0.391090  0.674496  1
  Ca  Ca8  1  0.894161  0.859590  0.759814  1
  Ca  Ca9  1  0.108576  0.142424  0.240909  1
  Tc  Tc10  1  0.575192  0.360174  0.477960  1
  Tc  Tc11  1  0.410312  0.647009  0.527339  1
  Tc  Tc12  1  0.124042  0.218418  0.922674  1
  Tc  Tc13  1  0.890124  0.779058  0.075273  1
  N  N14  1  0.509957  0.551449  0.684031  1
  N  N15  1  0.473206  0.454259  0.321437  1
  N  N16  1  0.133029  0.725391  0.556680  1
  N  N17  1  0.849398  0.283660  0.430936  1
  N  N18  1  0.399984  0.191736  0.477828  1
  N  N19  1  0.586326  0.817115  0.539335  1
  N  N20  1  0.955953  0.139110  0.713396  1
  N  N21  1  0.078642  0.864299  0.275244  1
  N  N22  1  0.236061  0.049123  0.972745  1
  N  N23  1  0.770611  0.949401  0.028743  1
  N  N24  1  0.372422  0.325148  0.906892  1
  N  N25  1  0.964840  0.361738  0.086533  1
  N  N26  1  0.035124  0.632135  0.905975  1
  N  N27  1  0.641503  0.679782  0.105826  1
