# generated using pymatgen
data_Pr2Co3As4Ir
_symmetry_space_group_name_H-M   'P 1'
_cell_length_a   4.20603800
_cell_length_b   4.20603800
_cell_length_c   9.58605400
_cell_angle_alpha   90.00000000
_cell_angle_beta   90.00000000
_cell_angle_gamma   90.00000000
_symmetry_Int_Tables_number   1
_chemical_formula_structural   Pr2Co3As4Ir
_chemical_formula_sum   'Pr2 Co3 As4 Ir1'
_cell_volume   169.58453903
_cell_formula_units_Z   1
loop_
 _symmetry_equiv_pos_site_id
 _symmetry_equiv_pos_as_xyz
  1  'x, y, z'
loop_
 _atom_site_type_symbol
 _atom_site_label
 _atom_site_symmetry_multiplicity
 _atom_site_fract_x
 _atom_site_fract_y
 _atom_site_fract_z
 _atom_site_occupancy
  Pr  Pr0  1  0.000000  0.499999  0.241254  1
  Pr  Pr1  1  0.499999  0.000000  0.758746  1
  Co  Co2  1  0.499999  0.000000  0.111369  1
  Co  Co3  1  0.000000  0.000000  0.500000  1
  Co  Co4  1  0.000000  0.499999  0.888630  1
  As  As5  1  0.000000  0.000000  0.000000  1
  As  As6  1  0.499999  0.499999  0.000000  1
  As  As7  1  0.499999  0.000000  0.358856  1
  As  As8  1  0.000000  0.499999  0.641143  1
  Ir  Ir9  1  0.499999  0.499999  0.500000  1
