# generated using pymatgen
data_Sm2HoCo7(P3Rh)2
_symmetry_space_group_name_H-M   'P 1'
_cell_length_a   3.74248300
_cell_length_b   10.66177600
_cell_length_c   12.41428200
_cell_angle_alpha   90.00000000
_cell_angle_beta   90.00000000
_cell_angle_gamma   90.00000000
_symmetry_Int_Tables_number   1
_chemical_formula_structural   Sm2HoCo7(P3Rh)2
_chemical_formula_sum   'Sm4 Ho2 Co14 P12 Rh4'
_cell_volume   495.34866477
_cell_formula_units_Z   2
loop_
 _symmetry_equiv_pos_site_id
 _symmetry_equiv_pos_as_xyz
  1  'x, y, z'
loop_
 _atom_site_type_symbol
 _atom_site_label
 _atom_site_symmetry_multiplicity
 _atom_site_fract_x
 _atom_site_fract_y
 _atom_site_fract_z
 _atom_site_occupancy
  Sm  Sm0  1  0.000000  0.500000  0.521319  1
  Sm  Sm1  1  0.500000  0.000000  0.479615  1
  Sm  Sm2  1  0.500000  0.814042  0.205623  1
  Sm  Sm3  1  0.500000  0.185958  0.205623  1
  Ho  Ho4  1  0.000000  0.685914  0.794163  1
  Ho  Ho5  1  0.000000  0.314086  0.794163  1
  Co  Co6  1  0.000000  0.500000  0.986626  1
  Co  Co7  1  0.500000  0.000000  0.009250  1
  Co  Co8  1  0.500000  0.300523  0.430596  1
  Co  Co9  1  0.500000  0.699477  0.430596  1
  Co  Co10  1  0.000000  0.200372  0.572820  1
  Co  Co11  1  0.000000  0.799628  0.572820  1
  Co  Co12  1  0.500000  0.880288  0.711811  1
  Co  Co13  1  0.500000  0.119712  0.711811  1
  Co  Co14  1  0.000000  0.618260  0.289867  1
  Co  Co15  1  0.000000  0.381740  0.289867  1
  Co  Co16  1  0.500000  0.332953  0.992511  1
  Co  Co17  1  0.500000  0.667047  0.992511  1
  Co  Co18  1  0.000000  0.168713  0.004087  1
  Co  Co19  1  0.000000  0.831287  0.004087  1
  P  P20  1  0.500000  0.301022  0.614856  1
  P  P21  1  0.500000  0.698978  0.614856  1
  P  P22  1  0.000000  0.200283  0.388671  1
  P  P23  1  0.000000  0.799717  0.388671  1
  P  P24  1  0.500000  0.500000  0.889767  1
  P  P25  1  0.000000  0.000000  0.106830  1
  P  P26  1  0.500000  0.843500  0.894302  1
  P  P27  1  0.500000  0.156500  0.894302  1
  P  P28  1  0.000000  0.653900  0.103313  1
  P  P29  1  0.000000  0.346100  0.103313  1
  P  P30  1  0.500000  0.500000  0.347752  1
  P  P31  1  0.000000  0.000000  0.652863  1
  Rh  Rh32  1  0.500000  0.500000  0.158707  1
  Rh  Rh33  1  0.000000  0.000000  0.840411  1
  Rh  Rh34  1  0.500000  0.500000  0.706061  1
  Rh  Rh35  1  0.000000  0.000000  0.295557  1
