# generated using pymatgen
data_Pr5Nd(Sn5Pd6)2
_symmetry_space_group_name_H-M   'P 1'
_cell_length_a   4.52338600
_cell_length_b   9.72648206
_cell_length_c   14.11850608
_cell_angle_alpha   89.98758215
_cell_angle_beta   90.00000000
_cell_angle_gamma   90.00000000
_symmetry_Int_Tables_number   1
_chemical_formula_structural   Pr5Nd(Sn5Pd6)2
_chemical_formula_sum   'Pr5 Nd1 Sn10 Pd12'
_cell_volume   621.16671275
_cell_formula_units_Z   1
loop_
 _symmetry_equiv_pos_site_id
 _symmetry_equiv_pos_as_xyz
  1  'x, y, z'
loop_
 _atom_site_type_symbol
 _atom_site_label
 _atom_site_symmetry_multiplicity
 _atom_site_fract_x
 _atom_site_fract_y
 _atom_site_fract_z
 _atom_site_occupancy
  Pr  Pr0  1  0.000000  0.227643  0.999816  1
  Pr  Pr1  1  0.500000  0.772531  0.500141  1
  Pr  Pr2  1  0.000000  0.245285  0.322888  1
  Pr  Pr3  1  0.500000  0.754790  0.177099  1
  Pr  Pr4  1  0.000000  0.245305  0.677127  1
  Nd  Nd5  1  0.500000  0.754875  0.822932  1
  Sn  Sn6  1  0.000000  0.520842  0.118011  1
  Sn  Sn7  1  0.500000  0.479155  0.381887  1
  Sn  Sn8  1  0.000000  0.521542  0.881762  1
  Sn  Sn9  1  0.500000  0.479260  0.618196  1
  Sn  Sn10  1  0.000000  0.870910  0.327191  1
  Sn  Sn11  1  0.500000  0.128958  0.172751  1
  Sn  Sn12  1  0.000000  0.870648  0.673285  1
  Sn  Sn13  1  0.500000  0.128921  0.827206  1
  Sn  Sn14  1  0.000000  0.803862  0.999700  1
  Sn  Sn15  1  0.500000  0.195748  0.500090  1
  Pd  Pd16  1  0.000000  0.990356  0.144543  1
  Pd  Pd17  1  0.500000  0.009569  0.355211  1
  Pd  Pd18  1  0.000000  0.989760  0.855104  1
  Pd  Pd19  1  0.500000  0.009218  0.645061  1
  Pd  Pd20  1  0.500000  0.984199  0.999726  1
  Pd  Pd21  1  0.000000  0.015225  0.500150  1
  Pd  Pd22  1  0.000000  0.593064  0.306605  1
  Pd  Pd23  1  0.500000  0.406863  0.193236  1
  Pd  Pd24  1  0.000000  0.593395  0.693617  1
  Pd  Pd25  1  0.500000  0.407347  0.806693  1
  Pd  Pd26  1  0.500000  0.498054  0.999872  1
  Pd  Pd27  1  0.000000  0.502675  0.500099  1
