# generated using pymatgen
data_Tb2Ni9P7Ir3
_symmetry_space_group_name_H-M   'P 1'
_cell_length_a   9.15709400
_cell_length_b   9.15709398
_cell_length_c   3.82055600
_cell_angle_alpha   90.00000000
_cell_angle_beta   90.00000000
_cell_angle_gamma   120.00000009
_symmetry_Int_Tables_number   1
_chemical_formula_structural   Tb2Ni9P7Ir3
_chemical_formula_sum   'Tb2 Ni9 P7 Ir3'
_cell_volume   277.44221598
_cell_formula_units_Z   1
loop_
 _symmetry_equiv_pos_site_id
 _symmetry_equiv_pos_as_xyz
  1  'x, y, z'
loop_
 _atom_site_type_symbol
 _atom_site_label
 _atom_site_symmetry_multiplicity
 _atom_site_fract_x
 _atom_site_fract_y
 _atom_site_fract_z
 _atom_site_occupancy
  Tb  Tb0  1  0.666667  0.333333  0.000000  1
  Tb  Tb1  1  0.333333  0.666667  0.500000  1
  Ni  Ni2  1  0.062052  0.629429  0.000000  1
  Ni  Ni3  1  0.567377  0.937948  0.000000  1
  Ni  Ni4  1  0.370571  0.432623  0.000000  1
  Ni  Ni5  1  0.272383  0.119194  0.000000  1
  Ni  Ni6  1  0.846811  0.727617  0.000000  1
  Ni  Ni7  1  0.880806  0.153189  0.000000  1
  Ni  Ni8  1  0.076088  0.879910  0.500000  1
  Ni  Ni9  1  0.803822  0.923912  0.500000  1
  Ni  Ni10  1  0.120090  0.196178  0.500000  1
  P  P11  1  0.292325  0.881490  0.000000  1
  P  P12  1  0.589165  0.707675  0.000000  1
  P  P13  1  0.118510  0.410835  0.000000  1
  P  P14  1  0.397868  0.292049  0.500000  1
  P  P15  1  0.894182  0.602132  0.500000  1
  P  P16  1  0.707951  0.105818  0.500000  1
  P  P17  1  0.000000  0.000000  0.000000  1
  Ir  Ir18  1  0.427422  0.044848  0.500000  1
  Ir  Ir19  1  0.617426  0.572578  0.500000  1
  Ir  Ir20  1  0.955152  0.382574  0.500000  1
