# generated using pymatgen
data_Zn4CdNi(AsO4)4
_symmetry_space_group_name_H-M   'P 1'
_cell_length_a   8.83962369
_cell_length_b   5.33994893
_cell_length_c   9.08992517
_cell_angle_alpha   60.38506705
_cell_angle_beta   90.41648760
_cell_angle_gamma   90.26082892
_symmetry_Int_Tables_number   1
_chemical_formula_structural   Zn4CdNi(AsO4)4
_chemical_formula_sum   'Zn4 Cd1 Ni1 As4 O16'
_cell_volume   373.01146743
_cell_formula_units_Z   1
loop_
 _symmetry_equiv_pos_site_id
 _symmetry_equiv_pos_as_xyz
  1  'x, y, z'
loop_
 _atom_site_type_symbol
 _atom_site_label
 _atom_site_symmetry_multiplicity
 _atom_site_fract_x
 _atom_site_fract_y
 _atom_site_fract_z
 _atom_site_occupancy
  Zn  Zn0  1  0.138929  0.458721  0.114560  1
  Zn  Zn1  1  0.633595  0.509690  0.389543  1
  Zn  Zn2  1  0.861071  0.541279  0.885440  1
  Zn  Zn3  1  0.366405  0.490310  0.610457  1
  Cd  Cd4  1  0.000000  0.500000  0.500000  1
  Ni  Ni5  1  0.500000  0.500000  0.000000  1
  As  As6  1  0.314677  0.847864  0.186905  1
  As  As7  1  0.794741  0.155813  0.294277  1
  As  As8  1  0.685323  0.152136  0.813095  1
  As  As9  1  0.205259  0.844187  0.705723  1
  O  O10  1  0.073847  0.690272  0.866887  1
  O  O11  1  0.568379  0.305753  0.636945  1
  O  O12  1  0.926153  0.309728  0.133113  1
  O  O13  1  0.431621  0.694247  0.363055  1
  O  O14  1  0.208251  0.204798  0.641867  1
  O  O15  1  0.692743  0.787847  0.881052  1
  O  O16  1  0.791749  0.795202  0.358133  1
  O  O17  1  0.307257  0.212153  0.118948  1
  O  O18  1  0.158227  0.798229  0.536867  1
  O  O19  1  0.629147  0.214482  0.971178  1
  O  O20  1  0.139631  0.674368  0.242770  1
  O  O21  1  0.622860  0.337918  0.234021  1
  O  O22  1  0.860369  0.325632  0.757230  1
  O  O23  1  0.377140  0.662082  0.765979  1
  O  O24  1  0.370853  0.785518  0.028822  1
  O  O25  1  0.841773  0.201771  0.463133  1
