# generated using pymatgen
data_Y2Sc2VSi7Pt9
_symmetry_space_group_name_H-M   'P 1'
_cell_length_a   9.98408613
_cell_length_b   9.97437222
_cell_length_c   3.95724500
_cell_angle_alpha   90.00000000
_cell_angle_beta   90.00000000
_cell_angle_gamma   119.71120667
_symmetry_Int_Tables_number   1
_chemical_formula_structural   Y2Sc2VSi7Pt9
_chemical_formula_sum   'Y2 Sc2 V1 Si7 Pt9'
_cell_volume   342.27402959
_cell_formula_units_Z   1
loop_
 _symmetry_equiv_pos_site_id
 _symmetry_equiv_pos_as_xyz
  1  'x, y, z'
loop_
 _atom_site_type_symbol
 _atom_site_label
 _atom_site_symmetry_multiplicity
 _atom_site_fract_x
 _atom_site_fract_y
 _atom_site_fract_z
 _atom_site_occupancy
  Y  Y0  1  0.001521  0.997304  0.000000  1
  Y  Y1  1  0.331302  0.666583  0.500000  1
  Sc  Sc2  1  0.564801  0.109440  0.500000  1
  Sc  Sc3  1  0.548673  0.438781  0.500000  1
  V  V4  1  0.884975  0.452839  0.500000  1
  Si  Si5  1  0.246927  0.201156  0.500000  1
  Si  Si6  1  0.803985  0.047949  0.500000  1
  Si  Si7  1  0.951536  0.740860  0.500000  1
  Si  Si8  1  0.553733  0.643927  0.000000  1
  Si  Si9  1  0.354911  0.910531  0.000000  1
  Si  Si10  1  0.081451  0.446649  0.000000  1
  Si  Si11  1  0.677899  0.338252  0.000000  1
  Pt  Pt12  1  0.219302  0.938924  0.500000  1
  Pt  Pt13  1  0.059448  0.285856  0.500000  1
  Pt  Pt14  1  0.719559  0.778449  0.500000  1
  Pt  Pt15  1  0.307662  0.410851  0.000000  1
  Pt  Pt16  1  0.588860  0.900848  0.000000  1
  Pt  Pt17  1  0.096484  0.690209  0.000000  1
  Pt  Pt18  1  0.390973  0.175899  0.000000  1
  Pt  Pt19  1  0.829296  0.211344  0.000000  1
  Pt  Pt20  1  0.786702  0.613353  0.000000  1
