# generated using pymatgen
data_CrAgPtS4
_symmetry_space_group_name_H-M   'P 1'
_cell_length_a   7.25359208
_cell_length_b   7.25359237
_cell_length_c   7.13494400
_cell_angle_alpha   60.53963222
_cell_angle_beta   60.53963091
_cell_angle_gamma   60.93590175
_symmetry_Int_Tables_number   1
_chemical_formula_structural   CrAgPtS4
_chemical_formula_sum   'Cr2 Ag2 Pt2 S8'
_cell_volume   269.46621481
_cell_formula_units_Z   2
loop_
 _symmetry_equiv_pos_site_id
 _symmetry_equiv_pos_as_xyz
  1  'x, y, z'
loop_
 _atom_site_type_symbol
 _atom_site_label
 _atom_site_symmetry_multiplicity
 _atom_site_fract_x
 _atom_site_fract_y
 _atom_site_fract_z
 _atom_site_occupancy
  Cr  Cr0  1  0.125000  0.125000  0.125000  1
  Cr  Cr1  1  0.125000  0.125000  0.625000  1
  Ag  Ag2  1  0.506859  0.506859  0.493141  1
  Ag  Ag3  1  0.743141  0.743141  0.756859  1
  Pt  Pt4  1  0.625000  0.125000  0.125000  1
  Pt  Pt5  1  0.125000  0.625000  0.125000  1
  S  S6  1  0.359030  0.359030  0.360099  1
  S  S7  1  0.328891  0.891035  0.890037  1
  S  S8  1  0.890970  0.890970  0.328159  1
  S  S9  1  0.891035  0.328891  0.890037  1
  S  S10  1  0.359030  0.359030  0.921841  1
  S  S11  1  0.358965  0.921109  0.359963  1
  S  S12  1  0.890970  0.890970  0.889901  1
  S  S13  1  0.921109  0.358965  0.359963  1
