# generated using pymatgen
data_Eu2Zr2Ni2SbAs3
_symmetry_space_group_name_H-M   'P 1'
_cell_length_a   4.20661200
_cell_length_b   4.20661112
_cell_length_c   14.21275700
_cell_angle_alpha   90.00000000
_cell_angle_beta   90.00000000
_cell_angle_gamma   119.99997543
_symmetry_Int_Tables_number   1
_chemical_formula_structural   Eu2Zr2Ni2SbAs3
_chemical_formula_sum   'Eu2 Zr2 Ni2 Sb1 As3'
_cell_volume   217.80803276
_cell_formula_units_Z   1
loop_
 _symmetry_equiv_pos_site_id
 _symmetry_equiv_pos_as_xyz
  1  'x, y, z'
loop_
 _atom_site_type_symbol
 _atom_site_label
 _atom_site_symmetry_multiplicity
 _atom_site_fract_x
 _atom_site_fract_y
 _atom_site_fract_z
 _atom_site_occupancy
  Eu  Eu0  1  0.666667  0.333333  0.402989  1
  Eu  Eu1  1  0.333333  0.666667  0.887999  1
  Zr  Zr2  1  0.333333  0.666667  0.627464  1
  Zr  Zr3  1  0.666667  0.333333  0.115683  1
  Ni  Ni4  1  0.000000  0.000000  0.708596  1
  Ni  Ni5  1  0.000000  0.000000  0.195649  1
  Sb  Sb6  1  0.333333  0.666667  0.254963  1
  As  As7  1  0.000000  0.000000  0.021690  1
  As  As8  1  0.000000  0.000000  0.531872  1
  As  As9  1  0.666667  0.333333  0.753097  1
