# generated using pymatgen
data_MgAlVPt9
_symmetry_space_group_name_H-M   'P 1'
_cell_length_a   3.93451600
_cell_length_b   3.93451600
_cell_length_c   11.79915500
_cell_angle_alpha   90.00000000
_cell_angle_beta   90.00000000
_cell_angle_gamma   90.00000000
_symmetry_Int_Tables_number   1
_chemical_formula_structural   MgAlVPt9
_chemical_formula_sum   'Mg1 Al1 V1 Pt9'
_cell_volume   182.65582967
_cell_formula_units_Z   1
loop_
 _symmetry_equiv_pos_site_id
 _symmetry_equiv_pos_as_xyz
  1  'x, y, z'
loop_
 _atom_site_type_symbol
 _atom_site_label
 _atom_site_symmetry_multiplicity
 _atom_site_fract_x
 _atom_site_fract_y
 _atom_site_fract_z
 _atom_site_occupancy
  Mg  Mg0  1  0.000000  0.000000  0.335467  1
  Al  Al1  1  0.000000  0.000000  0.659315  1
  V  V2  1  0.000000  0.000000  0.001256  1
  Pt  Pt3  1  0.500000  0.500000  0.998382  1
  Pt  Pt4  1  0.500000  0.500000  0.333127  1
  Pt  Pt5  1  0.500000  0.500000  0.670736  1
  Pt  Pt6  1  0.500000  0.000000  0.159825  1
  Pt  Pt7  1  0.500000  0.000000  0.504087  1
  Pt  Pt8  1  0.500000  0.000000  0.836946  1
  Pt  Pt9  1  0.000000  0.500000  0.159825  1
  Pt  Pt10  1  0.000000  0.500000  0.504087  1
  Pt  Pt11  1  0.000000  0.500000  0.836946  1
