# generated using pymatgen
data_Ba2CaCr3F14
_symmetry_space_group_name_H-M   'P 1'
_cell_length_a   7.58124715
_cell_length_b   7.58124805
_cell_length_c   15.18085410
_cell_angle_alpha   88.68224714
_cell_angle_beta   88.68224629
_cell_angle_gamma   42.18219143
_symmetry_Int_Tables_number   1
_chemical_formula_structural   Ba2CaCr3F14
_chemical_formula_sum   'Ba4 Ca2 Cr6 F28'
_cell_volume   585.71365219
_cell_formula_units_Z   2
loop_
 _symmetry_equiv_pos_site_id
 _symmetry_equiv_pos_as_xyz
  1  'x, y, z'
loop_
 _atom_site_type_symbol
 _atom_site_label
 _atom_site_symmetry_multiplicity
 _atom_site_fract_x
 _atom_site_fract_y
 _atom_site_fract_z
 _atom_site_occupancy
  Ba  Ba0  1  0.743210  0.882975  0.623292  1
  Ba  Ba1  1  0.882975  0.743210  0.123292  1
  Ba  Ba2  1  0.256790  0.117025  0.376708  1
  Ba  Ba3  1  0.117025  0.256790  0.876708  1
  Ca  Ca4  1  0.576428  0.423572  0.250000  1
  Ca  Ca5  1  0.423572  0.576428  0.750000  1
  Cr  Cr6  1  0.898240  0.856274  0.374588  1
  Cr  Cr7  1  0.856274  0.898240  0.874588  1
  Cr  Cr8  1  0.101760  0.143726  0.625412  1
  Cr  Cr9  1  0.143726  0.101760  0.125412  1
  Cr  Cr10  1  0.500000  0.500000  0.000000  1
  Cr  Cr11  1  0.500000  0.500000  0.500000  1
  F  F12  1  0.350040  0.155435  0.099272  1
  F  F13  1  0.649960  0.844565  0.900728  1
  F  F14  1  0.074077  0.913022  0.653727  1
  F  F15  1  0.086978  0.925923  0.846273  1
  F  F16  1  0.118295  0.706767  0.479709  1
  F  F17  1  0.825238  0.412231  0.708152  1
  F  F18  1  0.587769  0.174762  0.791848  1
  F  F19  1  0.155435  0.350040  0.599272  1
  F  F20  1  0.913022  0.074077  0.153727  1
  F  F21  1  0.599742  0.120618  0.454144  1
  F  F22  1  0.120618  0.599742  0.954144  1
  F  F23  1  0.510907  0.376889  0.619792  1
  F  F24  1  0.925923  0.086978  0.346273  1
  F  F25  1  0.412231  0.825238  0.208152  1
  F  F26  1  0.965591  0.355543  0.221832  1
  F  F27  1  0.844565  0.649960  0.400728  1
  F  F28  1  0.706767  0.118295  0.979709  1
  F  F29  1  0.879382  0.400258  0.045856  1
  F  F30  1  0.644457  0.034409  0.278168  1
  F  F31  1  0.355543  0.965591  0.721832  1
  F  F32  1  0.623111  0.489093  0.880208  1
  F  F33  1  0.376889  0.510907  0.119792  1
  F  F34  1  0.400258  0.879382  0.545856  1
  F  F35  1  0.881705  0.293233  0.520291  1
  F  F36  1  0.293233  0.881705  0.020291  1
  F  F37  1  0.034409  0.644457  0.778168  1
  F  F38  1  0.174762  0.587769  0.291848  1
  F  F39  1  0.489093  0.623111  0.380208  1
