# generated using pymatgen
data_Zr10Sn6S
_symmetry_space_group_name_H-M   'P 1'
_cell_length_a   5.85578103
_cell_length_b   8.59158852
_cell_length_c   8.59161103
_cell_angle_alpha   119.99979809
_cell_angle_beta   90.00016223
_cell_angle_gamma   89.99925983
_symmetry_Int_Tables_number   1
_chemical_formula_structural   Zr10Sn6S
_chemical_formula_sum   'Zr10 Sn6 S1'
_cell_volume   374.33843430
_cell_formula_units_Z   1
loop_
 _symmetry_equiv_pos_site_id
 _symmetry_equiv_pos_as_xyz
  1  'x, y, z'
loop_
 _atom_site_type_symbol
 _atom_site_label
 _atom_site_symmetry_multiplicity
 _atom_site_fract_x
 _atom_site_fract_y
 _atom_site_fract_z
 _atom_site_occupancy
  Zr  Zr0  1  0.499999  0.333335  0.666667  1
  Zr  Zr1  1  0.499999  0.666667  0.333333  1
  Zr  Zr2  1  0.000001  0.666667  0.333329  1
  Zr  Zr3  1  0.000000  0.333338  0.666671  1
  Zr  Zr4  1  0.755957  0.250115  0.000002  1
  Zr  Zr5  1  0.755944  0.749881  0.749884  1
  Zr  Zr6  1  0.755945  0.999993  0.250114  1
  Zr  Zr7  1  0.244045  0.749884  0.000002  1
  Zr  Zr8  1  0.244054  0.250121  0.250117  1
  Zr  Zr9  1  0.244053  0.000002  0.749882  1
  Sn  Sn10  1  0.750468  0.606650  0.000002  1
  Sn  Sn11  1  0.750473  0.393341  0.393346  1
  Sn  Sn12  1  0.750473  0.999993  0.606653  1
  Sn  Sn13  1  0.249541  0.393347  0.000002  1
  Sn  Sn14  1  0.249528  0.606662  0.606651  1
  Sn  Sn15  1  0.249527  0.000007  0.393346  1
  S  S16  1  0.499994  0.999999  0.000000  1
