# generated using pymatgen
data_Tb5AlOsO12
_symmetry_space_group_name_H-M   'P 1'
_cell_length_a   6.84898785
_cell_length_b   6.84898953
_cell_length_c   7.29056758
_cell_angle_alpha   74.52562225
_cell_angle_beta   74.52561928
_cell_angle_gamma   50.73570817
_symmetry_Int_Tables_number   1
_chemical_formula_structural   Tb5AlOsO12
_chemical_formula_sum   'Tb5 Al1 Os1 O12'
_cell_volume   252.97471670
_cell_formula_units_Z   1
loop_
 _symmetry_equiv_pos_site_id
 _symmetry_equiv_pos_as_xyz
  1  'x, y, z'
loop_
 _atom_site_type_symbol
 _atom_site_label
 _atom_site_symmetry_multiplicity
 _atom_site_fract_x
 _atom_site_fract_y
 _atom_site_fract_z
 _atom_site_occupancy
  Tb  Tb0  1  0.693899  0.693110  0.667043  1
  Tb  Tb1  1  0.684198  0.709762  0.141083  1
  Tb  Tb2  1  0.997143  0.002857  0.000000  1
  Tb  Tb3  1  0.290238  0.315802  0.858917  1
  Tb  Tb4  1  0.306890  0.306101  0.332957  1
  Al  Al5  1  0.252905  0.747095  0.500000  1
  Os  Os6  1  0.763421  0.236579  0.500000  1
  O  O7  1  0.399802  0.909010  0.922446  1
  O  O8  1  0.578365  0.098806  0.581749  1
  O  O9  1  0.901194  0.421635  0.418251  1
  O  O10  1  0.090990  0.600198  0.077554  1
  O  O11  1  0.006379  0.993862  0.322861  1
  O  O12  1  0.505866  0.495445  0.678332  1
  O  O13  1  0.898061  0.404453  0.926673  1
  O  O14  1  0.102535  0.578126  0.580123  1
  O  O15  1  0.421874  0.897465  0.419877  1
  O  O16  1  0.595547  0.101939  0.073327  1
  O  O17  1  0.504555  0.494134  0.321668  1
  O  O18  1  0.006138  0.993621  0.677139  1
