# generated using pymatgen
data_Tb3GaNi2Ir
_symmetry_space_group_name_H-M   'P 1'
_cell_length_a   5.53169671
_cell_length_b   5.53169681
_cell_length_c   12.99011900
_cell_angle_alpha   90.00000000
_cell_angle_beta   90.00000000
_cell_angle_gamma   135.84512406
_symmetry_Int_Tables_number   1
_chemical_formula_structural   Tb3GaNi2Ir
_chemical_formula_sum   'Tb6 Ga2 Ni4 Ir2'
_cell_volume   276.89397105
_cell_formula_units_Z   2
loop_
 _symmetry_equiv_pos_site_id
 _symmetry_equiv_pos_as_xyz
  1  'x, y, z'
loop_
 _atom_site_type_symbol
 _atom_site_label
 _atom_site_symmetry_multiplicity
 _atom_site_fract_x
 _atom_site_fract_y
 _atom_site_fract_z
 _atom_site_occupancy
  Tb  Tb0  1  0.788007  0.211993  0.394502  1
  Tb  Tb1  1  0.211993  0.788007  0.605498  1
  Tb  Tb2  1  0.788007  0.211993  0.105498  1
  Tb  Tb3  1  0.211993  0.788007  0.894502  1
  Tb  Tb4  1  0.506547  0.493453  0.250000  1
  Tb  Tb5  1  0.493453  0.506547  0.750000  1
  Ga  Ga6  1  0.500000  0.500000  0.500000  1
  Ga  Ga7  1  0.500000  0.500000  0.000000  1
  Ni  Ni8  1  0.074613  0.925387  0.414495  1
  Ni  Ni9  1  0.925387  0.074613  0.585505  1
  Ni  Ni10  1  0.074613  0.925387  0.085505  1
  Ni  Ni11  1  0.925387  0.074613  0.914495  1
  Ir  Ir12  1  0.220016  0.779984  0.250000  1
  Ir  Ir13  1  0.779984  0.220016  0.750000  1
