# generated using pymatgen
data_Y4B16MoW3
_symmetry_space_group_name_H-M   'P 1'
_cell_length_a   3.62914000
_cell_length_b   6.04160301
_cell_length_c   11.67744102
_cell_angle_alpha   89.99298292
_cell_angle_beta   90.00000000
_cell_angle_gamma   90.00000000
_symmetry_Int_Tables_number   1
_chemical_formula_structural   Y4B16MoW3
_chemical_formula_sum   'Y4 B16 Mo1 W3'
_cell_volume   256.03750480
_cell_formula_units_Z   1
loop_
 _symmetry_equiv_pos_site_id
 _symmetry_equiv_pos_as_xyz
  1  'x, y, z'
loop_
 _atom_site_type_symbol
 _atom_site_label
 _atom_site_symmetry_multiplicity
 _atom_site_fract_x
 _atom_site_fract_y
 _atom_site_fract_z
 _atom_site_occupancy
  Y  Y0  1  0.000000  0.127064  0.149667  1
  Y  Y1  1  0.000000  0.873253  0.850245  1
  Y  Y2  1  0.000000  0.626795  0.350276  1
  Y  Y3  1  0.000000  0.373153  0.649937  1
  B  B4  1  0.500000  0.023862  0.693357  1
  B  B5  1  0.500000  0.976395  0.306770  1
  B  B6  1  0.500000  0.523304  0.806763  1
  B  B7  1  0.500000  0.476098  0.193362  1
  B  B8  1  0.500000  0.113739  0.547316  1
  B  B9  1  0.500000  0.886412  0.452595  1
  B  B10  1  0.500000  0.613441  0.952430  1
  B  B11  1  0.500000  0.386012  0.047196  1
  B  B12  1  0.500000  0.286911  0.313777  1
  B  B13  1  0.500000  0.712911  0.686402  1
  B  B14  1  0.500000  0.786970  0.186328  1
  B  B15  1  0.500000  0.213635  0.814059  1
  B  B16  1  0.500000  0.366239  0.468097  1
  B  B17  1  0.500000  0.633631  0.531874  1
  B  B18  1  0.500000  0.866706  0.031748  1
  B  B19  1  0.500000  0.133884  0.967953  1
  Mo  Mo20  1  0.000000  0.369591  0.915921  1
  W  W21  1  0.000000  0.130615  0.415467  1
  W  W22  1  0.000000  0.869338  0.584396  1
  W  W23  1  0.000000  0.630042  0.084063  1
