# generated using pymatgen
data_La10Sn20Pd7Rh
_symmetry_space_group_name_H-M   'P 1'
_cell_length_a   14.39751800
_cell_length_b   14.41902610
_cell_length_c   4.72665800
_cell_angle_alpha   90.00000000
_cell_angle_beta   90.00000000
_cell_angle_gamma   90.00681079
_symmetry_Int_Tables_number   1
_chemical_formula_structural   La10Sn20Pd7Rh
_chemical_formula_sum   'La10 Sn20 Pd7 Rh1'
_cell_volume   981.24562843
_cell_formula_units_Z   1
loop_
 _symmetry_equiv_pos_site_id
 _symmetry_equiv_pos_as_xyz
  1  'x, y, z'
loop_
 _atom_site_type_symbol
 _atom_site_label
 _atom_site_symmetry_multiplicity
 _atom_site_fract_x
 _atom_site_fract_y
 _atom_site_fract_z
 _atom_site_occupancy
  La  La0  1  0.500151  0.499115  0.000000  1
  La  La1  1  0.999447  0.996847  0.000000  1
  La  La2  1  0.680495  0.179975  0.500000  1
  La  La3  1  0.319893  0.818911  0.500000  1
  La  La4  1  0.179971  0.320575  0.500000  1
  La  La5  1  0.822367  0.681897  0.500000  1
  La  La6  1  0.892340  0.393355  0.500000  1
  La  La7  1  0.105493  0.610527  0.500000  1
  La  La8  1  0.391688  0.108018  0.500000  1
  La  La9  1  0.608812  0.892198  0.500000  1
  Sn  Sn10  1  0.568979  0.068674  0.000000  1
  Sn  Sn11  1  0.430070  0.931141  0.000000  1
  Sn  Sn12  1  0.069060  0.432695  0.000000  1
  Sn  Sn13  1  0.931104  0.572025  0.000000  1
  Sn  Sn14  1  0.652390  0.700841  0.000000  1
  Sn  Sn15  1  0.348421  0.298200  0.000000  1
  Sn  Sn16  1  0.149935  0.797070  0.000000  1
  Sn  Sn17  1  0.849075  0.200543  0.000000  1
  Sn  Sn18  1  0.299344  0.651770  0.000000  1
  Sn  Sn19  1  0.701526  0.347837  0.000000  1
  Sn  Sn20  1  0.199997  0.150999  0.000000  1
  Sn  Sn21  1  0.801096  0.848166  0.000000  1
  Sn  Sn22  1  0.663179  0.500396  0.500000  1
  Sn  Sn23  1  0.336699  0.501354  0.500000  1
  Sn  Sn24  1  0.161578  0.997852  0.500000  1
  Sn  Sn25  1  0.836972  0.998724  0.500000  1
  Sn  Sn26  1  0.501260  0.662218  0.500000  1
  Sn  Sn27  1  0.500002  0.337418  0.500000  1
  Sn  Sn28  1  0.000227  0.162119  0.500000  1
  Sn  Sn29  1  0.997564  0.836526  0.500000  1
  Pd  Pd30  1  0.744749  0.531349  0.000000  1
  Pd  Pd31  1  0.256152  0.467455  0.000000  1
  Pd  Pd32  1  0.243393  0.967511  0.000000  1
  Pd  Pd33  1  0.755569  0.031906  0.000000  1
  Pd  Pd34  1  0.468680  0.745112  0.000000  1
  Pd  Pd35  1  0.532468  0.255099  0.000000  1
  Pd  Pd36  1  0.032104  0.246236  0.000000  1
  Rh  Rh37  1  0.967748  0.757344  0.000000  1
