# generated using pymatgen
data_La4UPaS10
_symmetry_space_group_name_H-M   'P 1'
_cell_length_a   7.55451300
_cell_length_b   8.18132800
_cell_length_c   11.98007500
_cell_angle_alpha   90.00000000
_cell_angle_beta   90.00000000
_cell_angle_gamma   90.00000000
_symmetry_Int_Tables_number   1
_chemical_formula_structural   La4UPaS10
_chemical_formula_sum   'La8 U2 Pa2 S20'
_cell_volume   740.43990127
_cell_formula_units_Z   2
loop_
 _symmetry_equiv_pos_site_id
 _symmetry_equiv_pos_as_xyz
  1  'x, y, z'
loop_
 _atom_site_type_symbol
 _atom_site_label
 _atom_site_symmetry_multiplicity
 _atom_site_fract_x
 _atom_site_fract_y
 _atom_site_fract_z
 _atom_site_occupancy
  La  La0  1  0.529416  0.499418  0.323562  1
  La  La1  1  0.970584  0.000582  0.823562  1
  La  La2  1  0.471222  0.003319  0.675942  1
  La  La3  1  0.028778  0.496681  0.175942  1
  La  La4  1  0.471222  0.496681  0.675942  1
  La  La5  1  0.028778  0.003319  0.175942  1
  La  La6  1  0.529416  0.000582  0.323562  1
  La  La7  1  0.970584  0.499418  0.823562  1
  U  U8  1  0.930729  0.250000  0.507652  1
  U  U9  1  0.569271  0.250000  0.007652  1
  Pa  Pa10  1  0.068088  0.750000  0.492975  1
  Pa  Pa11  1  0.431912  0.750000  0.992975  1
  S  S12  1  0.837440  0.955637  0.592958  1
  S  S13  1  0.662560  0.544363  0.092958  1
  S  S14  1  0.163973  0.463155  0.407274  1
  S  S15  1  0.336027  0.036845  0.907274  1
  S  S16  1  0.163973  0.036845  0.407274  1
  S  S17  1  0.336027  0.463155  0.907274  1
  S  S18  1  0.837440  0.544363  0.592958  1
  S  S19  1  0.662560  0.955637  0.092958  1
  S  S20  1  0.838323  0.750000  0.314582  1
  S  S21  1  0.661677  0.750000  0.814582  1
  S  S22  1  0.166259  0.250000  0.688621  1
  S  S23  1  0.333741  0.250000  0.188621  1
  S  S24  1  0.450045  0.750000  0.497773  1
  S  S25  1  0.049955  0.750000  0.997773  1
  S  S26  1  0.546888  0.250000  0.501673  1
  S  S27  1  0.953112  0.250000  0.001673  1
  S  S28  1  0.190670  0.750000  0.711949  1
  S  S29  1  0.309330  0.750000  0.211949  1
  S  S30  1  0.808674  0.250000  0.285302  1
  S  S31  1  0.691326  0.250000  0.785302  1
