# generated using pymatgen
data_Dy2LuSn3HgIr2
_symmetry_space_group_name_H-M   'P 1'
_cell_length_a   7.56467539
_cell_length_b   7.58577395
_cell_length_c   4.02304900
_cell_angle_alpha   90.00000000
_cell_angle_beta   90.00000000
_cell_angle_gamma   119.74425089
_symmetry_Int_Tables_number   1
_chemical_formula_structural   Dy2LuSn3HgIr2
_chemical_formula_sum   'Dy2 Lu1 Sn3 Hg1 Ir2'
_cell_volume   200.44240649
_cell_formula_units_Z   1
loop_
 _symmetry_equiv_pos_site_id
 _symmetry_equiv_pos_as_xyz
  1  'x, y, z'
loop_
 _atom_site_type_symbol
 _atom_site_label
 _atom_site_symmetry_multiplicity
 _atom_site_fract_x
 _atom_site_fract_y
 _atom_site_fract_z
 _atom_site_occupancy
  Dy  Dy0  1  0.608816  0.021167  0.000000  1
  Dy  Dy1  1  0.978546  0.587968  0.000000  1
  Lu  Lu2  1  0.411461  0.387228  0.000000  1
  Sn  Sn3  1  0.256558  0.009816  0.500000  1
  Sn  Sn4  1  0.993114  0.247976  0.500000  1
  Sn  Sn5  1  0.752366  0.744839  0.500000  1
  Hg  Hg6  1  0.333699  0.664418  0.500000  1
  Ir  Ir7  1  0.663231  0.334500  0.500000  1
  Ir  Ir8  1  0.002208  0.002089  0.000000  1
