# generated using pymatgen
data_Ho9TmIn8IrPt3
_symmetry_space_group_name_H-M   'P 1'
_cell_length_a   3.62135400
_cell_length_b   8.13302101
_cell_length_c   18.21882221
_cell_angle_alpha   90.00649706
_cell_angle_beta   90.00000000
_cell_angle_gamma   90.00000000
_symmetry_Int_Tables_number   1
_chemical_formula_structural   Ho9TmIn8IrPt3
_chemical_formula_sum   'Ho9 Tm1 In8 Ir1 Pt3'
_cell_volume   536.59073507
_cell_formula_units_Z   1
loop_
 _symmetry_equiv_pos_site_id
 _symmetry_equiv_pos_as_xyz
  1  'x, y, z'
loop_
 _atom_site_type_symbol
 _atom_site_label
 _atom_site_symmetry_multiplicity
 _atom_site_fract_x
 _atom_site_fract_y
 _atom_site_fract_z
 _atom_site_occupancy
  Ho  Ho0  1  0.000000  0.883992  0.584802  1
  Ho  Ho1  1  0.000000  0.383996  0.915503  1
  Ho  Ho2  1  0.000000  0.616026  0.086302  1
  Ho  Ho3  1  0.000000  0.234461  0.222750  1
  Ho  Ho4  1  0.000000  0.758801  0.779700  1
  Ho  Ho5  1  0.000000  0.258291  0.721311  1
  Ho  Ho6  1  0.000000  0.751036  0.278497  1
  Ho  Ho7  1  0.000000  0.000013  0.000160  1
  Ho  Ho8  1  0.000000  0.500731  0.499210  1
  Tm  Tm9  1  0.000000  0.113553  0.411624  1
  In  In10  1  0.500000  0.423162  0.351165  1
  In  In11  1  0.500000  0.576846  0.648557  1
  In  In12  1  0.500000  0.076724  0.851822  1
  In  In13  1  0.500000  0.927031  0.148488  1
  In  In14  1  0.500000  0.291294  0.067155  1
  In  In15  1  0.500000  0.708302  0.933755  1
  In  In16  1  0.500000  0.209040  0.566281  1
  In  In17  1  0.500000  0.793136  0.431413  1
  Ir  Ir18  1  0.500000  0.020192  0.304452  1
  Pt  Pt19  1  0.500000  0.976476  0.696399  1
  Pt  Pt20  1  0.500000  0.476741  0.803848  1
  Pt  Pt21  1  0.500000  0.520155  0.196804  1
