# generated using pymatgen
data_Ho4B16Ir3Pd
_symmetry_space_group_name_H-M   'P 1'
_cell_length_a   7.01188441
_cell_length_b   7.01189518
_cell_length_c   7.01189208
_cell_angle_alpha   111.59272106
_cell_angle_beta   111.54675548
_cell_angle_gamma   105.35116116
_symmetry_Int_Tables_number   1
_chemical_formula_structural   Ho4B16Ir3Pd
_chemical_formula_sum   'Ho4 B16 Ir3 Pd1'
_cell_volume   264.36953740
_cell_formula_units_Z   1
loop_
 _symmetry_equiv_pos_site_id
 _symmetry_equiv_pos_as_xyz
  1  'x, y, z'
loop_
 _atom_site_type_symbol
 _atom_site_label
 _atom_site_symmetry_multiplicity
 _atom_site_fract_x
 _atom_site_fract_y
 _atom_site_fract_z
 _atom_site_occupancy
  Ho  Ho0  1  0.785663  0.790865  0.005201  1
  Ho  Ho1  1  0.214341  0.219548  0.005207  1
  Ho  Ho2  1  0.753923  0.251003  0.497080  1
  Ho  Ho3  1  0.246078  0.743157  0.497082  1
  B  B4  1  0.260890  0.106943  0.367834  1
  B  B5  1  0.736517  0.893415  0.629932  1
  B  B6  1  0.263482  0.893415  0.156899  1
  B  B7  1  0.739109  0.106943  0.846054  1
  B  B8  1  0.107494  0.733554  0.841045  1
  B  B9  1  0.893243  0.265430  0.158673  1
  B  B10  1  0.106756  0.265430  0.372187  1
  B  B11  1  0.892508  0.733554  0.626061  1
  B  B12  1  0.108272  0.111166  0.523515  1
  B  B13  1  0.584141  0.584787  0.472735  1
  B  B14  1  0.112053  0.584787  0.000646  1
  B  B15  1  0.587650  0.111166  0.002893  1
  B  B16  1  0.887946  0.888593  0.472734  1
  B  B17  1  0.412349  0.415242  0.523516  1
  B  B18  1  0.891726  0.415243  0.002894  1
  B  B19  1  0.415860  0.888593  0.000647  1
  Ir  Ir20  1  0.261296  0.499196  0.760492  1
  Ir  Ir21  1  0.738703  0.499196  0.237901  1
  Ir  Ir22  1  0.499999  0.742885  0.242886  1
  Pd  Pd23  1  0.500000  0.255886  0.755886  1
