# generated using pymatgen
data_Y2Th(ZnPt)4
_symmetry_space_group_name_H-M   'P 1'
_cell_length_a   8.27409885
_cell_length_b   8.27409915
_cell_length_c   8.27409831
_cell_angle_alpha   151.42452673
_cell_angle_beta   126.73163186
_cell_angle_gamma   61.55887191
_symmetry_Int_Tables_number   1
_chemical_formula_structural   Y2Th(ZnPt)4
_chemical_formula_sum   'Y2 Th1 Zn4 Pt4'
_cell_volume   215.36726716
_cell_formula_units_Z   1
loop_
 _symmetry_equiv_pos_site_id
 _symmetry_equiv_pos_as_xyz
  1  'x, y, z'
loop_
 _atom_site_type_symbol
 _atom_site_label
 _atom_site_symmetry_multiplicity
 _atom_site_fract_x
 _atom_site_fract_y
 _atom_site_fract_z
 _atom_site_occupancy
  Y  Y0  1  0.873751  0.873751  0.000000  1
  Y  Y1  1  0.126249  0.126249  0.000000  1
  Th  Th2  1  0.500000  0.000000  0.500000  1
  Zn  Zn3  1  0.477543  0.674934  0.802609  1
  Zn  Zn4  1  0.872326  0.674934  0.197391  1
  Zn  Zn5  1  0.127674  0.325066  0.802609  1
  Zn  Zn6  1  0.522457  0.325066  0.197391  1
  Pt  Pt7  1  0.280822  0.780822  0.500000  1
  Pt  Pt8  1  0.719178  0.219178  0.500000  1
  Pt  Pt9  1  0.800174  0.500000  0.300174  1
  Pt  Pt10  1  0.199826  0.500000  0.699826  1
