# generated using pymatgen
data_Zr5GaSnBi2
_symmetry_space_group_name_H-M   'P 1'
_cell_length_a   8.83321200
_cell_length_b   8.82800511
_cell_length_c   5.92956500
_cell_angle_alpha   90.00000000
_cell_angle_beta   90.00000000
_cell_angle_gamma   120.01951284
_symmetry_Int_Tables_number   1
_chemical_formula_structural   Zr5GaSnBi2
_chemical_formula_sum   'Zr10 Ga2 Sn2 Bi4'
_cell_volume   400.35869882
_cell_formula_units_Z   2
loop_
 _symmetry_equiv_pos_site_id
 _symmetry_equiv_pos_as_xyz
  1  'x, y, z'
loop_
 _atom_site_type_symbol
 _atom_site_label
 _atom_site_symmetry_multiplicity
 _atom_site_fract_x
 _atom_site_fract_y
 _atom_site_fract_z
 _atom_site_occupancy
  Zr  Zr0  1  0.000414  0.263853  0.250000  1
  Zr  Zr1  1  0.736030  0.000000  0.750000  1
  Zr  Zr2  1  0.736561  0.736147  0.250000  1
  Zr  Zr3  1  0.668898  0.335936  0.503294  1
  Zr  Zr4  1  0.995098  0.730912  0.750000  1
  Zr  Zr5  1  0.264187  0.269088  0.750000  1
  Zr  Zr6  1  0.332961  0.664064  0.996706  1
  Zr  Zr7  1  0.668898  0.335936  0.996706  1
  Zr  Zr8  1  0.332961  0.664064  0.503294  1
  Zr  Zr9  1  0.262880  0.000000  0.250000  1
  Ga  Ga10  1  0.999974  0.000000  0.997777  1
  Ga  Ga11  1  0.999974  0.000000  0.502223  1
  Sn  Sn12  1  0.999465  0.387832  0.750000  1
  Sn  Sn13  1  0.611633  0.612168  0.750000  1
  Bi  Bi14  1  0.610902  0.000000  0.250000  1
  Bi  Bi15  1  0.387218  0.000000  0.750000  1
  Bi  Bi16  1  0.391347  0.390747  0.250000  1
  Bi  Bi17  1  0.000600  0.609253  0.250000  1
