# generated using pymatgen
data_LaPr13Th2(MgIr)4
_symmetry_space_group_name_H-M   'P 1'
_cell_length_a   10.08677210
_cell_length_b   10.11362598
_cell_length_c   10.14062000
_cell_angle_alpha   59.91167495
_cell_angle_beta   59.82325380
_cell_angle_gamma   59.91081975
_symmetry_Int_Tables_number   1
_chemical_formula_structural   LaPr13Th2(MgIr)4
_chemical_formula_sum   'La1 Pr13 Th2 Mg4 Ir4'
_cell_volume   729.52937408
_cell_formula_units_Z   1
loop_
 _symmetry_equiv_pos_site_id
 _symmetry_equiv_pos_as_xyz
  1  'x, y, z'
loop_
 _atom_site_type_symbol
 _atom_site_label
 _atom_site_symmetry_multiplicity
 _atom_site_fract_x
 _atom_site_fract_y
 _atom_site_fract_z
 _atom_site_occupancy
  La  La0  1  0.345539  0.961135  0.346664  1
  Pr  Pr1  1  0.956552  0.347951  0.347749  1
  Pr  Pr2  1  0.811116  0.188635  0.189451  1
  Pr  Pr3  1  0.188920  0.810798  0.811029  1
  Pr  Pr4  1  0.188920  0.810798  0.189252  1
  Pr  Pr5  1  0.811116  0.188635  0.810798  1
  Pr  Pr6  1  0.189383  0.189194  0.810711  1
  Pr  Pr7  1  0.810691  0.810076  0.189617  1
  Pr  Pr8  1  0.940685  0.561150  0.563002  1
  Pr  Pr9  1  0.560995  0.940592  0.935146  1
  Pr  Pr10  1  0.560995  0.940592  0.563267  1
  Pr  Pr11  1  0.940685  0.561150  0.935163  1
  Pr  Pr12  1  0.561886  0.562052  0.938031  1
  Pr  Pr13  1  0.937430  0.937665  0.562453  1
  Th  Th14  1  0.343183  0.343979  0.344763  1
  Th  Th15  1  0.343183  0.343979  0.968075  1
  Mg  Mg16  1  0.577977  0.576734  0.581578  1
  Mg  Mg17  1  0.577977  0.576734  0.263710  1
  Mg  Mg18  1  0.576828  0.262975  0.580098  1
  Mg  Mg19  1  0.262630  0.575993  0.580688  1
  Ir  Ir20  1  0.148032  0.145990  0.136907  1
  Ir  Ir21  1  0.148032  0.145990  0.569073  1
  Ir  Ir22  1  0.151993  0.565832  0.141087  1
  Ir  Ir23  1  0.565251  0.151371  0.141689  1
