# generated using pymatgen
data_SrDySi4(PRh4)3
_symmetry_space_group_name_H-M   'P 1'
_cell_length_a   9.74598600
_cell_length_b   9.74598473
_cell_length_c   3.85087700
_cell_angle_alpha   90.00000000
_cell_angle_beta   90.00000000
_cell_angle_gamma   120.00000429
_symmetry_Int_Tables_number   1
_chemical_formula_structural   SrDySi4(PRh4)3
_chemical_formula_sum   'Sr1 Dy1 Si4 P3 Rh12'
_cell_volume   316.76834096
_cell_formula_units_Z   1
loop_
 _symmetry_equiv_pos_site_id
 _symmetry_equiv_pos_as_xyz
  1  'x, y, z'
loop_
 _atom_site_type_symbol
 _atom_site_label
 _atom_site_symmetry_multiplicity
 _atom_site_fract_x
 _atom_site_fract_y
 _atom_site_fract_z
 _atom_site_occupancy
  Sr  Sr0  1  0.333333  0.666667  0.741147  1
  Dy  Dy1  1  0.666667  0.333333  0.241658  1
  Si  Si2  1  0.000000  0.000000  0.660756  1
  Si  Si3  1  0.400582  0.288473  0.742429  1
  Si  Si4  1  0.711527  0.112110  0.742429  1
  Si  Si5  1  0.887890  0.599418  0.742429  1
  P  P6  1  0.601466  0.709797  0.240563  1
  P  P7  1  0.290203  0.891670  0.240563  1
  P  P8  1  0.108330  0.398534  0.240563  1
  Rh  Rh9  1  0.444865  0.066873  0.742743  1
  Rh  Rh10  1  0.933127  0.377992  0.742743  1
  Rh  Rh11  1  0.622008  0.555135  0.742743  1
  Rh  Rh12  1  0.559282  0.945677  0.240862  1
  Rh  Rh13  1  0.054323  0.613602  0.240862  1
  Rh  Rh14  1  0.386398  0.440718  0.240862  1
  Rh  Rh15  1  0.148767  0.272514  0.740374  1
  Rh  Rh16  1  0.727486  0.876255  0.740374  1
  Rh  Rh17  1  0.123745  0.851233  0.740374  1
  Rh  Rh18  1  0.859586  0.750186  0.245177  1
  Rh  Rh19  1  0.249814  0.109398  0.245177  1
  Rh  Rh20  1  0.890602  0.140414  0.245177  1
