# generated using pymatgen
data_TbHo4Tm3In3Co
_symmetry_space_group_name_H-M   'P 1'
_cell_length_a   10.28475439
_cell_length_b   10.30664538
_cell_length_c   6.95312047
_cell_angle_alpha   90.06181256
_cell_angle_beta   89.99673865
_cell_angle_gamma   119.97560072
_symmetry_Int_Tables_number   1
_chemical_formula_structural   TbHo4Tm3In3Co
_chemical_formula_sum   'Tb2 Ho8 Tm6 In6 Co2'
_cell_volume   638.45170125
_cell_formula_units_Z   2
loop_
 _symmetry_equiv_pos_site_id
 _symmetry_equiv_pos_as_xyz
  1  'x, y, z'
loop_
 _atom_site_type_symbol
 _atom_site_label
 _atom_site_symmetry_multiplicity
 _atom_site_fract_x
 _atom_site_fract_y
 _atom_site_fract_z
 _atom_site_occupancy
  Tb  Tb0  1  0.534399  0.068890  0.511425  1
  Tb  Tb1  1  0.930652  0.464650  0.512337  1
  Ho  Ho2  1  0.534141  0.464415  0.512869  1
  Ho  Ho3  1  0.465440  0.930745  0.013367  1
  Ho  Ho4  1  0.070129  0.534868  0.013563  1
  Ho  Ho5  1  0.464997  0.534655  0.014097  1
  Ho  Ho6  1  0.178123  0.355639  0.720429  1
  Ho  Ho7  1  0.643966  0.821311  0.720938  1
  Ho  Ho8  1  0.177566  0.821864  0.721266  1
  Ho  Ho9  1  0.822478  0.645051  0.220478  1
  Tm  Tm10  1  0.356332  0.178741  0.219184  1
  Tm  Tm11  1  0.821859  0.178381  0.218815  1
  Tm  Tm12  1  0.666229  0.333241  0.905893  1
  Tm  Tm13  1  0.333577  0.666199  0.404282  1
  Tm  Tm14  1  0.000586  0.001080  0.500416  1
  Tm  Tm15  1  0.000196  0.000320  0.002287  1
  In  In16  1  0.837023  0.674447  0.761525  1
  In  In17  1  0.325778  0.162556  0.761060  1
  In  In18  1  0.835709  0.161885  0.763275  1
  In  In19  1  0.161209  0.324214  0.260371  1
  In  In20  1  0.675589  0.839114  0.261754  1
  In  In21  1  0.165195  0.838665  0.262095  1
  Co  Co22  1  0.665599  0.332730  0.287469  1
  Co  Co23  1  0.333225  0.666341  0.788810  1
