# generated using pymatgen
data_ScTi2Tc3As2P
_symmetry_space_group_name_H-M   'P 1'
_cell_length_a   3.37994500
_cell_length_b   6.83161103
_cell_length_c   6.83161131
_cell_angle_alpha   59.62042790
_cell_angle_beta   90.00000000
_cell_angle_gamma   90.00000000
_symmetry_Int_Tables_number   1
_chemical_formula_structural   ScTi2Tc3As2P
_chemical_formula_sum   'Sc1 Ti2 Tc3 As2 P1'
_cell_volume   136.08576754
_cell_formula_units_Z   1
loop_
 _symmetry_equiv_pos_site_id
 _symmetry_equiv_pos_as_xyz
  1  'x, y, z'
loop_
 _atom_site_type_symbol
 _atom_site_label
 _atom_site_symmetry_multiplicity
 _atom_site_fract_x
 _atom_site_fract_y
 _atom_site_fract_z
 _atom_site_occupancy
  Sc  Sc0  1  0.500000  0.600737  0.399263  1
  Ti  Ti1  1  0.500000  0.396190  0.001591  1
  Ti  Ti2  1  0.500000  0.998409  0.603810  1
  Tc  Tc3  1  0.000000  0.245527  0.754473  1
  Tc  Tc4  1  0.000000  0.754996  0.995522  1
  Tc  Tc5  1  0.000000  0.004478  0.245004  1
  As  As6  1  0.000000  0.328760  0.331976  1
  As  As7  1  0.000000  0.668024  0.671240  1
  P  P8  1  0.500000  0.002779  0.997221  1
