# generated using pymatgen
data_Hf6Al17Rh7
_symmetry_space_group_name_H-M   'P 1'
_cell_length_a   8.82013232
_cell_length_b   8.82013199
_cell_length_c   8.82013600
_cell_angle_alpha   120.54549217
_cell_angle_beta   119.66440874
_cell_angle_gamma   89.81999232
_symmetry_Int_Tables_number   1
_chemical_formula_structural   Hf6Al17Rh7
_chemical_formula_sum   'Hf6 Al17 Rh7'
_cell_volume   484.38036977
_cell_formula_units_Z   1
loop_
 _symmetry_equiv_pos_site_id
 _symmetry_equiv_pos_as_xyz
  1  'x, y, z'
loop_
 _atom_site_type_symbol
 _atom_site_label
 _atom_site_symmetry_multiplicity
 _atom_site_fract_x
 _atom_site_fract_y
 _atom_site_fract_z
 _atom_site_occupancy
  Hf  Hf0  1  0.790253  0.288862  0.078304  1
  Hf  Hf1  1  0.210542  0.288847  0.498608  1
  Hf  Hf2  1  0.208935  0.708935  0.500000  1
  Hf  Hf3  1  0.210558  0.711948  0.921696  1
  Hf  Hf4  1  0.790238  0.711933  0.501392  1
  Hf  Hf5  1  0.788037  0.288037  0.500000  1
  Al  Al6  1  0.378802  0.121148  0.742368  1
  Al  Al7  1  0.378780  0.636434  0.257632  1
  Al  Al8  1  0.998160  0.498160  0.500000  1
  Al  Al9  1  0.159176  0.341097  0.181937  1
  Al  Al10  1  0.159159  0.977238  0.818063  1
  Al  Al11  1  0.158232  0.342325  0.815914  1
  Al  Al12  1  0.526410  0.342318  0.184086  1
  Al  Al13  1  0.841519  0.658401  0.816894  1
  Al  Al14  1  0.841507  0.024625  0.183106  1
  Al  Al15  1  0.841255  0.657985  0.183281  1
  Al  Al16  1  0.474703  0.657974  0.816719  1
  Al  Al17  1  0.379288  0.121821  0.257508  1
  Al  Al18  1  0.864312  0.121780  0.742492  1
  Al  Al19  1  0.621338  0.877553  0.256246  1
  Al  Al20  1  0.621307  0.365092  0.743754  1
  Al  Al21  1  0.619835  0.878222  0.741641  1
  Al  Al22  1  0.136582  0.878195  0.258359  1
  Rh  Rh23  1  0.000309  0.999913  0.499850  1
  Rh  Rh24  1  0.500059  0.999912  0.999697  1
  Rh  Rh25  1  0.499632  0.499632  0.000000  1
  Rh  Rh26  1  0.500063  0.500458  0.500150  1
  Rh  Rh27  1  0.000215  0.500362  0.000303  1
  Rh  Rh28  1  0.999811  0.999811  0.000000  1
  Rh  Rh29  1  0.500978  0.000978  0.500000  1
