# generated using pymatgen
data_Zr5Co16(Si4Tc)3
_symmetry_space_group_name_H-M   'P 1'
_cell_length_a   12.07377200
_cell_length_b   12.07377350
_cell_length_c   3.70394200
_cell_angle_alpha   90.00000000
_cell_angle_beta   90.00000000
_cell_angle_gamma   119.99999590
_symmetry_Int_Tables_number   1
_chemical_formula_structural   Zr5Co16(Si4Tc)3
_chemical_formula_sum   'Zr5 Co16 Si12 Tc3'
_cell_volume   467.60680395
_cell_formula_units_Z   1
loop_
 _symmetry_equiv_pos_site_id
 _symmetry_equiv_pos_as_xyz
  1  'x, y, z'
loop_
 _atom_site_type_symbol
 _atom_site_label
 _atom_site_symmetry_multiplicity
 _atom_site_fract_x
 _atom_site_fract_y
 _atom_site_fract_z
 _atom_site_occupancy
  Zr  Zr0  1  0.666667  0.333333  0.000000  1
  Zr  Zr1  1  0.333333  0.666667  0.000000  1
  Zr  Zr2  1  0.814098  0.814098  0.500000  1
  Zr  Zr3  1  0.185902  0.000000  0.500000  1
  Zr  Zr4  1  0.000000  0.185902  0.500000  1
  Co  Co5  1  0.196422  0.375078  0.000000  1
  Co  Co6  1  0.178656  0.803578  0.000000  1
  Co  Co7  1  0.821344  0.624922  0.000000  1
  Co  Co8  1  0.803578  0.178656  0.000000  1
  Co  Co9  1  0.375078  0.196422  0.000000  1
  Co  Co10  1  0.124728  0.478460  0.500000  1
  Co  Co11  1  0.353732  0.875272  0.500000  1
  Co  Co12  1  0.521540  0.646268  0.500000  1
  Co  Co13  1  0.646268  0.521540  0.500000  1
  Co  Co14  1  0.875272  0.353732  0.500000  1
  Co  Co15  1  0.478460  0.124728  0.500000  1
  Co  Co16  1  0.000000  0.000000  0.000000  1
  Co  Co17  1  0.721455  0.000000  0.500000  1
  Co  Co18  1  0.000000  0.721455  0.500000  1
  Co  Co19  1  0.624922  0.821344  0.000000  1
  Co  Co20  1  0.278545  0.278545  0.500000  1
  Si  Si21  1  0.638073  0.638073  0.000000  1
  Si  Si22  1  0.361927  0.000000  0.000000  1
  Si  Si23  1  0.000000  0.361927  0.000000  1
  Si  Si24  1  0.481926  0.316349  0.500000  1
  Si  Si25  1  0.683651  0.165578  0.500000  1
  Si  Si26  1  0.834422  0.518074  0.500000  1
  Si  Si27  1  0.518074  0.834422  0.500000  1
  Si  Si28  1  0.165578  0.683651  0.500000  1
  Si  Si29  1  0.820086  0.000000  0.000000  1
  Si  Si30  1  0.000000  0.820086  0.000000  1
  Si  Si31  1  0.316349  0.481926  0.500000  1
  Si  Si32  1  0.179914  0.179914  0.000000  1
  Tc  Tc33  1  0.440882  0.440882  0.000000  1
  Tc  Tc34  1  0.559118  0.000000  0.000000  1
  Tc  Tc35  1  0.000000  0.559118  0.000000  1
