# generated using pymatgen
data_Lu3Th(Al3Ir)6
_symmetry_space_group_name_H-M   'P 1'
_cell_length_a   7.55589754
_cell_length_b   7.57064750
_cell_length_c   9.42608100
_cell_angle_alpha   90.00000000
_cell_angle_beta   90.00000000
_cell_angle_gamma   119.43462670
_symmetry_Int_Tables_number   1
_chemical_formula_structural   Lu3Th(Al3Ir)6
_chemical_formula_sum   'Lu3 Th1 Al18 Ir6'
_cell_volume   469.59883186
_cell_formula_units_Z   1
loop_
 _symmetry_equiv_pos_site_id
 _symmetry_equiv_pos_as_xyz
  1  'x, y, z'
loop_
 _atom_site_type_symbol
 _atom_site_label
 _atom_site_symmetry_multiplicity
 _atom_site_fract_x
 _atom_site_fract_y
 _atom_site_fract_z
 _atom_site_occupancy
  Lu  Lu0  1  0.003076  0.327227  0.750000  1
  Lu  Lu1  1  0.673762  0.995932  0.250000  1
  Lu  Lu2  1  0.327018  0.004016  0.750000  1
  Th  Th3  1  0.995112  0.670920  0.250000  1
  Al  Al4  1  0.130959  0.133019  0.250000  1
  Al  Al5  1  0.872234  0.875193  0.750000  1
  Al  Al6  1  0.001233  0.330648  0.072447  1
  Al  Al7  1  0.999870  0.663990  0.915931  1
  Al  Al8  1  0.999870  0.663990  0.584069  1
  Al  Al9  1  0.340748  0.005368  0.427492  1
  Al  Al10  1  0.001233  0.330648  0.427553  1
  Al  Al11  1  0.664352  0.000977  0.577675  1
  Al  Al12  1  0.664352  0.000977  0.922325  1
  Al  Al13  1  0.340748  0.005368  0.072508  1
  Al  Al14  1  0.331641  0.331722  0.556803  1
  Al  Al15  1  0.663057  0.667097  0.454274  1
  Al  Al16  1  0.663057  0.667097  0.045726  1
  Al  Al17  1  0.331641  0.331722  0.943197  1
  Al  Al18  1  0.345455  0.549221  0.250000  1
  Al  Al19  1  0.657686  0.447577  0.750000  1
  Al  Al20  1  0.544086  0.336553  0.250000  1
  Al  Al21  1  0.448526  0.660639  0.750000  1
  Ir  Ir22  1  0.673148  0.328821  0.999732  1
  Ir  Ir23  1  0.326759  0.672112  0.999905  1
  Ir  Ir24  1  0.326759  0.672112  0.500095  1
  Ir  Ir25  1  0.673148  0.328821  0.500268  1
  Ir  Ir26  1  0.000236  0.999116  0.999817  1
  Ir  Ir27  1  0.000236  0.999116  0.500183  1
