# generated using pymatgen
data_TbZrFe3Co9P7
_symmetry_space_group_name_H-M   'P 1'
_cell_length_a   3.60381700
_cell_length_b   8.95184987
_cell_length_c   8.95316509
_cell_angle_alpha   119.99680566
_cell_angle_beta   90.00000000
_cell_angle_gamma   90.00000000
_symmetry_Int_Tables_number   1
_chemical_formula_structural   TbZrFe3Co9P7
_chemical_formula_sum   'Tb1 Zr1 Fe3 Co9 P7'
_cell_volume   250.14781980
_cell_formula_units_Z   1
loop_
 _symmetry_equiv_pos_site_id
 _symmetry_equiv_pos_as_xyz
  1  'x, y, z'
loop_
 _atom_site_type_symbol
 _atom_site_label
 _atom_site_symmetry_multiplicity
 _atom_site_fract_x
 _atom_site_fract_y
 _atom_site_fract_z
 _atom_site_occupancy
  Tb  Tb0  1  0.000000  0.666587  0.333144  1
  Zr  Zr1  1  0.500000  0.333408  0.666779  1
  Fe  Fe2  1  0.500000  0.123799  0.906708  1
  Fe  Fe3  1  0.500000  0.093282  0.217075  1
  Fe  Fe4  1  0.500000  0.782881  0.876249  1
  Co  Co5  1  0.000000  0.368682  0.935057  1
  Co  Co6  1  0.000000  0.064989  0.433548  1
  Co  Co7  1  0.000000  0.566422  0.631455  1
  Co  Co8  1  0.000000  0.882852  0.724592  1
  Co  Co9  1  0.000000  0.275449  0.158315  1
  Co  Co10  1  0.000000  0.841618  0.117115  1
  Co  Co11  1  0.500000  0.954884  0.567034  1
  Co  Co12  1  0.500000  0.432936  0.387801  1
  Co  Co13  1  0.500000  0.612178  0.045091  1
  P  P14  1  0.000000  0.115684  0.702701  1
  P  P15  1  0.000000  0.297304  0.412944  1
  P  P16  1  0.000000  0.587119  0.884397  1
  P  P17  1  0.500000  0.711053  0.598530  1
  P  P18  1  0.500000  0.401479  0.112505  1
  P  P19  1  0.500000  0.887443  0.288938  1
  P  P20  1  0.000000  0.999954  0.000017  1
