# generated using pymatgen
data_Dy3HoReRu7
_symmetry_space_group_name_H-M   'P 1'
_cell_length_a   5.21029659
_cell_length_b   5.45298714
_cell_length_c   9.00482700
_cell_angle_alpha   89.99999877
_cell_angle_beta   90.00012132
_cell_angle_gamma   121.55317593
_symmetry_Int_Tables_number   1
_chemical_formula_structural   Dy3HoReRu7
_chemical_formula_sum   'Dy3 Ho1 Re1 Ru7'
_cell_volume   218.01723283
_cell_formula_units_Z   1
loop_
 _symmetry_equiv_pos_site_id
 _symmetry_equiv_pos_as_xyz
  1  'x, y, z'
loop_
 _atom_site_type_symbol
 _atom_site_label
 _atom_site_symmetry_multiplicity
 _atom_site_fract_x
 _atom_site_fract_y
 _atom_site_fract_z
 _atom_site_occupancy
  Dy  Dy0  1  0.327296  0.663648  0.433156  1
  Dy  Dy1  1  0.653874  0.326937  0.564843  1
  Dy  Dy2  1  0.653871  0.326935  0.935314  1
  Ho  Ho3  1  0.327635  0.663818  0.066851  1
  Re  Re4  1  0.688924  0.844461  0.750234  1
  Ru  Ru5  1  0.974304  0.987152  0.499516  1
  Ru  Ru6  1  0.974101  0.987051  0.000562  1
  Ru  Ru7  1  0.837735  0.166923  0.249631  1
  Ru  Ru8  1  0.837735  0.670812  0.249631  1
  Ru  Ru9  1  0.356631  0.178315  0.249670  1
  Ru  Ru10  1  0.183947  0.828821  0.750295  1
  Ru  Ru11  1  0.183947  0.355124  0.750295  1
