# generated using pymatgen
data_Ta4VSi3H
_symmetry_space_group_name_H-M   'P 1'
_cell_length_a   5.14338706
_cell_length_b   7.45969975
_cell_length_c   7.45762014
_cell_angle_alpha   119.97228712
_cell_angle_beta   89.98294718
_cell_angle_gamma   90.00449538
_symmetry_Int_Tables_number   1
_chemical_formula_structural   Ta4VSi3H
_chemical_formula_sum   'Ta8 V2 Si6 H2'
_cell_volume   247.86924040
_cell_formula_units_Z   2
loop_
 _symmetry_equiv_pos_site_id
 _symmetry_equiv_pos_as_xyz
  1  'x, y, z'
loop_
 _atom_site_type_symbol
 _atom_site_label
 _atom_site_symmetry_multiplicity
 _atom_site_fract_x
 _atom_site_fract_y
 _atom_site_fract_z
 _atom_site_occupancy
  Ta  Ta0  1  0.499985  0.333461  0.666668  1
  Ta  Ta1  1  0.500014  0.666538  0.333331  1
  Ta  Ta2  1  0.745635  0.243661  0.999988  1
  Ta  Ta3  1  0.745622  0.755996  0.756034  1
  Ta  Ta4  1  0.745649  0.000027  0.243366  1
  Ta  Ta5  1  0.254365  0.756310  0.999953  1
  Ta  Ta6  1  0.254382  0.243977  0.243997  1
  Ta  Ta7  1  0.254353  0.000033  0.756662  1
  V  V8  1  0.000007  0.666538  0.333338  1
  V  V9  1  0.999992  0.333461  0.666661  1
  Si  Si10  1  0.768665  0.598275  0.999950  1
  Si  Si11  1  0.768623  0.401600  0.401564  1
  Si  Si12  1  0.768689  0.999991  0.598154  1
  Si  Si13  1  0.231335  0.401726  0.000055  1
  Si  Si14  1  0.231379  0.598397  0.598431  1
  Si  Si15  1  0.231314  0.000007  0.401842  1
  H  H16  1  0.499999  0.000001  0.000002  1
  H  H17  1  0.999998  0.999999  0.000003  1
