# generated using pymatgen
data_PrBi3(PSe4)4
_symmetry_space_group_name_H-M   'P 1'
_cell_length_a   7.18195770
_cell_length_b   9.60035102
_cell_length_c   13.85475600
_cell_angle_alpha   59.01992696
_cell_angle_beta   89.78899632
_cell_angle_gamma   89.99732711
_symmetry_Int_Tables_number   1
_chemical_formula_structural   PrBi3(PSe4)4
_chemical_formula_sum   'Pr1 Bi3 P4 Se16'
_cell_volume   818.99490114
_cell_formula_units_Z   1
loop_
 _symmetry_equiv_pos_site_id
 _symmetry_equiv_pos_as_xyz
  1  'x, y, z'
loop_
 _atom_site_type_symbol
 _atom_site_label
 _atom_site_symmetry_multiplicity
 _atom_site_fract_x
 _atom_site_fract_y
 _atom_site_fract_z
 _atom_site_occupancy
  Pr  Pr0  1  0.183271  0.554470  0.335019  1
  Bi  Bi1  1  0.342381  0.569008  0.830206  1
  Bi  Bi2  1  0.838084  0.434152  0.666973  1
  Bi  Bi3  1  0.656697  0.437481  0.162762  1
  P  P4  1  0.232238  0.686390  0.042320  1
  P  P5  1  0.736068  0.319291  0.456722  1
  P  P6  1  0.762698  0.314595  0.956277  1
  P  P7  1  0.262798  0.683857  0.543297  1
  Se  Se8  1  0.228616  0.420282  0.592696  1
  Se  Se9  1  0.726638  0.577539  0.909867  1
  Se  Se10  1  0.771658  0.578860  0.410778  1
  Se  Se11  1  0.273299  0.422921  0.092166  1
  Se  Se12  1  0.256855  0.841167  0.360355  1
  Se  Se13  1  0.754181  0.159644  0.141283  1
  Se  Se14  1  0.741555  0.159371  0.641129  1
  Se  Se15  1  0.248179  0.842800  0.857432  1
  Se  Se16  1  0.528269  0.722345  0.612409  1
  Se  Se17  1  0.026943  0.277048  0.887368  1
  Se  Se18  1  0.468732  0.278517  0.387527  1
  Se  Se19  1  0.968583  0.718142  0.112892  1
  Se  Se20  1  0.044731  0.735062  0.636028  1
  Se  Se21  1  0.543741  0.264723  0.864171  1
  Se  Se22  1  0.952078  0.263551  0.365824  1
  Se  Se23  1  0.451710  0.738780  0.134495  1
