# generated using pymatgen
data_Y3Ho9Co4BiOs
_symmetry_space_group_name_H-M   'P 1'
_cell_length_a   8.32510418
_cell_length_b   8.32507379
_cell_length_c   8.31785377
_cell_angle_alpha   111.27783641
_cell_angle_beta   110.35956534
_cell_angle_gamma   106.84788803
_symmetry_Int_Tables_number   1
_chemical_formula_structural   Y3Ho9Co4BiOs
_chemical_formula_sum   'Y3 Ho9 Co4 Bi1 Os1'
_cell_volume   442.83816570
_cell_formula_units_Z   1
loop_
 _symmetry_equiv_pos_site_id
 _symmetry_equiv_pos_as_xyz
  1  'x, y, z'
loop_
 _atom_site_type_symbol
 _atom_site_label
 _atom_site_symmetry_multiplicity
 _atom_site_fract_x
 _atom_site_fract_y
 _atom_site_fract_z
 _atom_site_occupancy
  Y  Y0  1  0.818564  0.717768  0.536347  1
  Y  Y1  1  0.181200  0.282155  0.463359  1
  Y  Y2  1  0.181430  0.717712  0.899141  1
  Ho  Ho3  1  0.819414  0.282160  0.101586  1
  Ho  Ho4  1  0.687652  0.377920  0.690633  1
  Ho  Ho5  1  0.312111  0.621809  0.309458  1
  Ho  Ho6  1  0.687673  0.997375  0.309468  1
  Ho  Ho7  1  0.312709  0.003008  0.690663  1
  Ho  Ho8  1  0.590847  0.787310  0.804078  1
  Ho  Ho9  1  0.409528  0.213090  0.196170  1
  Ho  Ho10  1  0.983078  0.786666  0.196185  1
  Ho  Ho11  1  0.016763  0.213214  0.804058  1
  Co  Co12  1  0.624052  0.000102  0.624165  1
  Co  Co13  1  0.376070  0.000042  0.376127  1
  Co  Co14  1  0.110691  0.610661  0.499102  1
  Co  Co15  1  0.888461  0.388411  0.499108  1
  Bi  Bi16  1  0.499951  0.500064  0.000016  1
  Os  Os17  1  0.999806  0.000533  0.000336  1
