# generated using pymatgen
data_K2MnVP6(HO10)2
_symmetry_space_group_name_H-M   'P 1'
_cell_length_a   8.37599400
_cell_length_b   9.42596209
_cell_length_c   12.38854300
_cell_angle_alpha   69.70130462
_cell_angle_beta   89.99997264
_cell_angle_gamma   89.99994796
_symmetry_Int_Tables_number   1
_chemical_formula_structural   K2MnVP6(HO10)2
_chemical_formula_sum   'K4 Mn2 V2 P12 H4 O40'
_cell_volume   917.35482313
_cell_formula_units_Z   2
loop_
 _symmetry_equiv_pos_site_id
 _symmetry_equiv_pos_as_xyz
  1  'x, y, z'
loop_
 _atom_site_type_symbol
 _atom_site_label
 _atom_site_symmetry_multiplicity
 _atom_site_fract_x
 _atom_site_fract_y
 _atom_site_fract_z
 _atom_site_occupancy
  K  K0  1  0.943931  0.249828  0.501532  1
  K  K1  1  0.443920  0.250185  0.998483  1
  K  K2  1  0.056083  0.749834  0.501511  1
  K  K3  1  0.556064  0.750191  0.998507  1
  Mn  Mn4  1  0.249888  0.499916  0.250093  1
  Mn  Mn5  1  0.750145  0.000031  0.249927  1
  V  V6  1  0.749938  0.500050  0.750004  1
  V  V7  1  0.250003  0.000009  0.750000  1
  P  P8  1  0.371966  0.248816  0.502315  1
  P  P9  1  0.871963  0.251187  0.997672  1
  P  P10  1  0.628056  0.748862  0.502295  1
  P  P11  1  0.128081  0.751149  0.997705  1
  P  P12  1  0.069848  0.296203  0.791897  1
  P  P13  1  0.565413  0.294477  0.293855  1
  P  P14  1  0.065420  0.205501  0.206100  1
  P  P15  1  0.569871  0.203835  0.708073  1
  P  P16  1  0.934596  0.705514  0.206117  1
  P  P17  1  0.430114  0.703842  0.708051  1
  P  P18  1  0.930149  0.796188  0.791926  1
  P  P19  1  0.434603  0.794461  0.293846  1
  H  H20  1  0.750008  0.500021  0.249985  1
  H  H21  1  0.249969  0.499940  0.750029  1
  H  H22  1  0.250074  0.999913  0.250038  1
  H  H23  1  0.750016  0.000013  0.749994  1
  O  O24  1  0.883256  0.678928  0.739569  1
  O  O25  1  0.390676  0.677619  0.239782  1
  O  O26  1  0.890802  0.822287  0.260265  1
  O  O27  1  0.383254  0.821091  0.760429  1
  O  O28  1  0.109150  0.322227  0.260314  1
  O  O29  1  0.616730  0.321111  0.760420  1
  O  O30  1  0.116761  0.178925  0.739563  1
  O  O31  1  0.609284  0.177682  0.239726  1
  O  O32  1  0.945210  0.402239  0.714400  1
  O  O33  1  0.436654  0.399506  0.217549  1
  O  O34  1  0.936742  0.100441  0.282474  1
  O  O35  1  0.445253  0.097781  0.785613  1
  O  O36  1  0.063209  0.600430  0.282539  1
  O  O37  1  0.554718  0.597812  0.785645  1
  O  O38  1  0.054765  0.902217  0.714368  1
  O  O39  1  0.563303  0.899515  0.217495  1
  O  O40  1  0.276649  0.386274  0.434502  1
  O  O41  1  0.781059  0.391722  0.928653  1
  O  O42  1  0.281078  0.108269  0.571347  1
  O  O43  1  0.776691  0.113707  0.065510  1
  O  O44  1  0.718903  0.608315  0.571353  1
  O  O45  1  0.223338  0.613670  0.065584  1
  O  O46  1  0.723357  0.886324  0.434438  1
  O  O47  1  0.218946  0.891692  0.928662  1
  O  O48  1  0.988442  0.300763  0.081776  1
  O  O49  1  0.490256  0.299552  0.584238  1
  O  O50  1  0.990279  0.200480  0.915751  1
  O  O51  1  0.488459  0.199243  0.418221  1
  O  O52  1  0.009767  0.700468  0.915764  1
  O  O53  1  0.511538  0.699257  0.418214  1
  O  O54  1  0.011568  0.800754  0.081792  1
  O  O55  1  0.509748  0.799574  0.584227  1
  O  O56  1  0.706606  0.381280  0.320313  1
  O  O57  1  0.211490  0.380281  0.820853  1
  O  O58  1  0.711515  0.119776  0.679118  1
  O  O59  1  0.206616  0.118746  0.179650  1
  O  O60  1  0.288491  0.619776  0.679090  1
  O  O61  1  0.793396  0.618739  0.179660  1
  O  O62  1  0.293403  0.881292  0.320305  1
  O  O63  1  0.788513  0.880269  0.820874  1
