# generated using pymatgen
data_Cs4Tb5Sm7Se20
_symmetry_space_group_name_H-M   'P 1'
_cell_length_a   4.22323200
_cell_length_b   12.92193715
_cell_length_c   22.27501594
_cell_angle_alpha   90.13500330
_cell_angle_beta   90.00000000
_cell_angle_gamma   90.00000000
_symmetry_Int_Tables_number   1
_chemical_formula_structural   Cs4Tb5Sm7Se20
_chemical_formula_sum   'Cs4 Tb5 Sm7 Se20'
_cell_volume   1215.59633472
_cell_formula_units_Z   1
loop_
 _symmetry_equiv_pos_site_id
 _symmetry_equiv_pos_as_xyz
  1  'x, y, z'
loop_
 _atom_site_type_symbol
 _atom_site_label
 _atom_site_symmetry_multiplicity
 _atom_site_fract_x
 _atom_site_fract_y
 _atom_site_fract_z
 _atom_site_occupancy
  Cs  Cs0  1  0.250000  0.842467  0.099752  1
  Cs  Cs1  1  0.750000  0.159413  0.902045  1
  Cs  Cs2  1  0.750000  0.341479  0.400674  1
  Cs  Cs3  1  0.250000  0.658514  0.598541  1
  Tb  Tb4  1  0.250000  0.535594  0.199762  1
  Tb  Tb5  1  0.750000  0.393689  0.053015  1
  Tb  Tb6  1  0.250000  0.608067  0.948512  1
  Tb  Tb7  1  0.250000  0.890808  0.447197  1
  Tb  Tb8  1  0.750000  0.106304  0.551821  1
  Sm  Sm9  1  0.750000  0.802255  0.831206  1
  Sm  Sm10  1  0.250000  0.200893  0.170566  1
  Sm  Sm11  1  0.250000  0.301626  0.669174  1
  Sm  Sm12  1  0.750000  0.696449  0.329049  1
  Sm  Sm13  1  0.250000  0.965947  0.700952  1
  Sm  Sm14  1  0.750000  0.032934  0.298746  1
  Sm  Sm15  1  0.750000  0.466051  0.799568  1
  Se  Se16  1  0.250000  0.952252  0.569554  1
  Se  Se17  1  0.750000  0.044839  0.429841  1
  Se  Se18  1  0.750000  0.453839  0.930745  1
  Se  Se19  1  0.250000  0.547540  0.070775  1
  Se  Se20  1  0.750000  0.757538  0.959262  1
  Se  Se21  1  0.250000  0.244419  0.042565  1
  Se  Se22  1  0.250000  0.255926  0.541229  1
  Se  Se23  1  0.750000  0.740959  0.457165  1
  Se  Se24  1  0.250000  0.953302  0.831726  1
  Se  Se25  1  0.750000  0.049710  0.168412  1
  Se  Se26  1  0.750000  0.452756  0.668755  1
  Se  Se27  1  0.250000  0.545426  0.328746  1
  Se  Se28  1  0.750000  0.132126  0.683471  1
  Se  Se29  1  0.250000  0.866159  0.315243  1
  Se  Se30  1  0.250000  0.632732  0.817123  1
  Se  Se31  1  0.750000  0.370988  0.184872  1
  Se  Se32  1  0.750000  0.681496  0.199063  1
  Se  Se33  1  0.250000  0.316555  0.799576  1
  Se  Se34  1  0.250000  0.182533  0.300353  1
  Se  Se35  1  0.750000  0.816413  0.700947  1
