# generated using pymatgen
data_AlV7(TcOs)4
_symmetry_space_group_name_H-M   'P 1'
_cell_length_a   6.03950500
_cell_length_b   4.26893900
_cell_length_c   8.56196200
_cell_angle_alpha   90.00000000
_cell_angle_beta   90.00047808
_cell_angle_gamma   90.00000000
_symmetry_Int_Tables_number   1
_chemical_formula_structural   AlV7(TcOs)4
_chemical_formula_sum   'Al1 V7 Tc4 Os4'
_cell_volume   220.74688823
_cell_formula_units_Z   1
loop_
 _symmetry_equiv_pos_site_id
 _symmetry_equiv_pos_as_xyz
  1  'x, y, z'
loop_
 _atom_site_type_symbol
 _atom_site_label
 _atom_site_symmetry_multiplicity
 _atom_site_fract_x
 _atom_site_fract_y
 _atom_site_fract_z
 _atom_site_occupancy
  Al  Al0  1  0.999678  0.750001  0.124976  1
  V  V1  1  0.500667  0.750001  0.124973  1
  V  V2  1  0.000227  0.250001  0.372435  1
  V  V3  1  0.499873  0.250001  0.376374  1
  V  V4  1  0.500850  0.750001  0.625025  1
  V  V5  1  0.001526  0.750001  0.625047  1
  V  V6  1  0.499865  0.250001  0.873625  1
  V  V7  1  0.000212  0.250001  0.877557  1
  Tc  Tc8  1  0.745345  0.250001  0.124948  1
  Tc  Tc9  1  0.251632  0.750001  0.377311  1
  Tc  Tc10  1  0.750060  0.250001  0.625039  1
  Tc  Tc11  1  0.251614  0.750001  0.872695  1
  Os  Os12  1  0.250620  0.250001  0.124972  1
  Os  Os13  1  0.749165  0.750001  0.376719  1
  Os  Os14  1  0.249507  0.250001  0.625014  1
  Os  Os15  1  0.749158  0.750001  0.873288  1
