# generated using pymatgen
data_DyHo15(C2Br3)4
_symmetry_space_group_name_H-M   'P 1'
_cell_length_a   3.66528900
_cell_length_b   10.64048155
_cell_length_c   20.32974800
_cell_angle_alpha   90.01841567
_cell_angle_beta   90.00000000
_cell_angle_gamma   90.00000000
_symmetry_Int_Tables_number   1
_chemical_formula_structural   DyHo15(C2Br3)4
_chemical_formula_sum   'Dy1 Ho15 C8 Br12'
_cell_volume   792.86907570
_cell_formula_units_Z   1
loop_
 _symmetry_equiv_pos_site_id
 _symmetry_equiv_pos_as_xyz
  1  'x, y, z'
loop_
 _atom_site_type_symbol
 _atom_site_label
 _atom_site_symmetry_multiplicity
 _atom_site_fract_x
 _atom_site_fract_y
 _atom_site_fract_z
 _atom_site_occupancy
  Dy  Dy0  1  0.250000  0.866169  0.580327  1
  Ho  Ho1  1  0.750000  0.133962  0.419248  1
  Ho  Ho2  1  0.750000  0.633874  0.080829  1
  Ho  Ho3  1  0.250000  0.366064  0.919114  1
  Ho  Ho4  1  0.250000  0.866201  0.744579  1
  Ho  Ho5  1  0.750000  0.133749  0.255491  1
  Ho  Ho6  1  0.750000  0.633816  0.244565  1
  Ho  Ho7  1  0.250000  0.366176  0.755492  1
  Ho  Ho8  1  0.250000  0.867712  0.169344  1
  Ho  Ho9  1  0.750000  0.132255  0.830593  1
  Ho  Ho10  1  0.750000  0.632286  0.669414  1
  Ho  Ho11  1  0.250000  0.367763  0.330721  1
  Ho  Ho12  1  0.250000  0.900100  0.328602  1
  Ho  Ho13  1  0.750000  0.099882  0.671475  1
  Ho  Ho14  1  0.750000  0.599817  0.828563  1
  Ho  Ho15  1  0.250000  0.400175  0.171388  1
  C  C16  1  0.250000  0.614577  0.750700  1
  C  C17  1  0.750000  0.385133  0.249410  1
  C  C18  1  0.750000  0.885126  0.250578  1
  C  C19  1  0.250000  0.115202  0.749478  1
  C  C20  1  0.250000  0.632804  0.156508  1
  C  C21  1  0.750000  0.367156  0.843482  1
  C  C22  1  0.750000  0.867107  0.656894  1
  C  C23  1  0.250000  0.132880  0.343501  1
  Br  Br24  1  0.250000  0.610572  0.555628  1
  Br  Br25  1  0.750000  0.387727  0.444621  1
  Br  Br26  1  0.750000  0.887757  0.055472  1
  Br  Br27  1  0.250000  0.112135  0.944441  1
  Br  Br28  1  0.250000  0.627727  0.953227  1
  Br  Br29  1  0.750000  0.372286  0.046496  1
  Br  Br30  1  0.750000  0.872214  0.452859  1
  Br  Br31  1  0.250000  0.129682  0.546645  1
  Br  Br32  1  0.250000  0.635639  0.357295  1
  Br  Br33  1  0.750000  0.364300  0.643003  1
  Br  Br34  1  0.750000  0.864260  0.857252  1
  Br  Br35  1  0.250000  0.135718  0.142762  1
