# generated using pymatgen
data_Ta5Nb7(BOs)12
_symmetry_space_group_name_H-M   'P 1'
_cell_length_a   3.10943200
_cell_length_b   9.09769277
_cell_length_c   15.85955055
_cell_angle_alpha   89.89576342
_cell_angle_beta   90.00000000
_cell_angle_gamma   90.00000000
_symmetry_Int_Tables_number   1
_chemical_formula_structural   Ta5Nb7(BOs)12
_chemical_formula_sum   'Ta5 Nb7 B12 Os12'
_cell_volume   448.64464365
_cell_formula_units_Z   1
loop_
 _symmetry_equiv_pos_site_id
 _symmetry_equiv_pos_as_xyz
  1  'x, y, z'
loop_
 _atom_site_type_symbol
 _atom_site_label
 _atom_site_symmetry_multiplicity
 _atom_site_fract_x
 _atom_site_fract_y
 _atom_site_fract_z
 _atom_site_occupancy
  Ta  Ta0  1  0.000000  0.799991  0.495185  1
  Ta  Ta1  1  0.000000  0.199723  0.504693  1
  Ta  Ta2  1  0.000000  0.300430  0.005011  1
  Ta  Ta3  1  0.000000  0.699641  0.994927  1
  Ta  Ta4  1  0.000000  0.515849  0.594062  1
  Nb  Nb5  1  0.000000  0.483781  0.406479  1
  Nb  Nb6  1  0.000000  0.016692  0.906412  1
  Nb  Nb7  1  0.000000  0.983525  0.093580  1
  Nb  Nb8  1  0.000000  0.688808  0.202066  1
  Nb  Nb9  1  0.000000  0.311113  0.797987  1
  Nb  Nb10  1  0.000000  0.188629  0.297831  1
  Nb  Nb11  1  0.000000  0.811794  0.701939  1
  B  B12  1  0.500000  0.605513  0.497503  1
  B  B13  1  0.500000  0.394375  0.503505  1
  B  B14  1  0.500000  0.106039  0.002917  1
  B  B15  1  0.500000  0.893975  0.997044  1
  B  B16  1  0.000000  0.609410  0.832250  1
  B  B17  1  0.000000  0.390825  0.167896  1
  B  B18  1  0.000000  0.108683  0.667957  1
  B  B19  1  0.000000  0.890997  0.332095  1
  B  B20  1  0.500000  0.715204  0.597368  1
  B  B21  1  0.500000  0.283602  0.402844  1
  B  B22  1  0.500000  0.216605  0.902981  1
  B  B23  1  0.500000  0.783563  0.096915  1
  Os  Os24  1  0.500000  0.719997  0.355876  1
  Os  Os25  1  0.500000  0.280485  0.643860  1
  Os  Os26  1  0.500000  0.219941  0.144441  1
  Os  Os27  1  0.500000  0.780078  0.855329  1
  Os  Os28  1  0.500000  0.515890  0.093267  1
  Os  Os29  1  0.500000  0.484285  0.906558  1
  Os  Os30  1  0.500000  0.015760  0.406833  1
  Os  Os31  1  0.500000  0.984430  0.593073  1
  Os  Os32  1  0.500000  0.559757  0.734513  1
  Os  Os33  1  0.500000  0.440576  0.264972  1
  Os  Os34  1  0.500000  0.059308  0.764440  1
  Os  Os35  1  0.500000  0.940725  0.235390  1
