# generated using pymatgen
data_CeSmSc2(ReB6)2
_symmetry_space_group_name_H-M   'P 1'
_cell_length_a   3.63699600
_cell_length_b   9.05002565
_cell_length_c   11.46538009
_cell_angle_alpha   89.93087013
_cell_angle_beta   90.00000000
_cell_angle_gamma   90.00000000
_symmetry_Int_Tables_number   1
_chemical_formula_structural   CeSmSc2(ReB6)2
_chemical_formula_sum   'Ce2 Sm2 Sc4 Re4 B24'
_cell_volume   377.38164546
_cell_formula_units_Z   2
loop_
 _symmetry_equiv_pos_site_id
 _symmetry_equiv_pos_as_xyz
  1  'x, y, z'
loop_
 _atom_site_type_symbol
 _atom_site_label
 _atom_site_symmetry_multiplicity
 _atom_site_fract_x
 _atom_site_fract_y
 _atom_site_fract_z
 _atom_site_occupancy
  Ce  Ce0  1  0.000000  0.820870  0.085697  1
  Ce  Ce1  1  0.000000  0.179130  0.914303  1
  Sm  Sm2  1  0.000000  0.321974  0.414405  1
  Sm  Sm3  1  0.000000  0.678026  0.585595  1
  Sc  Sc4  1  0.000000  0.944212  0.371252  1
  Sc  Sc5  1  0.000000  0.055788  0.628748  1
  Sc  Sc6  1  0.000000  0.444808  0.128503  1
  Sc  Sc7  1  0.000000  0.555192  0.871497  1
  Re  Re8  1  0.000000  0.642499  0.316413  1
  Re  Re9  1  0.000000  0.357501  0.683587  1
  Re  Re10  1  0.000000  0.139640  0.180362  1
  Re  Re11  1  0.000000  0.860360  0.819638  1
  B  B12  1  0.500000  0.555351  0.431250  1
  B  B13  1  0.500000  0.444649  0.568750  1
  B  B14  1  0.500000  0.055324  0.068910  1
  B  B15  1  0.500000  0.944676  0.931090  1
  B  B16  1  0.500000  0.753958  0.417243  1
  B  B17  1  0.500000  0.246042  0.582757  1
  B  B18  1  0.500000  0.253935  0.082778  1
  B  B19  1  0.500000  0.746065  0.917222  1
  B  B20  1  0.500000  0.794468  0.265329  1
  B  B21  1  0.500000  0.205532  0.734671  1
  B  B22  1  0.500000  0.294502  0.234201  1
  B  B23  1  0.500000  0.705498  0.765799  1
  B  B24  1  0.500000  0.629301  0.183459  1
  B  B25  1  0.500000  0.370699  0.816541  1
  B  B26  1  0.500000  0.128718  0.316394  1
  B  B27  1  0.500000  0.871282  0.683606  1
  B  B28  1  0.500000  0.982326  0.214582  1
  B  B29  1  0.500000  0.017674  0.785418  1
  B  B30  1  0.500000  0.482442  0.285355  1
  B  B31  1  0.500000  0.517558  0.714645  1
  B  B32  1  0.500000  0.597092  0.026355  1
  B  B33  1  0.500000  0.402908  0.973645  1
  B  B34  1  0.500000  0.095570  0.474005  1
  B  B35  1  0.500000  0.904430  0.525995  1
