# generated using pymatgen
data_Zr10Hg2Bi5Pb
_symmetry_space_group_name_H-M   'P 1'
_cell_length_a   8.94102410
_cell_length_b   8.92000059
_cell_length_c   6.07978400
_cell_angle_alpha   90.00000000
_cell_angle_beta   90.00000000
_cell_angle_gamma   119.92225226
_symmetry_Int_Tables_number   1
_chemical_formula_structural   Zr10Hg2Bi5Pb
_chemical_formula_sum   'Zr10 Hg2 Bi5 Pb1'
_cell_volume   420.25282365
_cell_formula_units_Z   1
loop_
 _symmetry_equiv_pos_site_id
 _symmetry_equiv_pos_as_xyz
  1  'x, y, z'
loop_
 _atom_site_type_symbol
 _atom_site_label
 _atom_site_symmetry_multiplicity
 _atom_site_fract_x
 _atom_site_fract_y
 _atom_site_fract_z
 _atom_site_occupancy
  Zr  Zr0  1  0.666910  0.333515  0.000666  1
  Zr  Zr1  1  0.333090  0.666606  0.000666  1
  Zr  Zr2  1  0.333090  0.666606  0.499334  1
  Zr  Zr3  1  0.666910  0.333515  0.499334  1
  Zr  Zr4  1  0.720577  0.720787  0.750000  1
  Zr  Zr5  1  0.279423  0.000210  0.750000  1
  Zr  Zr6  1  0.000000  0.279569  0.750000  1
  Zr  Zr7  1  0.279401  0.279705  0.250000  1
  Zr  Zr8  1  0.720599  0.000304  0.250000  1
  Zr  Zr9  1  0.000000  0.719662  0.250000  1
  Hg  Hg10  1  0.000000  0.000498  0.000556  1
  Hg  Hg11  1  0.000000  0.000498  0.499444  1
  Bi  Bi12  1  0.381167  0.381668  0.750000  1
  Bi  Bi13  1  0.618833  0.000501  0.750000  1
  Bi  Bi14  1  0.000000  0.617746  0.750000  1
  Bi  Bi15  1  0.618385  0.618637  0.250000  1
  Bi  Bi16  1  0.381615  0.000252  0.250000  1
  Pb  Pb17  1  0.000000  0.379721  0.250000  1
