# generated using pymatgen
data_HoLu3C2Cl3
_symmetry_space_group_name_H-M   'P 1'
_cell_length_a   3.58450400
_cell_length_b   10.23121700
_cell_length_c   19.33425800
_cell_angle_alpha   90.00000000
_cell_angle_beta   90.00000000
_cell_angle_gamma   90.00000000
_symmetry_Int_Tables_number   1
_chemical_formula_structural   HoLu3C2Cl3
_chemical_formula_sum   'Ho4 Lu12 C8 Cl12'
_cell_volume   709.06145080
_cell_formula_units_Z   4
loop_
 _symmetry_equiv_pos_site_id
 _symmetry_equiv_pos_as_xyz
  1  'x, y, z'
loop_
 _atom_site_type_symbol
 _atom_site_label
 _atom_site_symmetry_multiplicity
 _atom_site_fract_x
 _atom_site_fract_y
 _atom_site_fract_z
 _atom_site_occupancy
  Ho  Ho0  1  0.250000  0.137699  0.573630  1
  Ho  Ho1  1  0.250000  0.637699  0.926370  1
  Ho  Ho2  1  0.750000  0.862301  0.426370  1
  Ho  Ho3  1  0.750000  0.362301  0.073630  1
  Lu  Lu4  1  0.250000  0.636808  0.756701  1
  Lu  Lu5  1  0.250000  0.136808  0.743299  1
  Lu  Lu6  1  0.750000  0.363192  0.243299  1
  Lu  Lu7  1  0.750000  0.863192  0.256701  1
  Lu  Lu8  1  0.250000  0.100060  0.330054  1
  Lu  Lu9  1  0.250000  0.600060  0.169946  1
  Lu  Lu10  1  0.750000  0.899940  0.669946  1
  Lu  Lu11  1  0.750000  0.399940  0.830054  1
  Lu  Lu12  1  0.250000  0.126626  0.165964  1
  Lu  Lu13  1  0.250000  0.626626  0.334036  1
  Lu  Lu14  1  0.750000  0.873374  0.834036  1
  Lu  Lu15  1  0.750000  0.373374  0.665964  1
  C  C16  1  0.250000  0.864627  0.345901  1
  C  C17  1  0.250000  0.364627  0.154099  1
  C  C18  1  0.750000  0.135373  0.654099  1
  C  C19  1  0.750000  0.635373  0.845901  1
  C  C20  1  0.250000  0.387234  0.749745  1
  C  C21  1  0.250000  0.887234  0.750255  1
  C  C22  1  0.750000  0.612766  0.250255  1
  C  C23  1  0.750000  0.112766  0.249745  1
  Cl  Cl24  1  0.250000  0.373249  0.951112  1
  Cl  Cl25  1  0.250000  0.873249  0.548888  1
  Cl  Cl26  1  0.750000  0.626751  0.048888  1
  Cl  Cl27  1  0.750000  0.126751  0.451112  1
  Cl  Cl28  1  0.250000  0.891171  0.943493  1
  Cl  Cl29  1  0.250000  0.391171  0.556507  1
  Cl  Cl30  1  0.750000  0.108829  0.056507  1
  Cl  Cl31  1  0.750000  0.608829  0.443493  1
  Cl  Cl32  1  0.250000  0.361131  0.353425  1
  Cl  Cl33  1  0.250000  0.861131  0.146575  1
  Cl  Cl34  1  0.750000  0.638869  0.646575  1
  Cl  Cl35  1  0.750000  0.138869  0.853425  1
