# generated using pymatgen
data_Li2GdZn4
_symmetry_space_group_name_H-M   'P 1'
_cell_length_a   5.50557252
_cell_length_b   5.50557089
_cell_length_c   5.50557253
_cell_angle_alpha   101.71272786
_cell_angle_beta   101.71273881
_cell_angle_gamma   126.44068700
_symmetry_Int_Tables_number   1
_chemical_formula_structural   Li2GdZn4
_chemical_formula_sum   'Li2 Gd1 Zn4'
_cell_volume   119.85224620
_cell_formula_units_Z   1
loop_
 _symmetry_equiv_pos_site_id
 _symmetry_equiv_pos_as_xyz
  1  'x, y, z'
loop_
 _atom_site_type_symbol
 _atom_site_label
 _atom_site_symmetry_multiplicity
 _atom_site_fract_x
 _atom_site_fract_y
 _atom_site_fract_z
 _atom_site_occupancy
  Li  Li0  1  0.250000  0.750000  0.500000  1
  Li  Li1  1  0.750000  0.250000  0.500000  1
  Gd  Gd2  1  0.000000  0.000000  0.000000  1
  Zn  Zn3  1  0.307898  0.307898  0.615800  1
  Zn  Zn4  1  0.692102  0.692102  0.384200  1
  Zn  Zn5  1  0.692102  0.307898  0.000000  1
  Zn  Zn6  1  0.307898  0.692102  0.000000  1
