# generated using pymatgen
data_Tb2DyZnCd3Au2
_symmetry_space_group_name_H-M   'P 1'
_cell_length_a   7.88852700
_cell_length_b   7.87167627
_cell_length_c   3.82189600
_cell_angle_alpha   90.00000000
_cell_angle_beta   90.00000000
_cell_angle_gamma   120.07084258
_symmetry_Int_Tables_number   1
_chemical_formula_structural   Tb2DyZnCd3Au2
_chemical_formula_sum   'Tb2 Dy1 Zn1 Cd3 Au2'
_cell_volume   205.38190194
_cell_formula_units_Z   1
loop_
 _symmetry_equiv_pos_site_id
 _symmetry_equiv_pos_as_xyz
  1  'x, y, z'
loop_
 _atom_site_type_symbol
 _atom_site_label
 _atom_site_symmetry_multiplicity
 _atom_site_fract_x
 _atom_site_fract_y
 _atom_site_fract_z
 _atom_site_occupancy
  Tb  Tb0  1  0.000147  0.589151  0.000000  1
  Tb  Tb1  1  0.410995  0.410849  0.000000  1
  Dy  Dy2  1  0.589348  0.000000  0.000000  1
  Zn  Zn3  1  0.999283  0.000000  0.000000  1
  Cd  Cd4  1  0.255534  0.000000  0.500000  1
  Cd  Cd5  1  0.999280  0.255097  0.500000  1
  Cd  Cd6  1  0.744182  0.744903  0.500000  1
  Au  Au7  1  0.335017  0.668804  0.500000  1
  Au  Au8  1  0.666213  0.331196  0.500000  1
