# generated using pymatgen
data_Tb6Al23Fe3SiOs5
_symmetry_space_group_name_H-M   'P 1'
_cell_length_a   8.78517500
_cell_length_b   8.76192098
_cell_length_c   9.54153407
_cell_angle_alpha   90.10844834
_cell_angle_beta   90.00000000
_cell_angle_gamma   120.08782829
_symmetry_Int_Tables_number   1
_chemical_formula_structural   Tb6Al23Fe3SiOs5
_chemical_formula_sum   'Tb6 Al23 Fe3 Si1 Os5'
_cell_volume   635.49554250
_cell_formula_units_Z   1
loop_
 _symmetry_equiv_pos_site_id
 _symmetry_equiv_pos_as_xyz
  1  'x, y, z'
loop_
 _atom_site_type_symbol
 _atom_site_label
 _atom_site_symmetry_multiplicity
 _atom_site_fract_x
 _atom_site_fract_y
 _atom_site_fract_z
 _atom_site_occupancy
  Tb  Tb0  1  0.195085  0.390168  0.246664  1
  Tb  Tb1  1  0.805875  0.611751  0.753468  1
  Tb  Tb2  1  0.611351  0.804385  0.248570  1
  Tb  Tb3  1  0.386160  0.195236  0.751086  1
  Tb  Tb4  1  0.193034  0.804385  0.248570  1
  Tb  Tb5  1  0.809076  0.195236  0.751086  1
  Al  Al6  1  0.663192  0.326383  0.987288  1
  Al  Al7  1  0.666647  0.333293  0.514152  1
  Al  Al8  1  0.333495  0.666993  0.487619  1
  Al  Al9  1  0.159535  0.319070  0.573945  1
  Al  Al10  1  0.840381  0.680761  0.425418  1
  Al  Al11  1  0.680849  0.841110  0.574898  1
  Al  Al12  1  0.839443  0.678888  0.074003  1
  Al  Al13  1  0.319249  0.159190  0.424306  1
  Al  Al14  1  0.161199  0.322397  0.923641  1
  Al  Al15  1  0.160262  0.841110  0.574898  1
  Al  Al16  1  0.320087  0.157748  0.073997  1
  Al  Al17  1  0.839940  0.159190  0.424306  1
  Al  Al18  1  0.676630  0.841322  0.924454  1
  Al  Al19  1  0.837660  0.157748  0.073997  1
  Al  Al20  1  0.164693  0.841322  0.924454  1
  Al  Al21  1  0.559491  0.118980  0.243560  1
  Al  Al22  1  0.440113  0.880227  0.754308  1
  Al  Al23  1  0.875375  0.437027  0.247807  1
  Al  Al24  1  0.126213  0.564078  0.749104  1
  Al  Al25  1  0.561653  0.437027  0.247807  1
  Al  Al26  1  0.437864  0.564078  0.749104  1
  Al  Al27  1  0.999930  0.999861  0.249330  1
  Al  Al28  1  0.999994  0.999988  0.749899  1
  Fe  Fe29  1  0.494405  0.988809  0.002522  1
  Fe  Fe30  1  0.999769  0.999537  0.999216  1
  Fe  Fe31  1  0.999992  0.999984  0.499576  1
  Si  Si32  1  0.337201  0.674403  0.030032  1
  Os  Os33  1  0.008352  0.504021  0.000561  1
  Os  Os34  1  0.500412  0.000823  0.498566  1
  Os  Os35  1  0.495669  0.504021  0.000561  1
  Os  Os36  1  0.999409  0.499724  0.498613  1
  Os  Os37  1  0.500315  0.499724  0.498613  1
