# generated using pymatgen
data_Ho16Sc4Si15As
_symmetry_space_group_name_H-M   'P 1'
_cell_length_a   7.34874576
_cell_length_b   7.55039642
_cell_length_c   14.41213067
_cell_angle_alpha   89.91112937
_cell_angle_beta   86.48122310
_cell_angle_gamma   90.04511729
_symmetry_Int_Tables_number   1
_chemical_formula_structural   Ho16Sc4Si15As
_chemical_formula_sum   'Ho16 Sc4 Si15 As1'
_cell_volume   798.16181059
_cell_formula_units_Z   1
loop_
 _symmetry_equiv_pos_site_id
 _symmetry_equiv_pos_as_xyz
  1  'x, y, z'
loop_
 _atom_site_type_symbol
 _atom_site_label
 _atom_site_symmetry_multiplicity
 _atom_site_fract_x
 _atom_site_fract_y
 _atom_site_fract_z
 _atom_site_occupancy
  Ho  Ho0  1  0.001246  0.820946  0.099857  1
  Ho  Ho1  1  0.473934  0.684794  0.398186  1
  Ho  Ho2  1  0.495805  0.317430  0.900200  1
  Ho  Ho3  1  0.025960  0.184898  0.601904  1
  Ho  Ho4  1  0.001559  0.180380  0.900806  1
  Ho  Ho5  1  0.525384  0.314961  0.601616  1
  Ho  Ho6  1  0.498576  0.684209  0.100298  1
  Ho  Ho7  1  0.973619  0.813870  0.398309  1
  Ho  Ho8  1  0.649194  0.835273  0.877433  1
  Ho  Ho9  1  0.177495  0.674452  0.624061  1
  Ho  Ho10  1  0.851448  0.333553  0.120570  1
  Ho  Ho11  1  0.322483  0.174191  0.376373  1
  Ho  Ho12  1  0.350115  0.166587  0.122449  1
  Ho  Ho13  1  0.823169  0.325265  0.376441  1
  Ho  Ho14  1  0.150594  0.666494  0.879346  1
  Ho  Ho15  1  0.677633  0.825893  0.624215  1
  Sc  Sc16  1  0.667006  0.993254  0.245817  1
  Sc  Sc17  1  0.166162  0.506301  0.244942  1
  Sc  Sc18  1  0.834194  0.492947  0.751299  1
  Sc  Sc19  1  0.332723  0.007016  0.753858  1
  Si  Si20  1  0.784035  0.634497  0.250177  1
  Si  Si21  1  0.282966  0.864503  0.250910  1
  Si  Si22  1  0.715601  0.136737  0.749659  1
  Si  Si23  1  0.214782  0.364805  0.749891  1
  Si  Si24  1  0.032966  0.104588  0.251520  1
  Si  Si25  1  0.534919  0.395329  0.251008  1
  Si  Si26  1  0.466245  0.604356  0.749530  1
  Si  Si27  1  0.967035  0.895077  0.749349  1
  Si  Si28  1  0.355360  0.973251  0.544283  1
  Si  Si29  1  0.697145  0.033622  0.043504  1
  Si  Si30  1  0.145832  0.472718  0.456670  1
  Si  Si31  1  0.204480  0.466871  0.045043  1
  Si  Si32  1  0.645249  0.026034  0.456006  1
  Si  Si33  1  0.303843  0.966121  0.955988  1
  Si  Si34  1  0.854731  0.526349  0.544187  1
  As  As35  1  0.796512  0.532428  0.954293  1
