# generated using pymatgen
data_Ho5Pa7Ga20
_symmetry_space_group_name_H-M   'P 1'
_cell_length_a   6.07479183
_cell_length_b   9.51794403
_cell_length_c   11.65576547
_cell_angle_alpha   89.95072247
_cell_angle_beta   89.89838767
_cell_angle_gamma   89.92345570
_symmetry_Int_Tables_number   1
_chemical_formula_structural   Ho5Pa7Ga20
_chemical_formula_sum   'Ho5 Pa7 Ga20'
_cell_volume   673.92895541
_cell_formula_units_Z   1
loop_
 _symmetry_equiv_pos_site_id
 _symmetry_equiv_pos_as_xyz
  1  'x, y, z'
loop_
 _atom_site_type_symbol
 _atom_site_label
 _atom_site_symmetry_multiplicity
 _atom_site_fract_x
 _atom_site_fract_y
 _atom_site_fract_z
 _atom_site_occupancy
  Ho  Ho0  1  0.858503  0.749930  0.072717  1
  Ho  Ho1  1  0.641801  0.750723  0.572684  1
  Ho  Ho2  1  0.143972  0.247931  0.927667  1
  Ho  Ho3  1  0.358537  0.250772  0.427756  1
  Ho  Ho4  1  0.617704  0.502616  0.850094  1
  Pa  Pa5  1  0.880885  0.503151  0.352224  1
  Pa  Pa6  1  0.618538  0.996390  0.852286  1
  Pa  Pa7  1  0.117816  0.002432  0.647788  1
  Pa  Pa8  1  0.380993  0.496910  0.148664  1
  Pa  Pa9  1  0.117839  0.497289  0.647540  1
  Pa  Pa10  1  0.382411  0.003890  0.147234  1
  Pa  Pa11  1  0.880935  0.997963  0.352485  1
  Ga  Ga12  1  0.872103  0.053055  0.090352  1
  Ga  Ga13  1  0.628563  0.448511  0.591805  1
  Ga  Ga14  1  0.132563  0.551172  0.909271  1
  Ga  Ga15  1  0.370875  0.948403  0.408819  1
  Ga  Ga16  1  0.128134  0.944807  0.908801  1
  Ga  Ga17  1  0.371768  0.552743  0.409400  1
  Ga  Ga18  1  0.872884  0.447647  0.091386  1
  Ga  Ga19  1  0.627430  0.053189  0.591215  1
  Ga  Ga20  1  0.156780  0.751246  0.263685  1
  Ga  Ga21  1  0.341206  0.749871  0.762580  1
  Ga  Ga22  1  0.843548  0.249850  0.737972  1
  Ga  Ga23  1  0.657533  0.250470  0.235717  1
  Ga  Ga24  1  0.389872  0.749197  0.996218  1
  Ga  Ga25  1  0.109270  0.750267  0.494360  1
  Ga  Ga26  1  0.610269  0.250518  0.004551  1
  Ga  Ga27  1  0.889519  0.250778  0.506145  1
  Ga  Ga28  1  0.596590  0.750585  0.292975  1
  Ga  Ga29  1  0.903298  0.749045  0.792546  1
  Ga  Ga30  1  0.400201  0.248642  0.705429  1
  Ga  Ga31  1  0.097664  0.250008  0.207636  1
