# generated using pymatgen
data_LaZn10Rh
_symmetry_space_group_name_H-M   'P 1'
_cell_length_a   8.32322715
_cell_length_b   8.25332072
_cell_length_c   8.38654821
_cell_angle_alpha   99.63081398
_cell_angle_beta   100.09454591
_cell_angle_gamma   130.82812611
_symmetry_Int_Tables_number   1
_chemical_formula_structural   LaZn10Rh
_chemical_formula_sum   'La2 Zn20 Rh2'
_cell_volume   397.26544857
_cell_formula_units_Z   2
loop_
 _symmetry_equiv_pos_site_id
 _symmetry_equiv_pos_as_xyz
  1  'x, y, z'
loop_
 _atom_site_type_symbol
 _atom_site_label
 _atom_site_symmetry_multiplicity
 _atom_site_fract_x
 _atom_site_fract_y
 _atom_site_fract_z
 _atom_site_occupancy
  La  La0  1  0.253010  0.753009  0.506031  1
  La  La1  1  0.996990  0.996991  0.993969  1
  Zn  Zn2  1  0.902210  0.570797  0.087256  1
  Zn  Zn3  1  0.428797  0.512824  0.329034  1
  Zn  Zn4  1  0.488073  0.573156  0.672458  1
  Zn  Zn5  1  0.429790  0.105904  0.921016  1
  Zn  Zn6  1  0.761927  0.176844  0.827542  1
  Zn  Zn7  1  0.491234  0.815114  0.921016  1
  Zn  Zn8  1  0.507076  0.507077  0.014159  1
  Zn  Zn9  1  0.758766  0.934886  0.578984  1
  Zn  Zn10  1  0.742924  0.242923  0.485841  1
  Zn  Zn11  1  0.065617  0.650693  0.827544  1
  Zn  Zn12  1  0.125000  0.375000  0.750000  1
  Zn  Zn13  1  0.347790  0.179203  0.412744  1
  Zn  Zn14  1  0.820210  0.644096  0.578984  1
  Zn  Zn15  1  0.900240  0.816206  0.329032  1
  Zn  Zn16  1  0.184383  0.099307  0.672456  1
  Zn  Zn17  1  0.064971  0.233553  0.412757  1
  Zn  Zn18  1  0.349760  0.933794  0.170968  1
  Zn  Zn19  1  0.821203  0.237176  0.170966  1
  Zn  Zn20  1  0.185029  0.516447  0.087243  1
  Zn  Zn21  1  0.625000  0.375000  0.750000  1
  Rh  Rh22  1  0.625000  0.875000  0.250000  1
  Rh  Rh23  1  0.625000  0.375000  0.250000  1
