# generated using pymatgen
data_Nd3BRuO9
_symmetry_space_group_name_H-M   'P 1'
_cell_length_a   8.72218500
_cell_length_b   8.72218434
_cell_length_c   5.60404700
_cell_angle_alpha   90.00000000
_cell_angle_beta   90.00000000
_cell_angle_gamma   120.00003563
_symmetry_Int_Tables_number   1
_chemical_formula_structural   Nd3BRuO9
_chemical_formula_sum   'Nd6 B2 Ru2 O18'
_cell_volume   369.21794400
_cell_formula_units_Z   2
loop_
 _symmetry_equiv_pos_site_id
 _symmetry_equiv_pos_as_xyz
  1  'x, y, z'
loop_
 _atom_site_type_symbol
 _atom_site_label
 _atom_site_symmetry_multiplicity
 _atom_site_fract_x
 _atom_site_fract_y
 _atom_site_fract_z
 _atom_site_occupancy
  Nd  Nd0  1  0.359345  0.082875  0.202687  1
  Nd  Nd1  1  0.917126  0.276472  0.202687  1
  Nd  Nd2  1  0.723529  0.640655  0.202687  1
  Nd  Nd3  1  0.276472  0.359346  0.702686  1
  Nd  Nd4  1  0.082874  0.723529  0.702686  1
  Nd  Nd5  1  0.640655  0.917126  0.702686  1
  B  B6  1  0.000000  0.000000  0.365964  1
  B  B7  1  0.000000  0.000000  0.865963  1
  Ru  Ru8  1  0.333334  0.666667  0.250152  1
  Ru  Ru9  1  0.666666  0.333334  0.750153  1
  O  O10  1  0.531059  0.736161  0.045898  1
  O  O11  1  0.263839  0.794897  0.045898  1
  O  O12  1  0.205104  0.468942  0.045900  1
  O  O13  1  0.130775  0.176133  0.357817  1
  O  O14  1  0.045358  0.869225  0.357817  1
  O  O15  1  0.823866  0.954641  0.357817  1
  O  O16  1  0.133761  0.517603  0.472992  1
  O  O17  1  0.482397  0.616159  0.472992  1
  O  O18  1  0.383841  0.866238  0.472992  1
  O  O19  1  0.736161  0.205103  0.545899  1
  O  O20  1  0.468941  0.263838  0.545899  1
  O  O21  1  0.794896  0.531059  0.545899  1
  O  O22  1  0.176133  0.045358  0.857818  1
  O  O23  1  0.954641  0.130775  0.857818  1
  O  O24  1  0.869225  0.823866  0.857818  1
  O  O25  1  0.616158  0.133761  0.972990  1
  O  O26  1  0.866238  0.482396  0.972990  1
  O  O27  1  0.517603  0.383840  0.972992  1
