# generated using pymatgen
data_Li4Sm3Ho(Si2Pb)2
_symmetry_space_group_name_H-M   'P 1'
_cell_length_a   9.74927325
_cell_length_b   9.74927404
_cell_length_c   6.84381300
_cell_angle_alpha   90.00000000
_cell_angle_beta   90.00000000
_cell_angle_gamma   153.58974141
_symmetry_Int_Tables_number   1
_chemical_formula_structural   Li4Sm3Ho(Si2Pb)2
_chemical_formula_sum   'Li4 Sm3 Ho1 Si4 Pb2'
_cell_volume   289.33640749
_cell_formula_units_Z   1
loop_
 _symmetry_equiv_pos_site_id
 _symmetry_equiv_pos_as_xyz
  1  'x, y, z'
loop_
 _atom_site_type_symbol
 _atom_site_label
 _atom_site_symmetry_multiplicity
 _atom_site_fract_x
 _atom_site_fract_y
 _atom_site_fract_z
 _atom_site_occupancy
  Li  Li0  1  0.816861  0.183139  0.553367  1
  Li  Li1  1  0.182951  0.817049  0.446247  1
  Li  Li2  1  0.182951  0.817049  0.053753  1
  Li  Li3  1  0.816861  0.183139  0.946633  1
  Sm  Sm4  1  0.452931  0.547069  0.750000  1
  Sm  Sm5  1  0.352717  0.647283  0.250000  1
  Sm  Sm6  1  0.647307  0.352693  0.750000  1
  Ho  Ho7  1  0.546913  0.453087  0.250000  1
  Si  Si8  1  0.943601  0.056399  0.074828  1
  Si  Si9  1  0.057116  0.942884  0.927821  1
  Si  Si10  1  0.057116  0.942884  0.572179  1
  Si  Si11  1  0.943601  0.056399  0.425172  1
  Pb  Pb12  1  0.717991  0.282009  0.250000  1
  Pb  Pb13  1  0.281084  0.718916  0.750000  1
