# generated using pymatgen
data_Ti12Al8Pd4CN3
_symmetry_space_group_name_H-M   'P 1'
_cell_length_a   8.21393338
_cell_length_b   8.21350876
_cell_length_c   8.21360045
_cell_angle_alpha   59.85803324
_cell_angle_beta   59.85897750
_cell_angle_gamma   59.85767380
_symmetry_Int_Tables_number   1
_chemical_formula_structural   Ti12Al8Pd4CN3
_chemical_formula_sum   'Ti12 Al8 Pd4 C1 N3'
_cell_volume   390.57012581
_cell_formula_units_Z   1
loop_
 _symmetry_equiv_pos_site_id
 _symmetry_equiv_pos_as_xyz
  1  'x, y, z'
loop_
 _atom_site_type_symbol
 _atom_site_label
 _atom_site_symmetry_multiplicity
 _atom_site_fract_x
 _atom_site_fract_y
 _atom_site_fract_z
 _atom_site_occupancy
  Ti  Ti0  1  0.819429  0.819413  0.180346  1
  Ti  Ti1  1  0.069645  0.430602  0.430561  1
  Ti  Ti2  1  0.433343  0.068564  0.068561  1
  Ti  Ti3  1  0.068544  0.068564  0.433352  1
  Ti  Ti4  1  0.068547  0.433358  0.068566  1
  Ti  Ti5  1  0.430589  0.069657  0.430568  1
  Ti  Ti6  1  0.181453  0.816642  0.181434  1
  Ti  Ti7  1  0.180355  0.819398  0.819439  1
  Ti  Ti8  1  0.816657  0.181436  0.181439  1
  Ti  Ti9  1  0.819411  0.180343  0.819432  1
  Ti  Ti10  1  0.430571  0.430587  0.069654  1
  Ti  Ti11  1  0.181456  0.181436  0.816648  1
  Al  Al12  1  0.414431  0.755866  0.414448  1
  Al  Al13  1  0.835574  0.835547  0.494126  1
  Al  Al14  1  0.494108  0.835561  0.835571  1
  Al  Al15  1  0.835031  0.835004  0.835014  1
  Al  Al16  1  0.755892  0.414439  0.414429  1
  Al  Al17  1  0.414969  0.414996  0.414986  1
  Al  Al18  1  0.414426  0.414453  0.755874  1
  Al  Al19  1  0.835569  0.494134  0.835552  1
  Pd  Pd20  1  0.625000  0.125000  0.625000  1
  Pd  Pd21  1  0.625000  0.625000  0.125000  1
  Pd  Pd22  1  0.125000  0.625000  0.625000  1
  Pd  Pd23  1  0.625000  0.625000  0.625000  1
  C  C24  1  0.125000  0.125000  0.125000  1
  N  N25  1  0.125000  0.625000  0.125000  1
  N  N26  1  0.125000  0.125000  0.625000  1
  N  N27  1  0.625000  0.125000  0.125000  1
