# generated using pymatgen
data_BaYb(IrO4)2
_symmetry_space_group_name_H-M   'P 1'
_cell_length_a   7.58111552
_cell_length_b   7.58046362
_cell_length_c   7.41022668
_cell_angle_alpha   117.61608057
_cell_angle_beta   62.38095406
_cell_angle_gamma   91.41071083
_symmetry_Int_Tables_number   1
_chemical_formula_structural   BaYb(IrO4)2
_chemical_formula_sum   'Ba2 Yb2 Ir4 O16'
_cell_volume   324.37218741
_cell_formula_units_Z   2
loop_
 _symmetry_equiv_pos_site_id
 _symmetry_equiv_pos_as_xyz
  1  'x, y, z'
loop_
 _atom_site_type_symbol
 _atom_site_label
 _atom_site_symmetry_multiplicity
 _atom_site_fract_x
 _atom_site_fract_y
 _atom_site_fract_z
 _atom_site_occupancy
  Ba  Ba0  1  0.704432  0.704394  0.249991  1
  Ba  Ba1  1  0.295634  0.295553  0.749985  1
  Yb  Yb2  1  0.274527  0.274552  0.249945  1
  Yb  Yb3  1  0.725400  0.725481  0.750071  1
  Ir  Ir4  1  0.816646  0.201340  0.199919  1
  Ir  Ir5  1  0.201391  0.816580  0.300036  1
  Ir  Ir6  1  0.798753  0.183262  0.699749  1
  Ir  Ir7  1  0.183507  0.798534  0.799980  1
  O  O8  1  0.126017  0.091491  0.032778  1
  O  O9  1  0.120723  0.729649  0.051279  1
  O  O10  1  0.452016  0.860804  0.130922  1
  O  O11  1  0.270030  0.538150  0.185614  1
  O  O12  1  0.538235  0.270151  0.314461  1
  O  O13  1  0.860773  0.451932  0.368951  1
  O  O14  1  0.729756  0.120730  0.448677  1
  O  O15  1  0.091386  0.126149  0.467406  1
  O  O16  1  0.908431  0.874033  0.532838  1
  O  O17  1  0.270328  0.879263  0.551385  1
  O  O18  1  0.139287  0.548057  0.631033  1
  O  O19  1  0.461752  0.729848  0.685515  1
  O  O20  1  0.729769  0.461798  0.814529  1
  O  O21  1  0.548010  0.139383  0.868981  1
  O  O22  1  0.879307  0.270295  0.948600  1
  O  O23  1  0.873885  0.908572  0.967352  1
