# generated using pymatgen
data_Th2Nb3Ni9P7
_symmetry_space_group_name_H-M   'P 1'
_cell_length_a   9.34859200
_cell_length_b   9.34859186
_cell_length_c   3.79435000
_cell_angle_alpha   90.00000000
_cell_angle_beta   90.00000000
_cell_angle_gamma   120.00000050
_symmetry_Int_Tables_number   1
_chemical_formula_structural   Th2Nb3Ni9P7
_chemical_formula_sum   'Th2 Nb3 Ni9 P7'
_cell_volume   287.18412180
_cell_formula_units_Z   1
loop_
 _symmetry_equiv_pos_site_id
 _symmetry_equiv_pos_as_xyz
  1  'x, y, z'
loop_
 _atom_site_type_symbol
 _atom_site_label
 _atom_site_symmetry_multiplicity
 _atom_site_fract_x
 _atom_site_fract_y
 _atom_site_fract_z
 _atom_site_occupancy
  Th  Th0  1  0.333333  0.666667  0.000000  1
  Th  Th1  1  0.000000  0.000000  0.500000  1
  Nb  Nb2  1  0.780439  0.226215  0.500000  1
  Nb  Nb3  1  0.773785  0.554224  0.500000  1
  Nb  Nb4  1  0.445776  0.219561  0.500000  1
  Ni  Ni5  1  0.033245  0.268959  0.000000  1
  Ni  Ni6  1  0.731041  0.764285  0.000000  1
  Ni  Ni7  1  0.235715  0.966755  0.000000  1
  Ni  Ni8  1  0.535768  0.049059  0.000000  1
  Ni  Ni9  1  0.950941  0.486709  0.000000  1
  Ni  Ni10  1  0.513291  0.464232  0.000000  1
  Ni  Ni11  1  0.605930  0.890654  0.500000  1
  Ni  Ni12  1  0.109346  0.715274  0.500000  1
  Ni  Ni13  1  0.284726  0.394070  0.500000  1
  P  P14  1  0.769923  0.026306  0.000000  1
  P  P15  1  0.973694  0.743618  0.000000  1
  P  P16  1  0.256382  0.230077  0.000000  1
  P  P17  1  0.374082  0.929777  0.500000  1
  P  P18  1  0.070223  0.444305  0.500000  1
  P  P19  1  0.555695  0.625918  0.500000  1
  P  P20  1  0.666667  0.333333  0.000000  1
