# generated using pymatgen
data_Th3Al3ZnIrRu
_symmetry_space_group_name_H-M   'P 1'
_cell_length_a   7.16649000
_cell_length_b   7.16648966
_cell_length_c   4.27000000
_cell_angle_alpha   90.00000000
_cell_angle_beta   90.00000000
_cell_angle_gamma   120.00000158
_symmetry_Int_Tables_number   1
_chemical_formula_structural   Th3Al3ZnIrRu
_chemical_formula_sum   'Th3 Al3 Zn1 Ir1 Ru1'
_cell_volume   189.92033926
_cell_formula_units_Z   1
loop_
 _symmetry_equiv_pos_site_id
 _symmetry_equiv_pos_as_xyz
  1  'x, y, z'
loop_
 _atom_site_type_symbol
 _atom_site_label
 _atom_site_symmetry_multiplicity
 _atom_site_fract_x
 _atom_site_fract_y
 _atom_site_fract_z
 _atom_site_occupancy
  Th  Th0  1  0.421549  0.011951  0.500000  1
  Th  Th1  1  0.988049  0.409597  0.500000  1
  Th  Th2  1  0.590403  0.578451  0.500000  1
  Al  Al3  1  0.774913  0.008655  0.000000  1
  Al  Al4  1  0.991345  0.766258  0.000000  1
  Al  Al5  1  0.233742  0.225087  0.000000  1
  Zn  Zn6  1  0.333333  0.666667  0.000000  1
  Ir  Ir7  1  0.000000  0.000000  0.500000  1
  Ru  Ru8  1  0.666667  0.333333  0.000000  1
