# generated using pymatgen
data_In3Mo(SO4)6
_symmetry_space_group_name_H-M   'P 1'
_cell_length_a   8.57282107
_cell_length_b   8.57282194
_cell_length_c   9.27514056
_cell_angle_alpha   117.52526688
_cell_angle_beta   62.47473362
_cell_angle_gamma   120.00000188
_symmetry_Int_Tables_number   1
_chemical_formula_structural   In3Mo(SO4)6
_chemical_formula_sum   'In3 Mo1 S6 O24'
_cell_volume   499.25602956
_cell_formula_units_Z   1
loop_
 _symmetry_equiv_pos_site_id
 _symmetry_equiv_pos_as_xyz
  1  'x, y, z'
loop_
 _atom_site_type_symbol
 _atom_site_label
 _atom_site_symmetry_multiplicity
 _atom_site_fract_x
 _atom_site_fract_y
 _atom_site_fract_z
 _atom_site_occupancy
  In  In0  1  0.855154  0.144847  0.434540  1
  In  In1  1  0.145318  0.854683  0.564046  1
  In  In2  1  0.347665  0.652336  0.957005  1
  Mo  Mo3  1  0.653234  0.346767  0.040299  1
  S  S4  1  0.250160  0.043168  0.249299  1
  S  S5  1  0.956831  0.456291  0.249299  1
  S  S6  1  0.543709  0.749839  0.249299  1
  S  S7  1  0.456298  0.249045  0.750844  1
  S  S8  1  0.041901  0.543702  0.750844  1
  S  S9  1  0.750955  0.958099  0.750844  1
  O  O10  1  0.145020  0.471462  0.118330  1
  O  O11  1  0.528537  0.791888  0.118330  1
  O  O12  1  0.208112  0.854979  0.118330  1
  O  O13  1  0.451916  0.164354  0.197903  1
  O  O14  1  0.835646  0.485465  0.197903  1
  O  O15  1  0.514535  0.548084  0.197903  1
  O  O16  1  0.130450  0.134472  0.268244  1
  O  O17  1  0.865527  0.264222  0.268244  1
  O  O18  1  0.735778  0.869550  0.268244  1
  O  O19  1  0.208200  0.023438  0.415453  1
  O  O20  1  0.976563  0.600216  0.415453  1
  O  O21  1  0.399784  0.791800  0.415453  1
  O  O22  1  0.598913  0.204698  0.584659  1
  O  O23  1  0.021127  0.401087  0.584659  1
  O  O24  1  0.795301  0.978872  0.584659  1
  O  O25  1  0.263888  0.129152  0.733410  1
  O  O26  1  0.131853  0.736112  0.733410  1
  O  O27  1  0.870850  0.868147  0.733410  1
  O  O28  1  0.487219  0.451281  0.799947  1
  O  O29  1  0.164115  0.512781  0.799947  1
  O  O30  1  0.548718  0.835883  0.799947  1
  O  O31  1  0.790094  0.145705  0.883282  1
  O  O32  1  0.472329  0.209906  0.883282  1
  O  O33  1  0.854295  0.527672  0.883282  1
