# generated using pymatgen
data_Er2Fe5P6Ir5
_symmetry_space_group_name_H-M   'P 1'
_cell_length_a   3.81878400
_cell_length_b   10.35481300
_cell_length_c   12.25661600
_cell_angle_alpha   90.00000000
_cell_angle_beta   90.00000000
_cell_angle_gamma   90.00000000
_symmetry_Int_Tables_number   1
_chemical_formula_structural   Er2Fe5P6Ir5
_chemical_formula_sum   'Er4 Fe10 P12 Ir10'
_cell_volume   484.66084417
_cell_formula_units_Z   2
loop_
 _symmetry_equiv_pos_site_id
 _symmetry_equiv_pos_as_xyz
  1  'x, y, z'
loop_
 _atom_site_type_symbol
 _atom_site_label
 _atom_site_symmetry_multiplicity
 _atom_site_fract_x
 _atom_site_fract_y
 _atom_site_fract_z
 _atom_site_occupancy
  Er  Er0  1  0.250000  0.584194  0.714874  1
  Er  Er1  1  0.250000  0.915806  0.214874  1
  Er  Er2  1  0.750000  0.424025  0.288367  1
  Er  Er3  1  0.750000  0.075975  0.788367  1
  Fe  Fe4  1  0.750000  0.774399  0.829250  1
  Fe  Fe5  1  0.750000  0.725601  0.329250  1
  Fe  Fe6  1  0.250000  0.873128  0.695867  1
  Fe  Fe7  1  0.250000  0.626872  0.195867  1
  Fe  Fe8  1  0.750000  0.120250  0.302741  1
  Fe  Fe9  1  0.750000  0.379750  0.802741  1
  Fe  Fe10  1  0.250000  0.457439  0.937219  1
  Fe  Fe11  1  0.250000  0.042561  0.437219  1
  Fe  Fe12  1  0.750000  0.542334  0.063286  1
  Fe  Fe13  1  0.750000  0.957666  0.563286  1
  P  P14  1  0.250000  0.440429  0.112782  1
  P  P15  1  0.250000  0.059571  0.612782  1
  P  P16  1  0.750000  0.570201  0.886847  1
  P  P17  1  0.750000  0.929799  0.386847  1
  P  P18  1  0.250000  0.271072  0.862080  1
  P  P19  1  0.250000  0.228928  0.362080  1
  P  P20  1  0.750000  0.727194  0.147808  1
  P  P21  1  0.750000  0.772806  0.647808  1
  P  P22  1  0.250000  0.608549  0.373873  1
  P  P23  1  0.250000  0.891451  0.873873  1
  P  P24  1  0.750000  0.405079  0.621595  1
  P  P25  1  0.750000  0.094921  0.121595  1
  Ir  Ir26  1  0.250000  0.708933  0.983072  1
  Ir  Ir27  1  0.250000  0.791067  0.483072  1
  Ir  Ir28  1  0.750000  0.283246  0.009523  1
  Ir  Ir29  1  0.750000  0.216754  0.509523  1
  Ir  Ir30  1  0.250000  0.413056  0.473702  1
  Ir  Ir31  1  0.250000  0.086944  0.973702  1
  Ir  Ir32  1  0.750000  0.598903  0.523767  1
  Ir  Ir33  1  0.750000  0.901097  0.023767  1
  Ir  Ir34  1  0.250000  0.229245  0.173346  1
  Ir  Ir35  1  0.250000  0.270755  0.673346  1
