# generated using pymatgen
data_Tb4HoCoBi2
_symmetry_space_group_name_H-M   'P 1'
_cell_length_a   8.05673632
_cell_length_b   8.88807453
_cell_length_c   12.48293411
_cell_angle_alpha   89.96194760
_cell_angle_beta   90.03070340
_cell_angle_gamma   89.99029969
_symmetry_Int_Tables_number   1
_chemical_formula_structural   Tb4HoCoBi2
_chemical_formula_sum   'Tb16 Ho4 Co4 Bi8'
_cell_volume   893.88850440
_cell_formula_units_Z   4
loop_
 _symmetry_equiv_pos_site_id
 _symmetry_equiv_pos_as_xyz
  1  'x, y, z'
loop_
 _atom_site_type_symbol
 _atom_site_label
 _atom_site_symmetry_multiplicity
 _atom_site_fract_x
 _atom_site_fract_y
 _atom_site_fract_z
 _atom_site_occupancy
  Tb  Tb0  1  0.848736  0.750276  0.801898  1
  Tb  Tb1  1  0.151431  0.249865  0.198515  1
  Tb  Tb2  1  0.349045  0.249879  0.697934  1
  Tb  Tb3  1  0.651031  0.750188  0.301933  1
  Tb  Tb4  1  0.380871  0.750236  0.689091  1
  Tb  Tb5  1  0.617816  0.249591  0.311335  1
  Tb  Tb6  1  0.881959  0.249830  0.810184  1
  Tb  Tb7  1  0.119141  0.750556  0.189884  1
  Tb  Tb8  1  0.953377  0.750632  0.502374  1
  Tb  Tb9  1  0.049049  0.249757  0.497581  1
  Tb  Tb10  1  0.451247  0.249472  0.997658  1
  Tb  Tb11  1  0.545802  0.750433  0.002283  1
  Tb  Tb12  1  0.823050  0.034758  0.062861  1
  Tb  Tb13  1  0.676823  0.465301  0.562730  1
  Tb  Tb14  1  0.823077  0.465551  0.062660  1
  Tb  Tb15  1  0.177064  0.535302  0.936897  1
  Ho  Ho16  1  0.674277  0.035085  0.562683  1
  Ho  Ho17  1  0.324759  0.964684  0.436943  1
  Ho  Ho18  1  0.174756  0.964265  0.936889  1
  Ho  Ho19  1  0.324743  0.535212  0.437177  1
  Co  Co20  1  0.561550  0.750323  0.508149  1
  Co  Co21  1  0.437056  0.249149  0.491710  1
  Co  Co22  1  0.064342  0.248661  0.991102  1
  Co  Co23  1  0.938935  0.750402  0.008412  1
  Bi  Bi24  1  0.571935  0.491899  0.825923  1
  Bi  Bi25  1  0.428262  0.508114  0.174486  1
  Bi  Bi26  1  0.071619  0.508309  0.673966  1
  Bi  Bi27  1  0.428300  0.991903  0.174521  1
  Bi  Bi28  1  0.929140  0.492035  0.326201  1
  Bi  Bi29  1  0.571007  0.008030  0.825732  1
  Bi  Bi30  1  0.929086  0.008242  0.326213  1
  Bi  Bi31  1  0.070713  0.992062  0.674075  1
