# generated using pymatgen
data_Tl2V2FeO7
_symmetry_space_group_name_H-M   'P 1'
_cell_length_a   8.73819900
_cell_length_b   8.73961979
_cell_length_c   5.63145700
_cell_angle_alpha   90.02029041
_cell_angle_beta   90.00025572
_cell_angle_gamma   89.98656038
_symmetry_Int_Tables_number   1
_chemical_formula_structural   Tl2V2FeO7
_chemical_formula_sum   'Tl4 V4 Fe2 O14'
_cell_volume   430.06609288
_cell_formula_units_Z   2
loop_
 _symmetry_equiv_pos_site_id
 _symmetry_equiv_pos_as_xyz
  1  'x, y, z'
loop_
 _atom_site_type_symbol
 _atom_site_label
 _atom_site_symmetry_multiplicity
 _atom_site_fract_x
 _atom_site_fract_y
 _atom_site_fract_z
 _atom_site_occupancy
  Tl  Tl0  1  0.334661  0.165363  0.484789  1
  Tl  Tl1  1  0.665386  0.834669  0.484819  1
  Tl  Tl2  1  0.834625  0.334602  0.515255  1
  Tl  Tl3  1  0.165419  0.665385  0.515221  1
  V  V4  1  0.140566  0.359396  0.044111  1
  V  V5  1  0.859404  0.640543  0.044016  1
  V  V6  1  0.640583  0.140552  0.955858  1
  V  V7  1  0.359437  0.859447  0.955896  1
  Fe  Fe8  1  0.000012  0.999926  0.000099  1
  Fe  Fe9  1  0.499948  0.500074  0.000070  1
  O  O10  1  0.999956  0.499979  0.144282  1
  O  O11  1  0.090294  0.182585  0.163242  1
  O  O12  1  0.317442  0.409792  0.163438  1
  O  O13  1  0.682573  0.590317  0.163302  1
  O  O14  1  0.909695  0.817408  0.163323  1
  O  O15  1  0.645172  0.145170  0.254382  1
  O  O16  1  0.354826  0.854927  0.254337  1
  O  O17  1  0.145155  0.354806  0.745673  1
  O  O18  1  0.854834  0.645087  0.745615  1
  O  O19  1  0.817381  0.090132  0.836546  1
  O  O20  1  0.590226  0.317377  0.836747  1
  O  O21  1  0.409780  0.682674  0.836633  1
  O  O22  1  0.182648  0.909794  0.836611  1
  O  O23  1  0.499975  0.999988  0.855741  1
