# generated using pymatgen
data_SmTmMn5(PRh)7
_symmetry_space_group_name_H-M   'P 1'
_cell_length_a   9.44451642
_cell_length_b   9.43307021
_cell_length_c   3.80381600
_cell_angle_alpha   90.00000000
_cell_angle_beta   90.00000000
_cell_angle_gamma   119.89626520
_symmetry_Int_Tables_number   1
_chemical_formula_structural   SmTmMn5(PRh)7
_chemical_formula_sum   'Sm1 Tm1 Mn5 P7 Rh7'
_cell_volume   293.78928051
_cell_formula_units_Z   1
loop_
 _symmetry_equiv_pos_site_id
 _symmetry_equiv_pos_as_xyz
  1  'x, y, z'
loop_
 _atom_site_type_symbol
 _atom_site_label
 _atom_site_symmetry_multiplicity
 _atom_site_fract_x
 _atom_site_fract_y
 _atom_site_fract_z
 _atom_site_occupancy
  Sm  Sm0  1  0.666112  0.333508  0.500000  1
  Tm  Tm1  1  0.000058  0.000329  0.000000  1
  Mn  Mn2  1  0.219753  0.397444  0.000000  1
  Mn  Mn3  1  0.602554  0.822748  0.000000  1
  Mn  Mn4  1  0.175677  0.777968  0.000000  1
  Mn  Mn5  1  0.434659  0.889781  0.500000  1
  Mn  Mn6  1  0.110068  0.545299  0.500000  1
  P  P7  1  0.440889  0.369076  0.000000  1
  P  P8  1  0.628857  0.070154  0.000000  1
  P  P9  1  0.927123  0.556899  0.000000  1
  P  P10  1  0.054706  0.268013  0.500000  1
  P  P11  1  0.730922  0.788418  0.500000  1
  P  P12  1  0.215304  0.943560  0.500000  1
  P  P13  1  0.335566  0.669257  0.000000  1
  Rh  Rh14  1  0.700181  0.606093  0.000000  1
  Rh  Rh15  1  0.394618  0.092987  0.000000  1
  Rh  Rh16  1  0.905301  0.300766  0.000000  1
  Rh  Rh17  1  0.274700  0.220602  0.500000  1
  Rh  Rh18  1  0.776678  0.053076  0.500000  1
  Rh  Rh19  1  0.945876  0.724338  0.500000  1
  Rh  Rh20  1  0.460398  0.569684  0.500000  1
