# generated using pymatgen
data_Tb2HoErSiBr6
_symmetry_space_group_name_H-M   'P 1'
_cell_length_a   4.05001100
_cell_length_b   13.22410641
_cell_length_c   13.99457843
_cell_angle_alpha   90.02855677
_cell_angle_beta   90.00000000
_cell_angle_gamma   90.00000000
_symmetry_Int_Tables_number   1
_chemical_formula_structural   Tb2HoErSiBr6
_chemical_formula_sum   'Tb4 Ho2 Er2 Si2 Br12'
_cell_volume   749.51840991
_cell_formula_units_Z   2
loop_
 _symmetry_equiv_pos_site_id
 _symmetry_equiv_pos_as_xyz
  1  'x, y, z'
loop_
 _atom_site_type_symbol
 _atom_site_label
 _atom_site_symmetry_multiplicity
 _atom_site_fract_x
 _atom_site_fract_y
 _atom_site_fract_z
 _atom_site_occupancy
  Tb  Tb0  1  0.000000  0.118830  0.579043  1
  Tb  Tb1  1  0.000000  0.881170  0.420957  1
  Tb  Tb2  1  0.000000  0.618797  0.920984  1
  Tb  Tb3  1  0.000000  0.381203  0.079016  1
  Ho  Ho4  1  0.500000  0.117732  0.341558  1
  Ho  Ho5  1  0.500000  0.882268  0.658442  1
  Er  Er6  1  0.500000  0.617601  0.158278  1
  Er  Er7  1  0.500000  0.382399  0.841722  1
  Si  Si8  1  0.500000  0.000000  0.500000  1
  Si  Si9  1  0.500000  0.500000  0.000000  1
  Br  Br10  1  0.500000  0.242211  0.164266  1
  Br  Br11  1  0.500000  0.757789  0.835734  1
  Br  Br12  1  0.500000  0.741988  0.335420  1
  Br  Br13  1  0.500000  0.258012  0.664580  1
  Br  Br14  1  0.000000  0.254996  0.409484  1
  Br  Br15  1  0.000000  0.745004  0.590516  1
  Br  Br16  1  0.000000  0.754586  0.090868  1
  Br  Br17  1  0.000000  0.245414  0.909132  1
  Br  Br18  1  0.000000  0.003679  0.242608  1
  Br  Br19  1  0.000000  0.996321  0.757392  1
  Br  Br20  1  0.000000  0.504204  0.257146  1
  Br  Br21  1  0.000000  0.495796  0.742854  1
