# generated using pymatgen
data_Nd4Sn25Pt12
_symmetry_space_group_name_H-M   'P 1'
_cell_length_a   10.79386229
_cell_length_b   10.79386278
_cell_length_c   10.79386300
_cell_angle_alpha   109.47121916
_cell_angle_beta   109.47122008
_cell_angle_gamma   109.47122292
_symmetry_Int_Tables_number   1
_chemical_formula_structural   Nd4Sn25Pt12
_chemical_formula_sum   'Nd4 Sn25 Pt12'
_cell_volume   968.07448850
_cell_formula_units_Z   1
loop_
 _symmetry_equiv_pos_site_id
 _symmetry_equiv_pos_as_xyz
  1  'x, y, z'
loop_
 _atom_site_type_symbol
 _atom_site_label
 _atom_site_symmetry_multiplicity
 _atom_site_fract_x
 _atom_site_fract_y
 _atom_site_fract_z
 _atom_site_occupancy
  Nd  Nd0  1  0.000000  0.500000  0.000000  1
  Nd  Nd1  1  0.000000  0.000000  0.500000  1
  Nd  Nd2  1  0.500000  0.500000  0.500000  1
  Nd  Nd3  1  0.500000  0.000000  0.000000  1
  Sn  Sn4  1  0.750610  0.627670  0.877060  1
  Sn  Sn5  1  0.620727  0.373110  0.993836  1
  Sn  Sn6  1  0.122940  0.750610  0.873549  1
  Sn  Sn7  1  0.122940  0.249390  0.372330  1
  Sn  Sn8  1  0.379273  0.373110  0.752383  1
  Sn  Sn9  1  0.000000  0.000000  0.000000  1
  Sn  Sn10  1  0.126451  0.877060  0.249390  1
  Sn  Sn11  1  0.627670  0.877060  0.750610  1
  Sn  Sn12  1  0.372330  0.122940  0.249390  1
  Sn  Sn13  1  0.873549  0.122940  0.750610  1
  Sn  Sn14  1  0.373110  0.752383  0.379273  1
  Sn  Sn15  1  0.249390  0.126451  0.877060  1
  Sn  Sn16  1  0.006164  0.379273  0.626890  1
  Sn  Sn17  1  0.993836  0.620727  0.373110  1
  Sn  Sn18  1  0.249390  0.372330  0.122940  1
  Sn  Sn19  1  0.626890  0.247617  0.620727  1
  Sn  Sn20  1  0.877060  0.249390  0.126451  1
  Sn  Sn21  1  0.247617  0.620727  0.626890  1
  Sn  Sn22  1  0.750610  0.873549  0.122940  1
  Sn  Sn23  1  0.752383  0.379273  0.373110  1
  Sn  Sn24  1  0.626890  0.006164  0.379273  1
  Sn  Sn25  1  0.373110  0.993836  0.620727  1
  Sn  Sn26  1  0.877060  0.750610  0.627670  1
  Sn  Sn27  1  0.379273  0.626890  0.006164  1
  Sn  Sn28  1  0.620727  0.626890  0.247617  1
  Pt  Pt29  1  0.487104  0.319558  0.167547  1
  Pt  Pt30  1  0.152011  0.319558  0.832453  1
  Pt  Pt31  1  0.167547  0.847989  0.680442  1
  Pt  Pt32  1  0.319558  0.167547  0.487104  1
  Pt  Pt33  1  0.847989  0.680442  0.167547  1
  Pt  Pt34  1  0.832453  0.512896  0.680442  1
  Pt  Pt35  1  0.319558  0.832453  0.152011  1
  Pt  Pt36  1  0.680442  0.167547  0.847989  1
  Pt  Pt37  1  0.680442  0.832453  0.512896  1
  Pt  Pt38  1  0.832453  0.152011  0.319558  1
  Pt  Pt39  1  0.167547  0.487104  0.319558  1
  Pt  Pt40  1  0.512896  0.680442  0.832453  1
