# generated using pymatgen
data_Tb4Er6Sn5Bi3
_symmetry_space_group_name_H-M   'P 1'
_cell_length_a   8.14846000
_cell_length_b   8.15781711
_cell_length_c   15.45093025
_cell_angle_alpha   90.20423074
_cell_angle_beta   90.00000000
_cell_angle_gamma   90.00000000
_symmetry_Int_Tables_number   1
_chemical_formula_structural   Tb4Er6Sn5Bi3
_chemical_formula_sum   'Tb8 Er12 Sn10 Bi6'
_cell_volume   1027.07314925
_cell_formula_units_Z   2
loop_
 _symmetry_equiv_pos_site_id
 _symmetry_equiv_pos_as_xyz
  1  'x, y, z'
loop_
 _atom_site_type_symbol
 _atom_site_label
 _atom_site_symmetry_multiplicity
 _atom_site_fract_x
 _atom_site_fract_y
 _atom_site_fract_z
 _atom_site_occupancy
  Tb  Tb0  1  0.542979  0.330046  0.895474  1
  Tb  Tb1  1  0.042979  0.169954  0.604526  1
  Tb  Tb2  1  0.461282  0.679955  0.394353  1
  Tb  Tb3  1  0.961282  0.820045  0.105647  1
  Tb  Tb4  1  0.469801  0.670255  0.104399  1
  Tb  Tb5  1  0.969801  0.829745  0.395601  1
  Tb  Tb6  1  0.533676  0.321446  0.604024  1
  Tb  Tb7  1  0.033676  0.178554  0.895976  1
  Er  Er8  1  0.372340  0.840650  0.874249  1
  Er  Er9  1  0.872340  0.659350  0.625751  1
  Er  Er10  1  0.622167  0.159769  0.374400  1
  Er  Er11  1  0.122167  0.340231  0.125600  1
  Er  Er12  1  0.629512  0.164788  0.124896  1
  Er  Er13  1  0.129512  0.335212  0.375104  1
  Er  Er14  1  0.369618  0.843560  0.624662  1
  Er  Er15  1  0.869618  0.656440  0.875338  1
  Er  Er16  1  0.203956  0.500475  0.749930  1
  Er  Er17  1  0.703956  0.999525  0.750070  1
  Er  Er18  1  0.796367  0.499313  0.247050  1
  Er  Er19  1  0.296367  0.000687  0.252950  1
  Sn  Sn20  1  0.284818  0.032391  0.457377  1
  Sn  Sn21  1  0.784818  0.467609  0.042623  1
  Sn  Sn22  1  0.567037  0.625385  0.748744  1
  Sn  Sn23  1  0.067037  0.874615  0.751256  1
  Sn  Sn24  1  0.430136  0.376280  0.249501  1
  Sn  Sn25  1  0.930136  0.123720  0.250499  1
  Sn  Sn26  1  0.343503  0.148539  0.751483  1
  Sn  Sn27  1  0.843503  0.351461  0.748517  1
  Sn  Sn28  1  0.658584  0.854012  0.249636  1
  Sn  Sn29  1  0.158584  0.645988  0.250364  1
  Bi  Bi30  1  0.281554  0.030121  0.043668  1
  Bi  Bi31  1  0.781554  0.469879  0.456332  1
  Bi  Bi32  1  0.716045  0.967726  0.542308  1
  Bi  Bi33  1  0.216045  0.532274  0.957692  1
  Bi  Bi34  1  0.716624  0.968169  0.957173  1
  Bi  Bi35  1  0.216624  0.531831  0.542827  1
