# generated using pymatgen
data_Lu2TlF7
_symmetry_space_group_name_H-M   'P 1'
_cell_length_a   6.56599700
_cell_length_b   6.56599707
_cell_length_c   4.28097200
_cell_angle_alpha   90.00000000
_cell_angle_beta   90.00000000
_cell_angle_gamma   116.83067604
_symmetry_Int_Tables_number   1
_chemical_formula_structural   Lu2TlF7
_chemical_formula_sum   'Lu2 Tl1 F7'
_cell_volume   164.69340225
_cell_formula_units_Z   1
loop_
 _symmetry_equiv_pos_site_id
 _symmetry_equiv_pos_as_xyz
  1  'x, y, z'
loop_
 _atom_site_type_symbol
 _atom_site_label
 _atom_site_symmetry_multiplicity
 _atom_site_fract_x
 _atom_site_fract_y
 _atom_site_fract_z
 _atom_site_occupancy
  Lu  Lu0  1  0.307796  0.692204  0.500000  1
  Lu  Lu1  1  0.692204  0.307796  0.500000  1
  Tl  Tl2  1  0.000000  0.000000  0.000000  1
  F  F3  1  0.500000  0.500000  0.500000  1
  F  F4  1  0.335869  0.042667  0.500000  1
  F  F5  1  0.664131  0.957333  0.500000  1
  F  F6  1  0.298835  0.701165  0.000000  1
  F  F7  1  0.701165  0.298835  0.000000  1
  F  F8  1  0.957333  0.664131  0.500000  1
  F  F9  1  0.042667  0.335869  0.500000  1
