# generated using pymatgen
data_Al4Pd19Pt
_symmetry_space_group_name_H-M   'P 1'
_cell_length_a   10.96838680
_cell_length_b   4.02685600
_cell_length_c   8.22321540
_cell_angle_alpha   90.00000000
_cell_angle_beta   90.15346858
_cell_angle_gamma   90.00000000
_symmetry_Int_Tables_number   1
_chemical_formula_structural   Al4Pd19Pt
_chemical_formula_sum   'Al4 Pd19 Pt1'
_cell_volume   363.20261403
_cell_formula_units_Z   1
loop_
 _symmetry_equiv_pos_site_id
 _symmetry_equiv_pos_as_xyz
  1  'x, y, z'
loop_
 _atom_site_type_symbol
 _atom_site_label
 _atom_site_symmetry_multiplicity
 _atom_site_fract_x
 _atom_site_fract_y
 _atom_site_fract_z
 _atom_site_occupancy
  Al  Al0  1  0.078737  0.749999  0.113681  1
  Al  Al1  1  0.579543  0.749999  0.385973  1
  Al  Al2  1  0.419999  0.250000  0.614464  1
  Al  Al3  1  0.920411  0.250000  0.886592  1
  Pd  Pd4  1  0.569806  0.749999  0.071952  1
  Pd  Pd5  1  0.315702  0.749999  0.114495  1
  Pd  Pd6  1  0.703463  0.250000  0.215186  1
  Pd  Pd7  1  0.957289  0.250000  0.218982  1
  Pd  Pd8  1  0.457268  0.250000  0.282972  1
  Pd  Pd9  1  0.203823  0.250000  0.284838  1
  Pd  Pd10  1  0.815569  0.749999  0.385136  1
  Pd  Pd11  1  0.069982  0.749999  0.428116  1
  Pd  Pd12  1  0.336127  0.749999  0.455696  1
  Pd  Pd13  1  0.663741  0.250000  0.544313  1
  Pd  Pd14  1  0.930290  0.250000  0.572060  1
  Pd  Pd15  1  0.184274  0.250000  0.614395  1
  Pd  Pd16  1  0.796310  0.749999  0.714139  1
  Pd  Pd17  1  0.542482  0.749999  0.716872  1
  Pd  Pd18  1  0.043417  0.749999  0.781867  1
  Pd  Pd19  1  0.296589  0.749999  0.784898  1
  Pd  Pd20  1  0.684026  0.250000  0.885709  1
  Pd  Pd21  1  0.430264  0.250000  0.928241  1
  Pd  Pd22  1  0.164135  0.250000  0.955637  1
  Pt  Pt23  1  0.836759  0.749999  0.043790  1
