# generated using pymatgen
data_Er16Sc4(Ir3Os)3
_symmetry_space_group_name_H-M   'P 1'
_cell_length_a   10.66227600
_cell_length_b   10.66227600
_cell_length_c   6.27703000
_cell_angle_alpha   90.00000000
_cell_angle_beta   90.00000000
_cell_angle_gamma   90.00000000
_symmetry_Int_Tables_number   1
_chemical_formula_structural   Er16Sc4(Ir3Os)3
_chemical_formula_sum   'Er16 Sc4 Ir9 Os3'
_cell_volume   713.59869140
_cell_formula_units_Z   1
loop_
 _symmetry_equiv_pos_site_id
 _symmetry_equiv_pos_as_xyz
  1  'x, y, z'
loop_
 _atom_site_type_symbol
 _atom_site_label
 _atom_site_symmetry_multiplicity
 _atom_site_fract_x
 _atom_site_fract_y
 _atom_site_fract_z
 _atom_site_occupancy
  Er  Er0  1  0.290320  0.085308  0.375796  1
  Er  Er1  1  0.290319  0.914845  0.875817  1
  Er  Er2  1  0.709681  0.085155  0.875817  1
  Er  Er3  1  0.709680  0.914692  0.375796  1
  Er  Er4  1  0.585155  0.790319  0.875817  1
  Er  Er5  1  0.585308  0.209680  0.375796  1
  Er  Er6  1  0.414692  0.790320  0.375796  1
  Er  Er7  1  0.414845  0.209681  0.875817  1
  Er  Er8  1  0.210970  0.414386  0.625473  1
  Er  Er9  1  0.210730  0.585657  0.122392  1
  Er  Er10  1  0.789270  0.414343  0.122392  1
  Er  Er11  1  0.789030  0.585614  0.625473  1
  Er  Er12  1  0.914343  0.710730  0.122392  1
  Er  Er13  1  0.914386  0.289030  0.625473  1
  Er  Er14  1  0.085614  0.710970  0.625473  1
  Er  Er15  1  0.085657  0.289270  0.122392  1
  Sc  Sc16  1  0.000000  0.000000  0.499842  1
  Sc  Sc17  1  0.000000  0.000000  0.999955  1
  Sc  Sc18  1  0.500000  0.500000  0.999955  1
  Sc  Sc19  1  0.500000  0.500000  0.499842  1
  Ir  Ir20  1  0.852826  0.148079  0.250220  1
  Ir  Ir21  1  0.852682  0.852068  0.749944  1
  Ir  Ir22  1  0.147318  0.147932  0.749944  1
  Ir  Ir23  1  0.147174  0.851921  0.250220  1
  Ir  Ir24  1  0.647932  0.352682  0.749944  1
  Ir  Ir25  1  0.648079  0.647174  0.250220  1
  Ir  Ir26  1  0.351921  0.352826  0.250220  1
  Ir  Ir27  1  0.352068  0.647318  0.749944  1
  Ir  Ir28  1  0.000000  0.500000  0.377612  1
  Os  Os29  1  0.500000  0.000000  0.123953  1
  Os  Os30  1  0.500000  0.000000  0.623657  1
  Os  Os31  1  0.000000  0.500000  0.876614  1
