# generated using pymatgen
data_TbDy5Al24(RuRh3)2
_symmetry_space_group_name_H-M   'P 1'
_cell_length_a   8.84055009
_cell_length_b   8.84054952
_cell_length_c   9.50835600
_cell_angle_alpha   90.00000000
_cell_angle_beta   90.00000000
_cell_angle_gamma   119.98399703
_symmetry_Int_Tables_number   1
_chemical_formula_structural   TbDy5Al24(RuRh3)2
_chemical_formula_sum   'Tb1 Dy5 Al24 Ru2 Rh6'
_cell_volume   643.67201255
_cell_formula_units_Z   1
loop_
 _symmetry_equiv_pos_site_id
 _symmetry_equiv_pos_as_xyz
  1  'x, y, z'
loop_
 _atom_site_type_symbol
 _atom_site_label
 _atom_site_symmetry_multiplicity
 _atom_site_fract_x
 _atom_site_fract_y
 _atom_site_fract_z
 _atom_site_occupancy
  Tb  Tb0  1  0.191710  0.808290  0.250000  1
  Dy  Dy1  1  0.191765  0.383509  0.250000  1
  Dy  Dy2  1  0.616491  0.808235  0.250000  1
  Dy  Dy3  1  0.808127  0.191873  0.750000  1
  Dy  Dy4  1  0.808173  0.616314  0.750000  1
  Dy  Dy5  1  0.383686  0.191827  0.750000  1
  Al  Al6  1  0.561796  0.438204  0.250000  1
  Al  Al7  1  0.561942  0.123721  0.250000  1
  Al  Al8  1  0.876279  0.438058  0.250000  1
  Al  Al9  1  0.438212  0.561788  0.750000  1
  Al  Al10  1  0.438184  0.876445  0.750000  1
  Al  Al11  1  0.123555  0.561816  0.750000  1
  Al  Al12  1  0.325880  0.163007  0.424021  1
  Al  Al13  1  0.837072  0.162928  0.423967  1
  Al  Al14  1  0.836993  0.674120  0.424021  1
  Al  Al15  1  0.674171  0.837080  0.575985  1
  Al  Al16  1  0.162910  0.837090  0.576105  1
  Al  Al17  1  0.162920  0.325829  0.575985  1
  Al  Al18  1  0.674171  0.837080  0.924015  1
  Al  Al19  1  0.162910  0.837090  0.923895  1
  Al  Al20  1  0.162920  0.325829  0.924015  1
  Al  Al21  1  0.325880  0.163007  0.075979  1
  Al  Al22  1  0.837072  0.162928  0.076033  1
  Al  Al23  1  0.836993  0.674120  0.075979  1
  Al  Al24  1  0.666672  0.333328  0.528672  1
  Al  Al25  1  0.333399  0.666601  0.471417  1
  Al  Al26  1  0.333399  0.666601  0.028583  1
  Al  Al27  1  0.666672  0.333328  0.971328  1
  Al  Al28  1  0.999946  0.000054  0.250000  1
  Al  Al29  1  0.000010  0.999990  0.750000  1
  Ru  Ru30  1  0.999993  0.000007  0.500195  1
  Ru  Ru31  1  0.999993  0.000007  0.999805  1
  Rh  Rh32  1  0.500026  0.499974  0.500095  1
  Rh  Rh33  1  0.500062  0.000035  0.500106  1
  Rh  Rh34  1  0.999965  0.499938  0.500106  1
  Rh  Rh35  1  0.500026  0.499974  0.999905  1
  Rh  Rh36  1  0.500062  0.000035  0.999894  1
  Rh  Rh37  1  0.999965  0.499938  0.999894  1
