# generated using pymatgen
data_Hf18Re7B2W
_symmetry_space_group_name_H-M   'P 1'
_cell_length_a   8.48322900
_cell_length_b   8.48322941
_cell_length_c   8.53131900
_cell_angle_alpha   90.00000000
_cell_angle_beta   90.00000000
_cell_angle_gamma   120.00000232
_symmetry_Int_Tables_number   1
_chemical_formula_structural   Hf18Re7B2W
_chemical_formula_sum   'Hf18 Re7 B2 W1'
_cell_volume   531.70311538
_cell_formula_units_Z   1
loop_
 _symmetry_equiv_pos_site_id
 _symmetry_equiv_pos_as_xyz
  1  'x, y, z'
loop_
 _atom_site_type_symbol
 _atom_site_label
 _atom_site_symmetry_multiplicity
 _atom_site_fract_x
 _atom_site_fract_y
 _atom_site_fract_z
 _atom_site_occupancy
  Hf  Hf0  1  0.202026  0.797974  0.444410  1
  Hf  Hf1  1  0.202026  0.404051  0.444410  1
  Hf  Hf2  1  0.595949  0.797974  0.444410  1
  Hf  Hf3  1  0.797974  0.202026  0.555590  1
  Hf  Hf4  1  0.797974  0.595949  0.555590  1
  Hf  Hf5  1  0.404051  0.202026  0.555590  1
  Hf  Hf6  1  0.799249  0.200751  0.944009  1
  Hf  Hf7  1  0.799249  0.598498  0.944009  1
  Hf  Hf8  1  0.401502  0.200751  0.944009  1
  Hf  Hf9  1  0.200751  0.799249  0.055991  1
  Hf  Hf10  1  0.200751  0.401502  0.055991  1
  Hf  Hf11  1  0.598498  0.799249  0.055991  1
  Hf  Hf12  1  0.540128  0.459872  0.249277  1
  Hf  Hf13  1  0.540128  0.080256  0.249277  1
  Hf  Hf14  1  0.919744  0.459872  0.249277  1
  Hf  Hf15  1  0.459872  0.540128  0.750723  1
  Hf  Hf16  1  0.459872  0.919744  0.750723  1
  Hf  Hf17  1  0.080256  0.540128  0.750723  1
  Re  Re18  1  0.888782  0.111218  0.250778  1
  Re  Re19  1  0.888782  0.777564  0.250778  1
  Re  Re20  1  0.222436  0.111218  0.250778  1
  Re  Re21  1  0.111218  0.888782  0.749222  1
  Re  Re22  1  0.111218  0.222436  0.749222  1
  Re  Re23  1  0.777564  0.888782  0.749222  1
  Re  Re24  1  0.000000  0.000000  0.000000  1
  B  B25  1  0.333333  0.666667  0.249460  1
  B  B26  1  0.666667  0.333333  0.750540  1
  W  W27  1  0.000000  0.000000  0.500000  1
