# generated using pymatgen
data_Tm3ScIn2(B2Ir5)2
_symmetry_space_group_name_H-M   'P 1'
_cell_length_a   3.17981300
_cell_length_b   9.67443532
_cell_length_c   9.67443460
_cell_angle_alpha   89.38320465
_cell_angle_beta   90.00000000
_cell_angle_gamma   90.00000000
_symmetry_Int_Tables_number   1
_chemical_formula_structural   Tm3ScIn2(B2Ir5)2
_chemical_formula_sum   'Tm3 Sc1 In2 B4 Ir10'
_cell_volume   297.59637293
_cell_formula_units_Z   1
loop_
 _symmetry_equiv_pos_site_id
 _symmetry_equiv_pos_as_xyz
  1  'x, y, z'
loop_
 _atom_site_type_symbol
 _atom_site_label
 _atom_site_symmetry_multiplicity
 _atom_site_fract_x
 _atom_site_fract_y
 _atom_site_fract_z
 _atom_site_occupancy
  Tm  Tm0  1  0.000000  0.176524  0.678166  1
  Tm  Tm1  1  0.000000  0.821834  0.323476  1
  Tm  Tm2  1  0.000000  0.323950  0.176050  1
  Sc  Sc3  1  0.000000  0.676913  0.823087  1
  In  In4  1  0.000000  0.002044  0.000446  1
  In  In5  1  0.000000  0.499554  0.497956  1
  B  B6  1  0.000000  0.622879  0.117715  1
  B  B7  1  0.000000  0.382285  0.877121  1
  B  B8  1  0.000000  0.875685  0.624315  1
  B  B9  1  0.000000  0.119894  0.380106  1
  Ir  Ir10  1  0.500000  0.069598  0.227309  1
  Ir  Ir11  1  0.500000  0.923774  0.777293  1
  Ir  Ir12  1  0.500000  0.774397  0.064893  1
  Ir  Ir13  1  0.500000  0.435107  0.725603  1
  Ir  Ir14  1  0.500000  0.228814  0.930615  1
  Ir  Ir15  1  0.500000  0.569385  0.271186  1
  Ir  Ir16  1  0.500000  0.722707  0.576226  1
  Ir  Ir17  1  0.500000  0.272691  0.430402  1
  Ir  Ir18  1  0.500000  0.997886  0.502114  1
  Ir  Ir19  1  0.500000  0.504077  0.995923  1
