# generated using pymatgen
data_TbHo4(In2Ni)2
_symmetry_space_group_name_H-M   'P 1'
_cell_length_a   8.03574300
_cell_length_b   17.94021900
_cell_length_c   3.55073000
_cell_angle_alpha   90.00000000
_cell_angle_beta   90.00000000
_cell_angle_gamma   90.00000000
_symmetry_Int_Tables_number   1
_chemical_formula_structural   TbHo4(In2Ni)2
_chemical_formula_sum   'Tb2 Ho8 In8 Ni4'
_cell_volume   511.88385081
_cell_formula_units_Z   2
loop_
 _symmetry_equiv_pos_site_id
 _symmetry_equiv_pos_as_xyz
  1  'x, y, z'
loop_
 _atom_site_type_symbol
 _atom_site_label
 _atom_site_symmetry_multiplicity
 _atom_site_fract_x
 _atom_site_fract_y
 _atom_site_fract_z
 _atom_site_occupancy
  Tb  Tb0  1  0.500000  0.500000  0.000000  1
  Tb  Tb1  1  0.000000  0.000000  0.000000  1
  Ho  Ho2  1  0.746138  0.279601  0.000000  1
  Ho  Ho3  1  0.253862  0.720399  0.000000  1
  Ho  Ho4  1  0.753862  0.779601  0.000000  1
  Ho  Ho5  1  0.246138  0.220399  0.000000  1
  Ho  Ho6  1  0.619135  0.088414  0.000000  1
  Ho  Ho7  1  0.380865  0.911586  0.000000  1
  Ho  Ho8  1  0.880865  0.588414  0.000000  1
  Ho  Ho9  1  0.119135  0.411586  0.000000  1
  In  In10  1  0.702253  0.931764  0.500000  1
  In  In11  1  0.297747  0.068236  0.500000  1
  In  In12  1  0.797747  0.431764  0.500000  1
  In  In13  1  0.202253  0.568236  0.500000  1
  In  In14  1  0.572526  0.653105  0.500000  1
  In  In15  1  0.427474  0.346895  0.500000  1
  In  In16  1  0.927474  0.153105  0.500000  1
  In  In17  1  0.072526  0.846895  0.500000  1
  Ni  Ni18  1  0.525863  0.196434  0.500000  1
  Ni  Ni19  1  0.474137  0.803566  0.500000  1
  Ni  Ni20  1  0.974137  0.696434  0.500000  1
  Ni  Ni21  1  0.025863  0.303566  0.500000  1
