# generated using pymatgen
data_Sm6Gd4C4Cl17
_symmetry_space_group_name_H-M   'P 1'
_cell_length_a   8.87433516
_cell_length_b   9.49806176
_cell_length_c   11.96723200
_cell_angle_alpha   104.63249638
_cell_angle_beta   96.21342734
_cell_angle_gamma   110.84057059
_symmetry_Int_Tables_number   1
_chemical_formula_structural   Sm6Gd4C4Cl17
_chemical_formula_sum   'Sm6 Gd4 C4 Cl17'
_cell_volume   889.97577550
_cell_formula_units_Z   1
loop_
 _symmetry_equiv_pos_site_id
 _symmetry_equiv_pos_as_xyz
  1  'x, y, z'
loop_
 _atom_site_type_symbol
 _atom_site_label
 _atom_site_symmetry_multiplicity
 _atom_site_fract_x
 _atom_site_fract_y
 _atom_site_fract_z
 _atom_site_occupancy
  Sm  Sm0  1  0.650075  0.487589  0.439525  1
  Sm  Sm1  1  0.349925  0.512436  0.560468  1
  Sm  Sm2  1  0.085616  0.426779  0.273129  1
  Sm  Sm3  1  0.914401  0.573247  0.726864  1
  Sm  Sm4  1  0.411751  0.371946  0.140808  1
  Sm  Sm5  1  0.588251  0.628073  0.859169  1
  Gd  Gd6  1  0.490182  0.778220  0.343125  1
  Gd  Gd7  1  0.509834  0.221762  0.656884  1
  Gd  Gd8  1  0.215539  0.105889  0.311073  1
  Gd  Gd9  1  0.784463  0.894118  0.688947  1
  C  C10  1  0.398239  0.529218  0.344709  1
  C  C11  1  0.601765  0.470802  0.655274  1
  C  C12  1  0.329521  0.366186  0.338845  1
  C  C13  1  0.670464  0.633838  0.661117  1
  Cl  Cl14  1  0.109342  0.351752  0.046899  1
  Cl  Cl15  1  0.890587  0.648129  0.953075  1
  Cl  Cl16  1  0.802912  0.818294  0.447520  1
  Cl  Cl17  1  0.197132  0.181746  0.552476  1
  Cl  Cl18  1  0.999997  0.499971  0.499989  1
  Cl  Cl19  1  0.297668  0.050258  0.100820  1
  Cl  Cl20  1  0.702300  0.949776  0.899205  1
  Cl  Cl21  1  0.917378  0.109728  0.251076  1
  Cl  Cl22  1  0.082664  0.890290  0.748938  1
  Cl  Cl23  1  0.538525  0.132219  0.414000  1
  Cl  Cl24  1  0.461492  0.867796  0.586037  1
  Cl  Cl25  1  0.737857  0.415167  0.218006  1
  Cl  Cl26  1  0.262102  0.584789  0.782000  1
  Cl  Cl27  1  0.172890  0.756599  0.288414  1
  Cl  Cl28  1  0.827155  0.243416  0.711630  1
  Cl  Cl29  1  0.534132  0.682148  0.114879  1
  Cl  Cl30  1  0.465846  0.317825  0.885101  1
