# generated using pymatgen
data_PrLu4(In2Pd)2
_symmetry_space_group_name_H-M   'P 1'
_cell_length_a   3.60571500
_cell_length_b   8.11439100
_cell_length_c   18.20665700
_cell_angle_alpha   90.00000000
_cell_angle_beta   90.00000000
_cell_angle_gamma   90.00000000
_symmetry_Int_Tables_number   1
_chemical_formula_structural   PrLu4(In2Pd)2
_chemical_formula_sum   'Pr2 Lu8 In8 Pd4'
_cell_volume   532.69367218
_cell_formula_units_Z   2
loop_
 _symmetry_equiv_pos_site_id
 _symmetry_equiv_pos_as_xyz
  1  'x, y, z'
loop_
 _atom_site_type_symbol
 _atom_site_label
 _atom_site_symmetry_multiplicity
 _atom_site_fract_x
 _atom_site_fract_y
 _atom_site_fract_z
 _atom_site_occupancy
  Pr  Pr0  1  0.000000  0.500000  0.500000  1
  Pr  Pr1  1  0.000000  0.000000  0.000000  1
  Lu  Lu2  1  0.000000  0.740857  0.281276  1
  Lu  Lu3  1  0.000000  0.259143  0.718724  1
  Lu  Lu4  1  0.000000  0.759143  0.781276  1
  Lu  Lu5  1  0.000000  0.240857  0.218724  1
  Lu  Lu6  1  0.000000  0.621737  0.086119  1
  Lu  Lu7  1  0.000000  0.378263  0.913881  1
  Lu  Lu8  1  0.000000  0.878263  0.586119  1
  Lu  Lu9  1  0.000000  0.121737  0.413881  1
  In  In10  1  0.500000  0.695899  0.932351  1
  In  In11  1  0.500000  0.304101  0.067649  1
  In  In12  1  0.500000  0.804101  0.432351  1
  In  In13  1  0.500000  0.195899  0.567649  1
  In  In14  1  0.500000  0.581279  0.653753  1
  In  In15  1  0.500000  0.418721  0.346247  1
  In  In16  1  0.500000  0.918721  0.153753  1
  In  In17  1  0.500000  0.081279  0.846247  1
  Pd  Pd18  1  0.500000  0.524648  0.195725  1
  Pd  Pd19  1  0.500000  0.475352  0.804275  1
  Pd  Pd20  1  0.500000  0.975352  0.695725  1
  Pd  Pd21  1  0.500000  0.024648  0.304275  1
