# generated using pymatgen
data_Er16Ga6FePt
_symmetry_space_group_name_H-M   'P 1'
_cell_length_a   9.99237300
_cell_length_b   9.99237150
_cell_length_c   6.85728100
_cell_angle_alpha   90.00000000
_cell_angle_beta   90.00000000
_cell_angle_gamma   119.99999502
_symmetry_Int_Tables_number   1
_chemical_formula_structural   Er16Ga6FePt
_chemical_formula_sum   'Er16 Ga6 Fe1 Pt1'
_cell_volume   592.95237015
_cell_formula_units_Z   1
loop_
 _symmetry_equiv_pos_site_id
 _symmetry_equiv_pos_as_xyz
  1  'x, y, z'
loop_
 _atom_site_type_symbol
 _atom_site_label
 _atom_site_symmetry_multiplicity
 _atom_site_fract_x
 _atom_site_fract_y
 _atom_site_fract_z
 _atom_site_occupancy
  Er  Er0  1  0.530326  0.060652  0.800022  1
  Er  Er1  1  0.939348  0.469674  0.800022  1
  Er  Er2  1  0.530326  0.469674  0.800022  1
  Er  Er3  1  0.463149  0.926299  0.297418  1
  Er  Er4  1  0.073701  0.536851  0.297418  1
  Er  Er5  1  0.463149  0.536851  0.297418  1
  Er  Er6  1  0.829656  0.659312  0.495535  1
  Er  Er7  1  0.340688  0.170344  0.495535  1
  Er  Er8  1  0.829656  0.170344  0.495535  1
  Er  Er9  1  0.173112  0.346225  0.999107  1
  Er  Er10  1  0.653775  0.826888  0.999107  1
  Er  Er11  1  0.173112  0.826888  0.999107  1
  Er  Er12  1  0.666667  0.333333  0.162415  1
  Er  Er13  1  0.333333  0.666667  0.673779  1
  Er  Er14  1  0.000000  0.000000  0.775591  1
  Er  Er15  1  0.000000  0.000000  0.273377  1
  Ga  Ga16  1  0.837052  0.674104  0.040835  1
  Ga  Ga17  1  0.325896  0.162948  0.040835  1
  Ga  Ga18  1  0.837052  0.162948  0.040835  1
  Ga  Ga19  1  0.163368  0.326736  0.542603  1
  Ga  Ga20  1  0.673264  0.836632  0.542603  1
  Ga  Ga21  1  0.163368  0.836632  0.542603  1
  Fe  Fe22  1  0.333333  0.666667  0.060825  1
  Pt  Pt23  1  0.666667  0.333333  0.563358  1
