# generated using pymatgen
data_ZnGa3Re
_symmetry_space_group_name_H-M   'P 1'
_cell_length_a   4.99032393
_cell_length_b   5.23325501
_cell_length_c   4.99032371
_cell_angle_alpha   110.46041110
_cell_angle_beta   108.46417108
_cell_angle_gamma   110.46041528
_symmetry_Int_Tables_number   1
_chemical_formula_structural   ZnGa3Re
_chemical_formula_sum   'Zn1 Ga3 Re1'
_cell_volume   99.07392687
_cell_formula_units_Z   1
loop_
 _symmetry_equiv_pos_site_id
 _symmetry_equiv_pos_as_xyz
  1  'x, y, z'
loop_
 _atom_site_type_symbol
 _atom_site_label
 _atom_site_symmetry_multiplicity
 _atom_site_fract_x
 _atom_site_fract_y
 _atom_site_fract_z
 _atom_site_occupancy
  Zn  Zn0  1  0.000000  0.500000  0.000000  1
  Ga  Ga1  1  0.000000  0.000000  0.500000  1
  Ga  Ga2  1  0.500000  0.000000  0.000000  1
  Ga  Ga3  1  0.500000  0.500000  0.500000  1
  Re  Re4  1  0.000000  0.000000  0.000000  1
