# generated using pymatgen
data_Eu2Cd19Au3
_symmetry_space_group_name_H-M   'P 1'
_cell_length_a   9.32894121
_cell_length_b   9.34951145
_cell_length_c   9.32894087
_cell_angle_alpha   99.69204607
_cell_angle_beta   99.40698928
_cell_angle_gamma   131.78678263
_symmetry_Int_Tables_number   1
_chemical_formula_structural   Eu2Cd19Au3
_chemical_formula_sum   'Eu2 Cd19 Au3'
_cell_volume   554.39884028
_cell_formula_units_Z   1
loop_
 _symmetry_equiv_pos_site_id
 _symmetry_equiv_pos_as_xyz
  1  'x, y, z'
loop_
 _atom_site_type_symbol
 _atom_site_label
 _atom_site_symmetry_multiplicity
 _atom_site_fract_x
 _atom_site_fract_y
 _atom_site_fract_z
 _atom_site_occupancy
  Eu  Eu0  1  0.499051  0.499451  0.000400  1
  Eu  Eu1  1  0.750949  0.250549  0.499600  1
  Cd  Cd2  1  0.995126  0.319460  0.913572  1
  Cd  Cd3  1  0.568849  0.148901  0.820927  1
  Cd  Cd4  1  0.998037  0.075412  0.679816  1
  Cd  Cd5  1  0.572112  0.751804  0.422954  1
  Cd  Cd6  1  0.922027  0.601099  0.919948  1
  Cd  Cd7  1  0.921152  0.998196  0.320310  1
  Cd  Cd8  1  0.844112  0.430540  0.175665  1
  Cd  Cd9  1  0.251963  0.674588  0.820184  1
  Cd  Cd10  1  0.253384  0.757425  0.504042  1
  Cd  Cd11  1  0.677888  0.998196  0.077046  1
  Cd  Cd12  1  0.996616  0.992575  0.995958  1
  Cd  Cd13  1  0.681151  0.601099  0.679073  1
  Cd  Cd14  1  0.395596  0.075412  0.077375  1
  Cd  Cd15  1  0.254874  0.430540  0.586428  1
  Cd  Cd16  1  0.328848  0.751804  0.179690  1
  Cd  Cd17  1  0.327973  0.148901  0.580052  1
  Cd  Cd18  1  0.854404  0.674588  0.422625  1
  Cd  Cd19  1  0.405888  0.319460  0.324335  1
  Cd  Cd20  1  0.125000  0.375000  0.250000  1
  Au  Au21  1  0.125000  0.875000  0.750000  1
  Au  Au22  1  0.625000  0.875000  0.750000  1
  Au  Au23  1  0.125000  0.875000  0.250000  1
