# generated using pymatgen
data_Gd3Pu(TcB4)4
_symmetry_space_group_name_H-M   'P 1'
_cell_length_a   3.60669800
_cell_length_b   5.99430546
_cell_length_c   11.60600088
_cell_angle_alpha   89.95531411
_cell_angle_beta   90.00000000
_cell_angle_gamma   90.00000000
_symmetry_Int_Tables_number   1
_chemical_formula_structural   Gd3Pu(TcB4)4
_chemical_formula_sum   'Gd3 Pu1 Tc4 B16'
_cell_volume   250.91759485
_cell_formula_units_Z   1
loop_
 _symmetry_equiv_pos_site_id
 _symmetry_equiv_pos_as_xyz
  1  'x, y, z'
loop_
 _atom_site_type_symbol
 _atom_site_label
 _atom_site_symmetry_multiplicity
 _atom_site_fract_x
 _atom_site_fract_y
 _atom_site_fract_z
 _atom_site_occupancy
  Gd  Gd0  1  0.000000  0.626377  0.349338  1
  Gd  Gd1  1  0.000000  0.373308  0.650405  1
  Gd  Gd2  1  0.000000  0.126878  0.150444  1
  Pu  Pu3  1  0.000000  0.873653  0.849260  1
  Tc  Tc4  1  0.000000  0.634318  0.087024  1
  Tc  Tc5  1  0.000000  0.365920  0.911372  1
  Tc  Tc6  1  0.000000  0.132615  0.413245  1
  Tc  Tc7  1  0.000000  0.867541  0.588483  1
  B  B8  1  0.500000  0.785677  0.185167  1
  B  B9  1  0.500000  0.211341  0.815125  1
  B  B10  1  0.500000  0.286158  0.315194  1
  B  B11  1  0.500000  0.714092  0.686157  1
  B  B12  1  0.500000  0.863903  0.030926  1
  B  B13  1  0.500000  0.135203  0.967664  1
  B  B14  1  0.500000  0.363826  0.468277  1
  B  B15  1  0.500000  0.636794  0.532070  1
  B  B16  1  0.500000  0.887623  0.453455  1
  B  B17  1  0.500000  0.112967  0.546722  1
  B  B18  1  0.500000  0.387519  0.046321  1
  B  B19  1  0.500000  0.613764  0.952588  1
  B  B20  1  0.500000  0.975973  0.308431  1
  B  B21  1  0.500000  0.022348  0.692700  1
  B  B22  1  0.500000  0.476250  0.191501  1
  B  B23  1  0.500000  0.525954  0.808132  1
