# generated using pymatgen
data_SmYNb3Co9As7
_symmetry_space_group_name_H-M   'P 1'
_cell_length_a   3.84052600
_cell_length_b   9.57385556
_cell_length_c   9.57385500
_cell_angle_alpha   120.00000152
_cell_angle_beta   90.00000000
_cell_angle_gamma   90.00000000
_symmetry_Int_Tables_number   1
_chemical_formula_structural   SmYNb3Co9As7
_chemical_formula_sum   'Sm1 Y1 Nb3 Co9 As7'
_cell_volume   304.85621361
_cell_formula_units_Z   1
loop_
 _symmetry_equiv_pos_site_id
 _symmetry_equiv_pos_as_xyz
  1  'x, y, z'
loop_
 _atom_site_type_symbol
 _atom_site_label
 _atom_site_symmetry_multiplicity
 _atom_site_fract_x
 _atom_site_fract_y
 _atom_site_fract_z
 _atom_site_occupancy
  Sm  Sm0  1  0.500000  0.333333  0.666667  1
  Y  Y1  1  0.000000  0.666667  0.333333  1
  Nb  Nb2  1  0.500000  0.776687  0.897226  1
  Nb  Nb3  1  0.500000  0.120540  0.223313  1
  Nb  Nb4  1  0.500000  0.102774  0.879460  1
  Co  Co5  1  0.000000  0.571892  0.939406  1
  Co  Co6  1  0.000000  0.367513  0.428108  1
  Co  Co7  1  0.000000  0.060594  0.632487  1
  Co  Co8  1  0.000000  0.876648  0.159791  1
  Co  Co9  1  0.000000  0.283142  0.123352  1
  Co  Co10  1  0.000000  0.840209  0.716858  1
  Co  Co11  1  0.500000  0.947510  0.384437  1
  Co  Co12  1  0.500000  0.436926  0.052490  1
  Co  Co13  1  0.500000  0.615563  0.563074  1
  As  As14  1  0.000000  0.000000  0.000000  1
  As  As15  1  0.500000  0.708340  0.124173  1
  As  As16  1  0.500000  0.415834  0.291660  1
  As  As17  1  0.500000  0.875827  0.584166  1
  As  As18  1  0.000000  0.582533  0.691884  1
  As  As19  1  0.000000  0.109352  0.417467  1
  As  As20  1  0.000000  0.308116  0.890648  1
