# generated using pymatgen
data_Er4Si6IrPd
_symmetry_space_group_name_H-M   'P 1'
_cell_length_a   8.17066400
_cell_length_b   8.17066386
_cell_length_c   7.81015600
_cell_angle_alpha   90.00000000
_cell_angle_beta   90.00000000
_cell_angle_gamma   119.99999249
_symmetry_Int_Tables_number   1
_chemical_formula_structural   Er4Si6IrPd
_chemical_formula_sum   'Er8 Si12 Ir2 Pd2'
_cell_volume   451.54919088
_cell_formula_units_Z   2
loop_
 _symmetry_equiv_pos_site_id
 _symmetry_equiv_pos_as_xyz
  1  'x, y, z'
loop_
 _atom_site_type_symbol
 _atom_site_label
 _atom_site_symmetry_multiplicity
 _atom_site_fract_x
 _atom_site_fract_y
 _atom_site_fract_z
 _atom_site_occupancy
  Er  Er0  1  0.511375  0.022752  0.245872  1
  Er  Er1  1  0.488625  0.977248  0.754128  1
  Er  Er2  1  0.977248  0.488625  0.245872  1
  Er  Er3  1  0.022752  0.511375  0.754128  1
  Er  Er4  1  0.511375  0.488625  0.245872  1
  Er  Er5  1  0.488625  0.511375  0.754128  1
  Er  Er6  1  0.000000  0.000000  0.250609  1
  Er  Er7  1  0.000000  0.000000  0.749391  1
  Si  Si8  1  0.166286  0.332572  0.004072  1
  Si  Si9  1  0.833714  0.667428  0.995928  1
  Si  Si10  1  0.667428  0.833714  0.004072  1
  Si  Si11  1  0.834699  0.669397  0.499123  1
  Si  Si12  1  0.332572  0.166286  0.995928  1
  Si  Si13  1  0.165301  0.330603  0.500877  1
  Si  Si14  1  0.166286  0.833714  0.004072  1
  Si  Si15  1  0.330603  0.165301  0.499123  1
  Si  Si16  1  0.833714  0.166286  0.995928  1
  Si  Si17  1  0.669397  0.834699  0.500877  1
  Si  Si18  1  0.834699  0.165301  0.499123  1
  Si  Si19  1  0.165301  0.834699  0.500877  1
  Ir  Ir20  1  0.333333  0.666667  0.031566  1
  Ir  Ir21  1  0.666667  0.333333  0.968434  1
  Pd  Pd22  1  0.666667  0.333333  0.547207  1
  Pd  Pd23  1  0.333333  0.666667  0.452793  1
