# generated using pymatgen
data_Yb8Sc12Sn5Sb11
_symmetry_space_group_name_H-M   'P 1'
_cell_length_a   7.95117600
_cell_length_b   7.85488181
_cell_length_c   14.93131700
_cell_angle_alpha   90.00000000
_cell_angle_beta   90.00000000
_cell_angle_gamma   90.13501012
_symmetry_Int_Tables_number   1
_chemical_formula_structural   Yb8Sc12Sn5Sb11
_chemical_formula_sum   'Yb8 Sc12 Sn5 Sb11'
_cell_volume   932.54099226
_cell_formula_units_Z   1
loop_
 _symmetry_equiv_pos_site_id
 _symmetry_equiv_pos_as_xyz
  1  'x, y, z'
loop_
 _atom_site_type_symbol
 _atom_site_label
 _atom_site_symmetry_multiplicity
 _atom_site_fract_x
 _atom_site_fract_y
 _atom_site_fract_z
 _atom_site_occupancy
  Yb  Yb0  1  0.525207  0.320006  0.905022  1
  Yb  Yb1  1  0.024994  0.180636  0.594440  1
  Yb  Yb2  1  0.474669  0.680155  0.403393  1
  Yb  Yb3  1  0.976282  0.821045  0.093696  1
  Yb  Yb4  1  0.474669  0.680155  0.096607  1
  Yb  Yb5  1  0.976282  0.821045  0.406304  1
  Yb  Yb6  1  0.525207  0.320006  0.594978  1
  Yb  Yb7  1  0.024994  0.180636  0.905560  1
  Sc  Sc8  1  0.359941  0.852995  0.875445  1
  Sc  Sc9  1  0.860614  0.646722  0.624915  1
  Sc  Sc10  1  0.639424  0.148440  0.375693  1
  Sc  Sc11  1  0.135820  0.349722  0.126758  1
  Sc  Sc12  1  0.639424  0.148440  0.124307  1
  Sc  Sc13  1  0.135820  0.349722  0.373242  1
  Sc  Sc14  1  0.359941  0.852995  0.624555  1
  Sc  Sc15  1  0.860614  0.646722  0.875085  1
  Sc  Sc16  1  0.191871  0.504573  0.750000  1
  Sc  Sc17  1  0.691881  0.994756  0.750000  1
  Sc  Sc18  1  0.807950  0.493551  0.250000  1
  Sc  Sc19  1  0.308159  0.004786  0.250000  1
  Sn  Sn20  1  0.945503  0.126623  0.250000  1
  Sn  Sn21  1  0.334911  0.154521  0.750000  1
  Sn  Sn22  1  0.835526  0.344976  0.750000  1
  Sn  Sn23  1  0.672473  0.849995  0.250000  1
  Sn  Sn24  1  0.162817  0.655612  0.250000  1
  Sb  Sb25  1  0.298135  0.052657  0.046107  1
  Sb  Sb26  1  0.795563  0.449984  0.453608  1
  Sb  Sb27  1  0.703403  0.948403  0.548106  1
  Sb  Sb28  1  0.203413  0.551272  0.952904  1
  Sb  Sb29  1  0.703403  0.948403  0.951894  1
  Sb  Sb30  1  0.203413  0.551272  0.547096  1
  Sb  Sb31  1  0.298135  0.052657  0.453893  1
  Sb  Sb32  1  0.795563  0.449984  0.046392  1
  Sb  Sb33  1  0.553746  0.632612  0.750000  1
  Sb  Sb34  1  0.054206  0.867409  0.750000  1
  Sb  Sb35  1  0.446029  0.366510  0.250000  1
