# generated using pymatgen
data_Tb4Yb4Ti3Ge(SbO7)4
_symmetry_space_group_name_H-M   'P 1'
_cell_length_a   7.29484400
_cell_length_b   7.27160352
_cell_length_c   10.27342192
_cell_angle_alpha   89.72791720
_cell_angle_beta   90.00000000
_cell_angle_gamma   90.00000000
_symmetry_Int_Tables_number   1
_chemical_formula_structural   Tb4Yb4Ti3Ge(SbO7)4
_chemical_formula_sum   'Tb4 Yb4 Ti3 Ge1 Sb4 O28'
_cell_volume   544.94971300
_cell_formula_units_Z   1
loop_
 _symmetry_equiv_pos_site_id
 _symmetry_equiv_pos_as_xyz
  1  'x, y, z'
loop_
 _atom_site_type_symbol
 _atom_site_label
 _atom_site_symmetry_multiplicity
 _atom_site_fract_x
 _atom_site_fract_y
 _atom_site_fract_z
 _atom_site_occupancy
  Tb  Tb0  1  0.500215  0.237319  0.500462  1
  Tb  Tb1  1  0.500215  0.762681  0.999538  1
  Tb  Tb2  1  0.766504  0.500000  0.750000  1
  Tb  Tb3  1  0.234952  0.500000  0.250000  1
  Yb  Yb4  1  0.999569  0.756007  0.000495  1
  Yb  Yb5  1  0.756218  0.000000  0.750000  1
  Yb  Yb6  1  0.999569  0.243993  0.499505  1
  Yb  Yb7  1  0.239755  0.000000  0.250000  1
  Ti  Ti8  1  0.999202  0.763556  0.497353  1
  Ti  Ti9  1  0.999202  0.236444  0.002647  1
  Ti  Ti10  1  0.239326  0.000000  0.750000  1
  Ge  Ge11  1  0.751465  0.000000  0.250000  1
  Sb  Sb12  1  0.244163  0.500000  0.750000  1
  Sb  Sb13  1  0.501429  0.754654  0.499229  1
  Sb  Sb14  1  0.501429  0.245346  0.000771  1
  Sb  Sb15  1  0.755897  0.500000  0.250000  1
  O  O16  1  0.253700  0.747258  0.124723  1
  O  O17  1  0.553263  0.956817  0.372155  1
  O  O18  1  0.752065  0.743504  0.576307  1
  O  O19  1  0.747043  0.253701  0.625053  1
  O  O20  1  0.743675  0.755995  0.173809  1
  O  O21  1  0.938656  0.944722  0.372579  1
  O  O22  1  0.056697  0.055180  0.875804  1
  O  O23  1  0.056697  0.944820  0.624196  1
  O  O24  1  0.044141  0.450472  0.875248  1
  O  O25  1  0.250179  0.253052  0.078222  1
  O  O26  1  0.250179  0.746948  0.421778  1
  O  O27  1  0.257236  0.751742  0.826147  1
  O  O28  1  0.257236  0.248258  0.673853  1
  O  O29  1  0.451609  0.043348  0.877439  1
  O  O30  1  0.451609  0.956652  0.622561  1
  O  O31  1  0.455314  0.455781  0.875356  1
  O  O32  1  0.545650  0.542184  0.375521  1
  O  O33  1  0.553263  0.043183  0.127845  1
  O  O34  1  0.545650  0.457816  0.124479  1
  O  O35  1  0.743675  0.244005  0.326191  1
  O  O36  1  0.752065  0.256496  0.923693  1
  O  O37  1  0.938656  0.055278  0.127421  1
  O  O38  1  0.956217  0.546620  0.375155  1
  O  O39  1  0.956217  0.453380  0.124845  1
  O  O40  1  0.044141  0.549528  0.624752  1
  O  O41  1  0.253700  0.252742  0.375277  1
  O  O42  1  0.455314  0.544219  0.624644  1
  O  O43  1  0.747043  0.746299  0.874947  1
