# generated using pymatgen
data_K3Ca2BiO6
_symmetry_space_group_name_H-M   'P 1'
_cell_length_a   6.02822741
_cell_length_b   6.02822717
_cell_length_c   6.53349522
_cell_angle_alpha   98.84141210
_cell_angle_beta   98.84141716
_cell_angle_gamma   119.97500716
_symmetry_Int_Tables_number   1
_chemical_formula_structural   K3Ca2BiO6
_chemical_formula_sum   'K3 Ca2 Bi1 O6'
_cell_volume   195.71644896
_cell_formula_units_Z   1
loop_
 _symmetry_equiv_pos_site_id
 _symmetry_equiv_pos_as_xyz
  1  'x, y, z'
loop_
 _atom_site_type_symbol
 _atom_site_label
 _atom_site_symmetry_multiplicity
 _atom_site_fract_x
 _atom_site_fract_y
 _atom_site_fract_z
 _atom_site_occupancy
  K  K0  1  0.829305  0.170696  0.500000  1
  K  K1  1  0.500001  0.500001  0.500000  1
  K  K2  1  0.170696  0.829305  0.500000  1
  Ca  Ca3  1  0.666388  0.333612  0.000000  1
  Ca  Ca4  1  0.333612  0.666388  0.000000  1
  Bi  Bi5  1  0.000000  0.000000  0.000000  1
  O  O6  1  0.369452  0.063867  0.191562  1
  O  O7  1  0.063867  0.369452  0.191562  1
  O  O8  1  0.759414  0.759414  0.192855  1
  O  O9  1  0.240588  0.240588  0.807146  1
  O  O10  1  0.936135  0.630550  0.808437  1
  O  O11  1  0.630550  0.936135  0.808437  1
