# generated using pymatgen
data_Ce3Cd3Ge2Au
_symmetry_space_group_name_H-M   'P 1'
_cell_length_a   7.49603600
_cell_length_b   7.49603598
_cell_length_c   4.43529600
_cell_angle_alpha   90.00000000
_cell_angle_beta   90.00000000
_cell_angle_gamma   120.00000893
_symmetry_Int_Tables_number   1
_chemical_formula_structural   Ce3Cd3Ge2Au
_chemical_formula_sum   'Ce3 Cd3 Ge2 Au1'
_cell_volume   215.83234400
_cell_formula_units_Z   1
loop_
 _symmetry_equiv_pos_site_id
 _symmetry_equiv_pos_as_xyz
  1  'x, y, z'
loop_
 _atom_site_type_symbol
 _atom_site_label
 _atom_site_symmetry_multiplicity
 _atom_site_fract_x
 _atom_site_fract_y
 _atom_site_fract_z
 _atom_site_occupancy
  Ce  Ce0  1  0.583134  0.583134  0.000000  1
  Ce  Ce1  1  0.416866  0.000000  0.000000  1
  Ce  Ce2  1  0.000000  0.416866  0.000000  1
  Cd  Cd3  1  0.000000  0.753976  0.500000  1
  Cd  Cd4  1  0.246024  0.246024  0.500000  1
  Cd  Cd5  1  0.753976  0.000000  0.500000  1
  Ge  Ge6  1  0.333333  0.666667  0.500000  1
  Ge  Ge7  1  0.666667  0.333333  0.500000  1
  Au  Au8  1  0.000000  0.000000  0.000000  1
