# generated using pymatgen
data_HoEr5TcSb2
_symmetry_space_group_name_H-M   'P 1'
_cell_length_a   8.11197800
_cell_length_b   8.11125399
_cell_length_c   4.23190900
_cell_angle_alpha   90.00000000
_cell_angle_beta   90.00000000
_cell_angle_gamma   120.00295272
_symmetry_Int_Tables_number   1
_chemical_formula_structural   HoEr5TcSb2
_chemical_formula_sum   'Ho1 Er5 Tc1 Sb2'
_cell_volume   241.13974351
_cell_formula_units_Z   1
loop_
 _symmetry_equiv_pos_site_id
 _symmetry_equiv_pos_as_xyz
  1  'x, y, z'
loop_
 _atom_site_type_symbol
 _atom_site_label
 _atom_site_symmetry_multiplicity
 _atom_site_fract_x
 _atom_site_fract_y
 _atom_site_fract_z
 _atom_site_occupancy
  Ho  Ho0  1  0.602779  0.000000  0.000000  1
  Er  Er1  1  0.235721  0.000000  0.500000  1
  Er  Er2  1  0.000254  0.235821  0.500000  1
  Er  Er3  1  0.764433  0.764179  0.500000  1
  Er  Er4  1  0.999927  0.603246  0.000000  1
  Er  Er5  1  0.396681  0.396754  0.000000  1
  Tc  Tc6  1  0.000549  0.000000  0.000000  1
  Sb  Sb7  1  0.332983  0.666309  0.500000  1
  Sb  Sb8  1  0.666675  0.333691  0.500000  1
