# generated using pymatgen
data_Dy7HoSc12Tl15Bi
_symmetry_space_group_name_H-M   'P 1'
_cell_length_a   7.70416377
_cell_length_b   8.02218243
_cell_length_c   15.15842491
_cell_angle_alpha   90.12620319
_cell_angle_beta   89.90535905
_cell_angle_gamma   89.95840410
_symmetry_Int_Tables_number   1
_chemical_formula_structural   Dy7HoSc12Tl15Bi
_chemical_formula_sum   'Dy7 Ho1 Sc12 Tl15 Bi1'
_cell_volume   936.85063480
_cell_formula_units_Z   1
loop_
 _symmetry_equiv_pos_site_id
 _symmetry_equiv_pos_as_xyz
  1  'x, y, z'
loop_
 _atom_site_type_symbol
 _atom_site_label
 _atom_site_symmetry_multiplicity
 _atom_site_fract_x
 _atom_site_fract_y
 _atom_site_fract_z
 _atom_site_occupancy
  Dy  Dy0  1  0.000841  0.182319  0.093091  1
  Dy  Dy1  1  0.000288  0.818703  0.907213  1
  Dy  Dy2  1  0.500488  0.680045  0.907719  1
  Dy  Dy3  1  0.000537  0.821107  0.593224  1
  Dy  Dy4  1  0.499315  0.318721  0.092904  1
  Dy  Dy5  1  0.995932  0.179375  0.404649  1
  Dy  Dy6  1  0.500818  0.312755  0.405603  1
  Ho  Ho7  1  0.507965  0.685404  0.595343  1
  Sc  Sc8  1  0.168465  0.497566  0.753310  1
  Sc  Sc9  1  0.832742  0.502797  0.248672  1
  Sc  Sc10  1  0.331586  0.998804  0.250190  1
  Sc  Sc11  1  0.669419  0.003100  0.750869  1
  Sc  Sc12  1  0.340919  0.154983  0.626773  1
  Sc  Sc13  1  0.662967  0.842303  0.373873  1
  Sc  Sc14  1  0.162217  0.665939  0.372923  1
  Sc  Sc15  1  0.665538  0.837052  0.124180  1
  Sc  Sc16  1  0.829789  0.337583  0.625905  1
  Sc  Sc17  1  0.333296  0.162174  0.875171  1
  Sc  Sc18  1  0.835468  0.337389  0.875250  1
  Sc  Sc19  1  0.166855  0.661038  0.125041  1
  Tl  Tl20  1  0.029115  0.125663  0.748833  1
  Tl  Tl21  1  0.971172  0.876392  0.247139  1
  Tl  Tl22  1  0.472689  0.624409  0.250914  1
  Tl  Tl23  1  0.527788  0.375952  0.751857  1
  Tl  Tl24  1  0.301169  0.854189  0.751278  1
  Tl  Tl25  1  0.698201  0.143622  0.247917  1
  Tl  Tl26  1  0.198537  0.357472  0.251015  1
  Tl  Tl27  1  0.803742  0.643670  0.750144  1
  Tl  Tl28  1  0.809442  0.542734  0.455621  1
  Tl  Tl29  1  0.317530  0.959345  0.458727  1
  Tl  Tl30  1  0.820107  0.539561  0.042327  1
  Tl  Tl31  1  0.681858  0.041462  0.541166  1
  Tl  Tl32  1  0.178412  0.459341  0.958395  1
  Tl  Tl33  1  0.678955  0.040638  0.957586  1
  Tl  Tl34  1  0.321085  0.958764  0.042849  1
  Bi  Bi35  1  0.184751  0.457632  0.542327  1
