# generated using pymatgen
data_Li12NdDy11(WO6)8
_symmetry_space_group_name_H-M   'P 1'
_cell_length_a   10.70954759
_cell_length_b   10.69317490
_cell_length_c   10.69317512
_cell_angle_alpha   109.48830363
_cell_angle_beta   109.43172808
_cell_angle_gamma   109.43172053
_symmetry_Int_Tables_number   1
_chemical_formula_structural   Li12NdDy11(WO6)8
_chemical_formula_sum   'Li12 Nd1 Dy11 W8 O48'
_cell_volume   943.39562262
_cell_formula_units_Z   1
loop_
 _symmetry_equiv_pos_site_id
 _symmetry_equiv_pos_as_xyz
  1  'x, y, z'
loop_
 _atom_site_type_symbol
 _atom_site_label
 _atom_site_symmetry_multiplicity
 _atom_site_fract_x
 _atom_site_fract_y
 _atom_site_fract_z
 _atom_site_occupancy
  Li  Li0  1  0.250000  0.374968  0.124968  1
  Li  Li1  1  0.875157  0.251090  0.125164  1
  Li  Li2  1  0.375159  0.125135  0.250117  1
  Li  Li3  1  0.875156  0.624065  0.249991  1
  Li  Li4  1  0.624843  0.750008  0.375933  1
  Li  Li5  1  0.750000  0.126225  0.376224  1
  Li  Li6  1  0.250000  0.875032  0.625032  1
  Li  Li7  1  0.375159  0.250024  0.625042  1
  Li  Li8  1  0.124841  0.374958  0.749976  1
  Li  Li9  1  0.624844  0.874838  0.748910  1
  Li  Li10  1  0.750000  0.623775  0.873775  1
  Li  Li11  1  0.124842  0.749882  0.874865  1
  Nd  Nd12  1  0.750000  0.875000  0.124999  1
  Dy  Dy13  1  0.373346  0.749117  0.124621  1
  Dy  Dy14  1  0.126655  0.875380  0.250884  1
  Dy  Dy15  1  0.624804  0.374894  0.249760  1
  Dy  Dy16  1  0.250000  0.625001  0.375000  1
  Dy  Dy17  1  0.126655  0.251276  0.375771  1
  Dy  Dy18  1  0.749999  0.375001  0.625000  1
  Dy  Dy19  1  0.875197  0.750241  0.625107  1
  Dy  Dy20  1  0.373344  0.624229  0.748724  1
  Dy  Dy21  1  0.875198  0.124956  0.750091  1
  Dy  Dy22  1  0.250001  0.125001  0.875000  1
  Dy  Dy23  1  0.624803  0.249909  0.875045  1
  W  W24  1  0.002524  0.000905  0.999899  1
  W  W25  1  0.497476  0.000101  0.999095  1
  W  W26  1  0.497475  0.497374  0.998381  1
  W  W27  1  0.999841  0.499668  0.999809  1
  W  W28  1  0.002524  0.001619  0.502625  1
  W  W29  1  0.500159  0.000191  0.500332  1
  W  W30  1  0.500159  0.499968  0.499827  1
  W  W31  1  0.999841  0.500174  0.500033  1
  O  O32  1  0.119462  0.700839  0.027554  1
  O  O33  1  0.912399  0.825462  0.024944  1
  O  O34  1  0.672910  0.200537  0.081656  1
  O  O35  1  0.407648  0.379262  0.081623  1
  O  O36  1  0.672910  0.472373  0.091253  1
  O  O37  1  0.416581  0.120122  0.090942  1
  O  O38  1  0.922086  0.094915  0.119085  1
  O  O39  1  0.200819  0.527306  0.119135  1
  O  O40  1  0.577914  0.696997  0.172829  1
  O  O41  1  0.587601  0.975058  0.174539  1
  O  O42  1  0.027665  0.618981  0.201086  1
  O  O43  1  0.174358  0.082279  0.201619  1
  O  O44  1  0.380539  0.972446  0.299161  1
  O  O45  1  0.922086  0.827171  0.303003  1
  O  O46  1  0.027665  0.408684  0.326578  1
  O  O47  1  0.299181  0.418315  0.326488  1
  O  O48  1  0.912399  0.086937  0.387456  1
  O  O49  1  0.472335  0.798913  0.381020  1
  O  O50  1  0.880759  0.581980  0.408509  1
  O  O51  1  0.527644  0.326239  0.408314  1
  O  O52  1  0.619240  0.591491  0.418019  1
  O  O53  1  0.799153  0.326804  0.418291  1
  O  O54  1  0.299180  0.880865  0.472692  1
  O  O55  1  0.174358  0.092080  0.472740  1
  O  O56  1  0.827089  0.908745  0.527626  1
  O  O57  1  0.700847  0.119139  0.527653  1
  O  O58  1  0.380539  0.408091  0.581376  1
  O  O59  1  0.200818  0.673511  0.581685  1
  O  O60  1  0.472335  0.673421  0.591315  1
  O  O61  1  0.119461  0.418624  0.591908  1
  O  O62  1  0.092353  0.918377  0.620738  1
  O  O63  1  0.527645  0.201404  0.619330  1
  O  O64  1  0.700846  0.581709  0.673195  1
  O  O65  1  0.972357  0.591686  0.673761  1
  O  O66  1  0.619241  0.027750  0.701220  1
  O  O67  1  0.083419  0.174361  0.703540  1
  O  O68  1  0.827089  0.918343  0.799461  1
  O  O69  1  0.972356  0.380669  0.798596  1
  O  O70  1  0.407646  0.028384  0.826024  1
  O  O71  1  0.416581  0.296460  0.825640  1
  O  O72  1  0.083418  0.909058  0.879877  1
  O  O73  1  0.799152  0.472348  0.880863  1
  O  O74  1  0.325643  0.527262  0.907921  1
  O  O75  1  0.577913  0.880916  0.905085  1
  O  O76  1  0.325641  0.798382  0.917722  1
  O  O77  1  0.587601  0.612544  0.913063  1
  O  O78  1  0.092354  0.173976  0.971615  1
  O  O79  1  0.880759  0.298781  0.972250  1
