# generated using pymatgen
data_Ho2Ga9NiOs2
_symmetry_space_group_name_H-M   'P 1'
_cell_length_a   7.53411808
_cell_length_b   7.53411821
_cell_length_c   9.54188200
_cell_angle_alpha   90.00000000
_cell_angle_beta   90.00000000
_cell_angle_gamma   120.68182553
_symmetry_Int_Tables_number   1
_chemical_formula_structural   Ho2Ga9NiOs2
_chemical_formula_sum   'Ho4 Ga18 Ni2 Os4'
_cell_volume   465.80538282
_cell_formula_units_Z   2
loop_
 _symmetry_equiv_pos_site_id
 _symmetry_equiv_pos_as_xyz
  1  'x, y, z'
loop_
 _atom_site_type_symbol
 _atom_site_label
 _atom_site_symmetry_multiplicity
 _atom_site_fract_x
 _atom_site_fract_y
 _atom_site_fract_z
 _atom_site_occupancy
  Ho  Ho0  1  0.996811  0.657853  0.250000  1
  Ho  Ho1  1  0.003189  0.342147  0.750000  1
  Ho  Ho2  1  0.657853  0.996811  0.250000  1
  Ho  Ho3  1  0.342147  0.003189  0.750000  1
  Ga  Ga4  1  0.114435  0.114435  0.250000  1
  Ga  Ga5  1  0.885565  0.885565  0.750000  1
  Ga  Ga6  1  0.000374  0.325391  0.075451  1
  Ga  Ga7  1  0.999626  0.674609  0.924549  1
  Ga  Ga8  1  0.999626  0.674609  0.575451  1
  Ga  Ga9  1  0.325391  0.000374  0.424549  1
  Ga  Ga10  1  0.000374  0.325391  0.424549  1
  Ga  Ga11  1  0.674609  0.999626  0.575451  1
  Ga  Ga12  1  0.674609  0.999626  0.924549  1
  Ga  Ga13  1  0.325391  0.000374  0.075451  1
  Ga  Ga14  1  0.333595  0.333595  0.561863  1
  Ga  Ga15  1  0.666405  0.666405  0.438137  1
  Ga  Ga16  1  0.666405  0.666405  0.061863  1
  Ga  Ga17  1  0.333595  0.333595  0.938137  1
  Ga  Ga18  1  0.335447  0.543485  0.250000  1
  Ga  Ga19  1  0.664553  0.456515  0.750000  1
  Ga  Ga20  1  0.543485  0.335447  0.250000  1
  Ga  Ga21  1  0.456515  0.664553  0.750000  1
  Ni  Ni22  1  0.000000  0.000000  0.000000  1
  Ni  Ni23  1  0.000000  0.000000  0.500000  1
  Os  Os24  1  0.673745  0.326255  0.000000  1
  Os  Os25  1  0.326255  0.673745  0.000000  1
  Os  Os26  1  0.326255  0.673745  0.500000  1
  Os  Os27  1  0.673745  0.326255  0.500000  1
