# generated using pymatgen
data_RbAc3(SiN3)2
_symmetry_space_group_name_H-M   'P 1'
_cell_length_a   6.40020576
_cell_length_b   6.40020603
_cell_length_c   12.42437899
_cell_angle_alpha   90.26331544
_cell_angle_beta   89.73668358
_cell_angle_gamma   127.83827538
_symmetry_Int_Tables_number   1
_chemical_formula_structural   RbAc3(SiN3)2
_chemical_formula_sum   'Rb2 Ac6 Si4 N12'
_cell_volume   401.92405438
_cell_formula_units_Z   2
loop_
 _symmetry_equiv_pos_site_id
 _symmetry_equiv_pos_as_xyz
  1  'x, y, z'
loop_
 _atom_site_type_symbol
 _atom_site_label
 _atom_site_symmetry_multiplicity
 _atom_site_fract_x
 _atom_site_fract_y
 _atom_site_fract_z
 _atom_site_occupancy
  Rb  Rb0  1  0.042105  0.957895  0.864666  1
  Rb  Rb1  1  0.957895  0.042105  0.135334  1
  Ac  Ac2  1  0.449442  0.550558  0.348921  1
  Ac  Ac3  1  0.550558  0.449442  0.651079  1
  Ac  Ac4  1  0.652046  0.347954  0.079390  1
  Ac  Ac5  1  0.347954  0.652046  0.920610  1
  Ac  Ac6  1  0.855833  0.144167  0.580253  1
  Ac  Ac7  1  0.144167  0.855833  0.419747  1
  Si  Si8  1  0.725199  0.274801  0.828265  1
  Si  Si9  1  0.274801  0.725199  0.171735  1
  Si  Si10  1  0.769617  0.230383  0.335430  1
  Si  Si11  1  0.230383  0.769617  0.664570  1
  N  N12  1  0.573202  0.426798  0.853402  1
  N  N13  1  0.426798  0.573202  0.146598  1
  N  N14  1  0.918068  0.081932  0.378736  1
  N  N15  1  0.081932  0.918068  0.621264  1
  N  N16  1  0.514853  0.993805  0.741201  1
  N  N17  1  0.993805  0.514853  0.258799  1
  N  N18  1  0.485147  0.006195  0.258799  1
  N  N19  1  0.006195  0.485147  0.741201  1
  N  N20  1  0.808367  0.191633  0.941502  1
  N  N21  1  0.191633  0.808367  0.058498  1
  N  N22  1  0.667225  0.332775  0.447146  1
  N  N23  1  0.332775  0.667225  0.552854  1
