# generated using pymatgen
data_Nd(BeB14)2
_symmetry_space_group_name_H-M   'P 1'
_cell_length_a   7.23283211
_cell_length_b   7.23283208
_cell_length_c   5.72796743
_cell_angle_alpha   66.80017894
_cell_angle_beta   66.80018072
_cell_angle_gamma   92.26732715
_symmetry_Int_Tables_number   1
_chemical_formula_structural   Nd(BeB14)2
_chemical_formula_sum   'Nd1 Be2 B28'
_cell_volume   246.33148517
_cell_formula_units_Z   1
loop_
 _symmetry_equiv_pos_site_id
 _symmetry_equiv_pos_as_xyz
  1  'x, y, z'
loop_
 _atom_site_type_symbol
 _atom_site_label
 _atom_site_symmetry_multiplicity
 _atom_site_fract_x
 _atom_site_fract_y
 _atom_site_fract_z
 _atom_site_occupancy
  Nd  Nd0  1  0.886651  0.886651  0.369273  1
  Be  Be1  1  0.529398  0.529398  0.446762  1
  Be  Be2  1  0.258608  0.258608  0.289854  1
  B  B3  1  0.416762  0.732573  0.182881  1
  B  B4  1  0.575896  0.253216  0.839553  1
  B  B5  1  0.253216  0.575896  0.839553  1
  B  B6  1  0.732573  0.416762  0.182881  1
  B  B7  1  0.693099  0.859964  0.980377  1
  B  B8  1  0.302257  0.127770  0.039970  1
  B  B9  1  0.127770  0.302257  0.039970  1
  B  B10  1  0.859964  0.693099  0.980377  1
  B  B11  1  0.526883  0.868251  0.311253  1
  B  B12  1  0.466539  0.117182  0.221201  1
  B  B13  1  0.117182  0.466539  0.221201  1
  B  B14  1  0.868251  0.526883  0.311253  1
  B  B15  1  0.459980  0.115569  0.717457  1
  B  B16  1  0.527848  0.865877  0.806071  1
  B  B17  1  0.865877  0.527848  0.806071  1
  B  B18  1  0.115569  0.459980  0.717457  1
  B  B19  1  0.717143  0.099025  0.008158  1
  B  B20  1  0.276852  0.888023  0.337160  1
  B  B21  1  0.888023  0.276852  0.337160  1
  B  B22  1  0.099025  0.717143  0.008158  1
  B  B23  1  0.276212  0.888428  0.013356  1
  B  B24  1  0.714845  0.097804  0.691001  1
  B  B25  1  0.097804  0.714845  0.691001  1
  B  B26  1  0.888428  0.276212  0.013356  1
  B  B27  1  0.283227  0.466336  0.390951  1
  B  B28  1  0.694469  0.513315  0.657663  1
  B  B29  1  0.513315  0.694469  0.657663  1
  B  B30  1  0.466336  0.283227  0.390951  1
