# generated using pymatgen
data_Sn3Sb9Pt4
_symmetry_space_group_name_H-M   'P 1'
_cell_length_a   8.25214231
_cell_length_b   8.25214122
_cell_length_c   9.46931918
_cell_angle_alpha   55.02097195
_cell_angle_beta   55.02098093
_cell_angle_gamma   71.34904332
_symmetry_Int_Tables_number   1
_chemical_formula_structural   Sn3Sb9Pt4
_chemical_formula_sum   'Sn3 Sb9 Pt4'
_cell_volume   432.87853072
_cell_formula_units_Z   1
loop_
 _symmetry_equiv_pos_site_id
 _symmetry_equiv_pos_as_xyz
  1  'x, y, z'
loop_
 _atom_site_type_symbol
 _atom_site_label
 _atom_site_symmetry_multiplicity
 _atom_site_fract_x
 _atom_site_fract_y
 _atom_site_fract_z
 _atom_site_occupancy
  Sn  Sn0  1  0.343524  0.343524  0.810108  1
  Sn  Sn1  1  0.660013  0.660013  0.189556  1
  Sn  Sn2  1  0.657344  0.657344  0.495870  1
  Sb  Sb3  1  0.345699  0.345699  0.503448  1
  Sb  Sb4  1  0.187109  0.501792  0.154299  1
  Sb  Sb5  1  0.808986  0.496869  0.846874  1
  Sb  Sb6  1  0.501792  0.187109  0.154299  1
  Sb  Sb7  1  0.496869  0.808986  0.846874  1
  Sb  Sb8  1  0.845045  0.153687  0.659530  1
  Sb  Sb9  1  0.154183  0.847085  0.339722  1
  Sb  Sb10  1  0.847085  0.154183  0.339722  1
  Sb  Sb11  1  0.153687  0.845045  0.659530  1
  Pt  Pt12  1  0.998438  0.499029  0.999784  1
  Pt  Pt13  1  0.499029  0.998438  0.999784  1
  Pt  Pt14  1  0.001661  0.499536  0.500301  1
  Pt  Pt15  1  0.499536  0.001661  0.500301  1
