# generated using pymatgen
data_La10CuSnBi5P
_symmetry_space_group_name_H-M   'P 1'
_cell_length_a   9.82147961
_cell_length_b   9.82147946
_cell_length_c   6.75531009
_cell_angle_alpha   89.94498487
_cell_angle_beta   89.94498300
_cell_angle_gamma   119.78379791
_symmetry_Int_Tables_number   1
_chemical_formula_structural   La10CuSnBi5P
_chemical_formula_sum   'La10 Cu1 Sn1 Bi5 P1'
_cell_volume   565.54998178
_cell_formula_units_Z   1
loop_
 _symmetry_equiv_pos_site_id
 _symmetry_equiv_pos_as_xyz
  1  'x, y, z'
loop_
 _atom_site_type_symbol
 _atom_site_label
 _atom_site_symmetry_multiplicity
 _atom_site_fract_x
 _atom_site_fract_y
 _atom_site_fract_z
 _atom_site_occupancy
  La  La0  1  0.664024  0.333839  0.998508  1
  La  La1  1  0.333839  0.664024  0.998508  1
  La  La2  1  0.333243  0.664074  0.501370  1
  La  La3  1  0.664074  0.333243  0.501370  1
  La  La4  1  0.748586  0.748586  0.755834  1
  La  La5  1  0.252078  0.004439  0.756534  1
  La  La6  1  0.004439  0.252078  0.756534  1
  La  La7  1  0.250668  0.250668  0.243193  1
  La  La8  1  0.749902  0.999757  0.243442  1
  La  La9  1  0.999757  0.749902  0.243442  1
  Cu  Cu10  1  0.000016  0.000016  0.500104  1
  Sn  Sn11  1  0.387538  0.387538  0.748365  1
  Bi  Bi12  1  0.613284  0.000276  0.747274  1
  Bi  Bi13  1  0.000276  0.613284  0.747274  1
  Bi  Bi14  1  0.612407  0.612407  0.252996  1
  Bi  Bi15  1  0.387130  0.999519  0.252444  1
  Bi  Bi16  1  0.999519  0.387130  0.252444  1
  P  P17  1  0.999220  0.999220  0.000364  1
