# generated using pymatgen
data_Dy17Ho3Ir5Rh7
_symmetry_space_group_name_H-M   'P 1'
_cell_length_a   10.87657809
_cell_length_b   10.87661831
_cell_length_c   6.36962500
_cell_angle_alpha   89.99020575
_cell_angle_beta   89.99436018
_cell_angle_gamma   90.05878231
_symmetry_Int_Tables_number   1
_chemical_formula_structural   Dy17Ho3Ir5Rh7
_chemical_formula_sum   'Dy17 Ho3 Ir5 Rh7'
_cell_volume   753.52870060
_cell_formula_units_Z   1
loop_
 _symmetry_equiv_pos_site_id
 _symmetry_equiv_pos_as_xyz
  1  'x, y, z'
loop_
 _atom_site_type_symbol
 _atom_site_label
 _atom_site_symmetry_multiplicity
 _atom_site_fract_x
 _atom_site_fract_y
 _atom_site_fract_z
 _atom_site_occupancy
  Dy  Dy0  1  0.290734  0.088228  0.377928  1
  Dy  Dy1  1  0.290619  0.909913  0.879334  1
  Dy  Dy2  1  0.708778  0.089710  0.878758  1
  Dy  Dy3  1  0.708533  0.910222  0.378112  1
  Dy  Dy4  1  0.587568  0.789861  0.879250  1
  Dy  Dy5  1  0.587367  0.210059  0.379068  1
  Dy  Dy6  1  0.411017  0.790188  0.379168  1
  Dy  Dy7  1  0.412330  0.209984  0.878963  1
  Dy  Dy8  1  0.210146  0.412451  0.620750  1
  Dy  Dy9  1  0.209813  0.589004  0.120835  1
  Dy  Dy10  1  0.789943  0.412615  0.120938  1
  Dy  Dy11  1  0.790010  0.587650  0.621028  1
  Dy  Dy12  1  0.911781  0.709327  0.122010  1
  Dy  Dy13  1  0.910280  0.291278  0.621299  1
  Dy  Dy14  1  0.090097  0.709324  0.620716  1
  Dy  Dy15  1  0.089762  0.291407  0.121832  1
  Dy  Dy16  1  0.000058  0.999800  0.500136  1
  Ho  Ho17  1  0.000233  0.999889  0.999894  1
  Ho  Ho18  1  0.499910  0.499784  0.000125  1
  Ho  Ho19  1  0.500219  0.500099  0.499884  1
  Ir  Ir20  1  0.153250  0.846759  0.249793  1
  Ir  Ir21  1  0.654359  0.345651  0.749997  1
  Ir  Ir22  1  0.654522  0.654218  0.249811  1
  Ir  Ir23  1  0.345783  0.345475  0.250206  1
  Ir  Ir24  1  0.346285  0.653712  0.749999  1
  Rh  Rh25  1  0.846681  0.153309  0.249825  1
  Rh  Rh26  1  0.846002  0.846613  0.750036  1
  Rh  Rh27  1  0.153385  0.154009  0.750302  1
  Rh  Rh28  1  0.500573  0.000237  0.122171  1
  Rh  Rh29  1  0.500412  0.000217  0.622712  1
  Rh  Rh30  1  0.999782  0.499587  0.877281  1
  Rh  Rh31  1  0.999764  0.499422  0.377841  1
