# generated using pymatgen
data_DyHo7Re3B24Ru
_symmetry_space_group_name_H-M   'P 1'
_cell_length_a   3.66843200
_cell_length_b   9.14717189
_cell_length_c   11.52826000
_cell_angle_alpha   90.10478145
_cell_angle_beta   90.00000000
_cell_angle_gamma   90.00000000
_symmetry_Int_Tables_number   1
_chemical_formula_structural   DyHo7Re3B24Ru
_chemical_formula_sum   'Dy1 Ho7 Re3 B24 Ru1'
_cell_volume   386.83908744
_cell_formula_units_Z   1
loop_
 _symmetry_equiv_pos_site_id
 _symmetry_equiv_pos_as_xyz
  1  'x, y, z'
loop_
 _atom_site_type_symbol
 _atom_site_label
 _atom_site_symmetry_multiplicity
 _atom_site_fract_x
 _atom_site_fract_y
 _atom_site_fract_z
 _atom_site_occupancy
  Dy  Dy0  1  0.000000  0.322219  0.414202  1
  Ho  Ho1  1  0.000000  0.677196  0.587545  1
  Ho  Ho2  1  0.000000  0.824728  0.084223  1
  Ho  Ho3  1  0.000000  0.176445  0.913719  1
  Ho  Ho4  1  0.000000  0.941953  0.369679  1
  Ho  Ho5  1  0.000000  0.056262  0.629415  1
  Ho  Ho6  1  0.000000  0.443210  0.130383  1
  Ho  Ho7  1  0.000000  0.556844  0.870934  1
  Re  Re8  1  0.000000  0.361948  0.678345  1
  Re  Re9  1  0.000000  0.138393  0.179507  1
  Re  Re10  1  0.000000  0.861550  0.820884  1
  B  B11  1  0.500000  0.554205  0.432714  1
  B  B12  1  0.500000  0.446973  0.566808  1
  B  B13  1  0.500000  0.053232  0.066745  1
  B  B14  1  0.500000  0.946826  0.933067  1
  B  B15  1  0.500000  0.748625  0.418605  1
  B  B16  1  0.500000  0.250486  0.581197  1
  B  B17  1  0.500000  0.249494  0.081218  1
  B  B18  1  0.500000  0.751088  0.918879  1
  B  B19  1  0.500000  0.791004  0.265479  1
  B  B20  1  0.500000  0.207785  0.734323  1
  B  B21  1  0.500000  0.291901  0.234817  1
  B  B22  1  0.500000  0.707742  0.765729  1
  B  B23  1  0.500000  0.631622  0.185791  1
  B  B24  1  0.500000  0.369236  0.814131  1
  B  B25  1  0.500000  0.131085  0.314771  1
  B  B26  1  0.500000  0.868653  0.685564  1
  B  B27  1  0.500000  0.982455  0.211839  1
  B  B28  1  0.500000  0.017546  0.787783  1
  B  B29  1  0.500000  0.483782  0.288162  1
  B  B30  1  0.500000  0.518083  0.712010  1
  B  B31  1  0.500000  0.601934  0.028846  1
  B  B32  1  0.500000  0.398593  0.972132  1
  B  B33  1  0.500000  0.100568  0.471489  1
  B  B34  1  0.500000  0.897655  0.528140  1
  Ru  Ru35  1  0.000000  0.638684  0.320932  1
