# generated using pymatgen
data_YbEr3(B4Ir)4
_symmetry_space_group_name_H-M   'P 1'
_cell_length_a   3.55544800
_cell_length_b   5.95316244
_cell_length_c   11.54326901
_cell_angle_alpha   89.94415757
_cell_angle_beta   90.00000000
_cell_angle_gamma   90.00000000
_symmetry_Int_Tables_number   1
_chemical_formula_structural   YbEr3(B4Ir)4
_chemical_formula_sum   'Yb1 Er3 B16 Ir4'
_cell_volume   244.32655688
_cell_formula_units_Z   1
loop_
 _symmetry_equiv_pos_site_id
 _symmetry_equiv_pos_as_xyz
  1  'x, y, z'
loop_
 _atom_site_type_symbol
 _atom_site_label
 _atom_site_symmetry_multiplicity
 _atom_site_fract_x
 _atom_site_fract_y
 _atom_site_fract_z
 _atom_site_occupancy
  Yb  Yb0  1  0.500000  0.367879  0.648594  1
  Er  Er1  1  0.500000  0.131953  0.148549  1
  Er  Er2  1  0.500000  0.867946  0.850018  1
  Er  Er3  1  0.500000  0.631703  0.352276  1
  B  B4  1  0.000000  0.475379  0.192742  1
  B  B5  1  0.000000  0.524345  0.807666  1
  B  B6  1  0.000000  0.974846  0.307437  1
  B  B7  1  0.000000  0.024624  0.691942  1
  B  B8  1  0.000000  0.292134  0.312757  1
  B  B9  1  0.000000  0.707999  0.686775  1
  B  B10  1  0.000000  0.791809  0.188202  1
  B  B11  1  0.000000  0.209609  0.811984  1
  B  B12  1  0.000000  0.363028  0.470363  1
  B  B13  1  0.000000  0.636059  0.529710  1
  B  B14  1  0.000000  0.863764  0.029916  1
  B  B15  1  0.000000  0.135611  0.970468  1
  B  B16  1  0.000000  0.387497  0.047093  1
  B  B17  1  0.000000  0.612062  0.952225  1
  B  B18  1  0.000000  0.887917  0.453705  1
  B  B19  1  0.000000  0.113429  0.547681  1
  Ir  Ir20  1  0.500000  0.144705  0.402398  1
  Ir  Ir21  1  0.500000  0.855650  0.596118  1
  Ir  Ir22  1  0.500000  0.646003  0.097179  1
  Ir  Ir23  1  0.500000  0.354048  0.904202  1
