# generated using pymatgen
data_Dy3Y5(ErIn3)2
_symmetry_space_group_name_H-M   'P 1'
_cell_length_a   9.16383858
_cell_length_b   9.16383771
_cell_length_c   9.16260121
_cell_angle_alpha   96.39682680
_cell_angle_beta   96.38748695
_cell_angle_gamma   141.01989251
_symmetry_Int_Tables_number   1
_chemical_formula_structural   Dy3Y5(ErIn3)2
_chemical_formula_sum   'Dy3 Y5 Er2 In6'
_cell_volume   456.27324340
_cell_formula_units_Z   1
loop_
 _symmetry_equiv_pos_site_id
 _symmetry_equiv_pos_as_xyz
  1  'x, y, z'
loop_
 _atom_site_type_symbol
 _atom_site_label
 _atom_site_symmetry_multiplicity
 _atom_site_fract_x
 _atom_site_fract_y
 _atom_site_fract_z
 _atom_site_occupancy
  Dy  Dy0  1  0.782284  0.918199  0.700484  1
  Dy  Dy1  1  0.417938  0.282443  0.700382  1
  Dy  Dy2  1  0.082219  0.782415  0.864634  1
  Y  Y3  1  0.717434  0.418284  0.135718  1
  Y  Y4  1  0.282700  0.581963  0.864663  1
  Y  Y5  1  0.582181  0.717519  0.299699  1
  Y  Y6  1  0.217424  0.082138  0.299563  1
  Y  Y7  1  0.917935  0.217517  0.135450  1
  Er  Er8  1  0.749969  0.249901  0.499884  1
  Er  Er9  1  0.249983  0.749913  0.499884  1
  In  In10  1  0.838973  0.660786  0.499759  1
  In  In11  1  0.339106  0.839045  0.178151  1
  In  In12  1  0.750208  0.750207  0.000090  1
  In  In13  1  0.660970  0.160882  0.821852  1
  In  In14  1  0.160793  0.338905  0.499698  1
  In  In15  1  0.249883  0.249882  0.000090  1
