# generated using pymatgen
data_Rb4Li2TiCdAs4
_symmetry_space_group_name_H-M   'P 1'
_cell_length_a   9.28136629
_cell_length_b   9.28136635
_cell_length_c   9.28136585
_cell_angle_alpha   139.06701828
_cell_angle_beta   138.70261593
_cell_angle_gamma   59.55103463
_symmetry_Int_Tables_number   1
_chemical_formula_structural   Rb4Li2TiCdAs4
_chemical_formula_sum   'Rb4 Li2 Ti1 Cd1 As4'
_cell_volume   342.27686442
_cell_formula_units_Z   1
loop_
 _symmetry_equiv_pos_site_id
 _symmetry_equiv_pos_as_xyz
  1  'x, y, z'
loop_
 _atom_site_type_symbol
 _atom_site_label
 _atom_site_symmetry_multiplicity
 _atom_site_fract_x
 _atom_site_fract_y
 _atom_site_fract_z
 _atom_site_occupancy
  Rb  Rb0  1  0.097785  0.308750  0.755174  1
  Rb  Rb1  1  0.446423  0.191250  0.289035  1
  Rb  Rb2  1  0.902215  0.657388  0.210965  1
  Rb  Rb3  1  0.553577  0.842612  0.744826  1
  Li  Li4  1  0.500000  0.750000  0.250000  1
  Li  Li5  1  0.500000  0.250000  0.750000  1
  Ti  Ti6  1  0.000000  0.750000  0.750000  1
  Cd  Cd7  1  0.000000  0.250000  0.250000  1
  As  As8  1  0.145014  0.887065  0.208002  1
  As  As9  1  0.854986  0.062988  0.742051  1
  As  As10  1  0.320937  0.612935  0.757949  1
  As  As11  1  0.679063  0.437012  0.291998  1
