# generated using pymatgen
data_Th4Sc5CdSi8
_symmetry_space_group_name_H-M   'P 1'
_cell_length_a   7.12724592
_cell_length_b   7.41850720
_cell_length_c   14.53485500
_cell_angle_alpha   90.00000000
_cell_angle_beta   90.00000000
_cell_angle_gamma   90.43157261
_symmetry_Int_Tables_number   1
_chemical_formula_structural   Th4Sc5CdSi8
_chemical_formula_sum   'Th8 Sc10 Cd2 Si16'
_cell_volume   768.48722083
_cell_formula_units_Z   2
loop_
 _symmetry_equiv_pos_site_id
 _symmetry_equiv_pos_as_xyz
  1  'x, y, z'
loop_
 _atom_site_type_symbol
 _atom_site_label
 _atom_site_symmetry_multiplicity
 _atom_site_fract_x
 _atom_site_fract_y
 _atom_site_fract_z
 _atom_site_occupancy
  Th  Th0  1  0.003544  0.674852  0.597560  1
  Th  Th1  1  0.996456  0.325148  0.402440  1
  Th  Th2  1  0.505517  0.171532  0.402344  1
  Th  Th3  1  0.996456  0.325148  0.097560  1
  Th  Th4  1  0.494483  0.828468  0.597656  1
  Th  Th5  1  0.003544  0.674852  0.902440  1
  Th  Th6  1  0.494483  0.828468  0.902344  1
  Th  Th7  1  0.505517  0.171532  0.097656  1
  Sc  Sc8  1  0.325444  0.499315  0.250000  1
  Sc  Sc9  1  0.674556  0.500685  0.750000  1
  Sc  Sc10  1  0.340343  0.319481  0.622206  1
  Sc  Sc11  1  0.659657  0.680519  0.377794  1
  Sc  Sc12  1  0.148433  0.822745  0.374794  1
  Sc  Sc13  1  0.659657  0.680519  0.122206  1
  Sc  Sc14  1  0.851567  0.177255  0.625206  1
  Sc  Sc15  1  0.340343  0.319481  0.877794  1
  Sc  Sc16  1  0.851567  0.177255  0.874794  1
  Sc  Sc17  1  0.148433  0.822745  0.125206  1
  Cd  Cd18  1  0.169143  0.002086  0.750000  1
  Cd  Cd19  1  0.830857  0.997914  0.250000  1
  Si  Si20  1  0.047525  0.389906  0.750000  1
  Si  Si21  1  0.952475  0.610094  0.250000  1
  Si  Si22  1  0.441925  0.874765  0.250000  1
  Si  Si23  1  0.558075  0.125235  0.750000  1
  Si  Si24  1  0.307052  0.604860  0.750000  1
  Si  Si25  1  0.692948  0.395140  0.250000  1
  Si  Si26  1  0.215925  0.127699  0.250000  1
  Si  Si27  1  0.784075  0.872301  0.750000  1
  Si  Si28  1  0.167370  0.042446  0.526507  1
  Si  Si29  1  0.832630  0.957554  0.473493  1
  Si  Si30  1  0.330043  0.538179  0.462234  1
  Si  Si31  1  0.832630  0.957554  0.026507  1
  Si  Si32  1  0.669957  0.461821  0.537766  1
  Si  Si33  1  0.167370  0.042446  0.973493  1
  Si  Si34  1  0.669957  0.461821  0.962234  1
  Si  Si35  1  0.330043  0.538179  0.037766  1
