# generated using pymatgen
data_LiTm6Sn23Rh6
_symmetry_space_group_name_H-M   'P 1'
_cell_length_a   9.82701600
_cell_length_b   9.82701607
_cell_length_c   10.08148600
_cell_angle_alpha   90.00000000
_cell_angle_beta   90.00000000
_cell_angle_gamma   120.00000651
_symmetry_Int_Tables_number   1
_chemical_formula_structural   LiTm6Sn23Rh6
_chemical_formula_sum   'Li1 Tm6 Sn23 Rh6'
_cell_volume   843.13765172
_cell_formula_units_Z   1
loop_
 _symmetry_equiv_pos_site_id
 _symmetry_equiv_pos_as_xyz
  1  'x, y, z'
loop_
 _atom_site_type_symbol
 _atom_site_label
 _atom_site_symmetry_multiplicity
 _atom_site_fract_x
 _atom_site_fract_y
 _atom_site_fract_z
 _atom_site_occupancy
  Li  Li0  1  0.000000  0.000000  0.000000  1
  Tm  Tm1  1  0.480916  0.519084  0.306608  1
  Tm  Tm2  1  0.519084  0.480916  0.693392  1
  Tm  Tm3  1  0.480916  0.961832  0.306608  1
  Tm  Tm4  1  0.519084  0.038168  0.693392  1
  Tm  Tm5  1  0.038168  0.519084  0.306608  1
  Tm  Tm6  1  0.961832  0.480916  0.693392  1
  Sn  Sn7  1  0.348645  0.000000  0.000000  1
  Sn  Sn8  1  0.651355  0.000000  0.000000  1
  Sn  Sn9  1  0.000000  0.348645  0.000000  1
  Sn  Sn10  1  0.000000  0.651355  0.000000  1
  Sn  Sn11  1  0.651355  0.651355  0.000000  1
  Sn  Sn12  1  0.348645  0.348645  0.000000  1
  Sn  Sn13  1  0.333333  0.666667  0.820472  1
  Sn  Sn14  1  0.666667  0.333333  0.179528  1
  Sn  Sn15  1  0.000000  0.000000  0.500000  1
  Sn  Sn16  1  0.777383  0.222617  0.458319  1
  Sn  Sn17  1  0.222617  0.777383  0.541681  1
  Sn  Sn18  1  0.777383  0.554766  0.458319  1
  Sn  Sn19  1  0.222617  0.445234  0.541681  1
  Sn  Sn20  1  0.445234  0.222617  0.458319  1
  Sn  Sn21  1  0.554766  0.777383  0.541681  1
  Sn  Sn22  1  0.333333  0.666667  0.126103  1
  Sn  Sn23  1  0.666667  0.333333  0.873897  1
  Sn  Sn24  1  0.119357  0.880643  0.280090  1
  Sn  Sn25  1  0.880643  0.119357  0.719910  1
  Sn  Sn26  1  0.119357  0.238717  0.280090  1
  Sn  Sn27  1  0.880643  0.761283  0.719910  1
  Sn  Sn28  1  0.761283  0.880643  0.280090  1
  Sn  Sn29  1  0.238717  0.119357  0.719910  1
  Rh  Rh30  1  0.828258  0.171742  0.202624  1
  Rh  Rh31  1  0.171742  0.828258  0.797376  1
  Rh  Rh32  1  0.828258  0.656514  0.202624  1
  Rh  Rh33  1  0.171742  0.343486  0.797376  1
  Rh  Rh34  1  0.343486  0.171742  0.202624  1
  Rh  Rh35  1  0.656514  0.828258  0.797376  1
