# generated using pymatgen
data_Ho3Th(CdCu2)2
_symmetry_space_group_name_H-M   'P 1'
_cell_length_a   7.60523361
_cell_length_b   7.60523361
_cell_length_c   3.68058400
_cell_angle_alpha   90.00000000
_cell_angle_beta   90.00000000
_cell_angle_gamma   91.03566095
_symmetry_Int_Tables_number   1
_chemical_formula_structural   Ho3Th(CdCu2)2
_chemical_formula_sum   'Ho3 Th1 Cd2 Cu4'
_cell_volume   212.84864926
_cell_formula_units_Z   1
loop_
 _symmetry_equiv_pos_site_id
 _symmetry_equiv_pos_as_xyz
  1  'x, y, z'
loop_
 _atom_site_type_symbol
 _atom_site_label
 _atom_site_symmetry_multiplicity
 _atom_site_fract_x
 _atom_site_fract_y
 _atom_site_fract_z
 _atom_site_occupancy
  Ho  Ho0  1  0.323493  0.823493  0.500000  1
  Ho  Ho1  1  0.176374  0.328501  0.500000  1
  Ho  Ho2  1  0.828501  0.676374  0.500000  1
  Th  Th3  1  0.673273  0.173273  0.500000  1
  Cd  Cd4  1  0.006028  0.996879  0.000000  1
  Cd  Cd5  1  0.496879  0.506028  0.000000  1
  Cu  Cu6  1  0.118901  0.618901  0.000000  1
  Cu  Cu7  1  0.882938  0.382938  0.000000  1
  Cu  Cu8  1  0.618007  0.875606  0.000000  1
  Cu  Cu9  1  0.375606  0.118007  0.000000  1
