# generated using pymatgen
data_Sc5V3(Co4P3)4
_symmetry_space_group_name_H-M   'P 1'
_cell_length_a   11.90371900
_cell_length_b   11.90371870
_cell_length_c   3.59395400
_cell_angle_alpha   90.00000000
_cell_angle_beta   90.00000000
_cell_angle_gamma   119.99999804
_symmetry_Int_Tables_number   1
_chemical_formula_structural   Sc5V3(Co4P3)4
_chemical_formula_sum   'Sc5 V3 Co16 P12'
_cell_volume   441.03034930
_cell_formula_units_Z   1
loop_
 _symmetry_equiv_pos_site_id
 _symmetry_equiv_pos_as_xyz
  1  'x, y, z'
loop_
 _atom_site_type_symbol
 _atom_site_label
 _atom_site_symmetry_multiplicity
 _atom_site_fract_x
 _atom_site_fract_y
 _atom_site_fract_z
 _atom_site_occupancy
  Sc  Sc0  1  0.816261  0.000000  0.500000  1
  Sc  Sc1  1  0.000000  0.816261  0.500000  1
  Sc  Sc2  1  0.183739  0.183739  0.500000  1
  Sc  Sc3  1  0.333333  0.666667  0.000000  1
  Sc  Sc4  1  0.666667  0.333333  0.000000  1
  V  V5  1  0.445694  0.000000  0.000000  1
  V  V6  1  0.000000  0.445694  0.000000  1
  V  V7  1  0.554306  0.554306  0.000000  1
  Co  Co8  1  0.281265  0.000000  0.500000  1
  Co  Co9  1  0.000000  0.281265  0.500000  1
  Co  Co10  1  0.718735  0.718735  0.500000  1
  Co  Co11  1  0.625398  0.802032  0.000000  1
  Co  Co12  1  0.197968  0.823366  0.000000  1
  Co  Co13  1  0.176634  0.374602  0.000000  1
  Co  Co14  1  0.374602  0.176634  0.000000  1
  Co  Co15  1  0.802032  0.625398  0.000000  1
  Co  Co16  1  0.823366  0.197968  0.000000  1
  Co  Co17  1  0.518590  0.872658  0.500000  1
  Co  Co18  1  0.127342  0.645932  0.500000  1
  Co  Co19  1  0.354068  0.481410  0.500000  1
  Co  Co20  1  0.481410  0.354068  0.500000  1
  Co  Co21  1  0.872658  0.518590  0.500000  1
  Co  Co22  1  0.645932  0.127342  0.500000  1
  Co  Co23  1  0.000000  0.000000  0.000000  1
  P  P24  1  0.176606  0.000000  0.000000  1
  P  P25  1  0.000000  0.176606  0.000000  1
  P  P26  1  0.823394  0.823394  0.000000  1
  P  P27  1  0.516651  0.683141  0.500000  1
  P  P28  1  0.316859  0.833509  0.500000  1
  P  P29  1  0.166491  0.483349  0.500000  1
  P  P30  1  0.483349  0.166491  0.500000  1
  P  P31  1  0.683141  0.516651  0.500000  1
  P  P32  1  0.833509  0.316859  0.500000  1
  P  P33  1  0.642773  0.000000  0.000000  1
  P  P34  1  0.000000  0.642773  0.000000  1
  P  P35  1  0.357227  0.357227  0.000000  1
