# generated using pymatgen
data_Ca3(AcSi2)2
_symmetry_space_group_name_H-M   'P 1'
_cell_length_a   8.11468600
_cell_length_b   8.11468600
_cell_length_c   15.09440400
_cell_angle_alpha   90.00000000
_cell_angle_beta   90.00000000
_cell_angle_gamma   90.00000000
_symmetry_Int_Tables_number   1
_chemical_formula_structural   Ca3(AcSi2)2
_chemical_formula_sum   'Ca12 Ac8 Si16'
_cell_volume   993.93825994
_cell_formula_units_Z   4
loop_
 _symmetry_equiv_pos_site_id
 _symmetry_equiv_pos_as_xyz
  1  'x, y, z'
loop_
 _atom_site_type_symbol
 _atom_site_label
 _atom_site_symmetry_multiplicity
 _atom_site_fract_x
 _atom_site_fract_y
 _atom_site_fract_z
 _atom_site_occupancy
  Ca  Ca0  1  0.370269  0.490814  0.374648  1
  Ca  Ca1  1  0.870269  0.009186  0.375352  1
  Ca  Ca2  1  0.990814  0.129731  0.124648  1
  Ca  Ca3  1  0.009186  0.870269  0.624648  1
  Ca  Ca4  1  0.629731  0.509186  0.874648  1
  Ca  Ca5  1  0.490814  0.370269  0.625352  1
  Ca  Ca6  1  0.509186  0.629731  0.125352  1
  Ca  Ca7  1  0.129731  0.990814  0.875352  1
  Ca  Ca8  1  0.687705  0.687705  0.500000  1
  Ca  Ca9  1  0.812295  0.187705  0.750000  1
  Ca  Ca10  1  0.187705  0.812295  0.250000  1
  Ca  Ca11  1  0.312295  0.312295  0.000000  1
  Ac  Ac12  1  0.987797  0.625376  0.048181  1
  Ac  Ac13  1  0.012203  0.374624  0.548181  1
  Ac  Ac14  1  0.625376  0.987797  0.951819  1
  Ac  Ac15  1  0.125376  0.512203  0.798181  1
  Ac  Ac16  1  0.874624  0.487797  0.298181  1
  Ac  Ac17  1  0.512203  0.125376  0.201819  1
  Ac  Ac18  1  0.487797  0.874624  0.701819  1
  Ac  Ac19  1  0.374624  0.012203  0.451819  1
  Si  Si20  1  0.083303  0.713193  0.440610  1
  Si  Si21  1  0.916697  0.286807  0.940610  1
  Si  Si22  1  0.713193  0.083303  0.559390  1
  Si  Si23  1  0.213194  0.416697  0.190610  1
  Si  Si24  1  0.786807  0.583303  0.690610  1
  Si  Si25  1  0.416697  0.213194  0.809390  1
  Si  Si26  1  0.583303  0.786807  0.309390  1
  Si  Si27  1  0.286807  0.916697  0.059390  1
  Si  Si28  1  0.835917  0.795782  0.803906  1
  Si  Si29  1  0.164083  0.204218  0.303906  1
  Si  Si30  1  0.795782  0.835917  0.196094  1
  Si  Si31  1  0.295782  0.664083  0.553906  1
  Si  Si32  1  0.704218  0.335917  0.053906  1
  Si  Si33  1  0.664083  0.295782  0.446094  1
  Si  Si34  1  0.335917  0.704218  0.946094  1
  Si  Si35  1  0.204218  0.164083  0.696094  1
