# generated using pymatgen
data_TbDyEr2(AlPt)4
_symmetry_space_group_name_H-M   'P 1'
_cell_length_a   4.43553300
_cell_length_b   6.87142275
_cell_length_c   7.74705400
_cell_angle_alpha   91.42945953
_cell_angle_beta   90.00000000
_cell_angle_gamma   90.00000000
_symmetry_Int_Tables_number   1
_chemical_formula_structural   TbDyEr2(AlPt)4
_chemical_formula_sum   'Tb1 Dy1 Er2 Al4 Pt4'
_cell_volume   236.04450277
_cell_formula_units_Z   1
loop_
 _symmetry_equiv_pos_site_id
 _symmetry_equiv_pos_as_xyz
  1  'x, y, z'
loop_
 _atom_site_type_symbol
 _atom_site_label
 _atom_site_symmetry_multiplicity
 _atom_site_fract_x
 _atom_site_fract_y
 _atom_site_fract_z
 _atom_site_occupancy
  Tb  Tb0  1  0.750000  0.529937  0.817538  1
  Dy  Dy1  1  0.250000  0.469728  0.182766  1
  Er  Er2  1  0.750000  0.027949  0.681257  1
  Er  Er3  1  0.250000  0.972106  0.318574  1
  Al  Al4  1  0.250000  0.852919  0.936724  1
  Al  Al5  1  0.750000  0.147127  0.063453  1
  Al  Al6  1  0.750000  0.649072  0.436139  1
  Al  Al7  1  0.250000  0.350831  0.563489  1
  Pt  Pt8  1  0.250000  0.729323  0.612432  1
  Pt  Pt9  1  0.750000  0.271148  0.387066  1
  Pt  Pt10  1  0.750000  0.777189  0.118656  1
  Pt  Pt11  1  0.250000  0.222671  0.881907  1
