# generated using pymatgen
data_TbTm2Al4Ni9B2
_symmetry_space_group_name_H-M   'P 1'
_cell_length_a   5.15759600
_cell_length_b   5.15759759
_cell_length_c   10.58023900
_cell_angle_alpha   90.00000000
_cell_angle_beta   90.00000000
_cell_angle_gamma   119.99998977
_symmetry_Int_Tables_number   1
_chemical_formula_structural   TbTm2Al4Ni9B2
_chemical_formula_sum   'Tb1 Tm2 Al4 Ni9 B2'
_cell_volume   243.73670162
_cell_formula_units_Z   1
loop_
 _symmetry_equiv_pos_site_id
 _symmetry_equiv_pos_as_xyz
  1  'x, y, z'
loop_
 _atom_site_type_symbol
 _atom_site_label
 _atom_site_symmetry_multiplicity
 _atom_site_fract_x
 _atom_site_fract_y
 _atom_site_fract_z
 _atom_site_occupancy
  Tb  Tb0  1  0.000000  0.000000  0.661968  1
  Tm  Tm1  1  0.000000  0.000000  0.000943  1
  Tm  Tm2  1  0.000000  0.000000  0.336902  1
  Al  Al3  1  0.333333  0.666667  0.315188  1
  Al  Al4  1  0.666667  0.333333  0.315188  1
  Al  Al5  1  0.666667  0.333333  0.684466  1
  Al  Al6  1  0.333333  0.666667  0.684466  1
  Ni  Ni7  1  0.500000  0.000000  0.499290  1
  Ni  Ni8  1  0.500000  0.500000  0.499290  1
  Ni  Ni9  1  0.000000  0.500000  0.499290  1
  Ni  Ni10  1  0.500000  0.000000  0.129217  1
  Ni  Ni11  1  0.500000  0.500000  0.129217  1
  Ni  Ni12  1  0.000000  0.500000  0.129217  1
  Ni  Ni13  1  0.500000  0.000000  0.871554  1
  Ni  Ni14  1  0.500000  0.500000  0.871554  1
  Ni  Ni15  1  0.000000  0.500000  0.871554  1
  B  B16  1  0.333333  0.666667  0.000347  1
  B  B17  1  0.666667  0.333333  0.000347  1
