# generated using pymatgen
data_Sc12InCo4Rh
_symmetry_space_group_name_H-M   'P 1'
_cell_length_a   7.72823749
_cell_length_b   7.72823699
_cell_length_c   7.72823715
_cell_angle_alpha   111.03009942
_cell_angle_beta   111.57562813
_cell_angle_gamma   105.86744100
_symmetry_Int_Tables_number   1
_chemical_formula_structural   Sc12InCo4Rh
_chemical_formula_sum   'Sc12 In1 Co4 Rh1'
_cell_volume   354.26550494
_cell_formula_units_Z   1
loop_
 _symmetry_equiv_pos_site_id
 _symmetry_equiv_pos_as_xyz
  1  'x, y, z'
loop_
 _atom_site_type_symbol
 _atom_site_label
 _atom_site_symmetry_multiplicity
 _atom_site_fract_x
 _atom_site_fract_y
 _atom_site_fract_z
 _atom_site_occupancy
  Sc  Sc0  1  0.423228  0.223797  0.199430  1
  Sc  Sc1  1  0.576772  0.776203  0.800570  1
  Sc  Sc2  1  0.024367  0.223797  0.800570  1
  Sc  Sc3  1  0.975633  0.776203  0.199430  1
  Sc  Sc4  1  0.312368  0.613041  0.300672  1
  Sc  Sc5  1  0.687632  0.386959  0.699328  1
  Sc  Sc6  1  0.312368  0.011695  0.699328  1
  Sc  Sc7  1  0.687632  0.988305  0.300672  1
  Sc  Sc8  1  0.186527  0.279181  0.465709  1
  Sc  Sc9  1  0.813473  0.720818  0.534291  1
  Sc  Sc10  1  0.186527  0.720818  0.907345  1
  Sc  Sc11  1  0.813473  0.279181  0.092655  1
  In  In12  1  0.500000  0.500000  0.000000  1
  Co  Co13  1  0.369245  0.000000  0.369245  1
  Co  Co14  1  0.630755  0.000000  0.630755  1
  Co  Co15  1  0.117695  0.617695  0.500000  1
  Co  Co16  1  0.882305  0.382305  0.500000  1
  Rh  Rh17  1  0.000000  0.000000  0.000000  1
