# generated using pymatgen
data_DyErCo6(P3Rh2)2
_symmetry_space_group_name_H-M   'P 1'
_cell_length_a   3.73237200
_cell_length_b   10.47742500
_cell_length_c   12.08958000
_cell_angle_alpha   90.00000000
_cell_angle_beta   90.00000000
_cell_angle_gamma   90.00000000
_symmetry_Int_Tables_number   1
_chemical_formula_structural   DyErCo6(P3Rh2)2
_chemical_formula_sum   'Dy2 Er2 Co12 P12 Rh8'
_cell_volume   472.77085635
_cell_formula_units_Z   2
loop_
 _symmetry_equiv_pos_site_id
 _symmetry_equiv_pos_as_xyz
  1  'x, y, z'
loop_
 _atom_site_type_symbol
 _atom_site_label
 _atom_site_symmetry_multiplicity
 _atom_site_fract_x
 _atom_site_fract_y
 _atom_site_fract_z
 _atom_site_occupancy
  Dy  Dy0  1  0.250000  0.584078  0.711150  1
  Dy  Dy1  1  0.250000  0.915922  0.211150  1
  Er  Er2  1  0.750000  0.416081  0.288851  1
  Er  Er3  1  0.750000  0.083919  0.788851  1
  Co  Co4  1  0.250000  0.221074  0.178397  1
  Co  Co5  1  0.250000  0.278926  0.678397  1
  Co  Co6  1  0.750000  0.779588  0.821772  1
  Co  Co7  1  0.750000  0.720412  0.321772  1
  Co  Co8  1  0.250000  0.882834  0.697140  1
  Co  Co9  1  0.250000  0.617166  0.197140  1
  Co  Co10  1  0.750000  0.118004  0.303174  1
  Co  Co11  1  0.750000  0.381996  0.803174  1
  Co  Co12  1  0.250000  0.462564  0.931576  1
  Co  Co13  1  0.250000  0.037436  0.431576  1
  Co  Co14  1  0.750000  0.536934  0.068961  1
  Co  Co15  1  0.750000  0.963066  0.568961  1
  P  P16  1  0.250000  0.421606  0.110998  1
  P  P17  1  0.250000  0.078394  0.610998  1
  P  P18  1  0.750000  0.578285  0.889799  1
  P  P19  1  0.750000  0.921715  0.389799  1
  P  P20  1  0.250000  0.273871  0.861800  1
  P  P21  1  0.250000  0.226129  0.361800  1
  P  P22  1  0.750000  0.725483  0.137943  1
  P  P23  1  0.750000  0.774517  0.637943  1
  P  P24  1  0.250000  0.603813  0.379091  1
  P  P25  1  0.250000  0.896187  0.879091  1
  P  P26  1  0.750000  0.395618  0.620704  1
  P  P27  1  0.750000  0.104382  0.120704  1
  Rh  Rh28  1  0.250000  0.711995  0.986448  1
  Rh  Rh29  1  0.250000  0.788005  0.486448  1
  Rh  Rh30  1  0.750000  0.288043  0.013394  1
  Rh  Rh31  1  0.750000  0.211957  0.513394  1
  Rh  Rh32  1  0.250000  0.406574  0.478374  1
  Rh  Rh33  1  0.250000  0.093426  0.978374  1
  Rh  Rh34  1  0.750000  0.593342  0.520427  1
  Rh  Rh35  1  0.750000  0.906658  0.020427  1
