# generated using pymatgen
data_TbBeRe2C
_symmetry_space_group_name_H-M   'P 1'
_cell_length_a   5.64530128
_cell_length_b   5.64530007
_cell_length_c   7.30810500
_cell_angle_alpha   90.00000000
_cell_angle_beta   90.00000000
_cell_angle_gamma   140.71329047
_symmetry_Int_Tables_number   1
_chemical_formula_structural   TbBeRe2C
_chemical_formula_sum   'Tb2 Be2 Re4 C2'
_cell_volume   147.47580290
_cell_formula_units_Z   2
loop_
 _symmetry_equiv_pos_site_id
 _symmetry_equiv_pos_as_xyz
  1  'x, y, z'
loop_
 _atom_site_type_symbol
 _atom_site_label
 _atom_site_symmetry_multiplicity
 _atom_site_fract_x
 _atom_site_fract_y
 _atom_site_fract_z
 _atom_site_occupancy
  Tb  Tb0  1  0.535239  0.464761  0.250000  1
  Tb  Tb1  1  0.464761  0.535239  0.750000  1
  Be  Be2  1  0.257936  0.742064  0.250000  1
  Be  Be3  1  0.742064  0.257936  0.750000  1
  Re  Re4  1  0.820017  0.179983  0.062577  1
  Re  Re5  1  0.179983  0.820017  0.937423  1
  Re  Re6  1  0.179983  0.820017  0.562577  1
  Re  Re7  1  0.820017  0.179983  0.437423  1
  C  C8  1  0.000000  0.000000  0.000000  1
  C  C9  1  0.000000  0.000000  0.500000  1
