# generated using pymatgen
data_PrNd5MgCo17P12
_symmetry_space_group_name_H-M   'P 1'
_cell_length_a   3.78073000
_cell_length_b   10.69367000
_cell_length_c   12.43442600
_cell_angle_alpha   90.00000000
_cell_angle_beta   90.00000000
_cell_angle_gamma   90.00000000
_symmetry_Int_Tables_number   1
_chemical_formula_structural   PrNd5MgCo17P12
_chemical_formula_sum   'Pr1 Nd5 Mg1 Co17 P12'
_cell_volume   502.72233835
_cell_formula_units_Z   1
loop_
 _symmetry_equiv_pos_site_id
 _symmetry_equiv_pos_as_xyz
  1  'x, y, z'
loop_
 _atom_site_type_symbol
 _atom_site_label
 _atom_site_symmetry_multiplicity
 _atom_site_fract_x
 _atom_site_fract_y
 _atom_site_fract_z
 _atom_site_occupancy
  Pr  Pr0  1  0.500000  0.000000  0.474917  1
  Nd  Nd1  1  0.000000  0.500000  0.520461  1
  Nd  Nd2  1  0.500000  0.816848  0.205642  1
  Nd  Nd3  1  0.500000  0.183152  0.205642  1
  Nd  Nd4  1  0.000000  0.679547  0.792541  1
  Nd  Nd5  1  0.000000  0.320453  0.792541  1
  Mg  Mg6  1  0.000000  0.000000  0.849204  1
  Co  Co7  1  0.500000  0.500000  0.158835  1
  Co  Co8  1  0.500000  0.500000  0.704977  1
  Co  Co9  1  0.000000  0.000000  0.294211  1
  Co  Co10  1  0.000000  0.500000  0.988906  1
  Co  Co11  1  0.500000  0.000000  0.013703  1
  Co  Co12  1  0.500000  0.337267  0.998957  1
  Co  Co13  1  0.500000  0.662733  0.998957  1
  Co  Co14  1  0.000000  0.170819  0.006248  1
  Co  Co15  1  0.000000  0.829181  0.006248  1
  Co  Co16  1  0.500000  0.298446  0.429081  1
  Co  Co17  1  0.500000  0.701554  0.429081  1
  Co  Co18  1  0.000000  0.204657  0.567833  1
  Co  Co19  1  0.000000  0.795343  0.567833  1
  Co  Co20  1  0.500000  0.879189  0.706354  1
  Co  Co21  1  0.500000  0.120811  0.706354  1
  Co  Co22  1  0.000000  0.617610  0.289749  1
  Co  Co23  1  0.000000  0.382390  0.289749  1
  P  P24  1  0.500000  0.500000  0.886937  1
  P  P25  1  0.000000  0.000000  0.113659  1
  P  P26  1  0.500000  0.500000  0.339831  1
  P  P27  1  0.000000  0.000000  0.651101  1
  P  P28  1  0.500000  0.306393  0.612226  1
  P  P29  1  0.500000  0.693607  0.612226  1
  P  P30  1  0.000000  0.196287  0.384793  1
  P  P31  1  0.000000  0.803713  0.384793  1
  P  P32  1  0.500000  0.838691  0.900775  1
  P  P33  1  0.500000  0.161309  0.900775  1
  P  P34  1  0.000000  0.649202  0.107427  1
  P  P35  1  0.000000  0.350798  0.107427  1
