# generated using pymatgen
data_Sr6Li2TaSbO12
_symmetry_space_group_name_H-M   'P 1'
_cell_length_a   6.84609300
_cell_length_b   6.84609281
_cell_length_c   6.84609235
_cell_angle_alpha   92.61142005
_cell_angle_beta   92.61141129
_cell_angle_gamma   92.61141094
_symmetry_Int_Tables_number   1
_chemical_formula_structural   Sr6Li2TaSbO12
_chemical_formula_sum   'Sr6 Li2 Ta1 Sb1 O12'
_cell_volume   319.83827812
_cell_formula_units_Z   1
loop_
 _symmetry_equiv_pos_site_id
 _symmetry_equiv_pos_as_xyz
  1  'x, y, z'
loop_
 _atom_site_type_symbol
 _atom_site_label
 _atom_site_symmetry_multiplicity
 _atom_site_fract_x
 _atom_site_fract_y
 _atom_site_fract_z
 _atom_site_occupancy
  Sr  Sr0  1  0.101128  0.750165  0.398468  1
  Sr  Sr1  1  0.398468  0.101128  0.750165  1
  Sr  Sr2  1  0.750165  0.398468  0.101128  1
  Sr  Sr3  1  0.898872  0.249835  0.601532  1
  Sr  Sr4  1  0.601532  0.898872  0.249835  1
  Sr  Sr5  1  0.249835  0.601532  0.898872  1
  Li  Li6  1  0.250047  0.250047  0.250047  1
  Li  Li7  1  0.749953  0.749953  0.749953  1
  Ta  Ta8  1  0.000000  0.000000  0.000000  1
  Sb  Sb9  1  0.500000  0.500000  0.500000  1
  O  O10  1  0.218481  0.419495  0.547113  1
  O  O11  1  0.547113  0.218481  0.419495  1
  O  O12  1  0.419495  0.547113  0.218481  1
  O  O13  1  0.047418  0.920307  0.719697  1
  O  O14  1  0.719697  0.047418  0.920307  1
  O  O15  1  0.920307  0.719697  0.047418  1
  O  O16  1  0.781519  0.580505  0.452887  1
  O  O17  1  0.452887  0.781519  0.580505  1
  O  O18  1  0.580505  0.452887  0.781519  1
  O  O19  1  0.952582  0.079693  0.280303  1
  O  O20  1  0.280303  0.952582  0.079693  1
  O  O21  1  0.079693  0.280303  0.952582  1
