# generated using pymatgen
data_Y11Cd9Pd4
_symmetry_space_group_name_H-M   'P 1'
_cell_length_a   13.15848761
_cell_length_b   13.15857811
_cell_length_c   3.75104000
_cell_angle_alpha   90.00000000
_cell_angle_beta   90.00000000
_cell_angle_gamma   113.00081911
_symmetry_Int_Tables_number   1
_chemical_formula_structural   Y11Cd9Pd4
_chemical_formula_sum   'Y11 Cd9 Pd4'
_cell_volume   597.84703726
_cell_formula_units_Z   1
loop_
 _symmetry_equiv_pos_site_id
 _symmetry_equiv_pos_as_xyz
  1  'x, y, z'
loop_
 _atom_site_type_symbol
 _atom_site_label
 _atom_site_symmetry_multiplicity
 _atom_site_fract_x
 _atom_site_fract_y
 _atom_site_fract_z
 _atom_site_occupancy
  Y  Y0  1  0.414769  0.075039  0.000000  1
  Y  Y1  1  0.585231  0.924961  0.000000  1
  Y  Y2  1  0.075039  0.414769  0.000000  1
  Y  Y3  1  0.924961  0.585231  0.000000  1
  Y  Y4  1  0.162982  0.837018  0.000000  1
  Y  Y5  1  0.837018  0.162982  0.000000  1
  Y  Y6  1  0.372789  0.627210  0.000000  1
  Y  Y7  1  0.627211  0.372790  0.000000  1
  Y  Y8  1  0.307406  0.307407  0.000000  1
  Y  Y9  1  0.692594  0.692593  0.000000  1
  Y  Y10  1  0.000000  0.000000  0.000000  1
  Cd  Cd11  1  0.367241  0.842455  0.500000  1
  Cd  Cd12  1  0.632759  0.157545  0.500000  1
  Cd  Cd13  1  0.842457  0.367244  0.500000  1
  Cd  Cd14  1  0.157543  0.632756  0.500000  1
  Cd  Cd15  1  0.214059  0.068918  0.500000  1
  Cd  Cd16  1  0.785941  0.931082  0.500000  1
  Cd  Cd17  1  0.068918  0.214062  0.500000  1
  Cd  Cd18  1  0.931082  0.785938  0.500000  1
  Cd  Cd19  1  0.500000  0.500000  0.500000  1
  Pd  Pd20  1  0.450323  0.249546  0.500000  1
  Pd  Pd21  1  0.549677  0.750454  0.500000  1
  Pd  Pd22  1  0.249542  0.450323  0.500000  1
  Pd  Pd23  1  0.750458  0.549677  0.500000  1
