# generated using pymatgen
data_YEr5Al16(SiOs)8
_symmetry_space_group_name_H-M   'P 1'
_cell_length_a   8.67400709
_cell_length_b   8.67482185
_cell_length_c   9.39752900
_cell_angle_alpha   90.00000000
_cell_angle_beta   90.00000000
_cell_angle_gamma   120.08112209
_symmetry_Int_Tables_number   1
_chemical_formula_structural   YEr5Al16(SiOs)8
_chemical_formula_sum   'Y1 Er5 Al16 Si8 Os8'
_cell_volume   611.88393890
_cell_formula_units_Z   1
loop_
 _symmetry_equiv_pos_site_id
 _symmetry_equiv_pos_as_xyz
  1  'x, y, z'
loop_
 _atom_site_type_symbol
 _atom_site_label
 _atom_site_symmetry_multiplicity
 _atom_site_fract_x
 _atom_site_fract_y
 _atom_site_fract_z
 _atom_site_occupancy
  Y  Y0  1  0.191808  0.386706  0.250000  1
  Er  Er1  1  0.807326  0.611359  0.750000  1
  Er  Er2  1  0.612273  0.807953  0.250000  1
  Er  Er3  1  0.388548  0.192617  0.750000  1
  Er  Er4  1  0.195089  0.805245  0.250000  1
  Er  Er5  1  0.804690  0.195304  0.750000  1
  Al  Al6  1  0.165472  0.329188  0.578767  1
  Al  Al7  1  0.834491  0.670902  0.421706  1
  Al  Al8  1  0.670750  0.834476  0.578415  1
  Al  Al9  1  0.834491  0.670902  0.078294  1
  Al  Al10  1  0.329257  0.165329  0.421911  1
  Al  Al11  1  0.165472  0.329188  0.921233  1
  Al  Al12  1  0.164526  0.835449  0.578210  1
  Al  Al13  1  0.329257  0.165329  0.078089  1
  Al  Al14  1  0.835184  0.164277  0.422076  1
  Al  Al15  1  0.670750  0.834476  0.921585  1
  Al  Al16  1  0.835184  0.164277  0.077924  1
  Al  Al17  1  0.164526  0.835449  0.921790  1
  Al  Al18  1  0.565234  0.435401  0.250000  1
  Al  Al19  1  0.435119  0.564958  0.750000  1
  Al  Al20  1  0.999723  0.998964  0.250000  1
  Al  Al21  1  0.999810  0.000154  0.750000  1
  Si  Si22  1  0.335392  0.665743  0.040579  1
  Si  Si23  1  0.665066  0.334986  0.958521  1
  Si  Si24  1  0.665066  0.334986  0.541479  1
  Si  Si25  1  0.335392  0.665743  0.459421  1
  Si  Si26  1  0.563957  0.123871  0.250000  1
  Si  Si27  1  0.436106  0.875811  0.750000  1
  Si  Si28  1  0.875486  0.436201  0.250000  1
  Si  Si29  1  0.124219  0.563981  0.750000  1
  Os  Os30  1  0.500070  0.000225  0.999985  1
  Os  Os31  1  0.999684  0.500081  0.999776  1
  Os  Os32  1  0.500070  0.000225  0.500015  1
  Os  Os33  1  0.500403  0.500124  0.999679  1
  Os  Os34  1  0.999684  0.500081  0.500224  1
  Os  Os35  1  0.500403  0.500124  0.500321  1
  Os  Os36  1  0.000009  0.999958  0.000045  1
  Os  Os37  1  0.000009  0.999958  0.499955  1
