# generated using pymatgen
data_ErTm2Ga5Ir
_symmetry_space_group_name_H-M   'P 1'
_cell_length_a   6.91046300
_cell_length_b   6.91011034
_cell_length_c   4.24280100
_cell_angle_alpha   90.00000000
_cell_angle_beta   90.00000000
_cell_angle_gamma   120.00169304
_symmetry_Int_Tables_number   1
_chemical_formula_structural   ErTm2Ga5Ir
_chemical_formula_sum   'Er1 Tm2 Ga5 Ir1'
_cell_volume   175.45591467
_cell_formula_units_Z   1
loop_
 _symmetry_equiv_pos_site_id
 _symmetry_equiv_pos_as_xyz
  1  'x, y, z'
loop_
 _atom_site_type_symbol
 _atom_site_label
 _atom_site_symmetry_multiplicity
 _atom_site_fract_x
 _atom_site_fract_y
 _atom_site_fract_z
 _atom_site_occupancy
  Er  Er0  1  0.588851  0.000000  0.000000  1
  Tm  Tm1  1  0.999934  0.589057  0.000000  1
  Tm  Tm2  1  0.410877  0.410943  0.000000  1
  Ga  Ga3  1  0.237179  0.000000  0.500000  1
  Ga  Ga4  1  0.000054  0.237256  0.500000  1
  Ga  Ga5  1  0.762798  0.762744  0.500000  1
  Ga  Ga6  1  0.333209  0.666483  0.500000  1
  Ga  Ga7  1  0.666727  0.333517  0.500000  1
  Ir  Ir8  1  0.000370  0.000000  0.000000  1
