# generated using pymatgen
data_Cs2YBr5
_symmetry_space_group_name_H-M   'P 1'
_cell_length_a   8.00781300
_cell_length_b   10.36770000
_cell_length_c   16.25267100
_cell_angle_alpha   90.00000000
_cell_angle_beta   90.00000000
_cell_angle_gamma   90.00000000
_symmetry_Int_Tables_number   1
_chemical_formula_structural   Cs2YBr5
_chemical_formula_sum   'Cs8 Y4 Br20'
_cell_volume   1349.33904952
_cell_formula_units_Z   4
loop_
 _symmetry_equiv_pos_site_id
 _symmetry_equiv_pos_as_xyz
  1  'x, y, z'
loop_
 _atom_site_type_symbol
 _atom_site_label
 _atom_site_symmetry_multiplicity
 _atom_site_fract_x
 _atom_site_fract_y
 _atom_site_fract_z
 _atom_site_occupancy
  Cs  Cs0  1  0.250000  0.663780  0.917543  1
  Cs  Cs1  1  0.750000  0.336220  0.082457  1
  Cs  Cs2  1  0.750000  0.836220  0.417543  1
  Cs  Cs3  1  0.250000  0.163780  0.582457  1
  Cs  Cs4  1  0.250000  0.974648  0.210278  1
  Cs  Cs5  1  0.750000  0.025352  0.789722  1
  Cs  Cs6  1  0.750000  0.525352  0.710278  1
  Cs  Cs7  1  0.250000  0.474648  0.289722  1
  Y  Y8  1  0.250000  0.678029  0.564928  1
  Y  Y9  1  0.750000  0.321971  0.435072  1
  Y  Y10  1  0.750000  0.821971  0.064928  1
  Y  Y11  1  0.250000  0.178029  0.935072  1
  Br  Br12  1  0.250000  0.519691  0.702095  1
  Br  Br13  1  0.750000  0.480309  0.297905  1
  Br  Br14  1  0.750000  0.980309  0.202095  1
  Br  Br15  1  0.250000  0.019691  0.797905  1
  Br  Br16  1  0.505542  0.833187  0.617338  1
  Br  Br17  1  0.494458  0.166813  0.382662  1
  Br  Br18  1  0.494458  0.666813  0.117338  1
  Br  Br19  1  0.005542  0.166813  0.382662  1
  Br  Br20  1  0.505542  0.333187  0.882662  1
  Br  Br21  1  0.994458  0.833187  0.617338  1
  Br  Br22  1  0.994458  0.333187  0.882662  1
  Br  Br23  1  0.005542  0.666813  0.117338  1
  Br  Br24  1  0.250000  0.786101  0.404721  1
  Br  Br25  1  0.750000  0.213899  0.595279  1
  Br  Br26  1  0.750000  0.713899  0.904721  1
  Br  Br27  1  0.250000  0.286101  0.095279  1
  Br  Br28  1  0.000000  0.500000  0.500000  1
  Br  Br29  1  0.000000  0.000000  0.000000  1
  Br  Br30  1  0.500000  0.500000  0.500000  1
  Br  Br31  1  0.500000  0.000000  0.000000  1
