# generated using pymatgen
data_Li6Yb(PaN3)2
_symmetry_space_group_name_H-M   'P 1'
_cell_length_a   6.12575900
_cell_length_b   6.12576019
_cell_length_c   5.47271500
_cell_angle_alpha   90.00000000
_cell_angle_beta   90.00000000
_cell_angle_gamma   119.99999896
_symmetry_Int_Tables_number   1
_chemical_formula_structural   Li6Yb(PaN3)2
_chemical_formula_sum   'Li6 Yb1 Pa2 N6'
_cell_volume   177.84979401
_cell_formula_units_Z   1
loop_
 _symmetry_equiv_pos_site_id
 _symmetry_equiv_pos_as_xyz
  1  'x, y, z'
loop_
 _atom_site_type_symbol
 _atom_site_label
 _atom_site_symmetry_multiplicity
 _atom_site_fract_x
 _atom_site_fract_y
 _atom_site_fract_z
 _atom_site_occupancy
  Li  Li0  1  0.985858  0.660238  0.606112  1
  Li  Li1  1  0.339762  0.325620  0.606112  1
  Li  Li2  1  0.674380  0.014142  0.606112  1
  Li  Li3  1  0.014142  0.339762  0.393888  1
  Li  Li4  1  0.660238  0.674380  0.393888  1
  Li  Li5  1  0.325620  0.985858  0.393888  1
  Yb  Yb6  1  0.000000  0.000000  0.000000  1
  Pa  Pa7  1  0.333333  0.666667  0.993614  1
  Pa  Pa8  1  0.666667  0.333333  0.006386  1
  N  N9  1  0.001699  0.645169  0.224765  1
  N  N10  1  0.354831  0.356530  0.224765  1
  N  N11  1  0.643470  0.998301  0.224765  1
  N  N12  1  0.998301  0.354831  0.775235  1
  N  N13  1  0.645169  0.643470  0.775235  1
  N  N14  1  0.356530  0.001699  0.775235  1
