# generated using pymatgen
data_Ta12Al9Co3C2
_symmetry_space_group_name_H-M   'P 1'
_cell_length_a   8.13511453
_cell_length_b   8.17415327
_cell_length_c   8.13511500
_cell_angle_alpha   60.15786147
_cell_angle_beta   60.00000216
_cell_angle_gamma   60.15786309
_symmetry_Int_Tables_number   1
_chemical_formula_structural   Ta12Al9Co3C2
_chemical_formula_sum   'Ta12 Al9 Co3 C2'
_cell_volume   383.43107576
_cell_formula_units_Z   1
loop_
 _symmetry_equiv_pos_site_id
 _symmetry_equiv_pos_as_xyz
  1  'x, y, z'
loop_
 _atom_site_type_symbol
 _atom_site_label
 _atom_site_symmetry_multiplicity
 _atom_site_fract_x
 _atom_site_fract_y
 _atom_site_fract_z
 _atom_site_occupancy
  Ta  Ta0  1  0.056737  0.057510  0.442877  1
  Ta  Ta1  1  0.442877  0.057510  0.442877  1
  Ta  Ta2  1  0.056637  0.443423  0.443302  1
  Ta  Ta3  1  0.443302  0.443423  0.056637  1
  Ta  Ta4  1  0.056637  0.443423  0.056637  1
  Ta  Ta5  1  0.442877  0.057510  0.056737  1
  Ta  Ta6  1  0.193263  0.192490  0.807123  1
  Ta  Ta7  1  0.807123  0.192490  0.807123  1
  Ta  Ta8  1  0.193363  0.806577  0.806698  1
  Ta  Ta9  1  0.806698  0.806577  0.193363  1
  Ta  Ta10  1  0.193363  0.806577  0.193363  1
  Ta  Ta11  1  0.807123  0.192490  0.193263  1
  Al  Al12  1  0.409097  0.431519  0.750289  1
  Al  Al13  1  0.416364  0.750911  0.416364  1
  Al  Al14  1  0.750289  0.431519  0.409097  1
  Al  Al15  1  0.409097  0.431519  0.409097  1
  Al  Al16  1  0.840903  0.818481  0.499711  1
  Al  Al17  1  0.833636  0.499089  0.833636  1
  Al  Al18  1  0.499711  0.818481  0.840903  1
  Al  Al19  1  0.840903  0.818481  0.840903  1
  Al  Al20  1  0.625000  0.125000  0.625000  1
  Co  Co21  1  0.625000  0.625000  0.125000  1
  Co  Co22  1  0.125000  0.625000  0.625000  1
  Co  Co23  1  0.625000  0.625000  0.625000  1
  C  C24  1  0.249605  0.251186  0.249605  1
  C  C25  1  0.000395  0.998814  0.000395  1
