# generated using pymatgen
data_Y8SiGeI12
_symmetry_space_group_name_H-M   'P 1'
_cell_length_a   4.22248300
_cell_length_b   14.03253315
_cell_length_c   14.81932016
_cell_angle_alpha   89.98333096
_cell_angle_beta   90.00000000
_cell_angle_gamma   90.00000000
_symmetry_Int_Tables_number   1
_chemical_formula_structural   Y8SiGeI12
_chemical_formula_sum   'Y8 Si1 Ge1 I12'
_cell_volume   878.07628679
_cell_formula_units_Z   1
loop_
 _symmetry_equiv_pos_site_id
 _symmetry_equiv_pos_as_xyz
  1  'x, y, z'
loop_
 _atom_site_type_symbol
 _atom_site_label
 _atom_site_symmetry_multiplicity
 _atom_site_fract_x
 _atom_site_fract_y
 _atom_site_fract_z
 _atom_site_occupancy
  Y  Y0  1  0.500000  0.114850  0.346662  1
  Y  Y1  1  0.500000  0.885150  0.653338  1
  Y  Y2  1  0.500000  0.613908  0.152082  1
  Y  Y3  1  0.500000  0.386092  0.847918  1
  Y  Y4  1  0.000000  0.112285  0.575157  1
  Y  Y5  1  0.000000  0.887715  0.424843  1
  Y  Y6  1  0.000000  0.611087  0.925633  1
  Y  Y7  1  0.000000  0.388913  0.074367  1
  Si  Si8  1  0.500000  0.500000  0.000000  1
  Ge  Ge9  1  0.500000  0.000000  0.500000  1
  I  I10  1  0.500000  0.245149  0.161416  1
  I  I11  1  0.500000  0.754851  0.838584  1
  I  I12  1  0.500000  0.745138  0.338610  1
  I  I13  1  0.500000  0.254862  0.661390  1
  I  I14  1  0.000000  0.258457  0.414159  1
  I  I15  1  0.000000  0.741543  0.585841  1
  I  I16  1  0.000000  0.758450  0.085942  1
  I  I17  1  0.000000  0.241550  0.914058  1
  I  I18  1  0.000000  0.999236  0.240696  1
  I  I19  1  0.000000  0.000764  0.759304  1
  I  I20  1  0.000000  0.499329  0.259334  1
  I  I21  1  0.000000  0.500671  0.740666  1
