# generated using pymatgen
data_TbTm4InBi2
_symmetry_space_group_name_H-M   'P 1'
_cell_length_a   9.00655200
_cell_length_b   9.02798157
_cell_length_c   6.51451800
_cell_angle_alpha   90.00000000
_cell_angle_beta   90.00000000
_cell_angle_gamma   119.45487503
_symmetry_Int_Tables_number   1
_chemical_formula_structural   TbTm4InBi2
_chemical_formula_sum   'Tb2 Tm8 In2 Bi4'
_cell_volume   461.23433436
_cell_formula_units_Z   2
loop_
 _symmetry_equiv_pos_site_id
 _symmetry_equiv_pos_as_xyz
  1  'x, y, z'
loop_
 _atom_site_type_symbol
 _atom_site_label
 _atom_site_symmetry_multiplicity
 _atom_site_fract_x
 _atom_site_fract_y
 _atom_site_fract_z
 _atom_site_occupancy
  Tb  Tb0  1  0.760285  0.760318  0.750000  1
  Tb  Tb1  1  0.234170  0.997421  0.750000  1
  Tm  Tm2  1  0.668994  0.328137  0.004399  1
  Tm  Tm3  1  0.328800  0.669363  0.004527  1
  Tm  Tm4  1  0.328800  0.669363  0.495473  1
  Tm  Tm5  1  0.668994  0.328137  0.495601  1
  Tm  Tm6  1  0.997081  0.234944  0.750000  1
  Tm  Tm7  1  0.234269  0.234594  0.250000  1
  Tm  Tm8  1  0.767328  0.010036  0.250000  1
  Tm  Tm9  1  0.009978  0.766586  0.250000  1
  In  In10  1  0.397107  0.002073  0.250000  1
  In  In11  1  0.002414  0.397427  0.250000  1
  Bi  Bi12  1  0.392002  0.393192  0.750000  1
  Bi  Bi13  1  0.602579  0.997551  0.750000  1
  Bi  Bi14  1  0.996637  0.600278  0.750000  1
  Bi  Bi15  1  0.610562  0.610584  0.250000  1
