# generated using pymatgen
data_Er4Tm16(GaBi3)3
_symmetry_space_group_name_H-M   'P 1'
_cell_length_a   8.07341439
_cell_length_b   9.26729900
_cell_length_c   11.91179700
_cell_angle_alpha   90.00000000
_cell_angle_beta   90.01931128
_cell_angle_gamma   90.00000000
_symmetry_Int_Tables_number   1
_chemical_formula_structural   Er4Tm16(GaBi3)3
_chemical_formula_sum   'Er4 Tm16 Ga3 Bi9'
_cell_volume   891.22565320
_cell_formula_units_Z   1
loop_
 _symmetry_equiv_pos_site_id
 _symmetry_equiv_pos_as_xyz
  1  'x, y, z'
loop_
 _atom_site_type_symbol
 _atom_site_label
 _atom_site_symmetry_multiplicity
 _atom_site_fract_x
 _atom_site_fract_y
 _atom_site_fract_z
 _atom_site_occupancy
  Er  Er0  1  0.329338  0.750000  0.283666  1
  Er  Er1  1  0.174367  0.750000  0.784891  1
  Er  Er2  1  0.686437  0.250000  0.730759  1
  Er  Er3  1  0.830780  0.250000  0.212747  1
  Tm  Tm4  1  0.682855  0.930289  0.435952  1
  Tm  Tm5  1  0.819949  0.556698  0.938334  1
  Tm  Tm6  1  0.310817  0.453193  0.566447  1
  Tm  Tm7  1  0.177965  0.055509  0.059864  1
  Tm  Tm8  1  0.310817  0.046807  0.566447  1
  Tm  Tm9  1  0.177965  0.444491  0.059864  1
  Tm  Tm10  1  0.682855  0.569711  0.435952  1
  Tm  Tm11  1  0.819949  0.943302  0.938334  1
  Tm  Tm12  1  0.037746  0.750000  0.496391  1
  Tm  Tm13  1  0.464181  0.750000  0.996854  1
  Tm  Tm14  1  0.978971  0.250000  0.504524  1
  Tm  Tm15  1  0.533264  0.250000  0.004880  1
  Tm  Tm16  1  0.857773  0.750000  0.205047  1
  Tm  Tm17  1  0.641889  0.750000  0.707092  1
  Tm  Tm18  1  0.142997  0.250000  0.792298  1
  Tm  Tm19  1  0.341761  0.250000  0.285080  1
  Ga  Ga20  1  0.094497  0.750000  0.023684  1
  Ga  Ga21  1  0.407397  0.750000  0.525034  1
  Ga  Ga22  1  0.903159  0.250000  0.972081  1
  Bi  Bi23  1  0.596262  0.250000  0.474490  1
  Bi  Bi24  1  0.563952  0.990093  0.175461  1
  Bi  Bi25  1  0.934143  0.512480  0.674280  1
  Bi  Bi26  1  0.436338  0.488064  0.825313  1
  Bi  Bi27  1  0.063571  0.009207  0.324589  1
  Bi  Bi28  1  0.436338  0.011936  0.825313  1
  Bi  Bi29  1  0.063571  0.490793  0.324589  1
  Bi  Bi30  1  0.563952  0.509907  0.175461  1
  Bi  Bi31  1  0.934143  0.987520  0.674280  1
