# generated using pymatgen
data_Pr4LuPb3
_symmetry_space_group_name_H-M   'P 1'
_cell_length_a   9.36645300
_cell_length_b   9.36645391
_cell_length_c   6.86143900
_cell_angle_alpha   90.00000000
_cell_angle_beta   90.00000000
_cell_angle_gamma   120.00000033
_symmetry_Int_Tables_number   1
_chemical_formula_structural   Pr4LuPb3
_chemical_formula_sum   'Pr8 Lu2 Pb6'
_cell_volume   521.31016757
_cell_formula_units_Z   2
loop_
 _symmetry_equiv_pos_site_id
 _symmetry_equiv_pos_as_xyz
  1  'x, y, z'
loop_
 _atom_site_type_symbol
 _atom_site_label
 _atom_site_symmetry_multiplicity
 _atom_site_fract_x
 _atom_site_fract_y
 _atom_site_fract_z
 _atom_site_occupancy
  Pr  Pr0  1  0.333333  0.666667  0.500000  1
  Pr  Pr1  1  0.666667  0.333333  0.500000  1
  Pr  Pr2  1  0.759044  0.759044  0.752445  1
  Pr  Pr3  1  0.240956  0.000000  0.752445  1
  Pr  Pr4  1  0.000000  0.240956  0.752445  1
  Pr  Pr5  1  0.240956  0.240956  0.247555  1
  Pr  Pr6  1  0.759044  0.000000  0.247555  1
  Pr  Pr7  1  0.000000  0.759044  0.247555  1
  Lu  Lu8  1  0.666667  0.333333  0.000000  1
  Lu  Lu9  1  0.333333  0.666667  0.000000  1
  Pb  Pb10  1  0.396706  0.396706  0.758044  1
  Pb  Pb11  1  0.603294  0.000000  0.758044  1
  Pb  Pb12  1  0.000000  0.603294  0.758044  1
  Pb  Pb13  1  0.603294  0.603294  0.241956  1
  Pb  Pb14  1  0.396706  0.000000  0.241956  1
  Pb  Pb15  1  0.000000  0.396706  0.241956  1
