# generated using pymatgen
data_Zr3Ta2Nb(B2Ru5)2
_symmetry_space_group_name_H-M   'P 1'
_cell_length_a   9.50769736
_cell_length_b   9.50769771
_cell_length_c   3.09410800
_cell_angle_alpha   90.00000000
_cell_angle_beta   90.00000000
_cell_angle_gamma   90.06187155
_symmetry_Int_Tables_number   1
_chemical_formula_structural   Zr3Ta2Nb(B2Ru5)2
_chemical_formula_sum   'Zr3 Ta2 Nb1 B4 Ru10'
_cell_volume   279.69579030
_cell_formula_units_Z   1
loop_
 _symmetry_equiv_pos_site_id
 _symmetry_equiv_pos_as_xyz
  1  'x, y, z'
loop_
 _atom_site_type_symbol
 _atom_site_label
 _atom_site_symmetry_multiplicity
 _atom_site_fract_x
 _atom_site_fract_y
 _atom_site_fract_z
 _atom_site_occupancy
  Zr  Zr0  1  0.823978  0.676699  0.000000  1
  Zr  Zr1  1  0.176699  0.323978  0.000000  1
  Zr  Zr2  1  0.324155  0.824155  0.000000  1
  Ta  Ta3  1  0.499851  0.500157  0.000000  1
  Ta  Ta4  1  0.000157  0.999851  0.000000  1
  Nb  Nb5  1  0.677008  0.177008  0.000000  1
  B  B6  1  0.621131  0.879183  0.000000  1
  B  B7  1  0.379183  0.121131  0.000000  1
  B  B8  1  0.120649  0.620649  0.000000  1
  B  B9  1  0.878163  0.378163  0.000000  1
  Ru  Ru10  1  0.570862  0.719053  0.500000  1
  Ru  Ru11  1  0.433728  0.280798  0.500000  1
  Ru  Ru12  1  0.069616  0.781367  0.500000  1
  Ru  Ru13  1  0.924750  0.216406  0.500000  1
  Ru  Ru14  1  0.281367  0.569616  0.500000  1
  Ru  Ru15  1  0.716406  0.424750  0.500000  1
  Ru  Ru16  1  0.219053  0.070862  0.500000  1
  Ru  Ru17  1  0.780798  0.933728  0.500000  1
  Ru  Ru18  1  0.503767  0.003767  0.500000  1
  Ru  Ru19  1  0.998682  0.498682  0.500000  1
