# generated using pymatgen
data_LiAg3(RhO3)2
_symmetry_space_group_name_H-M   'P 1'
_cell_length_a   5.32885251
_cell_length_b   5.34240188
_cell_length_c   6.57208358
_cell_angle_alpha   74.28864060
_cell_angle_beta   97.80138903
_cell_angle_gamma   120.08415035
_symmetry_Int_Tables_number   1
_chemical_formula_structural   LiAg3(RhO3)2
_chemical_formula_sum   'Li1 Ag3 Rh2 O6'
_cell_volume   155.84688074
_cell_formula_units_Z   1
loop_
 _symmetry_equiv_pos_site_id
 _symmetry_equiv_pos_as_xyz
  1  'x, y, z'
loop_
 _atom_site_type_symbol
 _atom_site_label
 _atom_site_symmetry_multiplicity
 _atom_site_fract_x
 _atom_site_fract_y
 _atom_site_fract_z
 _atom_site_occupancy
  Li  Li0  1  0.333333  0.166667  0.500000  1
  Ag  Ag1  1  0.676155  0.338077  0.000000  1
  Ag  Ag2  1  0.333333  0.666667  0.000000  1
  Ag  Ag3  1  0.990512  0.995256  0.000000  1
  Rh  Rh4  1  0.999664  0.499831  0.500000  1
  Rh  Rh5  1  0.667003  0.833502  0.500000  1
  O  O6  1  0.333333  0.753989  0.666757  1
  O  O7  1  0.977875  0.112082  0.666217  1
  O  O8  1  0.688792  0.467541  0.666217  1
  O  O9  1  0.688792  0.221251  0.333783  1
  O  O10  1  0.333333  0.579345  0.333243  1
  O  O11  1  0.977875  0.865792  0.333783  1
