# generated using pymatgen
data_CeTm11Tc3Au
_symmetry_space_group_name_H-M   'P 1'
_cell_length_a   6.22067200
_cell_length_b   7.30285726
_cell_length_c   9.08961700
_cell_angle_alpha   90.00000000
_cell_angle_beta   90.00000000
_cell_angle_gamma   88.88844261
_symmetry_Int_Tables_number   1
_chemical_formula_structural   CeTm11Tc3Au
_chemical_formula_sum   'Ce1 Tm11 Tc3 Au1'
_cell_volume   412.85159358
_cell_formula_units_Z   1
loop_
 _symmetry_equiv_pos_site_id
 _symmetry_equiv_pos_as_xyz
  1  'x, y, z'
loop_
 _atom_site_type_symbol
 _atom_site_label
 _atom_site_symmetry_multiplicity
 _atom_site_fract_x
 _atom_site_fract_y
 _atom_site_fract_z
 _atom_site_occupancy
  Ce  Ce0  1  0.359368  0.941519  0.750000  1
  Tm  Tm1  1  0.617269  0.040444  0.250000  1
  Tm  Tm2  1  0.120428  0.464411  0.750000  1
  Tm  Tm3  1  0.872193  0.525337  0.250000  1
  Tm  Tm4  1  0.169988  0.190325  0.057713  1
  Tm  Tm5  1  0.828903  0.825423  0.933269  1
  Tm  Tm6  1  0.664226  0.318546  0.937323  1
  Tm  Tm7  1  0.828903  0.825423  0.566731  1
  Tm  Tm8  1  0.340098  0.667721  0.060819  1
  Tm  Tm9  1  0.169988  0.190325  0.442287  1
  Tm  Tm10  1  0.340098  0.667721  0.439181  1
  Tm  Tm11  1  0.664226  0.318546  0.562677  1
  Tc  Tc12  1  0.455893  0.385906  0.250000  1
  Tc  Tc13  1  0.520619  0.636655  0.750000  1
  Tc  Tc14  1  0.000193  0.111159  0.750000  1
  Au  Au15  1  0.047605  0.890538  0.250000  1
