# generated using pymatgen
data_NdPSe
_symmetry_space_group_name_H-M   'P 1'
_cell_length_a   5.63474300
_cell_length_b   5.73100600
_cell_length_c   17.69507800
_cell_angle_alpha   90.00000000
_cell_angle_beta   90.00000000
_cell_angle_gamma   90.00000000
_symmetry_Int_Tables_number   1
_chemical_formula_structural   NdPSe
_chemical_formula_sum   'Nd8 P8 Se8'
_cell_volume   571.42265827
_cell_formula_units_Z   8
loop_
 _symmetry_equiv_pos_site_id
 _symmetry_equiv_pos_as_xyz
  1  'x, y, z'
loop_
 _atom_site_type_symbol
 _atom_site_label
 _atom_site_symmetry_multiplicity
 _atom_site_fract_x
 _atom_site_fract_y
 _atom_site_fract_z
 _atom_site_occupancy
  Nd  Nd0  1  0.750000  0.017749  0.357983  1
  Nd  Nd1  1  0.250000  0.482251  0.857983  1
  Nd  Nd2  1  0.750000  0.517749  0.142017  1
  Nd  Nd3  1  0.250000  0.982251  0.642017  1
  Nd  Nd4  1  0.750000  0.482627  0.630625  1
  Nd  Nd5  1  0.250000  0.017373  0.130625  1
  Nd  Nd6  1  0.750000  0.982627  0.869375  1
  Nd  Nd7  1  0.250000  0.517373  0.369375  1
  P  P8  1  0.546858  0.308959  0.002876  1
  P  P9  1  0.453142  0.191041  0.502876  1
  P  P10  1  0.953142  0.808959  0.497124  1
  P  P11  1  0.046858  0.691041  0.997124  1
  P  P12  1  0.453142  0.691041  0.997124  1
  P  P13  1  0.546858  0.808959  0.497124  1
  P  P14  1  0.046858  0.191041  0.502876  1
  P  P15  1  0.953142  0.308959  0.002876  1
  Se  Se16  1  0.750000  0.014084  0.182467  1
  Se  Se17  1  0.250000  0.485916  0.682467  1
  Se  Se18  1  0.750000  0.514084  0.317533  1
  Se  Se19  1  0.250000  0.985916  0.817533  1
  Se  Se20  1  0.750000  0.483983  0.809717  1
  Se  Se21  1  0.250000  0.016017  0.309717  1
  Se  Se22  1  0.750000  0.983983  0.690283  1
  Se  Se23  1  0.250000  0.516017  0.190283  1
