# generated using pymatgen
data_Li12ZrSn3O14
_symmetry_space_group_name_H-M   'P 1'
_cell_length_a   6.03168573
_cell_length_b   6.02569783
_cell_length_c   10.17536542
_cell_angle_alpha   81.17156815
_cell_angle_beta   81.09051763
_cell_angle_gamma   59.51301762
_symmetry_Int_Tables_number   1
_chemical_formula_structural   Li12ZrSn3O14
_chemical_formula_sum   'Li12 Zr1 Sn3 O14'
_cell_volume   313.62827989
_cell_formula_units_Z   1
loop_
 _symmetry_equiv_pos_site_id
 _symmetry_equiv_pos_as_xyz
  1  'x, y, z'
loop_
 _atom_site_type_symbol
 _atom_site_label
 _atom_site_symmetry_multiplicity
 _atom_site_fract_x
 _atom_site_fract_y
 _atom_site_fract_z
 _atom_site_occupancy
  Li  Li0  1  0.293856  0.583855  0.588784  1
  Li  Li1  1  0.414387  0.709820  0.911108  1
  Li  Li2  1  0.705848  0.415434  0.416962  1
  Li  Li3  1  0.969223  0.163540  0.896049  1
  Li  Li4  1  0.573218  0.838619  0.103206  1
  Li  Li5  1  0.165250  0.420028  0.396287  1
  Li  Li6  1  0.424147  0.161694  0.893930  1
  Li  Li7  1  0.836201  0.575538  0.606632  1
  Li  Li8  1  0.167463  0.968511  0.398108  1
  Li  Li9  1  0.035328  0.834982  0.099284  1
  Li  Li10  1  0.833956  0.032768  0.604257  1
  Li  Li11  1  0.583462  0.292999  0.085066  1
  Zr  Zr12  1  0.696746  0.939156  0.362586  1
  Sn  Sn13  1  0.941380  0.690495  0.865170  1
  Sn  Sn14  1  0.309989  0.058160  0.635110  1
  Sn  Sn15  1  0.058523  0.310099  0.133277  1
  O  O16  1  0.356816  0.137487  0.255371  1
  O  O17  1  0.866361  0.634635  0.242624  1
  O  O18  1  0.637043  0.867407  0.742916  1
  O  O19  1  0.131148  0.362151  0.758475  1
  O  O20  1  0.839998  0.163352  0.249560  1
  O  O21  1  0.161780  0.838917  0.751417  1
  O  O22  1  0.497537  0.237317  0.505097  1
  O  O23  1  0.762342  0.503291  0.996797  1
  O  O24  1  0.501550  0.762228  0.499474  1
  O  O25  1  0.236372  0.499193  0.001596  1
  O  O26  1  0.243524  0.996455  0.022987  1
  O  O27  1  0.003306  0.755625  0.477080  1
  O  O28  1  0.755207  0.002608  0.976414  1
  O  O29  1  0.998039  0.243636  0.524376  1
