# generated using pymatgen
data_AuCl15
_symmetry_space_group_name_H-M   'P 1'
_cell_length_a   9.11067126
_cell_length_b   12.24668131
_cell_length_c   15.42036551
_cell_angle_alpha   69.79086965
_cell_angle_beta   125.29797562
_cell_angle_gamma   109.46755760
_symmetry_Int_Tables_number   1
_chemical_formula_structural   AuCl15
_chemical_formula_sum   'Au2 Cl30'
_cell_volume   1297.55914912
_cell_formula_units_Z   2
loop_
 _symmetry_equiv_pos_site_id
 _symmetry_equiv_pos_as_xyz
  1  'x, y, z'
loop_
 _atom_site_type_symbol
 _atom_site_label
 _atom_site_symmetry_multiplicity
 _atom_site_fract_x
 _atom_site_fract_y
 _atom_site_fract_z
 _atom_site_occupancy
  Au  Au0  1  0.152324  0.131857  0.992087  1
  Au  Au1  1  0.847676  0.868143  0.007913  1
  Cl  Cl2  1  0.132051  0.327391  0.929957  1
  Cl  Cl3  1  0.867949  0.672609  0.070043  1
  Cl  Cl4  1  0.158888  0.925349  0.055168  1
  Cl  Cl5  1  0.841112  0.074651  0.944832  1
  Cl  Cl6  1  0.160095  0.694201  0.308976  1
  Cl  Cl7  1  0.839905  0.305799  0.691024  1
  Cl  Cl8  1  0.362203  0.703187  0.462779  1
  Cl  Cl9  1  0.637797  0.296813  0.537221  1
  Cl  Cl10  1  0.197664  0.600170  0.682908  1
  Cl  Cl11  1  0.802336  0.399830  0.317092  1
  Cl  Cl12  1  0.023797  0.353872  0.460880  1
  Cl  Cl13  1  0.976203  0.646128  0.539120  1
  Cl  Cl14  1  0.399371  0.239042  0.811155  1
  Cl  Cl15  1  0.600629  0.760958  0.188845  1
  Cl  Cl16  1  0.294889  0.984568  0.529347  1
  Cl  Cl17  1  0.705111  0.015432  0.470653  1
  Cl  Cl18  1  0.276737  0.423854  0.280935  1
  Cl  Cl19  1  0.723263  0.576146  0.719065  1
  Cl  Cl20  1  0.041401  0.914762  0.670595  1
  Cl  Cl21  1  0.958599  0.085238  0.329405  1
  Cl  Cl22  1  0.757190  0.600792  0.851808  1
  Cl  Cl23  1  0.242810  0.399208  0.148192  1
  Cl  Cl24  1  0.629276  0.736457  0.333268  1
  Cl  Cl25  1  0.370724  0.263543  0.666732  1
  Cl  Cl26  1  0.515548  0.924405  0.665283  1
  Cl  Cl27  1  0.484452  0.075595  0.334717  1
  Cl  Cl28  1  0.066318  0.912262  0.808598  1
  Cl  Cl29  1  0.933682  0.087738  0.191402  1
  Cl  Cl30  1  0.549691  0.824376  0.959476  1
  Cl  Cl31  1  0.450309  0.175624  0.040524  1
