# generated using pymatgen
data_CsPuF4
_symmetry_space_group_name_H-M   'P 1'
_cell_length_a   8.22040207
_cell_length_b   8.22040184
_cell_length_c   8.22040221
_cell_angle_alpha   30.04789510
_cell_angle_beta   30.04789742
_cell_angle_gamma   30.04789712
_symmetry_Int_Tables_number   1
_chemical_formula_structural   CsPuF4
_chemical_formula_sum   'Cs1 Pu1 F4'
_cell_volume   123.37674398
_cell_formula_units_Z   1
loop_
 _symmetry_equiv_pos_site_id
 _symmetry_equiv_pos_as_xyz
  1  'x, y, z'
loop_
 _atom_site_type_symbol
 _atom_site_label
 _atom_site_symmetry_multiplicity
 _atom_site_fract_x
 _atom_site_fract_y
 _atom_site_fract_z
 _atom_site_occupancy
  Cs  Cs0  1  0.500000  0.500000  0.500000  1
  Pu  Pu1  1  0.000000  0.000000  0.000000  1
  F  F2  1  0.649064  0.649064  0.649064  1
  F  F3  1  0.350936  0.350936  0.350936  1
  F  F4  1  0.095757  0.095757  0.095757  1
  F  F5  1  0.904243  0.904243  0.904243  1
