# generated using pymatgen
data_Yb3Ho(Rh2O7)2
_symmetry_space_group_name_H-M   'P 1'
_cell_length_a   7.20286268
_cell_length_b   7.20286184
_cell_length_c   7.18796807
_cell_angle_alpha   59.93143610
_cell_angle_beta   59.93143469
_cell_angle_gamma   60.00000052
_symmetry_Int_Tables_number   1
_chemical_formula_structural   Yb3Ho(Rh2O7)2
_chemical_formula_sum   'Yb3 Ho1 Rh4 O14'
_cell_volume   263.42106526
_cell_formula_units_Z   1
loop_
 _symmetry_equiv_pos_site_id
 _symmetry_equiv_pos_as_xyz
  1  'x, y, z'
loop_
 _atom_site_type_symbol
 _atom_site_label
 _atom_site_symmetry_multiplicity
 _atom_site_fract_x
 _atom_site_fract_y
 _atom_site_fract_z
 _atom_site_occupancy
  Yb  Yb0  1  0.625000  0.625000  0.625000  1
  Yb  Yb1  1  0.625000  0.125000  0.625000  1
  Yb  Yb2  1  0.125000  0.625000  0.625000  1
  Ho  Ho3  1  0.625000  0.625000  0.125000  1
  Rh  Rh4  1  0.125000  0.125000  0.125000  1
  Rh  Rh5  1  0.625000  0.125000  0.125000  1
  Rh  Rh6  1  0.125000  0.625000  0.125000  1
  Rh  Rh7  1  0.125000  0.125000  0.625000  1
  O  O8  1  0.046065  0.454286  0.453585  1
  O  O9  1  0.794897  0.794897  0.200109  1
  O  O10  1  0.794897  0.210098  0.200109  1
  O  O11  1  0.454286  0.046065  0.453585  1
  O  O12  1  0.747294  0.747294  0.758120  1
  O  O13  1  0.046065  0.046065  0.453585  1
  O  O14  1  0.039902  0.455103  0.049891  1
  O  O15  1  0.795714  0.203935  0.796415  1
  O  O16  1  0.210098  0.794897  0.200109  1
  O  O17  1  0.203935  0.203935  0.796415  1
  O  O18  1  0.502706  0.502706  0.491880  1
  O  O19  1  0.455103  0.039902  0.049891  1
  O  O20  1  0.455103  0.455103  0.049891  1
  O  O21  1  0.203935  0.795714  0.796415  1
