# generated using pymatgen
data_Y4Re5TcB12
_symmetry_space_group_name_H-M   'P 1'
_cell_length_a   6.21832231
_cell_length_b   6.21832354
_cell_length_c   7.51369435
_cell_angle_alpha   89.39412476
_cell_angle_beta   89.39412599
_cell_angle_gamma   113.79318582
_symmetry_Int_Tables_number   1
_chemical_formula_structural   Y4Re5TcB12
_chemical_formula_sum   'Y4 Re5 Tc1 B12'
_cell_volume   265.79290185
_cell_formula_units_Z   1
loop_
 _symmetry_equiv_pos_site_id
 _symmetry_equiv_pos_as_xyz
  1  'x, y, z'
loop_
 _atom_site_type_symbol
 _atom_site_label
 _atom_site_symmetry_multiplicity
 _atom_site_fract_x
 _atom_site_fract_y
 _atom_site_fract_z
 _atom_site_occupancy
  Y  Y0  1  0.899276  0.556816  0.321924  1
  Y  Y1  1  0.443184  0.100724  0.178076  1
  Y  Y2  1  0.099967  0.442856  0.677894  1
  Y  Y3  1  0.557144  0.900033  0.822106  1
  Re  Re4  1  0.587945  0.412055  0.750000  1
  Re  Re5  1  0.009743  0.193201  0.088786  1
  Re  Re6  1  0.806799  0.990257  0.411214  1
  Re  Re7  1  0.990623  0.806758  0.911501  1
  Re  Re8  1  0.193242  0.009377  0.588499  1
  Tc  Tc9  1  0.411946  0.588054  0.250000  1
  B  B10  1  0.752041  0.847866  0.130392  1
  B  B11  1  0.152134  0.247959  0.369608  1
  B  B12  1  0.248627  0.151860  0.869995  1
  B  B13  1  0.848140  0.751373  0.630005  1
  B  B14  1  0.413912  0.841383  0.481031  1
  B  B15  1  0.158617  0.586088  0.018969  1
  B  B16  1  0.587024  0.159923  0.520090  1
  B  B17  1  0.840077  0.412976  0.979910  1
  B  B18  1  0.556785  0.649737  0.534709  1
  B  B19  1  0.350263  0.443215  0.965291  1
  B  B20  1  0.442750  0.350236  0.464537  1
  B  B21  1  0.649764  0.557250  0.035463  1
