# generated using pymatgen
data_Ho2CdNiAu
_symmetry_space_group_name_H-M   'P 1'
_cell_length_a   7.68030155
_cell_length_b   7.68030134
_cell_length_c   3.60490300
_cell_angle_alpha   90.00000000
_cell_angle_beta   90.00000000
_cell_angle_gamma   92.28123469
_symmetry_Int_Tables_number   1
_chemical_formula_structural   Ho2CdNiAu
_chemical_formula_sum   'Ho4 Cd2 Ni2 Au2'
_cell_volume   212.47400023
_cell_formula_units_Z   2
loop_
 _symmetry_equiv_pos_site_id
 _symmetry_equiv_pos_as_xyz
  1  'x, y, z'
loop_
 _atom_site_type_symbol
 _atom_site_label
 _atom_site_symmetry_multiplicity
 _atom_site_fract_x
 _atom_site_fract_y
 _atom_site_fract_z
 _atom_site_occupancy
  Ho  Ho0  1  0.688441  0.188441  0.500000  1
  Ho  Ho1  1  0.311559  0.811559  0.500000  1
  Ho  Ho2  1  0.158608  0.341392  0.500000  1
  Ho  Ho3  1  0.841392  0.658608  0.500000  1
  Cd  Cd4  1  0.000000  0.000000  0.000000  1
  Cd  Cd5  1  0.500000  0.500000  0.000000  1
  Ni  Ni6  1  0.117913  0.617913  0.000000  1
  Ni  Ni7  1  0.882087  0.382087  0.000000  1
  Au  Au8  1  0.628984  0.871016  0.000000  1
  Au  Au9  1  0.371016  0.128984  0.000000  1
