# generated using pymatgen
data_Tb2CeAlHg2Pd3
_symmetry_space_group_name_H-M   'P 1'
_cell_length_a   7.61456100
_cell_length_b   7.68205527
_cell_length_c   3.80836200
_cell_angle_alpha   90.00000000
_cell_angle_beta   90.00000000
_cell_angle_gamma   119.70977284
_symmetry_Int_Tables_number   1
_chemical_formula_structural   Tb2CeAlHg2Pd3
_chemical_formula_sum   'Tb2 Ce1 Al1 Hg2 Pd3'
_cell_volume   193.48791353
_cell_formula_units_Z   1
loop_
 _symmetry_equiv_pos_site_id
 _symmetry_equiv_pos_as_xyz
  1  'x, y, z'
loop_
 _atom_site_type_symbol
 _atom_site_label
 _atom_site_symmetry_multiplicity
 _atom_site_fract_x
 _atom_site_fract_y
 _atom_site_fract_z
 _atom_site_occupancy
  Tb  Tb0  1  0.001949  0.598722  0.500000  1
  Tb  Tb1  1  0.403226  0.401278  0.500000  1
  Ce  Ce2  1  0.592452  0.000000  0.500000  1
  Al  Al3  1  0.253727  0.000000  0.000000  1
  Hg  Hg4  1  0.002684  0.265913  0.000000  1
  Hg  Hg5  1  0.736771  0.734087  0.000000  1
  Pd  Pd6  1  0.035759  0.000000  0.500000  1
  Pd  Pd7  1  0.331004  0.688575  0.000000  1
  Pd  Pd8  1  0.642429  0.311425  0.000000  1
