# generated using pymatgen
data_Pr4SnHg7O4
_symmetry_space_group_name_H-M   'P 1'
_cell_length_a   5.87270034
_cell_length_b   5.85147117
_cell_length_c   12.01542918
_cell_angle_alpha   91.55867382
_cell_angle_beta   114.09729727
_cell_angle_gamma   89.75404908
_symmetry_Int_Tables_number   1
_chemical_formula_structural   Pr4SnHg7O4
_chemical_formula_sum   'Pr4 Sn1 Hg7 O4'
_cell_volume   376.76489294
_cell_formula_units_Z   1
loop_
 _symmetry_equiv_pos_site_id
 _symmetry_equiv_pos_as_xyz
  1  'x, y, z'
loop_
 _atom_site_type_symbol
 _atom_site_label
 _atom_site_symmetry_multiplicity
 _atom_site_fract_x
 _atom_site_fract_y
 _atom_site_fract_z
 _atom_site_occupancy
  Pr  Pr0  1  0.660793  0.995781  0.395337  1
  Pr  Pr1  1  0.160132  0.495219  0.396342  1
  Pr  Pr2  1  0.337332  0.005896  0.606653  1
  Pr  Pr3  1  0.836999  0.506588  0.606791  1
  Sn  Sn4  1  0.347324  0.983706  0.077572  1
  Hg  Hg5  1  0.892275  0.483961  0.089083  1
  Hg  Hg6  1  0.148418  0.510368  0.914335  1
  Hg  Hg7  1  0.632760  0.012085  0.916690  1
  Hg  Hg8  1  0.508762  0.488498  0.201053  1
  Hg  Hg9  1  0.977497  0.986986  0.204904  1
  Hg  Hg10  1  0.990336  0.013671  0.791586  1
  Hg  Hg11  1  0.515104  0.513714  0.796512  1
  O  O12  1  0.999106  0.252142  0.501129  1
  O  O13  1  0.497293  0.251484  0.500912  1
  O  O14  1  0.999600  0.749587  0.501436  1
  O  O15  1  0.496276  0.750330  0.499665  1
