# generated using pymatgen
data_SrZn9Ir2
_symmetry_space_group_name_H-M   'P 1'
_cell_length_a   8.35292722
_cell_length_b   8.35292765
_cell_length_c   8.35292734
_cell_angle_alpha   100.09772477
_cell_angle_beta   100.09773213
_cell_angle_gamma   130.49220449
_symmetry_Int_Tables_number   1
_chemical_formula_structural   SrZn9Ir2
_chemical_formula_sum   'Sr2 Zn18 Ir4'
_cell_volume   402.48787759
_cell_formula_units_Z   2
loop_
 _symmetry_equiv_pos_site_id
 _symmetry_equiv_pos_as_xyz
  1  'x, y, z'
loop_
 _atom_site_type_symbol
 _atom_site_label
 _atom_site_symmetry_multiplicity
 _atom_site_fract_x
 _atom_site_fract_y
 _atom_site_fract_z
 _atom_site_occupancy
  Sr  Sr0  1  0.000000  0.000000  0.000000  1
  Sr  Sr1  1  0.250000  0.750000  0.500000  1
  Zn  Zn2  1  0.061410  0.645241  0.829813  1
  Zn  Zn3  1  0.815428  0.231597  0.170187  1
  Zn  Zn4  1  0.750000  0.250000  0.500000  1
  Zn  Zn5  1  0.500000  0.500000  0.000000  1
  Zn  Zn6  1  0.815428  0.645241  0.583831  1
  Zn  Zn7  1  0.895241  0.811410  0.329813  1
  Zn  Zn8  1  0.481597  0.565428  0.670187  1
  Zn  Zn9  1  0.061410  0.231597  0.416169  1
  Zn  Zn10  1  0.768403  0.938590  0.583831  1
  Zn  Zn11  1  0.354759  0.184572  0.416169  1
  Zn  Zn12  1  0.434572  0.518403  0.329813  1
  Zn  Zn13  1  0.188590  0.104759  0.670187  1
  Zn  Zn14  1  0.434572  0.104759  0.916169  1
  Zn  Zn15  1  0.354759  0.938590  0.170187  1
  Zn  Zn16  1  0.768403  0.184572  0.829813  1
  Zn  Zn17  1  0.188590  0.518403  0.083831  1
  Zn  Zn18  1  0.481597  0.811410  0.916169  1
  Zn  Zn19  1  0.895241  0.565428  0.083831  1
  Ir  Ir20  1  0.625000  0.375000  0.750000  1
  Ir  Ir21  1  0.625000  0.375000  0.250000  1
  Ir  Ir22  1  0.125000  0.375000  0.750000  1
  Ir  Ir23  1  0.625000  0.875000  0.250000  1
