# generated using pymatgen
data_Nd6ZnIr17
_symmetry_space_group_name_H-M   'P 1'
_cell_length_a   5.40351000
_cell_length_b   5.40351006
_cell_length_c   17.52967600
_cell_angle_alpha   90.00000000
_cell_angle_beta   90.00000000
_cell_angle_gamma   119.99999963
_symmetry_Int_Tables_number   1
_chemical_formula_structural   Nd6ZnIr17
_chemical_formula_sum   'Nd6 Zn1 Ir17'
_cell_volume   443.25786104
_cell_formula_units_Z   1
loop_
 _symmetry_equiv_pos_site_id
 _symmetry_equiv_pos_as_xyz
  1  'x, y, z'
loop_
 _atom_site_type_symbol
 _atom_site_label
 _atom_site_symmetry_multiplicity
 _atom_site_fract_x
 _atom_site_fract_y
 _atom_site_fract_z
 _atom_site_occupancy
  Nd  Nd0  1  0.333333  0.666667  0.538439  1
  Nd  Nd1  1  0.666667  0.333333  0.041588  1
  Nd  Nd2  1  0.666667  0.333333  0.458412  1
  Nd  Nd3  1  0.333333  0.666667  0.961561  1
  Nd  Nd4  1  0.333333  0.666667  0.750000  1
  Nd  Nd5  1  0.666667  0.333333  0.250000  1
  Zn  Zn6  1  0.000000  0.000000  0.250000  1
  Ir  Ir7  1  0.166978  0.333955  0.128704  1
  Ir  Ir8  1  0.833452  0.666904  0.627470  1
  Ir  Ir9  1  0.666045  0.833022  0.128704  1
  Ir  Ir10  1  0.166978  0.833022  0.128704  1
  Ir  Ir11  1  0.833452  0.166548  0.627470  1
  Ir  Ir12  1  0.333096  0.166548  0.627470  1
  Ir  Ir13  1  0.833452  0.666904  0.872530  1
  Ir  Ir14  1  0.833452  0.166548  0.872530  1
  Ir  Ir15  1  0.333096  0.166548  0.872530  1
  Ir  Ir16  1  0.666045  0.833022  0.371296  1
  Ir  Ir17  1  0.166978  0.833022  0.371296  1
  Ir  Ir18  1  0.166978  0.333955  0.371296  1
  Ir  Ir19  1  0.000000  0.000000  0.750000  1
  Ir  Ir20  1  0.333333  0.666667  0.250000  1
  Ir  Ir21  1  0.666667  0.333333  0.750000  1
  Ir  Ir22  1  0.000000  0.000000  0.002238  1
  Ir  Ir23  1  0.000000  0.000000  0.497762  1
