# generated using pymatgen
data_Tb5Y3Cu3Si12Pd
_symmetry_space_group_name_H-M   'P 1'
_cell_length_a   8.04637001
_cell_length_b   8.04714586
_cell_length_c   8.16816200
_cell_angle_alpha   89.99942526
_cell_angle_beta   90.00349834
_cell_angle_gamma   119.99110257
_symmetry_Int_Tables_number   1
_chemical_formula_structural   Tb5Y3Cu3Si12Pd
_chemical_formula_sum   'Tb5 Y3 Cu3 Si12 Pd1'
_cell_volume   458.07414198
_cell_formula_units_Z   1
loop_
 _symmetry_equiv_pos_site_id
 _symmetry_equiv_pos_as_xyz
  1  'x, y, z'
loop_
 _atom_site_type_symbol
 _atom_site_label
 _atom_site_symmetry_multiplicity
 _atom_site_fract_x
 _atom_site_fract_y
 _atom_site_fract_z
 _atom_site_occupancy
  Tb  Tb0  1  0.998342  0.499160  0.750728  1
  Tb  Tb1  1  0.500581  0.499397  0.249389  1
  Tb  Tb2  1  0.500837  0.499160  0.750739  1
  Tb  Tb3  1  0.999993  0.000001  0.249109  1
  Tb  Tb4  1  0.000003  0.000004  0.750755  1
  Y  Y5  1  0.500571  0.001137  0.249385  1
  Y  Y6  1  0.500842  0.001664  0.750756  1
  Y  Y7  1  0.998841  0.499408  0.249372  1
  Cu  Cu8  1  0.333333  0.666677  0.000400  1
  Cu  Cu9  1  0.666671  0.333295  0.999931  1
  Cu  Cu10  1  0.666668  0.333327  0.499067  1
  Si  Si11  1  0.169488  0.338984  0.999287  1
  Si  Si12  1  0.831030  0.662030  0.000697  1
  Si  Si13  1  0.660972  0.830496  0.999376  1
  Si  Si14  1  0.831247  0.662455  0.500515  1
  Si  Si15  1  0.337991  0.168967  0.000802  1
  Si  Si16  1  0.166092  0.332221  0.499307  1
  Si  Si17  1  0.169538  0.830474  0.999286  1
  Si  Si18  1  0.337546  0.168730  0.500408  1
  Si  Si19  1  0.830981  0.168993  0.000699  1
  Si  Si20  1  0.667786  0.833924  0.499222  1
  Si  Si21  1  0.831204  0.168748  0.500523  1
  Si  Si22  1  0.166115  0.833910  0.499311  1
  Pd  Pd23  1  0.333331  0.666833  0.500934  1
