# generated using pymatgen
data_Ca2SmNpN4
_symmetry_space_group_name_H-M   'P 1'
_cell_length_a   6.95025303
_cell_length_b   9.27008418
_cell_length_c   6.13420210
_cell_angle_alpha   29.06213963
_cell_angle_beta   55.49233863
_cell_angle_gamma   41.43120476
_symmetry_Int_Tables_number   1
_chemical_formula_structural   Ca2SmNpN4
_chemical_formula_sum   'Ca2 Sm1 Np1 N4'
_cell_volume   122.09083081
_cell_formula_units_Z   1
loop_
 _symmetry_equiv_pos_site_id
 _symmetry_equiv_pos_as_xyz
  1  'x, y, z'
loop_
 _atom_site_type_symbol
 _atom_site_label
 _atom_site_symmetry_multiplicity
 _atom_site_fract_x
 _atom_site_fract_y
 _atom_site_fract_z
 _atom_site_occupancy
  Ca  Ca0  1  0.750000  0.500000  0.000000  1
  Ca  Ca1  1  0.500000  0.000000  0.000000  1
  Sm  Sm2  1  0.250000  0.500000  0.000000  1
  Np  Np3  1  0.000000  0.000000  0.000000  1
  N  N4  1  0.494382  0.500000  0.511237  1
  N  N5  1  0.207885  0.000000  0.584228  1
  N  N6  1  0.005618  0.500000  0.488763  1
  N  N7  1  0.792115  0.000000  0.415772  1
