# generated using pymatgen
data_Er4Al16Ga2CuRh5
_symmetry_space_group_name_H-M   'P 1'
_cell_length_a   7.52961071
_cell_length_b   7.52961007
_cell_length_c   9.43132027
_cell_angle_alpha   90.10779240
_cell_angle_beta   90.10778590
_cell_angle_gamma   119.38418981
_symmetry_Int_Tables_number   1
_chemical_formula_structural   Er4Al16Ga2CuRh5
_chemical_formula_sum   'Er4 Al16 Ga2 Cu1 Rh5'
_cell_volume   465.91505139
_cell_formula_units_Z   1
loop_
 _symmetry_equiv_pos_site_id
 _symmetry_equiv_pos_as_xyz
  1  'x, y, z'
loop_
 _atom_site_type_symbol
 _atom_site_label
 _atom_site_symmetry_multiplicity
 _atom_site_fract_x
 _atom_site_fract_y
 _atom_site_fract_z
 _atom_site_occupancy
  Er  Er0  1  0.994889  0.675739  0.749807  1
  Er  Er1  1  0.005111  0.324261  0.250193  1
  Er  Er2  1  0.675739  0.994889  0.749807  1
  Er  Er3  1  0.324261  0.005111  0.250193  1
  Al  Al4  1  0.001246  0.339365  0.577367  1
  Al  Al5  1  0.998754  0.660635  0.422633  1
  Al  Al6  1  0.999453  0.664233  0.074731  1
  Al  Al7  1  0.335767  0.000547  0.925269  1
  Al  Al8  1  0.000547  0.335767  0.925269  1
  Al  Al9  1  0.664233  0.999453  0.074731  1
  Al  Al10  1  0.660635  0.998754  0.422633  1
  Al  Al11  1  0.339365  0.001246  0.577367  1
  Al  Al12  1  0.333368  0.333368  0.053689  1
  Al  Al13  1  0.666632  0.666632  0.946311  1
  Al  Al14  1  0.663499  0.663499  0.555405  1
  Al  Al15  1  0.336501  0.336501  0.444595  1
  Al  Al16  1  0.338050  0.551984  0.750448  1
  Al  Al17  1  0.661950  0.448016  0.249552  1
  Al  Al18  1  0.551984  0.338050  0.750448  1
  Al  Al19  1  0.448016  0.661950  0.249552  1
  Ga  Ga20  1  0.133165  0.133165  0.749625  1
  Ga  Ga21  1  0.866835  0.866835  0.250375  1
  Cu  Cu22  1  0.000000  0.000000  0.500000  1
  Rh  Rh23  1  0.671921  0.328079  0.500000  1
  Rh  Rh24  1  0.328079  0.671921  0.500000  1
  Rh  Rh25  1  0.327908  0.672092  0.000000  1
  Rh  Rh26  1  0.672092  0.327908  0.000000  1
  Rh  Rh27  1  0.000000  0.000000  0.000000  1
