# generated using pymatgen
data_TmPu2Ga3RuRh2
_symmetry_space_group_name_H-M   'P 1'
_cell_length_a   7.06499521
_cell_length_b   6.96855331
_cell_length_c   3.98876200
_cell_angle_alpha   90.00000000
_cell_angle_beta   90.00000000
_cell_angle_gamma   119.54945143
_symmetry_Int_Tables_number   1
_chemical_formula_structural   TmPu2Ga3RuRh2
_chemical_formula_sum   'Tm1 Pu2 Ga3 Ru1 Rh2'
_cell_volume   170.83510254
_cell_formula_units_Z   1
loop_
 _symmetry_equiv_pos_site_id
 _symmetry_equiv_pos_as_xyz
  1  'x, y, z'
loop_
 _atom_site_type_symbol
 _atom_site_label
 _atom_site_symmetry_multiplicity
 _atom_site_fract_x
 _atom_site_fract_y
 _atom_site_fract_z
 _atom_site_occupancy
  Tm  Tm0  1  0.000000  0.411886  0.500000  1
  Pu  Pu1  1  0.587603  0.592085  0.500000  1
  Pu  Pu2  1  0.412397  0.004482  0.500000  1
  Ga  Ga3  1  0.000000  0.739014  0.000000  1
  Ga  Ga4  1  0.231716  0.245354  0.000000  1
  Ga  Ga5  1  0.768284  0.013638  0.000000  1
  Ru  Ru6  1  0.000000  0.981751  0.500000  1
  Rh  Rh7  1  0.350620  0.681205  0.000000  1
  Rh  Rh8  1  0.649380  0.330583  0.000000  1
