# generated using pymatgen
data_Ba3Ca7Au8
_symmetry_space_group_name_H-M   'P 1'
_cell_length_a   8.33119077
_cell_length_b   8.21870754
_cell_length_c   8.32885132
_cell_angle_alpha   69.98412533
_cell_angle_beta   90.02628517
_cell_angle_gamma   90.38438974
_symmetry_Int_Tables_number   1
_chemical_formula_structural   Ba3Ca7Au8
_chemical_formula_sum   'Ba3 Ca7 Au8'
_cell_volume   535.83010825
_cell_formula_units_Z   1
loop_
 _symmetry_equiv_pos_site_id
 _symmetry_equiv_pos_as_xyz
  1  'x, y, z'
loop_
 _atom_site_type_symbol
 _atom_site_label
 _atom_site_symmetry_multiplicity
 _atom_site_fract_x
 _atom_site_fract_y
 _atom_site_fract_z
 _atom_site_occupancy
  Ba  Ba0  1  0.331194  0.062608  0.310844  1
  Ba  Ba1  1  0.173953  0.565018  0.308823  1
  Ba  Ba2  1  0.824375  0.435960  0.690451  1
  Ca  Ca3  1  0.335737  0.250116  0.748050  1
  Ca  Ca4  1  0.997747  0.999973  0.997620  1
  Ca  Ca5  1  0.681208  0.928105  0.700590  1
  Ca  Ca6  1  0.827944  0.243545  0.250186  1
  Ca  Ca7  1  0.166991  0.753819  0.750922  1
  Ca  Ca8  1  0.667120  0.748043  0.250071  1
  Ca  Ca9  1  0.501508  0.505597  0.996237  1
  Au  Au10  1  0.865747  0.635015  0.994077  1
  Au  Au11  1  0.950994  0.867398  0.419906  1
  Au  Au12  1  0.128185  0.372837  0.997626  1
  Au  Au13  1  0.544633  0.364036  0.415869  1
  Au  Au14  1  0.375138  0.872223  0.992735  1
  Au  Au15  1  0.464401  0.645361  0.591176  1
  Au  Au16  1  0.032079  0.127207  0.591411  1
  Au  Au17  1  0.631045  0.123137  0.993408  1
