# generated using pymatgen
data_Nb2BRu5Rh
_symmetry_space_group_name_H-M   'P 1'
_cell_length_a   5.64205479
_cell_length_b   5.63439990
_cell_length_c   5.63439921
_cell_angle_alpha   60.08991189
_cell_angle_beta   59.95504784
_cell_angle_gamma   59.95504575
_symmetry_Int_Tables_number   1
_chemical_formula_structural   Nb2BRu5Rh
_chemical_formula_sum   'Nb2 B1 Ru5 Rh1'
_cell_volume   126.65314991
_cell_formula_units_Z   1
loop_
 _symmetry_equiv_pos_site_id
 _symmetry_equiv_pos_as_xyz
  1  'x, y, z'
loop_
 _atom_site_type_symbol
 _atom_site_label
 _atom_site_symmetry_multiplicity
 _atom_site_fract_x
 _atom_site_fract_y
 _atom_site_fract_z
 _atom_site_occupancy
  Nb  Nb0  1  0.250043  0.249957  0.249957  1
  Nb  Nb1  1  0.750043  0.749957  0.749957  1
  B  B2  1  0.499380  0.500620  0.500620  1
  Ru  Ru3  1  0.241226  0.758774  0.241077  1
  Ru  Ru4  1  0.758923  0.758774  0.241077  1
  Ru  Ru5  1  0.241226  0.241077  0.758774  1
  Ru  Ru6  1  0.758923  0.241077  0.758774  1
  Ru  Ru7  1  0.241110  0.758890  0.758890  1
  Rh  Rh8  1  0.759129  0.240871  0.240871  1
