# generated using pymatgen
data_V7SiRh8
_symmetry_space_group_name_H-M   'P 1'
_cell_length_a   8.66784585
_cell_length_b   8.66784574
_cell_length_c   6.62990500
_cell_angle_alpha   69.63501642
_cell_angle_beta   69.63501353
_cell_angle_gamma   80.15550958
_symmetry_Int_Tables_number   1
_chemical_formula_structural   V7SiRh8
_chemical_formula_sum   'V14 Si2 Rh16'
_cell_volume   437.08624193
_cell_formula_units_Z   2
loop_
 _symmetry_equiv_pos_site_id
 _symmetry_equiv_pos_as_xyz
  1  'x, y, z'
loop_
 _atom_site_type_symbol
 _atom_site_label
 _atom_site_symmetry_multiplicity
 _atom_site_fract_x
 _atom_site_fract_y
 _atom_site_fract_z
 _atom_site_occupancy
  V  V0  1  0.010654  0.264318  0.283054  1
  V  V1  1  0.264318  0.010654  0.283054  1
  V  V2  1  0.764275  0.518965  0.274000  1
  V  V3  1  0.518965  0.764275  0.274000  1
  V  V4  1  0.619187  0.380813  0.000000  1
  V  V5  1  0.380813  0.619187  0.000000  1
  V  V6  1  0.122783  0.372670  0.502752  1
  V  V7  1  0.372670  0.122783  0.502752  1
  V  V8  1  0.877217  0.627330  0.497248  1
  V  V9  1  0.627330  0.877217  0.497248  1
  V  V10  1  0.735682  0.989346  0.716946  1
  V  V11  1  0.989346  0.735682  0.716946  1
  V  V12  1  0.481035  0.235725  0.726000  1
  V  V13  1  0.235725  0.481035  0.726000  1
  Si  Si14  1  0.869873  0.130127  0.000000  1
  Si  Si15  1  0.130127  0.869873  0.000000  1
  Rh  Rh16  1  0.319854  0.319854  0.101786  1
  Rh  Rh17  1  0.045527  0.045527  0.659986  1
  Rh  Rh18  1  0.831232  0.831232  0.088952  1
  Rh  Rh19  1  0.549353  0.549353  0.641787  1
  Rh  Rh20  1  0.450647  0.450647  0.358213  1
  Rh  Rh21  1  0.168768  0.168768  0.911048  1
  Rh  Rh22  1  0.954473  0.954473  0.340014  1
  Rh  Rh23  1  0.680146  0.680146  0.898214  1
  Rh  Rh24  1  0.076683  0.575799  0.093833  1
  Rh  Rh25  1  0.575799  0.076683  0.093833  1
  Rh  Rh26  1  0.795811  0.297391  0.652839  1
  Rh  Rh27  1  0.297391  0.795811  0.652839  1
  Rh  Rh28  1  0.204189  0.702609  0.347161  1
  Rh  Rh29  1  0.702609  0.204189  0.347161  1
  Rh  Rh30  1  0.923317  0.424201  0.906167  1
  Rh  Rh31  1  0.424201  0.923317  0.906167  1
