# generated using pymatgen
data_Li8Y8Sn4BiPb3
_symmetry_space_group_name_H-M   'P 1'
_cell_length_a   9.46432603
_cell_length_b   9.46429358
_cell_length_c   7.32106693
_cell_angle_alpha   90.07747816
_cell_angle_beta   89.91537546
_cell_angle_gamma   119.97998154
_symmetry_Int_Tables_number   1
_chemical_formula_structural   Li8Y8Sn4BiPb3
_chemical_formula_sum   'Li8 Y8 Sn4 Bi1 Pb3'
_cell_volume   568.02819380
_cell_formula_units_Z   1
loop_
 _symmetry_equiv_pos_site_id
 _symmetry_equiv_pos_as_xyz
  1  'x, y, z'
loop_
 _atom_site_type_symbol
 _atom_site_label
 _atom_site_symmetry_multiplicity
 _atom_site_fract_x
 _atom_site_fract_y
 _atom_site_fract_z
 _atom_site_occupancy
  Li  Li0  1  0.167360  0.832752  0.196301  1
  Li  Li1  1  0.336368  0.170622  0.690989  1
  Li  Li2  1  0.828798  0.664220  0.691313  1
  Li  Li3  1  0.167651  0.335124  0.194027  1
  Li  Li4  1  0.664823  0.832380  0.193125  1
  Li  Li5  1  0.831986  0.166202  0.694061  1
  Li  Li6  1  0.336025  0.665804  0.815678  1
  Li  Li7  1  0.666709  0.333184  0.313885  1
  Y  Y8  1  0.513939  0.488098  0.990428  1
  Y  Y9  1  0.022306  0.507253  0.488484  1
  Y  Y10  1  0.493562  0.977054  0.489559  1
  Y  Y11  1  0.518742  0.026957  0.993223  1
  Y  Y12  1  0.972175  0.481874  0.994011  1
  Y  Y13  1  0.487462  0.514854  0.491250  1
  Y  Y14  1  0.995804  0.001784  0.987141  1
  Y  Y15  1  0.996282  0.001654  0.483846  1
  Sn  Sn16  1  0.666736  0.833819  0.756797  1
  Sn  Sn17  1  0.833526  0.166542  0.255944  1
  Sn  Sn18  1  0.332696  0.667214  0.223749  1
  Sn  Sn19  1  0.666996  0.333052  0.723067  1
  Bi  Bi20  1  0.166594  0.833324  0.753957  1
  Pb  Pb21  1  0.333218  0.166053  0.256232  1
  Pb  Pb22  1  0.833960  0.666775  0.256301  1
  Pb  Pb23  1  0.166282  0.333406  0.756637  1
