# generated using pymatgen
data_Eu(MnB3)2
_symmetry_space_group_name_H-M   'P 1'
_cell_length_a   5.47142593
_cell_length_b   5.47142578
_cell_length_c   5.47142573
_cell_angle_alpha   147.16236010
_cell_angle_beta   107.91551233
_cell_angle_gamma   81.49911619
_symmetry_Int_Tables_number   1
_chemical_formula_structural   Eu(MnB3)2
_chemical_formula_sum   'Eu1 Mn2 B6'
_cell_volume   82.54721595
_cell_formula_units_Z   1
loop_
 _symmetry_equiv_pos_site_id
 _symmetry_equiv_pos_as_xyz
  1  'x, y, z'
loop_
 _atom_site_type_symbol
 _atom_site_label
 _atom_site_symmetry_multiplicity
 _atom_site_fract_x
 _atom_site_fract_y
 _atom_site_fract_z
 _atom_site_occupancy
  Eu  Eu0  1  0.000000  0.000000  0.000000  1
  Mn  Mn1  1  0.655971  0.155971  0.500000  1
  Mn  Mn2  1  0.344029  0.844029  0.500000  1
  B  B3  1  0.638309  0.499999  0.138309  1
  B  B4  1  0.539469  0.302981  0.236489  1
  B  B5  1  0.933509  0.697019  0.236489  1
  B  B6  1  0.066492  0.302982  0.763512  1
  B  B7  1  0.460530  0.697019  0.763512  1
  B  B8  1  0.361691  0.500000  0.861691  1
