# generated using pymatgen
data_SmHo3Cu2(As3O)2
_symmetry_space_group_name_H-M   'P 1'
_cell_length_a   34.18408400
_cell_length_b   3.93439600
_cell_length_c   3.92707303
_cell_angle_alpha   90.00000000
_cell_angle_beta   90.00731066
_cell_angle_gamma   90.00000000
_symmetry_Int_Tables_number   1
_chemical_formula_structural   SmHo3Cu2(As3O)2
_chemical_formula_sum   'Sm2 Ho6 Cu4 As12 O4'
_cell_volume   528.16666950
_cell_formula_units_Z   2
loop_
 _symmetry_equiv_pos_site_id
 _symmetry_equiv_pos_as_xyz
  1  'x, y, z'
loop_
 _atom_site_type_symbol
 _atom_site_label
 _atom_site_symmetry_multiplicity
 _atom_site_fract_x
 _atom_site_fract_y
 _atom_site_fract_z
 _atom_site_occupancy
  Sm  Sm0  1  0.827860  0.250002  0.703137  1
  Sm  Sm1  1  0.672265  0.750002  0.203414  1
  Ho  Ho2  1  0.466131  0.750002  0.251831  1
  Ho  Ho3  1  0.033868  0.250002  0.751819  1
  Ho  Ho4  1  0.970656  0.750002  0.250635  1
  Ho  Ho5  1  0.529394  0.250002  0.750323  1
  Ho  Ho6  1  0.325328  0.250002  0.795233  1
  Ho  Ho7  1  0.174554  0.750002  0.295381  1
  Cu  Cu8  1  0.249875  0.250002  0.296450  1
  Cu  Cu9  1  0.249848  0.750002  0.796906  1
  Cu  Cu10  1  0.750029  0.250002  0.199911  1
  Cu  Cu11  1  0.750128  0.750002  0.701454  1
  As  As12  1  0.393542  0.250002  0.303147  1
  As  As13  1  0.106409  0.750002  0.803424  1
  As  As14  1  0.898160  0.250002  0.194817  1
  As  As15  1  0.601955  0.750002  0.695640  1
  As  As16  1  0.393463  0.750002  0.767867  1
  As  As17  1  0.106471  0.250002  0.267834  1
  As  As18  1  0.898132  0.750002  0.734668  1
  As  As19  1  0.601966  0.250002  0.235141  1
  As  As20  1  0.203739  0.250002  0.796347  1
  As  As21  1  0.296097  0.750002  0.296230  1
  As  As22  1  0.704338  0.250002  0.701887  1
  As  As23  1  0.795733  0.750002  0.201970  1
  O  O24  1  0.497799  0.750002  0.752354  1
  O  O25  1  0.002231  0.250002  0.252513  1
  O  O26  1  0.002291  0.750002  0.749924  1
  O  O27  1  0.497740  0.250002  0.249744  1
