# generated using pymatgen
data_Rb2Hf3(CuSe4)2
_symmetry_space_group_name_H-M   'P 1'
_cell_length_a   3.86938462
_cell_length_b   8.10057042
_cell_length_c   13.41467724
_cell_angle_alpha   93.90868523
_cell_angle_beta   98.29221658
_cell_angle_gamma   103.81773284
_symmetry_Int_Tables_number   1
_chemical_formula_structural   Rb2Hf3(CuSe4)2
_chemical_formula_sum   'Rb2 Hf3 Cu2 Se8'
_cell_volume   401.72539474
_cell_formula_units_Z   1
loop_
 _symmetry_equiv_pos_site_id
 _symmetry_equiv_pos_as_xyz
  1  'x, y, z'
loop_
 _atom_site_type_symbol
 _atom_site_label
 _atom_site_symmetry_multiplicity
 _atom_site_fract_x
 _atom_site_fract_y
 _atom_site_fract_z
 _atom_site_occupancy
  Rb  Rb0  1  0.866926  0.532899  0.200950  1
  Rb  Rb1  1  0.133074  0.467101  0.799049  1
  Hf  Hf2  1  0.500000  0.000000  0.000000  1
  Hf  Hf3  1  0.719911  0.061196  0.378626  1
  Hf  Hf4  1  0.280088  0.938804  0.621373  1
  Cu  Cu5  1  0.146124  0.094201  0.198048  1
  Cu  Cu6  1  0.853875  0.905800  0.801951  1
  Se  Se7  1  0.140310  0.236513  0.044106  1
  Se  Se8  1  0.543651  0.897903  0.189398  1
  Se  Se9  1  0.320511  0.288731  0.352290  1
  Se  Se10  1  0.128538  0.835757  0.421322  1
  Se  Se11  1  0.871462  0.164244  0.578677  1
  Se  Se12  1  0.679490  0.711270  0.647711  1
  Se  Se13  1  0.456349  0.102097  0.810602  1
  Se  Se14  1  0.859689  0.763486  0.955893  1
