# generated using pymatgen
data_Ga(IrO3)2
_symmetry_space_group_name_H-M   'P 1'
_cell_length_a   4.54201302
_cell_length_b   10.45979006
_cell_length_c   9.09031807
_cell_angle_alpha   64.24112506
_cell_angle_beta   90.00142703
_cell_angle_gamma   89.99834820
_symmetry_Int_Tables_number   1
_chemical_formula_structural   Ga(IrO3)2
_chemical_formula_sum   'Ga4 Ir8 O24'
_cell_volume   388.95313939
_cell_formula_units_Z   4
loop_
 _symmetry_equiv_pos_site_id
 _symmetry_equiv_pos_as_xyz
  1  'x, y, z'
loop_
 _atom_site_type_symbol
 _atom_site_label
 _atom_site_symmetry_multiplicity
 _atom_site_fract_x
 _atom_site_fract_y
 _atom_site_fract_z
 _atom_site_occupancy
  Ga  Ga0  1  0.499948  0.500022  0.999998  1
  Ga  Ga1  1  0.999979  0.999970  0.500059  1
  Ga  Ga2  1  0.499953  0.500009  0.499991  1
  Ga  Ga3  1  0.000115  0.999995  0.000054  1
  Ir  Ir4  1  0.500063  0.168440  0.165794  1
  Ir  Ir5  1  0.500020  0.168432  0.665800  1
  Ir  Ir6  1  0.999935  0.668383  0.165793  1
  Ir  Ir7  1  0.999933  0.668413  0.665856  1
  Ir  Ir8  1  0.499980  0.831558  0.834210  1
  Ir  Ir9  1  0.499953  0.831568  0.334234  1
  Ir  Ir10  1  0.999982  0.331580  0.334190  1
  Ir  Ir11  1  0.000028  0.331578  0.834214  1
  O  O12  1  0.191132  0.499989  0.845456  1
  O  O13  1  0.191183  0.499987  0.345467  1
  O  O14  1  0.808862  0.499963  0.154529  1
  O  O15  1  0.808769  0.500029  0.654479  1
  O  O16  1  0.309037  0.999947  0.345421  1
  O  O17  1  0.309031  0.999954  0.845380  1
  O  O18  1  0.691000  0.999957  0.154649  1
  O  O19  1  0.691020  0.999960  0.654619  1
  O  O20  1  0.194181  0.166085  0.013896  1
  O  O21  1  0.194194  0.166096  0.513910  1
  O  O22  1  0.805854  0.166059  0.320053  1
  O  O23  1  0.805902  0.166099  0.820011  1
  O  O24  1  0.305963  0.666119  0.013794  1
  O  O25  1  0.305900  0.666165  0.513809  1
  O  O26  1  0.694038  0.666153  0.820020  1
  O  O27  1  0.693988  0.666170  0.320034  1
  O  O28  1  0.805776  0.833999  0.986001  1
  O  O29  1  0.805779  0.833940  0.486055  1
  O  O30  1  0.194216  0.833920  0.680021  1
  O  O31  1  0.194246  0.833953  0.180003  1
  O  O32  1  0.694122  0.333871  0.986126  1
  O  O33  1  0.694154  0.333866  0.486141  1
  O  O34  1  0.305855  0.333857  0.179990  1
  O  O35  1  0.305912  0.333913  0.679944  1
