# generated using pymatgen
data_Zr3CuTc3P2
_symmetry_space_group_name_H-M   'P 1'
_cell_length_a   7.00485300
_cell_length_b   7.00485442
_cell_length_c   3.35733000
_cell_angle_alpha   90.00000000
_cell_angle_beta   90.00000000
_cell_angle_gamma   119.99999801
_symmetry_Int_Tables_number   1
_chemical_formula_structural   Zr3CuTc3P2
_chemical_formula_sum   'Zr3 Cu1 Tc3 P2'
_cell_volume   142.66676427
_cell_formula_units_Z   1
loop_
 _symmetry_equiv_pos_site_id
 _symmetry_equiv_pos_as_xyz
  1  'x, y, z'
loop_
 _atom_site_type_symbol
 _atom_site_label
 _atom_site_symmetry_multiplicity
 _atom_site_fract_x
 _atom_site_fract_y
 _atom_site_fract_z
 _atom_site_occupancy
  Zr  Zr0  1  0.400187  0.404319  0.500000  1
  Zr  Zr1  1  0.595681  0.995868  0.500000  1
  Zr  Zr2  1  0.004132  0.599813  0.500000  1
  Cu  Cu3  1  0.666667  0.333333  0.000000  1
  Tc  Tc4  1  0.012842  0.254071  0.000000  1
  Tc  Tc5  1  0.241228  0.987158  0.000000  1
  Tc  Tc6  1  0.745929  0.758772  0.000000  1
  P  P7  1  0.333333  0.666667  0.000000  1
  P  P8  1  0.000000  0.000000  0.500000  1
