# generated using pymatgen
data_YHo15(TlRh)4
_symmetry_space_group_name_H-M   'P 1'
_cell_length_a   9.65847221
_cell_length_b   9.65809281
_cell_length_c   9.65661785
_cell_angle_alpha   59.94493031
_cell_angle_beta   59.94607970
_cell_angle_gamma   59.94291929
_symmetry_Int_Tables_number   1
_chemical_formula_structural   YHo15(TlRh)4
_chemical_formula_sum   'Y1 Ho15 Tl4 Rh4'
_cell_volume   636.15691030
_cell_formula_units_Z   1
loop_
 _symmetry_equiv_pos_site_id
 _symmetry_equiv_pos_as_xyz
  1  'x, y, z'
loop_
 _atom_site_type_symbol
 _atom_site_label
 _atom_site_symmetry_multiplicity
 _atom_site_fract_x
 _atom_site_fract_y
 _atom_site_fract_z
 _atom_site_occupancy
  Y  Y0  1  0.189124  0.189068  0.811895  1
  Ho  Ho1  1  0.601407  0.601351  0.199653  1
  Ho  Ho2  1  0.438370  0.060894  0.437711  1
  Ho  Ho3  1  0.438200  0.438176  0.060846  1
  Ho  Ho4  1  0.811375  0.189059  0.811909  1
  Ho  Ho5  1  0.189803  0.810834  0.189999  1
  Ho  Ho6  1  0.437841  0.061719  0.061935  1
  Ho  Ho7  1  0.189169  0.811267  0.811864  1
  Ho  Ho8  1  0.061720  0.437830  0.061932  1
  Ho  Ho9  1  0.812279  0.812222  0.188519  1
  Ho  Ho10  1  0.199471  0.601440  0.601299  1
  Ho  Ho11  1  0.060885  0.438365  0.437727  1
  Ho  Ho12  1  0.061881  0.061874  0.437427  1
  Ho  Ho13  1  0.810918  0.189721  0.189968  1
  Ho  Ho14  1  0.601424  0.199646  0.601230  1
  Ho  Ho15  1  0.598473  0.598415  0.598210  1
  Tl  Tl16  1  0.835832  0.835929  0.835949  1
  Tl  Tl17  1  0.834704  0.834781  0.493628  1
  Tl  Tl18  1  0.493912  0.834322  0.834841  1
  Tl  Tl19  1  0.834276  0.493857  0.834869  1
  Rh  Rh20  1  0.391803  0.822160  0.392153  1
  Rh  Rh21  1  0.392761  0.392855  0.392117  1
  Rh  Rh22  1  0.822143  0.391867  0.392099  1
  Rh  Rh23  1  0.392233  0.392349  0.822220  1
