# generated using pymatgen
data_ErCdSnSbO7
_symmetry_space_group_name_H-M   'P 1'
_cell_length_a   7.40697900
_cell_length_b   7.40697900
_cell_length_c   10.42031500
_cell_angle_alpha   90.00000000
_cell_angle_beta   90.00000000
_cell_angle_gamma   90.00000000
_symmetry_Int_Tables_number   1
_chemical_formula_structural   ErCdSnSbO7
_chemical_formula_sum   'Er4 Cd4 Sn4 Sb4 O28'
_cell_volume   571.69326294
_cell_formula_units_Z   4
loop_
 _symmetry_equiv_pos_site_id
 _symmetry_equiv_pos_as_xyz
  1  'x, y, z'
loop_
 _atom_site_type_symbol
 _atom_site_label
 _atom_site_symmetry_multiplicity
 _atom_site_fract_x
 _atom_site_fract_y
 _atom_site_fract_z
 _atom_site_occupancy
  Er  Er0  1  0.000000  0.743275  0.000000  1
  Er  Er1  1  0.000000  0.256725  0.500000  1
  Er  Er2  1  0.256725  0.000000  0.250000  1
  Er  Er3  1  0.743275  0.000000  0.750000  1
  Cd  Cd4  1  0.500000  0.741928  0.000000  1
  Cd  Cd5  1  0.258072  0.500000  0.250000  1
  Cd  Cd6  1  0.500000  0.258072  0.500000  1
  Cd  Cd7  1  0.741928  0.500000  0.750000  1
  Sn  Sn8  1  0.757887  0.000000  0.250000  1
  Sn  Sn9  1  0.000000  0.757887  0.500000  1
  Sn  Sn10  1  0.242113  0.000000  0.750000  1
  Sn  Sn11  1  0.000000  0.242113  0.000000  1
  Sb  Sb12  1  0.244287  0.500000  0.750000  1
  Sb  Sb13  1  0.500000  0.755713  0.500000  1
  Sb  Sb14  1  0.500000  0.244287  0.000000  1
  Sb  Sb15  1  0.755713  0.500000  0.250000  1
  O  O16  1  0.250109  0.749891  0.125000  1
  O  O17  1  0.541510  0.949547  0.369985  1
  O  O18  1  0.764615  0.743475  0.170052  1
  O  O19  1  0.749891  0.250109  0.625000  1
  O  O20  1  0.971390  0.971390  0.375000  1
  O  O21  1  0.028610  0.028610  0.875000  1
  O  O22  1  0.050453  0.458490  0.880015  1
  O  O23  1  0.028610  0.971390  0.625000  1
  O  O24  1  0.256525  0.235385  0.079948  1
  O  O25  1  0.235385  0.256525  0.670052  1
  O  O26  1  0.256525  0.764615  0.420052  1
  O  O27  1  0.458490  0.949547  0.630015  1
  O  O28  1  0.458490  0.050453  0.869985  1
  O  O29  1  0.445757  0.445757  0.875000  1
  O  O30  1  0.554243  0.554243  0.375000  1
  O  O31  1  0.541510  0.050453  0.130015  1
  O  O32  1  0.554243  0.445757  0.125000  1
  O  O33  1  0.743475  0.764615  0.579948  1
  O  O34  1  0.764615  0.256525  0.329948  1
  O  O35  1  0.749891  0.749891  0.875000  1
  O  O36  1  0.743475  0.235385  0.920052  1
  O  O37  1  0.949547  0.541510  0.380015  1
  O  O38  1  0.971390  0.028610  0.125000  1
  O  O39  1  0.949547  0.458490  0.119985  1
  O  O40  1  0.050453  0.541510  0.619985  1
  O  O41  1  0.235385  0.743475  0.829948  1
  O  O42  1  0.250109  0.250109  0.375000  1
  O  O43  1  0.445757  0.554243  0.625000  1
