# generated using pymatgen
data_Y10Cd3Tc
_symmetry_space_group_name_H-M   'P 1'
_cell_length_a   9.59327700
_cell_length_b   9.59327624
_cell_length_c   9.99210400
_cell_angle_alpha   90.00000000
_cell_angle_beta   90.00000000
_cell_angle_gamma   119.99999917
_symmetry_Int_Tables_number   1
_chemical_formula_structural   Y10Cd3Tc
_chemical_formula_sum   'Y20 Cd6 Tc2'
_cell_volume   796.38214749
_cell_formula_units_Z   2
loop_
 _symmetry_equiv_pos_site_id
 _symmetry_equiv_pos_as_xyz
  1  'x, y, z'
loop_
 _atom_site_type_symbol
 _atom_site_label
 _atom_site_symmetry_multiplicity
 _atom_site_fract_x
 _atom_site_fract_y
 _atom_site_fract_z
 _atom_site_occupancy
  Y  Y0  1  0.000000  0.000000  0.500000  1
  Y  Y1  1  0.000000  0.000000  0.000000  1
  Y  Y2  1  0.210060  0.789940  0.440752  1
  Y  Y3  1  0.210060  0.420120  0.440752  1
  Y  Y4  1  0.579880  0.789940  0.440752  1
  Y  Y5  1  0.789940  0.210060  0.559248  1
  Y  Y6  1  0.789940  0.579880  0.559248  1
  Y  Y7  1  0.420120  0.210060  0.559248  1
  Y  Y8  1  0.789940  0.210060  0.940752  1
  Y  Y9  1  0.789940  0.579880  0.940752  1
  Y  Y10  1  0.420120  0.210060  0.940752  1
  Y  Y11  1  0.210060  0.789940  0.059248  1
  Y  Y12  1  0.210060  0.420120  0.059248  1
  Y  Y13  1  0.579880  0.789940  0.059248  1
  Y  Y14  1  0.539728  0.460272  0.250000  1
  Y  Y15  1  0.539728  0.079457  0.250000  1
  Y  Y16  1  0.920543  0.460272  0.250000  1
  Y  Y17  1  0.460272  0.539728  0.750000  1
  Y  Y18  1  0.460272  0.920543  0.750000  1
  Y  Y19  1  0.079457  0.539728  0.750000  1
  Cd  Cd20  1  0.885362  0.114638  0.250000  1
  Cd  Cd21  1  0.885362  0.770725  0.250000  1
  Cd  Cd22  1  0.229275  0.114638  0.250000  1
  Cd  Cd23  1  0.114638  0.885362  0.750000  1
  Cd  Cd24  1  0.114638  0.229275  0.750000  1
  Cd  Cd25  1  0.770725  0.885362  0.750000  1
  Tc  Tc26  1  0.333333  0.666667  0.250000  1
  Tc  Tc27  1  0.666667  0.333333  0.750000  1
