# generated using pymatgen
data_Er4Al17GaIr5Pt
_symmetry_space_group_name_H-M   'P 1'
_cell_length_a   7.54645385
_cell_length_b   7.54658335
_cell_length_c   9.44733274
_cell_angle_alpha   89.97020274
_cell_angle_beta   89.95843901
_cell_angle_gamma   119.48910706
_symmetry_Int_Tables_number   1
_chemical_formula_structural   Er4Al17GaIr5Pt
_chemical_formula_sum   'Er4 Al17 Ga1 Ir5 Pt1'
_cell_volume   468.32317565
_cell_formula_units_Z   1
loop_
 _symmetry_equiv_pos_site_id
 _symmetry_equiv_pos_as_xyz
  1  'x, y, z'
loop_
 _atom_site_type_symbol
 _atom_site_label
 _atom_site_symmetry_multiplicity
 _atom_site_fract_x
 _atom_site_fract_y
 _atom_site_fract_z
 _atom_site_occupancy
  Er  Er0  1  0.993771  0.673829  0.250707  1
  Er  Er1  1  0.004241  0.327705  0.749457  1
  Er  Er2  1  0.674488  0.994486  0.250443  1
  Er  Er3  1  0.328255  0.004960  0.749265  1
  Al  Al4  1  0.871227  0.870510  0.749824  1
  Al  Al5  1  0.004127  0.336017  0.076737  1
  Al  Al6  1  0.002131  0.667743  0.923523  1
  Al  Al7  1  0.999927  0.664169  0.574899  1
  Al  Al8  1  0.336082  0.999899  0.425053  1
  Al  Al9  1  0.000752  0.335589  0.424459  1
  Al  Al10  1  0.664690  0.999190  0.575418  1
  Al  Al11  1  0.663948  0.995740  0.923380  1
  Al  Al12  1  0.332325  0.997809  0.076454  1
  Al  Al13  1  0.332410  0.332172  0.554083  1
  Al  Al14  1  0.666644  0.666474  0.449133  1
  Al  Al15  1  0.665754  0.668860  0.054613  1
  Al  Al16  1  0.329941  0.333180  0.942211  1
  Al  Al17  1  0.339962  0.551532  0.250401  1
  Al  Al18  1  0.660227  0.452985  0.747468  1
  Al  Al19  1  0.548632  0.339643  0.252466  1
  Al  Al20  1  0.450062  0.659939  0.749680  1
  Ga  Ga21  1  0.133260  0.132147  0.250256  1
  Ir  Ir22  1  0.327510  0.671314  0.000104  1
  Ir  Ir23  1  0.327856  0.671006  0.499990  1
  Ir  Ir24  1  0.671416  0.327316  0.499944  1
  Ir  Ir25  1  0.999143  0.999603  0.997664  1
  Ir  Ir26  1  0.999622  0.999089  0.502324  1
  Pt  Pt27  1  0.671597  0.327094  0.000039  1
