# generated using pymatgen
data_Y2LuCo8ReP6
_symmetry_space_group_name_H-M   'P 1'
_cell_length_a   3.71663000
_cell_length_b   10.49840400
_cell_length_c   12.20696000
_cell_angle_alpha   90.00000000
_cell_angle_beta   90.00000000
_cell_angle_gamma   90.00000000
_symmetry_Int_Tables_number   1
_chemical_formula_structural   Y2LuCo8ReP6
_chemical_formula_sum   'Y4 Lu2 Co16 Re2 P12'
_cell_volume   476.29950579
_cell_formula_units_Z   2
loop_
 _symmetry_equiv_pos_site_id
 _symmetry_equiv_pos_as_xyz
  1  'x, y, z'
loop_
 _atom_site_type_symbol
 _atom_site_label
 _atom_site_symmetry_multiplicity
 _atom_site_fract_x
 _atom_site_fract_y
 _atom_site_fract_z
 _atom_site_occupancy
  Y  Y0  1  0.000000  0.500000  0.524393  1
  Y  Y1  1  0.500000  0.000000  0.474182  1
  Y  Y2  1  0.000000  0.682080  0.794598  1
  Y  Y3  1  0.000000  0.317920  0.794598  1
  Lu  Lu4  1  0.500000  0.819699  0.205682  1
  Lu  Lu5  1  0.500000  0.180301  0.205682  1
  Co  Co6  1  0.500000  0.500000  0.701867  1
  Co  Co7  1  0.000000  0.000000  0.296580  1
  Co  Co8  1  0.000000  0.500000  0.989745  1
  Co  Co9  1  0.500000  0.000000  0.013884  1
  Co  Co10  1  0.500000  0.331577  0.991190  1
  Co  Co11  1  0.500000  0.668423  0.991190  1
  Co  Co12  1  0.000000  0.166600  0.012809  1
  Co  Co13  1  0.000000  0.833400  0.012809  1
  Co  Co14  1  0.500000  0.296310  0.429247  1
  Co  Co15  1  0.500000  0.703690  0.429247  1
  Co  Co16  1  0.000000  0.202930  0.567511  1
  Co  Co17  1  0.000000  0.797070  0.567511  1
  Co  Co18  1  0.500000  0.879461  0.708013  1
  Co  Co19  1  0.500000  0.120539  0.708013  1
  Co  Co20  1  0.000000  0.622272  0.290382  1
  Co  Co21  1  0.000000  0.377728  0.290382  1
  Re  Re22  1  0.500000  0.500000  0.156945  1
  Re  Re23  1  0.000000  0.000000  0.845086  1
  P  P24  1  0.500000  0.500000  0.880975  1
  P  P25  1  0.000000  0.000000  0.121605  1
  P  P26  1  0.500000  0.500000  0.348790  1
  P  P27  1  0.000000  0.000000  0.650740  1
  P  P28  1  0.500000  0.311226  0.615119  1
  P  P29  1  0.500000  0.688774  0.615119  1
  P  P30  1  0.000000  0.187542  0.381162  1
  P  P31  1  0.000000  0.812458  0.381162  1
  P  P32  1  0.500000  0.846658  0.892938  1
  P  P33  1  0.500000  0.153342  0.892938  1
  P  P34  1  0.000000  0.655758  0.108951  1
  P  P35  1  0.000000  0.344242  0.108951  1
