# generated using pymatgen
data_NdY3Al18(RePd2)2
_symmetry_space_group_name_H-M   'P 1'
_cell_length_a   7.61452663
_cell_length_b   7.62945667
_cell_length_c   9.56747200
_cell_angle_alpha   90.00000000
_cell_angle_beta   90.00000000
_cell_angle_gamma   118.52818805
_symmetry_Int_Tables_number   1
_chemical_formula_structural   NdY3Al18(RePd2)2
_chemical_formula_sum   'Nd1 Y3 Al18 Re2 Pd4'
_cell_volume   488.33308419
_cell_formula_units_Z   1
loop_
 _symmetry_equiv_pos_site_id
 _symmetry_equiv_pos_as_xyz
  1  'x, y, z'
loop_
 _atom_site_type_symbol
 _atom_site_label
 _atom_site_symmetry_multiplicity
 _atom_site_fract_x
 _atom_site_fract_y
 _atom_site_fract_z
 _atom_site_occupancy
  Nd  Nd0  1  0.994423  0.678989  0.250000  1
  Y  Y1  1  0.005954  0.318268  0.750000  1
  Y  Y2  1  0.680713  0.994865  0.250000  1
  Y  Y3  1  0.318497  0.006900  0.750000  1
  Al  Al4  1  0.133435  0.134375  0.250000  1
  Al  Al5  1  0.866871  0.867824  0.750000  1
  Al  Al6  1  0.002006  0.332727  0.074361  1
  Al  Al7  1  0.997673  0.664814  0.920808  1
  Al  Al8  1  0.997673  0.664814  0.579192  1
  Al  Al9  1  0.336494  0.004056  0.425521  1
  Al  Al10  1  0.002006  0.332727  0.425639  1
  Al  Al11  1  0.665033  0.998327  0.576683  1
  Al  Al12  1  0.665033  0.998327  0.923317  1
  Al  Al13  1  0.336494  0.004056  0.074479  1
  Al  Al14  1  0.329802  0.329971  0.549257  1
  Al  Al15  1  0.669272  0.670878  0.454737  1
  Al  Al16  1  0.669272  0.670878  0.045263  1
  Al  Al17  1  0.329802  0.329971  0.950743  1
  Al  Al18  1  0.347504  0.552877  0.250000  1
  Al  Al19  1  0.654474  0.446204  0.750000  1
  Al  Al20  1  0.550561  0.342150  0.250000  1
  Al  Al21  1  0.446537  0.655259  0.750000  1
  Re  Re22  1  0.000330  0.000711  0.999160  1
  Re  Re23  1  0.000330  0.000711  0.500840  1
  Pd  Pd24  1  0.671496  0.328032  0.999392  1
  Pd  Pd25  1  0.328409  0.671630  0.999421  1
  Pd  Pd26  1  0.328409  0.671630  0.500579  1
  Pd  Pd27  1  0.671496  0.328032  0.500608  1
