# generated using pymatgen
data_Ca4SmRh2
_symmetry_space_group_name_H-M   'P 1'
_cell_length_a   8.81738489
_cell_length_b   8.81738523
_cell_length_c   7.47146810
_cell_angle_alpha   82.84817842
_cell_angle_beta   82.84817805
_cell_angle_gamma   44.05312282
_symmetry_Int_Tables_number   1
_chemical_formula_structural   Ca4SmRh2
_chemical_formula_sum   'Ca8 Sm2 Rh4'
_cell_volume   400.24046753
_cell_formula_units_Z   2
loop_
 _symmetry_equiv_pos_site_id
 _symmetry_equiv_pos_as_xyz
  1  'x, y, z'
loop_
 _atom_site_type_symbol
 _atom_site_label
 _atom_site_symmetry_multiplicity
 _atom_site_fract_x
 _atom_site_fract_y
 _atom_site_fract_z
 _atom_site_occupancy
  Ca  Ca0  1  0.017330  0.805222  0.417762  1
  Ca  Ca1  1  0.194778  0.982670  0.082238  1
  Ca  Ca2  1  0.982670  0.194778  0.582238  1
  Ca  Ca3  1  0.805222  0.017330  0.917762  1
  Ca  Ca4  1  0.361133  0.204427  0.319345  1
  Ca  Ca5  1  0.795573  0.638867  0.180655  1
  Ca  Ca6  1  0.638867  0.795573  0.680655  1
  Ca  Ca7  1  0.204427  0.361133  0.819345  1
  Sm  Sm8  1  0.565038  0.434962  0.250000  1
  Sm  Sm9  1  0.434962  0.565038  0.750000  1
  Rh  Rh10  1  0.194217  0.596340  0.074573  1
  Rh  Rh11  1  0.403660  0.805783  0.425427  1
  Rh  Rh12  1  0.805783  0.403660  0.925427  1
  Rh  Rh13  1  0.596340  0.194217  0.574573  1
