# generated using pymatgen
data_LiTb4Ho12Cd(HgIr2)2
_symmetry_space_group_name_H-M   'P 1'
_cell_length_a   9.64693140
_cell_length_b   9.63884083
_cell_length_c   9.63884200
_cell_angle_alpha   59.77950358
_cell_angle_beta   59.74584023
_cell_angle_gamma   59.74584145
_symmetry_Int_Tables_number   1
_chemical_formula_structural   LiTb4Ho12Cd(HgIr2)2
_chemical_formula_sum   'Li1 Tb4 Ho12 Cd1 Hg2 Ir4'
_cell_volume   630.26239991
_cell_formula_units_Z   1
loop_
 _symmetry_equiv_pos_site_id
 _symmetry_equiv_pos_as_xyz
  1  'x, y, z'
loop_
 _atom_site_type_symbol
 _atom_site_label
 _atom_site_symmetry_multiplicity
 _atom_site_fract_x
 _atom_site_fract_y
 _atom_site_fract_z
 _atom_site_occupancy
  Li  Li0  1  0.821194  0.818239  0.818239  1
  Tb  Tb1  1  0.810773  0.190695  0.810995  1
  Tb  Tb2  1  0.185495  0.812205  0.187725  1
  Tb  Tb3  1  0.810773  0.810995  0.190695  1
  Tb  Tb4  1  0.185495  0.187725  0.812205  1
  Ho  Ho5  1  0.601482  0.600515  0.600515  1
  Ho  Ho6  1  0.597907  0.598336  0.207308  1
  Ho  Ho7  1  0.597907  0.207308  0.598336  1
  Ho  Ho8  1  0.205128  0.598477  0.598477  1
  Ho  Ho9  1  0.059962  0.440442  0.440442  1
  Ho  Ho10  1  0.434046  0.063049  0.063049  1
  Ho  Ho11  1  0.439954  0.060701  0.439974  1
  Ho  Ho12  1  0.061991  0.435371  0.062416  1
  Ho  Ho13  1  0.439954  0.439974  0.060701  1
  Ho  Ho14  1  0.061991  0.062416  0.435371  1
  Ho  Ho15  1  0.191231  0.809530  0.809530  1
  Ho  Ho16  1  0.811248  0.187810  0.187810  1
  Cd  Cd17  1  0.506644  0.832417  0.832417  1
  Hg  Hg18  1  0.835629  0.838896  0.496961  1
  Hg  Hg19  1  0.835629  0.496961  0.838896  1
  Ir  Ir20  1  0.392419  0.392072  0.392072  1
  Ir  Ir21  1  0.393603  0.395732  0.825912  1
  Ir  Ir22  1  0.393603  0.825912  0.395732  1
  Ir  Ir23  1  0.825946  0.394224  0.394224  1
