# generated using pymatgen
data_Ho2TmSi2Ni
_symmetry_space_group_name_H-M   'P 1'
_cell_length_a   4.08979200
_cell_length_b   11.11899000
_cell_length_c   11.17604200
_cell_angle_alpha   90.00000000
_cell_angle_beta   90.00000000
_cell_angle_gamma   90.00000000
_symmetry_Int_Tables_number   1
_chemical_formula_structural   Ho2TmSi2Ni
_chemical_formula_sum   'Ho8 Tm4 Si8 Ni4'
_cell_volume   508.22331649
_cell_formula_units_Z   4
loop_
 _symmetry_equiv_pos_site_id
 _symmetry_equiv_pos_as_xyz
  1  'x, y, z'
loop_
 _atom_site_type_symbol
 _atom_site_label
 _atom_site_symmetry_multiplicity
 _atom_site_fract_x
 _atom_site_fract_y
 _atom_site_fract_z
 _atom_site_occupancy
  Ho  Ho0  1  0.250000  0.125326  0.557214  1
  Ho  Ho1  1  0.250000  0.374674  0.057214  1
  Ho  Ho2  1  0.750000  0.874674  0.442786  1
  Ho  Ho3  1  0.750000  0.625326  0.942786  1
  Ho  Ho4  1  0.250000  0.803254  0.715423  1
  Ho  Ho5  1  0.250000  0.696746  0.215423  1
  Ho  Ho6  1  0.750000  0.196746  0.284577  1
  Ho  Ho7  1  0.750000  0.303254  0.784577  1
  Tm  Tm8  1  0.250000  0.058943  0.882726  1
  Tm  Tm9  1  0.250000  0.441057  0.382726  1
  Tm  Tm10  1  0.750000  0.941057  0.117274  1
  Tm  Tm11  1  0.750000  0.558943  0.617274  1
  Si  Si12  1  0.250000  0.814782  0.976564  1
  Si  Si13  1  0.250000  0.685218  0.476564  1
  Si  Si14  1  0.750000  0.185218  0.023436  1
  Si  Si15  1  0.750000  0.314782  0.523436  1
  Si  Si16  1  0.250000  0.497413  0.802368  1
  Si  Si17  1  0.250000  0.002587  0.302368  1
  Si  Si18  1  0.750000  0.502587  0.197632  1
  Si  Si19  1  0.750000  0.997413  0.697632  1
  Ni  Ni20  1  0.250000  0.367759  0.628830  1
  Ni  Ni21  1  0.250000  0.132241  0.128830  1
  Ni  Ni22  1  0.750000  0.632241  0.371170  1
  Ni  Ni23  1  0.750000  0.867759  0.871170  1
