# generated using pymatgen
data_Er4Zr3NbF28
_symmetry_space_group_name_H-M   'P 1'
_cell_length_a   5.66272366
_cell_length_b   8.98591696
_cell_length_c   12.16229401
_cell_angle_alpha   62.95736498
_cell_angle_beta   89.99149391
_cell_angle_gamma   89.95798142
_symmetry_Int_Tables_number   1
_chemical_formula_structural   Er4Zr3NbF28
_chemical_formula_sum   'Er4 Zr3 Nb1 F28'
_cell_volume   551.21269533
_cell_formula_units_Z   1
loop_
 _symmetry_equiv_pos_site_id
 _symmetry_equiv_pos_as_xyz
  1  'x, y, z'
loop_
 _atom_site_type_symbol
 _atom_site_label
 _atom_site_symmetry_multiplicity
 _atom_site_fract_x
 _atom_site_fract_y
 _atom_site_fract_z
 _atom_site_occupancy
  Er  Er0  1  0.756973  0.814752  0.767176  1
  Er  Er1  1  0.255046  0.184497  0.731906  1
  Er  Er2  1  0.243156  0.185670  0.236483  1
  Er  Er3  1  0.744141  0.818857  0.264906  1
  Zr  Zr4  1  0.756042  0.273198  0.956498  1
  Zr  Zr5  1  0.256269  0.726436  0.543086  1
  Zr  Zr6  1  0.244508  0.726667  0.044125  1
  Nb  Nb7  1  0.743159  0.273973  0.455548  1
  F  F8  1  0.458935  0.707869  0.916770  1
  F  F9  1  0.950805  0.288659  0.586794  1
  F  F10  1  0.540572  0.290365  0.083799  1
  F  F11  1  0.040291  0.709433  0.415707  1
  F  F12  1  0.440929  0.270567  0.550274  1
  F  F13  1  0.940708  0.728038  0.950627  1
  F  F14  1  0.558861  0.724837  0.449513  1
  F  F15  1  0.057770  0.270841  0.051318  1
  F  F16  1  0.780459  0.526865  0.859828  1
  F  F17  1  0.275659  0.473572  0.639962  1
  F  F18  1  0.219470  0.473705  0.140162  1
  F  F19  1  0.724120  0.518414  0.359972  1
  F  F20  1  0.757688  0.020061  0.059772  1
  F  F21  1  0.258467  0.978890  0.441346  1
  F  F22  1  0.242728  0.978335  0.939897  1
  F  F23  1  0.743347  0.029935  0.553597  1
  F  F24  1  0.974312  0.734717  0.644988  1
  F  F25  1  0.476261  0.267982  0.852577  1
  F  F26  1  0.030353  0.271526  0.356043  1
  F  F27  1  0.525191  0.729933  0.148419  1
  F  F28  1  0.038458  0.748621  0.175413  1
  F  F29  1  0.540325  0.253569  0.323652  1
  F  F30  1  0.963660  0.250574  0.826339  1
  F  F31  1  0.464354  0.750813  0.673000  1
  F  F32  1  0.425656  0.972562  0.234972  1
  F  F33  1  0.925178  0.028243  0.267465  1
  F  F34  1  0.573231  0.026008  0.765570  1
  F  F35  1  0.072916  0.971014  0.732498  1
