# generated using pymatgen
data_Sr2Al3Ag14
_symmetry_space_group_name_H-M   'P 1'
_cell_length_a   7.33066089
_cell_length_b   7.33066126
_cell_length_c   7.32707551
_cell_angle_alpha   97.87597141
_cell_angle_beta   97.87597296
_cell_angle_gamma   82.17534351
_symmetry_Int_Tables_number   1
_chemical_formula_structural   Sr2Al3Ag14
_chemical_formula_sum   'Sr2 Al3 Ag14'
_cell_volume   383.57965451
_cell_formula_units_Z   1
loop_
 _symmetry_equiv_pos_site_id
 _symmetry_equiv_pos_as_xyz
  1  'x, y, z'
loop_
 _atom_site_type_symbol
 _atom_site_label
 _atom_site_symmetry_multiplicity
 _atom_site_fract_x
 _atom_site_fract_y
 _atom_site_fract_z
 _atom_site_occupancy
  Sr  Sr0  1  0.151959  0.151959  0.347361  1
  Sr  Sr1  1  0.848042  0.848042  0.652639  1
  Al  Al2  1  0.500000  0.000000  0.000000  1
  Al  Al3  1  0.000000  0.500000  0.000000  1
  Al  Al4  1  0.500000  0.500000  0.500000  1
  Ag  Ag5  1  0.794746  0.205254  0.000000  1
  Ag  Ag6  1  0.205254  0.794746  0.000000  1
  Ag  Ag7  1  0.401091  0.401091  0.098356  1
  Ag  Ag8  1  0.842603  0.842603  0.138019  1
  Ag  Ag9  1  0.795903  0.500467  0.295990  1
  Ag  Ag10  1  0.500467  0.795903  0.295990  1
  Ag  Ag11  1  0.638368  0.158009  0.342099  1
  Ag  Ag12  1  0.158009  0.638368  0.342099  1
  Ag  Ag13  1  0.841991  0.361632  0.657901  1
  Ag  Ag14  1  0.361632  0.841991  0.657901  1
  Ag  Ag15  1  0.499533  0.204097  0.704010  1
  Ag  Ag16  1  0.204097  0.499533  0.704010  1
  Ag  Ag17  1  0.157397  0.157397  0.861981  1
  Ag  Ag18  1  0.598909  0.598909  0.901644  1
