# generated using pymatgen
data_Er3Rh2Pb3Au
_symmetry_space_group_name_H-M   'P 1'
_cell_length_a   7.88791200
_cell_length_b   7.88791098
_cell_length_c   3.75583900
_cell_angle_alpha   90.00000000
_cell_angle_beta   90.00000000
_cell_angle_gamma   120.00000427
_symmetry_Int_Tables_number   1
_chemical_formula_structural   Er3Rh2Pb3Au
_chemical_formula_sum   'Er3 Rh2 Pb3 Au1'
_cell_volume   202.37722565
_cell_formula_units_Z   1
loop_
 _symmetry_equiv_pos_site_id
 _symmetry_equiv_pos_as_xyz
  1  'x, y, z'
loop_
 _atom_site_type_symbol
 _atom_site_label
 _atom_site_symmetry_multiplicity
 _atom_site_fract_x
 _atom_site_fract_y
 _atom_site_fract_z
 _atom_site_occupancy
  Er  Er0  1  0.404752  0.389517  0.500000  1
  Er  Er1  1  0.610483  0.015235  0.500000  1
  Er  Er2  1  0.984765  0.595248  0.500000  1
  Rh  Rh3  1  0.666667  0.333333  0.000000  1
  Rh  Rh4  1  0.000000  0.000000  0.500000  1
  Pb  Pb5  1  0.735658  0.733870  0.000000  1
  Pb  Pb6  1  0.266130  0.001788  0.000000  1
  Pb  Pb7  1  0.998212  0.264342  0.000000  1
  Au  Au8  1  0.333333  0.666667  0.000000  1
