# generated using pymatgen
data_Nd4In3Au10
_symmetry_space_group_name_H-M   'P 1'
_cell_length_a   8.77396971
_cell_length_b   8.77397139
_cell_length_c   10.40460500
_cell_angle_alpha   90.00000000
_cell_angle_beta   90.00000000
_cell_angle_gamma   108.72167205
_symmetry_Int_Tables_number   1
_chemical_formula_structural   Nd4In3Au10
_chemical_formula_sum   'Nd8 In6 Au20'
_cell_volume   758.59278194
_cell_formula_units_Z   2
loop_
 _symmetry_equiv_pos_site_id
 _symmetry_equiv_pos_as_xyz
  1  'x, y, z'
loop_
 _atom_site_type_symbol
 _atom_site_label
 _atom_site_symmetry_multiplicity
 _atom_site_fract_x
 _atom_site_fract_y
 _atom_site_fract_z
 _atom_site_occupancy
  Nd  Nd0  1  0.700189  0.299811  0.000000  1
  Nd  Nd1  1  0.200189  0.799811  0.500000  1
  Nd  Nd2  1  0.800089  0.800089  0.299903  1
  Nd  Nd3  1  0.300089  0.300089  0.200097  1
  Nd  Nd4  1  0.799811  0.200189  0.500000  1
  Nd  Nd5  1  0.299811  0.700189  0.000000  1
  Nd  Nd6  1  0.699911  0.699911  0.799903  1
  Nd  Nd7  1  0.199911  0.199911  0.700097  1
  In  In8  1  0.516153  0.016153  0.250000  1
  In  In9  1  0.983847  0.483847  0.750000  1
  In  In10  1  0.000000  0.000000  0.000000  1
  In  In11  1  0.016153  0.516153  0.250000  1
  In  In12  1  0.483847  0.983847  0.750000  1
  In  In13  1  0.500000  0.500000  0.500000  1
  Au  Au14  1  0.158271  0.430933  0.476501  1
  Au  Au15  1  0.905161  0.905161  0.595990  1
  Au  Au16  1  0.569067  0.841729  0.523499  1
  Au  Au17  1  0.889410  0.167845  0.209775  1
  Au  Au18  1  0.389410  0.667845  0.290225  1
  Au  Au19  1  0.667845  0.389410  0.290225  1
  Au  Au20  1  0.405161  0.405161  0.904010  1
  Au  Au21  1  0.930933  0.658271  0.023499  1
  Au  Au22  1  0.332155  0.610590  0.709775  1
  Au  Au23  1  0.341729  0.069067  0.976501  1
  Au  Au24  1  0.594839  0.594839  0.095990  1
  Au  Au25  1  0.658271  0.930933  0.023499  1
  Au  Au26  1  0.094839  0.094839  0.404010  1
  Au  Au27  1  0.610590  0.332155  0.709775  1
  Au  Au28  1  0.110590  0.832155  0.790225  1
  Au  Au29  1  0.069067  0.341729  0.976501  1
  Au  Au30  1  0.841729  0.569067  0.523499  1
  Au  Au31  1  0.167845  0.889410  0.209775  1
  Au  Au32  1  0.430933  0.158271  0.476501  1
  Au  Au33  1  0.832155  0.110590  0.790225  1
