# generated using pymatgen
data_EuTmF5
_symmetry_space_group_name_H-M   'P 1'
_cell_length_a   8.14378911
_cell_length_b   8.14378958
_cell_length_c   5.72779449
_cell_angle_alpha   89.11021408
_cell_angle_beta   89.11020659
_cell_angle_gamma   149.36728516
_symmetry_Int_Tables_number   1
_chemical_formula_structural   EuTmF5
_chemical_formula_sum   'Eu2 Tm2 F10'
_cell_volume   193.22389523
_cell_formula_units_Z   2
loop_
 _symmetry_equiv_pos_site_id
 _symmetry_equiv_pos_as_xyz
  1  'x, y, z'
loop_
 _atom_site_type_symbol
 _atom_site_label
 _atom_site_symmetry_multiplicity
 _atom_site_fract_x
 _atom_site_fract_y
 _atom_site_fract_z
 _atom_site_occupancy
  Eu  Eu0  1  0.324550  0.675450  0.750000  1
  Eu  Eu1  1  0.675450  0.324550  0.250000  1
  Tm  Tm2  1  0.074817  0.925183  0.750000  1
  Tm  Tm3  1  0.925183  0.074817  0.250000  1
  F  F4  1  0.732499  0.807182  0.599873  1
  F  F5  1  0.807182  0.732499  0.099873  1
  F  F6  1  0.802828  0.177991  0.005467  1
  F  F7  1  0.620314  0.379686  0.750000  1
  F  F8  1  0.822009  0.197172  0.494533  1
  F  F9  1  0.177991  0.802828  0.505467  1
  F  F10  1  0.379686  0.620314  0.250000  1
  F  F11  1  0.197172  0.822009  0.994533  1
  F  F12  1  0.192818  0.267501  0.900127  1
  F  F13  1  0.267501  0.192818  0.400127  1
