# generated using pymatgen
data_Tb15Lu5Pt16
_symmetry_space_group_name_H-M   'P 1'
_cell_length_a   7.48532318
_cell_length_b   7.59705922
_cell_length_c   14.68084505
_cell_angle_alpha   89.92090394
_cell_angle_beta   89.98808058
_cell_angle_gamma   89.97151576
_symmetry_Int_Tables_number   1
_chemical_formula_structural   Tb15Lu5Pt16
_chemical_formula_sum   'Tb15 Lu5 Pt16'
_cell_volume   834.84652857
_cell_formula_units_Z   1
loop_
 _symmetry_equiv_pos_site_id
 _symmetry_equiv_pos_as_xyz
  1  'x, y, z'
loop_
 _atom_site_type_symbol
 _atom_site_label
 _atom_site_symmetry_multiplicity
 _atom_site_fract_x
 _atom_site_fract_y
 _atom_site_fract_z
 _atom_site_occupancy
  Tb  Tb0  1  0.156311  0.668859  0.876497  1
  Tb  Tb1  1  0.842915  0.330914  0.378054  1
  Tb  Tb2  1  0.343494  0.168756  0.122884  1
  Tb  Tb3  1  0.343793  0.168117  0.377655  1
  Tb  Tb4  1  0.843520  0.331226  0.122920  1
  Tb  Tb5  1  0.156222  0.668729  0.622411  1
  Tb  Tb6  1  0.656605  0.831465  0.876777  1
  Tb  Tb7  1  0.997604  0.821044  0.405848  1
  Tb  Tb8  1  0.498023  0.679205  0.094211  1
  Tb  Tb9  1  0.502819  0.320558  0.594283  1
  Tb  Tb10  1  0.002480  0.179352  0.905151  1
  Tb  Tb11  1  0.001077  0.176984  0.594695  1
  Tb  Tb12  1  0.502354  0.320754  0.904889  1
  Tb  Tb13  1  0.498190  0.679754  0.407192  1
  Tb  Tb14  1  0.997695  0.820994  0.094234  1
  Lu  Lu15  1  0.681353  0.987389  0.250124  1
  Lu  Lu16  1  0.181310  0.512545  0.250171  1
  Lu  Lu17  1  0.818315  0.488433  0.749094  1
  Lu  Lu18  1  0.319484  0.011488  0.749192  1
  Lu  Lu19  1  0.656294  0.831943  0.623722  1
  Pt  Pt20  1  0.818426  0.645378  0.250299  1
  Pt  Pt21  1  0.318977  0.854492  0.250375  1
  Pt  Pt22  1  0.681342  0.144067  0.748482  1
  Pt  Pt23  1  0.182490  0.355171  0.749507  1
  Pt  Pt24  1  0.544848  0.390017  0.250437  1
  Pt  Pt25  1  0.044548  0.109882  0.250369  1
  Pt  Pt26  1  0.953148  0.888608  0.748357  1
  Pt  Pt27  1  0.456415  0.612733  0.748405  1
  Pt  Pt28  1  0.813815  0.535096  0.543921  1
  Pt  Pt29  1  0.316911  0.969520  0.956395  1
  Pt  Pt30  1  0.683486  0.028574  0.459174  1
  Pt  Pt31  1  0.183066  0.469757  0.043291  1
  Pt  Pt32  1  0.182034  0.469198  0.456755  1
  Pt  Pt33  1  0.682853  0.030306  0.043350  1
  Pt  Pt34  1  0.320934  0.968383  0.544386  1
  Pt  Pt35  1  0.816852  0.530309  0.956495  1
