# generated using pymatgen
data_Sc2Zn2Ga6Co
_symmetry_space_group_name_H-M   'P 1'
_cell_length_a   4.11760400
_cell_length_b   4.11760400
_cell_length_c   10.75125900
_cell_angle_alpha   90.00000000
_cell_angle_beta   90.00000000
_cell_angle_gamma   90.00000000
_symmetry_Int_Tables_number   1
_chemical_formula_structural   Sc2Zn2Ga6Co
_chemical_formula_sum   'Sc2 Zn2 Ga6 Co1'
_cell_volume   182.28396995
_cell_formula_units_Z   1
loop_
 _symmetry_equiv_pos_site_id
 _symmetry_equiv_pos_as_xyz
  1  'x, y, z'
loop_
 _atom_site_type_symbol
 _atom_site_label
 _atom_site_symmetry_multiplicity
 _atom_site_fract_x
 _atom_site_fract_y
 _atom_site_fract_z
 _atom_site_occupancy
  Sc  Sc0  1  0.000000  0.000000  0.302376  1
  Sc  Sc1  1  0.000000  0.000000  0.697624  1
  Zn  Zn2  1  0.000000  0.500000  0.500000  1
  Zn  Zn3  1  0.500000  0.000000  0.500000  1
  Ga  Ga4  1  0.000000  0.500000  0.122552  1
  Ga  Ga5  1  0.000000  0.500000  0.877448  1
  Ga  Ga6  1  0.500000  0.000000  0.122552  1
  Ga  Ga7  1  0.500000  0.000000  0.877448  1
  Ga  Ga8  1  0.500000  0.500000  0.317223  1
  Ga  Ga9  1  0.500000  0.500000  0.682777  1
  Co  Co10  1  0.000000  0.000000  0.000000  1
