# generated using pymatgen
data_Ho5Tm5Cd4(InNi)4
_symmetry_space_group_name_H-M   'P 1'
_cell_length_a   7.86718506
_cell_length_b   18.05027202
_cell_length_c   3.55546700
_cell_angle_alpha   90.00000000
_cell_angle_beta   90.00000000
_cell_angle_gamma   90.00978694
_symmetry_Int_Tables_number   1
_chemical_formula_structural   Ho5Tm5Cd4(InNi)4
_chemical_formula_sum   'Ho5 Tm5 Cd4 In4 Ni4'
_cell_volume   504.89348075
_cell_formula_units_Z   1
loop_
 _symmetry_equiv_pos_site_id
 _symmetry_equiv_pos_as_xyz
  1  'x, y, z'
loop_
 _atom_site_type_symbol
 _atom_site_label
 _atom_site_symmetry_multiplicity
 _atom_site_fract_x
 _atom_site_fract_y
 _atom_site_fract_z
 _atom_site_occupancy
  Ho  Ho0  1  0.499823  0.499921  0.000000  1
  Ho  Ho1  1  0.000439  0.000205  0.000000  1
  Ho  Ho2  1  0.381813  0.910880  0.000000  1
  Ho  Ho3  1  0.881493  0.589690  0.000000  1
  Ho  Ho4  1  0.118088  0.409933  0.000000  1
  Tm  Tm5  1  0.757731  0.277620  0.000000  1
  Tm  Tm6  1  0.241312  0.722344  0.000000  1
  Tm  Tm7  1  0.741669  0.778670  0.000000  1
  Tm  Tm8  1  0.258414  0.221262  0.000000  1
  Tm  Tm9  1  0.618508  0.089876  0.000000  1
  Cd  Cd10  1  0.706289  0.930353  0.500000  1
  Cd  Cd11  1  0.295735  0.070246  0.500000  1
  Cd  Cd12  1  0.793231  0.429188  0.500000  1
  Cd  Cd13  1  0.206458  0.570775  0.500000  1
  In  In14  1  0.561601  0.650840  0.500000  1
  In  In15  1  0.438402  0.348940  0.500000  1
  In  In16  1  0.937593  0.150035  0.500000  1
  In  In17  1  0.061598  0.849967  0.500000  1
  Ni  Ni18  1  0.536803  0.196844  0.500000  1
  Ni  Ni19  1  0.464302  0.802738  0.500000  1
  Ni  Ni20  1  0.963682  0.697983  0.500000  1
  Ni  Ni21  1  0.035018  0.301692  0.500000  1
