# generated using pymatgen
data_Y4HoTm(Al3Ru)8
_symmetry_space_group_name_H-M   'P 1'
_cell_length_a   8.77997336
_cell_length_b   8.78533351
_cell_length_c   9.60733000
_cell_angle_alpha   90.00000000
_cell_angle_beta   90.00000000
_cell_angle_gamma   119.99334979
_symmetry_Int_Tables_number   1
_chemical_formula_structural   Y4HoTm(Al3Ru)8
_chemical_formula_sum   'Y4 Ho1 Tm1 Al24 Ru8'
_cell_volume   641.82095162
_cell_formula_units_Z   1
loop_
 _symmetry_equiv_pos_site_id
 _symmetry_equiv_pos_as_xyz
  1  'x, y, z'
loop_
 _atom_site_type_symbol
 _atom_site_label
 _atom_site_symmetry_multiplicity
 _atom_site_fract_x
 _atom_site_fract_y
 _atom_site_fract_z
 _atom_site_occupancy
  Y  Y0  1  0.192905  0.806779  0.250000  1
  Y  Y1  1  0.386384  0.193031  0.750000  1
  Y  Y2  1  0.613693  0.806730  0.250000  1
  Y  Y3  1  0.806857  0.613516  0.750000  1
  Ho  Ho4  1  0.806558  0.193182  0.750000  1
  Tm  Tm5  1  0.194331  0.388708  0.250000  1
  Al  Al6  1  0.666728  0.333045  0.982389  1
  Al  Al7  1  0.333156  0.666236  0.018269  1
  Al  Al8  1  0.333156  0.666236  0.481731  1
  Al  Al9  1  0.666728  0.333045  0.517611  1
  Al  Al10  1  0.837683  0.163338  0.423074  1
  Al  Al11  1  0.163159  0.836847  0.576627  1
  Al  Al12  1  0.325729  0.163444  0.422758  1
  Al  Al13  1  0.163159  0.836847  0.923373  1
  Al  Al14  1  0.673915  0.837192  0.576823  1
  Al  Al15  1  0.837683  0.163338  0.076926  1
  Al  Al16  1  0.836782  0.673727  0.423046  1
  Al  Al17  1  0.673915  0.837192  0.923177  1
  Al  Al18  1  0.162656  0.325812  0.576127  1
  Al  Al19  1  0.325729  0.163444  0.077242  1
  Al  Al20  1  0.162656  0.325812  0.923873  1
  Al  Al21  1  0.836782  0.673727  0.076954  1
  Al  Al22  1  0.437865  0.561849  0.750000  1
  Al  Al23  1  0.560895  0.437836  0.250000  1
  Al  Al24  1  0.123530  0.561244  0.750000  1
  Al  Al25  1  0.876836  0.437830  0.250000  1
  Al  Al26  1  0.438484  0.876296  0.750000  1
  Al  Al27  1  0.561976  0.124052  0.250000  1
  Al  Al28  1  0.999548  0.000280  0.750000  1
  Al  Al29  1  0.001189  0.002541  0.250000  1
  Ru  Ru30  1  0.499298  0.499489  0.000550  1
  Ru  Ru31  1  0.000108  0.499203  0.000297  1
  Ru  Ru32  1  0.499298  0.499489  0.499450  1
  Ru  Ru33  1  0.500302  0.000008  0.999848  1
  Ru  Ru34  1  0.000108  0.499203  0.499703  1
  Ru  Ru35  1  0.500302  0.000008  0.500152  1
  Ru  Ru36  1  0.999958  0.999722  0.000030  1
  Ru  Ru37  1  0.999958  0.999722  0.499970  1
