# generated using pymatgen
data_AcSiAu3
_symmetry_space_group_name_H-M   'P 1'
_cell_length_a   6.14340201
_cell_length_b   6.14340093
_cell_length_c   6.14340209
_cell_angle_alpha   135.63207995
_cell_angle_beta   135.63256567
_cell_angle_gamma   64.54927581
_symmetry_Int_Tables_number   1
_chemical_formula_structural   AcSiAu3
_chemical_formula_sum   'Ac1 Si1 Au3'
_cell_volume   111.79349354
_cell_formula_units_Z   1
loop_
 _symmetry_equiv_pos_site_id
 _symmetry_equiv_pos_as_xyz
  1  'x, y, z'
loop_
 _atom_site_type_symbol
 _atom_site_label
 _atom_site_symmetry_multiplicity
 _atom_site_fract_x
 _atom_site_fract_y
 _atom_site_fract_z
 _atom_site_occupancy
  Ac  Ac0  1  0.005746  0.005746  0.000000  1
  Si  Si1  1  0.363096  0.363096  0.000000  1
  Au  Au2  1  0.767375  0.267375  0.500000  1
  Au  Au3  1  0.267383  0.767383  0.500000  1
  Au  Au4  1  0.596400  0.596400  0.000000  1
