# generated using pymatgen
data_RbLa2AgS4
_symmetry_space_group_name_H-M   'P 1'
_cell_length_a   4.27455000
_cell_length_b   7.46991281
_cell_length_c   14.69234800
_cell_angle_alpha   90.00000000
_cell_angle_beta   90.00000000
_cell_angle_gamma   73.37432370
_symmetry_Int_Tables_number   1
_chemical_formula_structural   RbLa2AgS4
_chemical_formula_sum   'Rb2 La4 Ag2 S8'
_cell_volume   449.52183486
_cell_formula_units_Z   2
loop_
 _symmetry_equiv_pos_site_id
 _symmetry_equiv_pos_as_xyz
  1  'x, y, z'
loop_
 _atom_site_type_symbol
 _atom_site_label
 _atom_site_symmetry_multiplicity
 _atom_site_fract_x
 _atom_site_fract_y
 _atom_site_fract_z
 _atom_site_occupancy
  Rb  Rb0  1  0.892090  0.215818  0.250000  1
  Rb  Rb1  1  0.107909  0.784182  0.750000  1
  La  La2  1  0.632854  0.734292  0.063008  1
  La  La3  1  0.632854  0.734292  0.436992  1
  La  La4  1  0.367146  0.265708  0.563008  1
  La  La5  1  0.367146  0.265708  0.936992  1
  Ag  Ag6  1  0.165423  0.669154  0.250000  1
  Ag  Ag7  1  0.834577  0.330845  0.750000  1
  S  S8  1  0.000000  0.000000  0.000000  1
  S  S9  1  0.261199  0.477602  0.103562  1
  S  S10  1  0.567652  0.864695  0.250000  1
  S  S11  1  0.261199  0.477602  0.396438  1
  S  S12  1  0.000000  0.000000  0.500000  1
  S  S13  1  0.738801  0.522397  0.603562  1
  S  S14  1  0.432346  0.135306  0.750000  1
  S  S15  1  0.738801  0.522397  0.896438  1
