# generated using pymatgen
data_Tm4Sn5GeRh7
_symmetry_space_group_name_H-M   'P 1'
_cell_length_a   7.50795794
_cell_length_b   7.50795715
_cell_length_c   7.50795851
_cell_angle_alpha   109.12690603
_cell_angle_beta   109.64365981
_cell_angle_gamma   109.64364700
_symmetry_Int_Tables_number   1
_chemical_formula_structural   Tm4Sn5GeRh7
_chemical_formula_sum   'Tm4 Sn5 Ge1 Rh7'
_cell_volume   325.78555002
_cell_formula_units_Z   1
loop_
 _symmetry_equiv_pos_site_id
 _symmetry_equiv_pos_as_xyz
  1  'x, y, z'
loop_
 _atom_site_type_symbol
 _atom_site_label
 _atom_site_symmetry_multiplicity
 _atom_site_fract_x
 _atom_site_fract_y
 _atom_site_fract_z
 _atom_site_occupancy
  Tm  Tm0  1  0.000000  0.989738  0.524068  1
  Tm  Tm1  1  0.000000  0.524068  0.989738  1
  Tm  Tm2  1  0.465670  0.989738  0.989738  1
  Tm  Tm3  1  0.534330  0.524068  0.524068  1
  Sn  Sn4  1  0.686185  0.698571  0.012386  1
  Sn  Sn5  1  0.313815  0.012386  0.326201  1
  Sn  Sn6  1  0.000000  0.294846  0.294846  1
  Sn  Sn7  1  0.313815  0.326201  0.012386  1
  Sn  Sn8  1  0.686185  0.012386  0.698571  1
  Ge  Ge9  1  0.000000  0.660667  0.660667  1
  Rh  Rh10  1  0.754304  0.250443  0.496139  1
  Rh  Rh11  1  0.754304  0.496139  0.250443  1
  Rh  Rh12  1  0.500000  0.258249  0.758249  1
  Rh  Rh13  1  0.245696  0.496139  0.741835  1
  Rh  Rh14  1  0.245696  0.741835  0.496139  1
  Rh  Rh15  1  0.500000  0.758249  0.258249  1
  Rh  Rh16  1  0.000000  0.966279  0.966279  1
