# generated using pymatgen
data_Dy5Tm5(In2Bi)2
_symmetry_space_group_name_H-M   'P 1'
_cell_length_a   6.58754600
_cell_length_b   9.00247938
_cell_length_c   8.98228765
_cell_angle_alpha   119.83573253
_cell_angle_beta   89.99996871
_cell_angle_gamma   89.99984802
_symmetry_Int_Tables_number   1
_chemical_formula_structural   Dy5Tm5(In2Bi)2
_chemical_formula_sum   'Dy5 Tm5 In4 Bi2'
_cell_volume   462.08288536
_cell_formula_units_Z   1
loop_
 _symmetry_equiv_pos_site_id
 _symmetry_equiv_pos_as_xyz
  1  'x, y, z'
loop_
 _atom_site_type_symbol
 _atom_site_label
 _atom_site_symmetry_multiplicity
 _atom_site_fract_x
 _atom_site_fract_y
 _atom_site_fract_z
 _atom_site_occupancy
  Dy  Dy0  1  0.749999  0.228689  0.990916  1
  Dy  Dy1  1  0.749998  0.771014  0.761583  1
  Dy  Dy2  1  0.750000  0.999957  0.239480  1
  Dy  Dy3  1  0.250001  0.764801  0.000231  1
  Dy  Dy4  1  0.250000  0.235171  0.235352  1
  Tm  Tm5  1  0.492689  0.328718  0.667400  1
  Tm  Tm6  1  0.492796  0.671346  0.338762  1
  Tm  Tm7  1  0.007202  0.671336  0.338755  1
  Tm  Tm8  1  0.007308  0.328721  0.667406  1
  Tm  Tm9  1  0.249995  0.000092  0.762758  1
  In  In10  1  0.750000  0.000037  0.595287  1
  In  In11  1  0.250011  0.397971  0.002819  1
  In  In12  1  0.250002  0.601761  0.604344  1
  In  In13  1  0.249998  0.000087  0.398919  1
  Bi  Bi14  1  0.750001  0.603366  0.999593  1
  Bi  Bi15  1  0.749998  0.396932  0.396397  1
