# generated using pymatgen
data_CaPu(ThB10)3
_symmetry_space_group_name_H-M   'P 1'
_cell_length_a   4.11478300
_cell_length_b   4.11478300
_cell_length_c   20.57334600
_cell_angle_alpha   90.00000000
_cell_angle_beta   90.00000000
_cell_angle_gamma   90.00000000
_symmetry_Int_Tables_number   1
_chemical_formula_structural   CaPu(ThB10)3
_chemical_formula_sum   'Ca1 Pu1 Th3 B30'
_cell_volume   348.33635565
_cell_formula_units_Z   1
loop_
 _symmetry_equiv_pos_site_id
 _symmetry_equiv_pos_as_xyz
  1  'x, y, z'
loop_
 _atom_site_type_symbol
 _atom_site_label
 _atom_site_symmetry_multiplicity
 _atom_site_fract_x
 _atom_site_fract_y
 _atom_site_fract_z
 _atom_site_occupancy
  Ca  Ca0  1  0.000000  0.000000  0.002739  1
  Pu  Pu1  1  0.000000  0.000000  0.202110  1
  Th  Th2  1  0.000000  0.000000  0.401636  1
  Th  Th3  1  0.000000  0.000000  0.600172  1
  Th  Th4  1  0.000000  0.000000  0.795998  1
  B  B5  1  0.500000  0.500000  0.160548  1
  B  B6  1  0.500000  0.500000  0.360504  1
  B  B7  1  0.500000  0.500000  0.560385  1
  B  B8  1  0.500000  0.500000  0.760113  1
  B  B9  1  0.500000  0.500000  0.959734  1
  B  B10  1  0.500000  0.199438  0.100471  1
  B  B11  1  0.500000  0.198082  0.300170  1
  B  B12  1  0.500000  0.197568  0.500023  1
  B  B13  1  0.500000  0.197462  0.699425  1
  B  B14  1  0.500000  0.199384  0.899464  1
  B  B15  1  0.199438  0.500000  0.100471  1
  B  B16  1  0.198082  0.500000  0.300170  1
  B  B17  1  0.197568  0.500000  0.500023  1
  B  B18  1  0.197462  0.500000  0.699425  1
  B  B19  1  0.199384  0.500000  0.899464  1
  B  B20  1  0.500000  0.500000  0.040287  1
  B  B21  1  0.500000  0.500000  0.239794  1
  B  B22  1  0.500000  0.500000  0.439540  1
  B  B23  1  0.500000  0.500000  0.639015  1
  B  B24  1  0.500000  0.500000  0.839215  1
  B  B25  1  0.500000  0.800562  0.100471  1
  B  B26  1  0.500000  0.801918  0.300170  1
  B  B27  1  0.500000  0.802432  0.500023  1
  B  B28  1  0.500000  0.802538  0.699425  1
  B  B29  1  0.500000  0.800616  0.899464  1
  B  B30  1  0.800562  0.500000  0.100471  1
  B  B31  1  0.801918  0.500000  0.300170  1
  B  B32  1  0.802432  0.500000  0.500023  1
  B  B33  1  0.802538  0.500000  0.699425  1
  B  B34  1  0.800616  0.500000  0.899464  1
