# generated using pymatgen
data_Zr4Ta6MnRu
_symmetry_space_group_name_H-M   'P 1'
_cell_length_a   5.66166900
_cell_length_b   5.66166859
_cell_length_c   8.31585200
_cell_angle_alpha   90.00000000
_cell_angle_beta   90.00000000
_cell_angle_gamma   119.99999654
_symmetry_Int_Tables_number   1
_chemical_formula_structural   Zr4Ta6MnRu
_chemical_formula_sum   'Zr4 Ta6 Mn1 Ru1'
_cell_volume   230.84810720
_cell_formula_units_Z   1
loop_
 _symmetry_equiv_pos_site_id
 _symmetry_equiv_pos_as_xyz
  1  'x, y, z'
loop_
 _atom_site_type_symbol
 _atom_site_label
 _atom_site_symmetry_multiplicity
 _atom_site_fract_x
 _atom_site_fract_y
 _atom_site_fract_z
 _atom_site_occupancy
  Zr  Zr0  1  0.333333  0.666667  0.438173  1
  Zr  Zr1  1  0.666667  0.333333  0.561827  1
  Zr  Zr2  1  0.666667  0.333333  0.938613  1
  Zr  Zr3  1  0.333333  0.666667  0.061387  1
  Ta  Ta4  1  0.833581  0.166419  0.256288  1
  Ta  Ta5  1  0.833581  0.667163  0.256288  1
  Ta  Ta6  1  0.332837  0.166419  0.256288  1
  Ta  Ta7  1  0.166419  0.833581  0.743712  1
  Ta  Ta8  1  0.166419  0.332837  0.743712  1
  Ta  Ta9  1  0.667163  0.833581  0.743712  1
  Mn  Mn10  1  0.000000  0.000000  0.500000  1
  Ru  Ru11  1  0.000000  0.000000  0.000000  1
