# generated using pymatgen
data_Sc12Be(Si4Os)3
_symmetry_space_group_name_H-M   'P 1'
_cell_length_a   4.00530000
_cell_length_b   10.27799110
_cell_length_c   11.69011538
_cell_angle_alpha   90.32251808
_cell_angle_beta   90.00000000
_cell_angle_gamma   90.00000000
_symmetry_Int_Tables_number   1
_chemical_formula_structural   Sc12Be(Si4Os)3
_chemical_formula_sum   'Sc12 Be1 Si12 Os3'
_cell_volume   481.23278324
_cell_formula_units_Z   1
loop_
 _symmetry_equiv_pos_site_id
 _symmetry_equiv_pos_as_xyz
  1  'x, y, z'
loop_
 _atom_site_type_symbol
 _atom_site_label
 _atom_site_symmetry_multiplicity
 _atom_site_fract_x
 _atom_site_fract_y
 _atom_site_fract_z
 _atom_site_occupancy
  Sc  Sc0  1  0.250000  0.876474  0.022654  1
  Sc  Sc1  1  0.250000  0.625839  0.518141  1
  Sc  Sc2  1  0.750000  0.122294  0.980918  1
  Sc  Sc3  1  0.750000  0.378711  0.480829  1
  Sc  Sc4  1  0.250000  0.922537  0.599794  1
  Sc  Sc5  1  0.250000  0.578765  0.103929  1
  Sc  Sc6  1  0.750000  0.079200  0.394381  1
  Sc  Sc7  1  0.750000  0.421103  0.896422  1
  Sc  Sc8  1  0.250000  0.661499  0.799416  1
  Sc  Sc9  1  0.250000  0.843101  0.299108  1
  Sc  Sc10  1  0.750000  0.341431  0.201833  1
  Sc  Sc11  1  0.750000  0.160073  0.699436  1
  Be  Be12  1  0.750000  0.889546  0.820946  1
  Si  Si13  1  0.250000  0.012222  0.824573  1
  Si  Si14  1  0.250000  0.484999  0.322034  1
  Si  Si15  1  0.750000  0.984208  0.173236  1
  Si  Si16  1  0.750000  0.515838  0.677836  1
  Si  Si17  1  0.250000  0.249442  0.842683  1
  Si  Si18  1  0.250000  0.249347  0.342864  1
  Si  Si19  1  0.750000  0.748928  0.158776  1
  Si  Si20  1  0.750000  0.752608  0.656797  1
  Si  Si21  1  0.250000  0.196026  0.545009  1
  Si  Si22  1  0.250000  0.303932  0.046240  1
  Si  Si23  1  0.750000  0.806793  0.453789  1
  Si  Si24  1  0.750000  0.684955  0.957638  1
  Os  Os25  1  0.250000  0.389812  0.679253  1
  Os  Os26  1  0.250000  0.110251  0.177752  1
  Os  Os27  1  0.750000  0.610069  0.323716  1
