# generated using pymatgen
data_Y12Er4MgHg3Pd4
_symmetry_space_group_name_H-M   'P 1'
_cell_length_a   9.68468316
_cell_length_b   9.69428133
_cell_length_c   9.69428200
_cell_angle_alpha   60.00000453
_cell_angle_beta   59.96721490
_cell_angle_gamma   59.96721308
_symmetry_Int_Tables_number   1
_chemical_formula_structural   Y12Er4MgHg3Pd4
_chemical_formula_sum   'Y12 Er4 Mg1 Hg3 Pd4'
_cell_volume   643.25964250
_cell_formula_units_Z   1
loop_
 _symmetry_equiv_pos_site_id
 _symmetry_equiv_pos_as_xyz
  1  'x, y, z'
loop_
 _atom_site_type_symbol
 _atom_site_label
 _atom_site_symmetry_multiplicity
 _atom_site_fract_x
 _atom_site_fract_y
 _atom_site_fract_z
 _atom_site_occupancy
  Y  Y0  1  0.809004  0.190302  0.190302  1
  Y  Y1  1  0.186364  0.812317  0.812317  1
  Y  Y2  1  0.186364  0.812317  0.189001  1
  Y  Y3  1  0.809004  0.190302  0.810391  1
  Y  Y4  1  0.186364  0.189001  0.812317  1
  Y  Y5  1  0.809004  0.810391  0.190302  1
  Y  Y6  1  0.933209  0.565855  0.565855  1
  Y  Y7  1  0.564754  0.934885  0.934885  1
  Y  Y8  1  0.564754  0.934885  0.565476  1
  Y  Y9  1  0.933209  0.565855  0.935081  1
  Y  Y10  1  0.564754  0.565476  0.934885  1
  Y  Y11  1  0.933209  0.935081  0.565855  1
  Er  Er12  1  0.356473  0.352646  0.352646  1
  Er  Er13  1  0.356473  0.352646  0.938236  1
  Er  Er14  1  0.356473  0.938236  0.352646  1
  Er  Er15  1  0.926516  0.357828  0.357828  1
  Mg  Mg16  1  0.279871  0.573376  0.573376  1
  Hg  Hg17  1  0.583156  0.589057  0.589057  1
  Hg  Hg18  1  0.583156  0.589057  0.238728  1
  Hg  Hg19  1  0.583156  0.238728  0.589057  1
  Pd  Pd20  1  0.143967  0.147518  0.147518  1
  Pd  Pd21  1  0.143967  0.147518  0.560997  1
  Pd  Pd22  1  0.143967  0.560997  0.147518  1
  Pd  Pd23  1  0.562824  0.145725  0.145725  1
