# generated using pymatgen
data_Nb14Si3As4P
_symmetry_space_group_name_H-M   'P 1'
_cell_length_a   3.50659700
_cell_length_b   7.92351165
_cell_length_c   14.16271131
_cell_angle_alpha   103.83907153
_cell_angle_beta   90.00000000
_cell_angle_gamma   102.78410858
_symmetry_Int_Tables_number   1
_chemical_formula_structural   Nb14Si3As4P
_chemical_formula_sum   'Nb14 Si3 As4 P1'
_cell_volume   372.02776537
_cell_formula_units_Z   1
loop_
 _symmetry_equiv_pos_site_id
 _symmetry_equiv_pos_as_xyz
  1  'x, y, z'
loop_
 _atom_site_type_symbol
 _atom_site_label
 _atom_site_symmetry_multiplicity
 _atom_site_fract_x
 _atom_site_fract_y
 _atom_site_fract_z
 _atom_site_occupancy
  Nb  Nb0  1  0.000064  0.000129  0.999990  1
  Nb  Nb1  1  0.499812  0.999622  0.499092  1
  Nb  Nb2  1  0.427558  0.855118  0.825147  1
  Nb  Nb3  1  0.571758  0.143514  0.171768  1
  Nb  Nb4  1  0.194323  0.388645  0.312009  1
  Nb  Nb5  1  0.803166  0.606332  0.691100  1
  Nb  Nb6  1  0.212387  0.424773  0.799218  1
  Nb  Nb7  1  0.788063  0.576125  0.200387  1
  Nb  Nb8  1  0.332628  0.665254  0.030078  1
  Nb  Nb9  1  0.668040  0.336079  0.970324  1
  Nb  Nb10  1  0.998395  0.996790  0.659694  1
  Nb  Nb11  1  0.005368  0.010737  0.340204  1
  Nb  Nb12  1  0.178743  0.357487  0.541456  1
  Nb  Nb13  1  0.818995  0.637990  0.456670  1
  Si  Si14  1  0.174633  0.349264  0.109501  1
  Si  Si15  1  0.826027  0.652055  0.891516  1
  Si  Si16  1  0.370549  0.741099  0.599329  1
  As  As17  1  0.371488  0.742975  0.334134  1
  As  As18  1  0.627720  0.255442  0.665365  1
  As  As19  1  0.063084  0.126167  0.847044  1
  As  As20  1  0.937305  0.874609  0.153402  1
  P  P21  1  0.629897  0.259792  0.402573  1
