# generated using pymatgen
data_Tb2Dy3YH18
_symmetry_space_group_name_H-M   'P 1'
_cell_length_a   6.34883100
_cell_length_b   6.34943456
_cell_length_c   6.61192901
_cell_angle_alpha   89.99467839
_cell_angle_beta   90.00269269
_cell_angle_gamma   120.00320572
_symmetry_Int_Tables_number   1
_chemical_formula_structural   Tb2Dy3YH18
_chemical_formula_sum   'Tb2 Dy3 Y1 H18'
_cell_volume   230.82008701
_cell_formula_units_Z   1
loop_
 _symmetry_equiv_pos_site_id
 _symmetry_equiv_pos_as_xyz
  1  'x, y, z'
loop_
 _atom_site_type_symbol
 _atom_site_label
 _atom_site_symmetry_multiplicity
 _atom_site_fract_x
 _atom_site_fract_y
 _atom_site_fract_z
 _atom_site_occupancy
  Tb  Tb0  1  0.669763  0.669816  0.750128  1
  Tb  Tb1  1  0.330236  0.000053  0.750128  1
  Dy  Dy2  1  0.999999  0.330065  0.750076  1
  Dy  Dy3  1  0.330008  0.330073  0.250069  1
  Dy  Dy4  1  0.669991  0.000065  0.250069  1
  Y  Y5  1  0.000001  0.669922  0.250037  1
  H  H6  1  0.304709  0.304954  0.591741  1
  H  H7  1  0.695291  0.000245  0.591741  1
  H  H8  1  0.000000  0.694958  0.591960  1
  H  H9  1  0.694887  0.695360  0.092188  1
  H  H10  1  0.305113  0.000474  0.092188  1
  H  H11  1  0.000000  0.304250  0.091741  1
  H  H12  1  0.355780  0.355920  0.908010  1
  H  H13  1  0.644220  0.000140  0.908010  1
  H  H14  1  0.000000  0.643774  0.907507  1
  H  H15  1  0.643422  0.643847  0.407501  1
  H  H16  1  0.356578  0.000425  0.407501  1
  H  H17  1  0.000000  0.355653  0.407833  1
  H  H18  1  0.000000  0.000552  0.819307  1
  H  H19  1  0.000000  0.000342  0.319254  1
  H  H20  1  0.332757  0.666093  0.704709  1
  H  H21  1  0.667243  0.333336  0.704709  1
  H  H22  1  0.666364  0.333024  0.204803  1
  H  H23  1  0.333637  0.666661  0.204803  1
