# generated using pymatgen
data_Li2Th3(AgSn2)2
_symmetry_space_group_name_H-M   'P 1'
_cell_length_a   8.81130003
_cell_length_b   8.86949197
_cell_length_c   8.86949245
_cell_angle_alpha   148.96688104
_cell_angle_beta   131.44801220
_cell_angle_gamma   58.81089966
_symmetry_Int_Tables_number   1
_chemical_formula_structural   Li2Th3(AgSn2)2
_chemical_formula_sum   'Li2 Th3 Ag2 Sn4'
_cell_volume   265.66270231
_cell_formula_units_Z   1
loop_
 _symmetry_equiv_pos_site_id
 _symmetry_equiv_pos_as_xyz
  1  'x, y, z'
loop_
 _atom_site_type_symbol
 _atom_site_label
 _atom_site_symmetry_multiplicity
 _atom_site_fract_x
 _atom_site_fract_y
 _atom_site_fract_z
 _atom_site_occupancy
  Li  Li0  1  0.647625  0.330319  0.317306  1
  Li  Li1  1  0.352375  0.669681  0.682694  1
  Th  Th2  1  0.364875  0.873302  0.491573  1
  Th  Th3  1  0.635125  0.126698  0.508427  1
  Th  Th4  1  0.000000  0.000000  0.000000  1
  Ag  Ag5  1  0.015736  0.331679  0.684057  1
  Ag  Ag6  1  0.984264  0.668321  0.315943  1
  Sn  Sn7  1  0.229994  0.216967  0.013028  1
  Sn  Sn8  1  0.770006  0.783033  0.986972  1
  Sn  Sn9  1  0.697007  0.494729  0.202277  1
  Sn  Sn10  1  0.302993  0.505271  0.797723  1
