# generated using pymatgen
data_Ce2CdPdAu
_symmetry_space_group_name_H-M   'P 1'
_cell_length_a   8.01084100
_cell_length_b   8.01202700
_cell_length_c   3.84713800
_cell_angle_alpha   90.00000000
_cell_angle_beta   90.00000000
_cell_angle_gamma   90.00000000
_symmetry_Int_Tables_number   1
_chemical_formula_structural   Ce2CdPdAu
_chemical_formula_sum   'Ce4 Cd2 Pd2 Au2'
_cell_volume   246.92114442
_cell_formula_units_Z   2
loop_
 _symmetry_equiv_pos_site_id
 _symmetry_equiv_pos_as_xyz
  1  'x, y, z'
loop_
 _atom_site_type_symbol
 _atom_site_label
 _atom_site_symmetry_multiplicity
 _atom_site_fract_x
 _atom_site_fract_y
 _atom_site_fract_z
 _atom_site_occupancy
  Ce  Ce0  1  0.326532  0.818796  0.500000  1
  Ce  Ce1  1  0.826532  0.681204  0.500000  1
  Ce  Ce2  1  0.174478  0.335514  0.500000  1
  Ce  Ce3  1  0.674478  0.164486  0.500000  1
  Cd  Cd4  1  0.999049  0.996199  0.000000  1
  Cd  Cd5  1  0.499049  0.503801  0.000000  1
  Pd  Pd6  1  0.128608  0.630815  0.000000  1
  Pd  Pd7  1  0.628608  0.869185  0.000000  1
  Au  Au8  1  0.371333  0.124513  0.000000  1
  Au  Au9  1  0.871333  0.375487  0.000000  1
