# generated using pymatgen
data_Rb8Hf6MnI20
_symmetry_space_group_name_H-M   'P 1'
_cell_length_a   12.94677831
_cell_length_b   12.94677835
_cell_length_c   12.94677800
_cell_angle_alpha   60.00000089
_cell_angle_beta   60.00000079
_cell_angle_gamma   59.99999620
_symmetry_Int_Tables_number   1
_chemical_formula_structural   Rb8Hf6MnI20
_chemical_formula_sum   'Rb8 Hf6 Mn1 I20'
_cell_volume   1534.51140498
_cell_formula_units_Z   1
loop_
 _symmetry_equiv_pos_site_id
 _symmetry_equiv_pos_as_xyz
  1  'x, y, z'
loop_
 _atom_site_type_symbol
 _atom_site_label
 _atom_site_symmetry_multiplicity
 _atom_site_fract_x
 _atom_site_fract_y
 _atom_site_fract_z
 _atom_site_occupancy
  Rb  Rb0  1  0.361484  0.361484  0.361484  1
  Rb  Rb1  1  0.638516  0.638516  0.638516  1
  Rb  Rb2  1  0.361484  0.361484  0.915550  1
  Rb  Rb3  1  0.361484  0.915550  0.361484  1
  Rb  Rb4  1  0.638516  0.638516  0.084450  1
  Rb  Rb5  1  0.638516  0.084450  0.638516  1
  Rb  Rb6  1  0.915550  0.361484  0.361484  1
  Rb  Rb7  1  0.084450  0.638516  0.638516  1
  Hf  Hf8  1  0.867637  0.132363  0.132363  1
  Hf  Hf9  1  0.132363  0.867637  0.867637  1
  Hf  Hf10  1  0.132363  0.867637  0.132363  1
  Hf  Hf11  1  0.867637  0.132363  0.867637  1
  Hf  Hf12  1  0.132363  0.132363  0.867637  1
  Hf  Hf13  1  0.867637  0.867637  0.132363  1
  Mn  Mn14  1  0.000000  0.000000  0.000000  1
  I  I15  1  0.319520  0.000000  0.000000  1
  I  I16  1  0.680480  0.000000  0.000000  1
  I  I17  1  0.000000  0.319520  0.680480  1
  I  I18  1  0.000000  0.680480  0.319520  1
  I  I19  1  0.000000  0.319520  0.000000  1
  I  I20  1  0.680480  0.000000  0.319520  1
  I  I21  1  0.000000  0.680480  0.000000  1
  I  I22  1  0.319520  0.000000  0.680480  1
  I  I23  1  0.000000  0.000000  0.319520  1
  I  I24  1  0.000000  0.000000  0.680480  1
  I  I25  1  0.680480  0.319520  0.000000  1
  I  I26  1  0.319520  0.680480  0.000000  1
  I  I27  1  0.692032  0.307968  0.307968  1
  I  I28  1  0.307968  0.692032  0.692032  1
  I  I29  1  0.307968  0.692032  0.307968  1
  I  I30  1  0.692032  0.307968  0.692032  1
  I  I31  1  0.307968  0.307968  0.692032  1
  I  I32  1  0.692032  0.692032  0.307968  1
  I  I33  1  0.250000  0.250000  0.250000  1
  I  I34  1  0.750000  0.750000  0.750000  1
