# generated using pymatgen
data_PdPb3O7
_symmetry_space_group_name_H-M   'P 1'
_cell_length_a   6.62040448
_cell_length_b   6.62040453
_cell_length_c   7.43138100
_cell_angle_alpha   90.00000000
_cell_angle_beta   90.00000000
_cell_angle_gamma   109.46799794
_symmetry_Int_Tables_number   1
_chemical_formula_structural   PdPb3O7
_chemical_formula_sum   'Pd2 Pb6 O14'
_cell_volume   307.09373269
_cell_formula_units_Z   2
loop_
 _symmetry_equiv_pos_site_id
 _symmetry_equiv_pos_as_xyz
  1  'x, y, z'
loop_
 _atom_site_type_symbol
 _atom_site_label
 _atom_site_symmetry_multiplicity
 _atom_site_fract_x
 _atom_site_fract_y
 _atom_site_fract_z
 _atom_site_occupancy
  Pd  Pd0  1  0.000000  0.000000  0.500000  1
  Pd  Pd1  1  0.000000  0.000000  0.000000  1
  Pb  Pb2  1  0.500000  0.500000  0.500000  1
  Pb  Pb3  1  0.500000  0.500000  0.000000  1
  Pb  Pb4  1  0.532862  0.996156  0.750000  1
  Pb  Pb5  1  0.996156  0.532862  0.250000  1
  Pb  Pb6  1  0.467138  0.003844  0.250000  1
  Pb  Pb7  1  0.003844  0.467138  0.750000  1
  O  O8  1  0.676271  0.930595  0.475560  1
  O  O9  1  0.930595  0.676271  0.524440  1
  O  O10  1  0.676271  0.930595  0.024440  1
  O  O11  1  0.930595  0.676271  0.975560  1
  O  O12  1  0.323729  0.069405  0.524440  1
  O  O13  1  0.069405  0.323729  0.475560  1
  O  O14  1  0.323729  0.069405  0.975560  1
  O  O15  1  0.069405  0.323729  0.024440  1
  O  O16  1  0.930177  0.069823  0.750000  1
  O  O17  1  0.069823  0.930177  0.250000  1
  O  O18  1  0.346423  0.653577  0.750000  1
  O  O19  1  0.653577  0.346423  0.250000  1
  O  O20  1  0.658475  0.341525  0.750000  1
  O  O21  1  0.341525  0.658475  0.250000  1
