# generated using pymatgen
data_Er3In3CuNiAg
_symmetry_space_group_name_H-M   'P 1'
_cell_length_a   7.52590700
_cell_length_b   7.52590755
_cell_length_c   3.89872500
_cell_angle_alpha   90.00000000
_cell_angle_beta   90.00000000
_cell_angle_gamma   120.00000196
_symmetry_Int_Tables_number   1
_chemical_formula_structural   Er3In3CuNiAg
_chemical_formula_sum   'Er3 In3 Cu1 Ni1 Ag1'
_cell_volume   191.23657309
_cell_formula_units_Z   1
loop_
 _symmetry_equiv_pos_site_id
 _symmetry_equiv_pos_as_xyz
  1  'x, y, z'
loop_
 _atom_site_type_symbol
 _atom_site_label
 _atom_site_symmetry_multiplicity
 _atom_site_fract_x
 _atom_site_fract_y
 _atom_site_fract_z
 _atom_site_occupancy
  Er  Er0  1  0.022913  0.600063  0.500000  1
  Er  Er1  1  0.399937  0.422850  0.500000  1
  Er  Er2  1  0.577150  0.977087  0.500000  1
  In  In3  1  0.747395  0.750387  0.000000  1
  In  In4  1  0.002992  0.252605  0.000000  1
  In  In5  1  0.249613  0.997008  0.000000  1
  Cu  Cu6  1  0.000000  0.000000  0.500000  1
  Ni  Ni7  1  0.333333  0.666667  0.000000  1
  Ag  Ag8  1  0.666667  0.333333  0.000000  1
