# generated using pymatgen
data_RbPr(WO4)2
_symmetry_space_group_name_H-M   'P 1'
_cell_length_a   7.82050194
_cell_length_b   7.82050194
_cell_length_c   7.60365367
_cell_angle_alpha   62.62717654
_cell_angle_beta   62.62718359
_cell_angle_gamma   89.29757046
_symmetry_Int_Tables_number   1
_chemical_formula_structural   RbPr(WO4)2
_chemical_formula_sum   'Rb2 Pr2 W4 O16'
_cell_volume   354.84826558
_cell_formula_units_Z   2
loop_
 _symmetry_equiv_pos_site_id
 _symmetry_equiv_pos_as_xyz
  1  'x, y, z'
loop_
 _atom_site_type_symbol
 _atom_site_label
 _atom_site_symmetry_multiplicity
 _atom_site_fract_x
 _atom_site_fract_y
 _atom_site_fract_z
 _atom_site_occupancy
  Rb  Rb0  1  0.204446  0.795554  0.750000  1
  Rb  Rb1  1  0.795554  0.204446  0.250000  1
  Pr  Pr2  1  0.775135  0.224865  0.750000  1
  Pr  Pr3  1  0.224865  0.775135  0.250000  1
  W  W4  1  0.696747  0.687147  0.782791  1
  W  W5  1  0.303253  0.312853  0.217209  1
  W  W6  1  0.312853  0.303253  0.717209  1
  W  W7  1  0.687147  0.696747  0.282791  1
  O  O8  1  0.626208  0.744352  0.560596  1
  O  O9  1  0.373792  0.255648  0.439404  1
  O  O10  1  0.255648  0.373792  0.939404  1
  O  O11  1  0.744352  0.626208  0.060596  1
  O  O12  1  0.375256  0.066952  0.863365  1
  O  O13  1  0.624744  0.933048  0.136635  1
  O  O14  1  0.933048  0.624744  0.636635  1
  O  O15  1  0.066952  0.375256  0.363365  1
  O  O16  1  0.587978  0.373464  0.972667  1
  O  O17  1  0.412022  0.626536  0.027333  1
  O  O18  1  0.626536  0.412022  0.527333  1
  O  O19  1  0.373464  0.587978  0.472667  1
  O  O20  1  0.776289  0.947995  0.691348  1
  O  O21  1  0.223711  0.052005  0.308652  1
  O  O22  1  0.052005  0.223711  0.808652  1
  O  O23  1  0.947995  0.776289  0.191348  1
