# generated using pymatgen
data_Rb2LiB(PO4)2
_symmetry_space_group_name_H-M   'P 1'
_cell_length_a   8.72884134
_cell_length_b   8.99703200
_cell_length_c   10.13676816
_cell_angle_alpha   90.00000000
_cell_angle_beta   95.01873369
_cell_angle_gamma   90.00000000
_symmetry_Int_Tables_number   1
_chemical_formula_structural   Rb2LiB(PO4)2
_chemical_formula_sum   'Rb8 Li4 B4 P8 O32'
_cell_volume   793.02551052
_cell_formula_units_Z   4
loop_
 _symmetry_equiv_pos_site_id
 _symmetry_equiv_pos_as_xyz
  1  'x, y, z'
loop_
 _atom_site_type_symbol
 _atom_site_label
 _atom_site_symmetry_multiplicity
 _atom_site_fract_x
 _atom_site_fract_y
 _atom_site_fract_z
 _atom_site_occupancy
  Rb  Rb0  1  0.458032  0.275174  0.177540  1
  Rb  Rb1  1  0.958032  0.224826  0.677540  1
  Rb  Rb2  1  0.541968  0.724826  0.822460  1
  Rb  Rb3  1  0.041968  0.775174  0.322460  1
  Rb  Rb4  1  0.477497  0.775164  0.415074  1
  Rb  Rb5  1  0.977497  0.724836  0.915074  1
  Rb  Rb6  1  0.522503  0.224836  0.584926  1
  Rb  Rb7  1  0.022503  0.275164  0.084926  1
  Li  Li8  1  0.313850  0.584247  0.120803  1
  Li  Li9  1  0.813850  0.915753  0.620803  1
  Li  Li10  1  0.686150  0.415753  0.879197  1
  Li  Li11  1  0.186150  0.084247  0.379197  1
  B  B12  1  0.159687  0.583976  0.627825  1
  B  B13  1  0.659687  0.916024  0.127825  1
  B  B14  1  0.840313  0.416024  0.372175  1
  B  B15  1  0.340313  0.083976  0.872175  1
  P  P16  1  0.322075  0.925225  0.108666  1
  P  P17  1  0.822075  0.574775  0.608666  1
  P  P18  1  0.677925  0.074775  0.891334  1
  P  P19  1  0.177925  0.425225  0.391334  1
  P  P20  1  0.303217  0.394902  0.833316  1
  P  P21  1  0.803217  0.105098  0.333316  1
  P  P22  1  0.696783  0.605098  0.166684  1
  P  P23  1  0.196783  0.894902  0.666684  1
  O  O24  1  0.262224  0.220980  0.816882  1
  O  O25  1  0.762224  0.279020  0.316882  1
  O  O26  1  0.737776  0.779020  0.183118  1
  O  O27  1  0.237776  0.720980  0.683118  1
  O  O28  1  0.267742  0.447541  0.970100  1
  O  O29  1  0.767742  0.052459  0.470100  1
  O  O30  1  0.732258  0.552459  0.029900  1
  O  O31  1  0.232258  0.947541  0.529900  1
  O  O32  1  0.177182  0.462167  0.726213  1
  O  O33  1  0.677182  0.037833  0.226213  1
  O  O34  1  0.822818  0.537833  0.273787  1
  O  O35  1  0.322818  0.962167  0.773787  1
  O  O36  1  0.465665  0.424469  0.797471  1
  O  O37  1  0.965665  0.075531  0.297471  1
  O  O38  1  0.534335  0.575531  0.202529  1
  O  O39  1  0.034335  0.924469  0.702529  1
  O  O40  1  0.270115  0.044855  0.996757  1
  O  O41  1  0.770115  0.455145  0.496757  1
  O  O42  1  0.729885  0.955145  0.003243  1
  O  O43  1  0.229885  0.544855  0.503243  1
  O  O44  1  0.304461  0.998383  0.241645  1
  O  O45  1  0.804461  0.501617  0.741645  1
  O  O46  1  0.695539  0.001617  0.758355  1
  O  O47  1  0.195539  0.498383  0.258355  1
  O  O48  1  0.231006  0.782140  0.085964  1
  O  O49  1  0.731006  0.717860  0.585964  1
  O  O50  1  0.768994  0.217860  0.914036  1
  O  O51  1  0.268994  0.282140  0.414036  1
  O  O52  1  0.495416  0.883937  0.092278  1
  O  O53  1  0.995416  0.616063  0.592278  1
  O  O54  1  0.504584  0.116063  0.907722  1
  O  O55  1  0.004584  0.383937  0.407722  1
