# generated using pymatgen
data_Nd5Ho5(SiHg)4
_symmetry_space_group_name_H-M   'P 1'
_cell_length_a   9.09948916
_cell_length_b   8.73858493
_cell_length_c   7.63981100
_cell_angle_alpha   90.02147301
_cell_angle_beta   90.05478666
_cell_angle_gamma   129.43652757
_symmetry_Int_Tables_number   1
_chemical_formula_structural   Nd5Ho5(SiHg)4
_chemical_formula_sum   'Nd5 Ho5 Si4 Hg4'
_cell_volume   469.18313795
_cell_formula_units_Z   1
loop_
 _symmetry_equiv_pos_site_id
 _symmetry_equiv_pos_as_xyz
  1  'x, y, z'
loop_
 _atom_site_type_symbol
 _atom_site_label
 _atom_site_symmetry_multiplicity
 _atom_site_fract_x
 _atom_site_fract_y
 _atom_site_fract_z
 _atom_site_occupancy
  Nd  Nd0  1  0.064963  0.332789  0.323710  1
  Nd  Nd1  1  0.934503  0.668405  0.676101  1
  Nd  Nd2  1  0.434112  0.170019  0.822492  1
  Nd  Nd3  1  0.796209  0.545531  0.180397  1
  Nd  Nd4  1  0.564967  0.832265  0.178241  1
  Ho  Ho5  1  0.211150  0.455402  0.822619  1
  Ho  Ho6  1  0.708773  0.951383  0.677766  1
  Ho  Ho7  1  0.287808  0.044986  0.323480  1
  Ho  Ho8  1  0.000080  0.000856  0.000058  1
  Ho  Ho9  1  0.498127  0.499833  0.500090  1
  Si  Si10  1  0.379513  0.383017  0.120018  1
  Si  Si11  1  0.616495  0.616178  0.879140  1
  Si  Si12  1  0.116986  0.117391  0.620326  1
  Si  Si13  1  0.882925  0.887991  0.382511  1
  Hg  Hg14  1  0.811716  0.245019  0.972686  1
  Hg  Hg15  1  0.197607  0.756664  0.014164  1
  Hg  Hg16  1  0.683309  0.241291  0.483991  1
  Hg  Hg17  1  0.310759  0.750983  0.522211  1
