# generated using pymatgen
data_Ce2Np3Pa3O16
_symmetry_space_group_name_H-M   'P 1'
_cell_length_a   7.71628507
_cell_length_b   7.74641565
_cell_length_c   5.45653765
_cell_angle_alpha   89.94991888
_cell_angle_beta   90.02628572
_cell_angle_gamma   89.72983218
_symmetry_Int_Tables_number   1
_chemical_formula_structural   Ce2Np3Pa3O16
_chemical_formula_sum   'Ce2 Np3 Pa3 O16'
_cell_volume   326.15284804
_cell_formula_units_Z   1
loop_
 _symmetry_equiv_pos_site_id
 _symmetry_equiv_pos_as_xyz
  1  'x, y, z'
loop_
 _atom_site_type_symbol
 _atom_site_label
 _atom_site_symmetry_multiplicity
 _atom_site_fract_x
 _atom_site_fract_y
 _atom_site_fract_z
 _atom_site_occupancy
  Ce  Ce0  1  0.625785  0.373960  0.750047  1
  Ce  Ce1  1  0.376665  0.627415  0.249981  1
  Np  Np2  1  0.626466  0.876004  0.750346  1
  Np  Np3  1  0.124550  0.875065  0.749863  1
  Np  Np4  1  0.873126  0.123465  0.250084  1
  Pa  Pa5  1  0.375797  0.122861  0.249879  1
  Pa  Pa6  1  0.124295  0.373878  0.749783  1
  Pa  Pa7  1  0.873780  0.627495  0.250261  1
  O  O8  1  0.365795  0.367165  0.998797  1
  O  O9  1  0.634647  0.627098  0.006139  1
  O  O10  1  0.634701  0.626843  0.495212  1
  O  O11  1  0.365772  0.367374  0.500221  1
  O  O12  1  0.372377  0.882880  0.001291  1
  O  O13  1  0.620769  0.123396  0.008078  1
  O  O14  1  0.620328  0.123387  0.492762  1
  O  O15  1  0.372776  0.882849  0.497410  1
  O  O16  1  0.883047  0.377732  0.001334  1
  O  O17  1  0.118220  0.619140  0.997477  1
  O  O18  1  0.118054  0.619424  0.502937  1
  O  O19  1  0.883486  0.377436  0.498350  1
  O  O20  1  0.878174  0.872547  0.006045  1
  O  O21  1  0.126442  0.129933  0.997356  1
  O  O22  1  0.126896  0.129547  0.499217  1
  O  O23  1  0.878049  0.873105  0.497130  1
