# generated using pymatgen
data_Y5Ho5Si5Sn
_symmetry_space_group_name_H-M   'P 1'
_cell_length_a   8.50517517
_cell_length_b   8.53174331
_cell_length_c   6.38033600
_cell_angle_alpha   90.00000000
_cell_angle_beta   90.00000000
_cell_angle_gamma   119.87423796
_symmetry_Int_Tables_number   1
_chemical_formula_structural   Y5Ho5Si5Sn
_chemical_formula_sum   'Y5 Ho5 Si5 Sn1'
_cell_volume   401.46177068
_cell_formula_units_Z   1
loop_
 _symmetry_equiv_pos_site_id
 _symmetry_equiv_pos_as_xyz
  1  'x, y, z'
loop_
 _atom_site_type_symbol
 _atom_site_label
 _atom_site_symmetry_multiplicity
 _atom_site_fract_x
 _atom_site_fract_y
 _atom_site_fract_z
 _atom_site_occupancy
  Y  Y0  1  0.989847  0.749015  0.750000  1
  Y  Y1  1  0.998921  0.242932  0.250000  1
  Y  Y2  1  0.755721  0.756959  0.250000  1
  Y  Y3  1  0.764944  0.000106  0.750000  1
  Y  Y4  1  0.241600  0.000177  0.250000  1
  Ho  Ho5  1  0.240965  0.251422  0.750000  1
  Ho  Ho6  1  0.331488  0.657871  0.497028  1
  Ho  Ho7  1  0.673395  0.341949  0.003016  1
  Ho  Ho8  1  0.673395  0.341949  0.496984  1
  Ho  Ho9  1  0.331488  0.657871  0.002972  1
  Si  Si10  1  0.393856  0.392566  0.250000  1
  Si  Si11  1  0.001261  0.607408  0.250000  1
  Si  Si12  1  0.998943  0.394437  0.750000  1
  Si  Si13  1  0.603798  0.605127  0.750000  1
  Si  Si14  1  0.605283  0.999976  0.250000  1
  Sn  Sn15  1  0.395094  0.000235  0.750000  1
