# generated using pymatgen
data_Dy4Ho16CoBi8Rh3
_symmetry_space_group_name_H-M   'P 1'
_cell_length_a   8.00799786
_cell_length_b   8.96086100
_cell_length_c   12.41874404
_cell_angle_alpha   90.00000000
_cell_angle_beta   89.78637428
_cell_angle_gamma   90.00000000
_symmetry_Int_Tables_number   1
_chemical_formula_structural   Dy4Ho16CoBi8Rh3
_chemical_formula_sum   'Dy4 Ho16 Co1 Bi8 Rh3'
_cell_volume   891.14494211
_cell_formula_units_Z   1
loop_
 _symmetry_equiv_pos_site_id
 _symmetry_equiv_pos_as_xyz
  1  'x, y, z'
loop_
 _atom_site_type_symbol
 _atom_site_label
 _atom_site_symmetry_multiplicity
 _atom_site_fract_x
 _atom_site_fract_y
 _atom_site_fract_z
 _atom_site_occupancy
  Dy  Dy0  1  0.345347  0.750000  0.699893  1
  Dy  Dy1  1  0.157590  0.750000  0.206165  1
  Dy  Dy2  1  0.879075  0.750000  0.805838  1
  Dy  Dy3  1  0.615489  0.750000  0.311438  1
  Ho  Ho4  1  0.657999  0.250000  0.293778  1
  Ho  Ho5  1  0.842107  0.250000  0.793825  1
  Ho  Ho6  1  0.120879  0.250000  0.193368  1
  Ho  Ho7  1  0.379008  0.250000  0.693397  1
  Ho  Ho8  1  0.676622  0.545039  0.564054  1
  Ho  Ho9  1  0.324095  0.465174  0.436668  1
  Ho  Ho10  1  0.177830  0.456686  0.934224  1
  Ho  Ho11  1  0.324095  0.034826  0.436668  1
  Ho  Ho12  1  0.821558  0.541343  0.065671  1
  Ho  Ho13  1  0.676622  0.954961  0.564054  1
  Ho  Ho14  1  0.821558  0.958657  0.065671  1
  Ho  Ho15  1  0.177830  0.043314  0.934224  1
  Ho  Ho16  1  0.051572  0.750000  0.498870  1
  Ho  Ho17  1  0.949726  0.250000  0.501398  1
  Ho  Ho18  1  0.547767  0.250000  0.000750  1
  Ho  Ho19  1  0.450825  0.750000  0.998016  1
  Co  Co20  1  0.432426  0.750000  0.491762  1
  Bi  Bi21  1  0.570745  0.509172  0.826484  1
  Bi  Bi22  1  0.429505  0.490452  0.173420  1
  Bi  Bi23  1  0.071564  0.489998  0.672450  1
  Bi  Bi24  1  0.429505  0.009548  0.173420  1
  Bi  Bi25  1  0.928814  0.509363  0.327733  1
  Bi  Bi26  1  0.570745  0.990828  0.826484  1
  Bi  Bi27  1  0.928814  0.990637  0.327733  1
  Bi  Bi28  1  0.071564  0.010002  0.672450  1
  Rh  Rh29  1  0.070843  0.750000  0.990466  1
  Rh  Rh30  1  0.927745  0.250000  0.010348  1
  Rh  Rh31  1  0.570137  0.250000  0.509280  1
