# generated using pymatgen
data_La19Yb(Bi2Rh)4
_symmetry_space_group_name_H-M   'P 1'
_cell_length_a   8.52927834
_cell_length_b   9.35559000
_cell_length_c   13.01297000
_cell_angle_alpha   90.00000000
_cell_angle_beta   89.88785729
_cell_angle_gamma   90.00000000
_symmetry_Int_Tables_number   1
_chemical_formula_structural   La19Yb(Bi2Rh)4
_chemical_formula_sum   'La19 Yb1 Bi8 Rh4'
_cell_volume   1038.38657530
_cell_formula_units_Z   1
loop_
 _symmetry_equiv_pos_site_id
 _symmetry_equiv_pos_as_xyz
  1  'x, y, z'
loop_
 _atom_site_type_symbol
 _atom_site_label
 _atom_site_symmetry_multiplicity
 _atom_site_fract_x
 _atom_site_fract_y
 _atom_site_fract_z
 _atom_site_occupancy
  La  La0  1  0.846834  0.750000  0.798443  1
  La  La1  1  0.152813  0.250000  0.203234  1
  La  La2  1  0.349043  0.250000  0.704699  1
  La  La3  1  0.652389  0.750000  0.294516  1
  La  La4  1  0.375733  0.750000  0.694203  1
  La  La5  1  0.625692  0.250000  0.304939  1
  La  La6  1  0.872164  0.250000  0.804488  1
  La  La7  1  0.125682  0.750000  0.194213  1
  La  La8  1  0.947237  0.750000  0.503489  1
  La  La9  1  0.051837  0.250000  0.496509  1
  La  La10  1  0.448800  0.250000  0.996278  1
  La  La11  1  0.682465  0.039567  0.566094  1
  La  La12  1  0.315378  0.960014  0.434207  1
  La  La13  1  0.183139  0.962260  0.935362  1
  La  La14  1  0.315378  0.539986  0.434207  1
  La  La15  1  0.814758  0.037941  0.064347  1
  La  La16  1  0.682465  0.460433  0.566094  1
  La  La17  1  0.814758  0.462059  0.064347  1
  La  La18  1  0.183139  0.537740  0.935362  1
  Yb  Yb19  1  0.548656  0.750000  0.003731  1
  Bi  Bi20  1  0.573035  0.496523  0.829887  1
  Bi  Bi21  1  0.428986  0.507450  0.171342  1
  Bi  Bi22  1  0.074010  0.506236  0.673208  1
  Bi  Bi23  1  0.428986  0.992550  0.171342  1
  Bi  Bi24  1  0.926739  0.494425  0.326277  1
  Bi  Bi25  1  0.573035  0.003477  0.829887  1
  Bi  Bi26  1  0.926739  0.005575  0.326277  1
  Bi  Bi27  1  0.074010  0.993764  0.673208  1
  Rh  Rh28  1  0.572557  0.750000  0.510135  1
  Rh  Rh29  1  0.426396  0.250000  0.490031  1
  Rh  Rh30  1  0.076984  0.250000  0.988453  1
  Rh  Rh31  1  0.930163  0.750000  0.011193  1
