# generated using pymatgen
data_TbTm6Zn(Co3Sn11)2
_symmetry_space_group_name_H-M   'P 1'
_cell_length_a   9.61850800
_cell_length_b   9.61850776
_cell_length_c   9.93735300
_cell_angle_alpha   90.00000000
_cell_angle_beta   90.00000000
_cell_angle_gamma   120.00000082
_symmetry_Int_Tables_number   1
_chemical_formula_structural   TbTm6Zn(Co3Sn11)2
_chemical_formula_sum   'Tb1 Tm6 Zn1 Co6 Sn22'
_cell_volume   796.19006815
_cell_formula_units_Z   1
loop_
 _symmetry_equiv_pos_site_id
 _symmetry_equiv_pos_as_xyz
  1  'x, y, z'
loop_
 _atom_site_type_symbol
 _atom_site_label
 _atom_site_symmetry_multiplicity
 _atom_site_fract_x
 _atom_site_fract_y
 _atom_site_fract_z
 _atom_site_occupancy
  Tb  Tb0  1  0.000000  0.000000  0.000000  1
  Tm  Tm1  1  0.519412  0.480588  0.694081  1
  Tm  Tm2  1  0.519412  0.038824  0.694081  1
  Tm  Tm3  1  0.961176  0.480588  0.694081  1
  Tm  Tm4  1  0.038824  0.519412  0.305919  1
  Tm  Tm5  1  0.480588  0.961176  0.305919  1
  Tm  Tm6  1  0.480588  0.519412  0.305919  1
  Zn  Zn7  1  0.000000  0.000000  0.500000  1
  Co  Co8  1  0.168699  0.831301  0.801903  1
  Co  Co9  1  0.168699  0.337397  0.801903  1
  Co  Co10  1  0.662603  0.831301  0.801903  1
  Co  Co11  1  0.337397  0.168699  0.198097  1
  Co  Co12  1  0.831301  0.662603  0.198097  1
  Co  Co13  1  0.831301  0.168699  0.198097  1
  Sn  Sn14  1  0.666667  0.333333  0.180289  1
  Sn  Sn15  1  0.666667  0.333333  0.876049  1
  Sn  Sn16  1  0.333333  0.666667  0.123951  1
  Sn  Sn17  1  0.346422  0.346422  0.000000  1
  Sn  Sn18  1  0.000000  0.653578  0.000000  1
  Sn  Sn19  1  0.653578  0.000000  0.000000  1
  Sn  Sn20  1  0.653578  0.653578  0.000000  1
  Sn  Sn21  1  0.333333  0.666667  0.819711  1
  Sn  Sn22  1  0.433840  0.216921  0.454979  1
  Sn  Sn23  1  0.216921  0.783079  0.545021  1
  Sn  Sn24  1  0.216921  0.433840  0.545021  1
  Sn  Sn25  1  0.566160  0.783079  0.545021  1
  Sn  Sn26  1  0.114376  0.885624  0.276891  1
  Sn  Sn27  1  0.783079  0.566160  0.454979  1
  Sn  Sn28  1  0.783079  0.216921  0.454979  1
  Sn  Sn29  1  0.346422  0.000000  0.000000  1
  Sn  Sn30  1  0.114376  0.228751  0.276891  1
  Sn  Sn31  1  0.771249  0.885624  0.276891  1
  Sn  Sn32  1  0.228751  0.114376  0.723109  1
  Sn  Sn33  1  0.885624  0.771249  0.723109  1
  Sn  Sn34  1  0.885624  0.114376  0.723109  1
  Sn  Sn35  1  0.000000  0.346422  0.000000  1
