# generated using pymatgen
data_AcTe5
_symmetry_space_group_name_H-M   'P 1'
_cell_length_a   23.35113400
_cell_length_b   8.88895400
_cell_length_c   4.50543100
_cell_angle_alpha   90.00000000
_cell_angle_beta   90.00000000
_cell_angle_gamma   90.00000000
_symmetry_Int_Tables_number   1
_chemical_formula_structural   AcTe5
_chemical_formula_sum   'Ac4 Te20'
_cell_volume   935.17949911
_cell_formula_units_Z   4
loop_
 _symmetry_equiv_pos_site_id
 _symmetry_equiv_pos_as_xyz
  1  'x, y, z'
loop_
 _atom_site_type_symbol
 _atom_site_label
 _atom_site_symmetry_multiplicity
 _atom_site_fract_x
 _atom_site_fract_y
 _atom_site_fract_z
 _atom_site_occupancy
  Ac  Ac0  1  0.887527  0.750000  0.026800  1
  Ac  Ac1  1  0.387527  0.750000  0.473199  1
  Ac  Ac2  1  0.612473  0.250000  0.526801  1
  Ac  Ac3  1  0.112473  0.250000  0.973199  1
  Te  Te4  1  0.000000  0.000000  0.000000  1
  Te  Te5  1  0.000000  0.500000  0.000000  1
  Te  Te6  1  0.490537  0.250000  0.000564  1
  Te  Te7  1  0.667399  0.011585  0.035386  1
  Te  Te8  1  0.667399  0.488415  0.035386  1
  Te  Te9  1  0.258853  0.750000  0.141502  1
  Te  Te10  1  0.758853  0.750000  0.358497  1
  Te  Te11  1  0.167399  0.011585  0.464613  1
  Te  Te12  1  0.167399  0.488415  0.464613  1
  Te  Te13  1  0.990537  0.250000  0.499434  1
  Te  Te14  1  0.500000  0.000000  0.500001  1
  Te  Te15  1  0.500000  0.500000  0.500001  1
  Te  Te16  1  0.009463  0.750000  0.500565  1
  Te  Te17  1  0.832602  0.511584  0.535387  1
  Te  Te18  1  0.832602  0.988415  0.535387  1
  Te  Te19  1  0.241147  0.250000  0.641503  1
  Te  Te20  1  0.741147  0.250000  0.858497  1
  Te  Te21  1  0.332601  0.511584  0.964613  1
  Te  Te22  1  0.332601  0.988415  0.964613  1
  Te  Te23  1  0.509463  0.750000  0.999435  1
