# generated using pymatgen
data_Ta7Ti(TcOs)4
_symmetry_space_group_name_H-M   'P 1'
_cell_length_a   6.34347200
_cell_length_b   4.49665300
_cell_length_c   8.99375500
_cell_angle_alpha   90.00000000
_cell_angle_beta   90.00107707
_cell_angle_gamma   90.00000000
_symmetry_Int_Tables_number   1
_chemical_formula_structural   Ta7Ti(TcOs)4
_chemical_formula_sum   'Ta7 Ti1 Tc4 Os4'
_cell_volume   256.54139674
_cell_formula_units_Z   1
loop_
 _symmetry_equiv_pos_site_id
 _symmetry_equiv_pos_as_xyz
  1  'x, y, z'
loop_
 _atom_site_type_symbol
 _atom_site_label
 _atom_site_symmetry_multiplicity
 _atom_site_fract_x
 _atom_site_fract_y
 _atom_site_fract_z
 _atom_site_occupancy
  Ta  Ta0  1  0.999803  0.749999  0.122462  1
  Ta  Ta1  1  0.500210  0.749999  0.123755  1
  Ta  Ta2  1  0.000030  0.249999  0.375005  1
  Ta  Ta3  1  0.499458  0.249999  0.375004  1
  Ta  Ta4  1  0.500188  0.749999  0.626242  1
  Ta  Ta5  1  0.999772  0.749999  0.627527  1
  Ta  Ta6  1  0.499890  0.249999  0.875001  1
  Ti  Ti7  1  0.000397  0.249999  0.874998  1
  Tc  Tc8  1  0.751487  0.249999  0.123818  1
  Tc  Tc9  1  0.249713  0.749999  0.375008  1
  Tc  Tc10  1  0.751462  0.249999  0.626168  1
  Tc  Tc11  1  0.247415  0.749999  0.875009  1
  Os  Os12  1  0.248559  0.249999  0.123657  1
  Os  Os13  1  0.750644  0.749999  0.375005  1
  Os  Os14  1  0.248529  0.249999  0.626342  1
  Os  Os15  1  0.752441  0.749999  0.875002  1
