# generated using pymatgen
data_Tb10Sn5Bi
_symmetry_space_group_name_H-M   'P 1'
_cell_length_a   9.05086900
_cell_length_b   9.05086836
_cell_length_c   6.54912200
_cell_angle_alpha   90.00000000
_cell_angle_beta   90.00000000
_cell_angle_gamma   119.99830249
_symmetry_Int_Tables_number   1
_chemical_formula_structural   Tb10Sn5Bi
_chemical_formula_sum   'Tb10 Sn5 Bi1'
_cell_volume   464.62403096
_cell_formula_units_Z   1
loop_
 _symmetry_equiv_pos_site_id
 _symmetry_equiv_pos_as_xyz
  1  'x, y, z'
loop_
 _atom_site_type_symbol
 _atom_site_label
 _atom_site_symmetry_multiplicity
 _atom_site_fract_x
 _atom_site_fract_y
 _atom_site_fract_z
 _atom_site_occupancy
  Tb  Tb0  1  0.669811  0.332643  0.001657  1
  Tb  Tb1  1  0.332643  0.669811  0.001657  1
  Tb  Tb2  1  0.332643  0.669811  0.498343  1
  Tb  Tb3  1  0.669811  0.332643  0.498343  1
  Tb  Tb4  1  0.763302  0.763302  0.750000  1
  Tb  Tb5  1  0.238268  0.994710  0.750000  1
  Tb  Tb6  1  0.994710  0.238268  0.750000  1
  Tb  Tb7  1  0.238979  0.238979  0.250000  1
  Tb  Tb8  1  0.759997  0.000324  0.250000  1
  Tb  Tb9  1  0.000324  0.759997  0.250000  1
  Sn  Sn10  1  0.604852  0.999666  0.750000  1
  Sn  Sn11  1  0.999666  0.604852  0.750000  1
  Sn  Sn12  1  0.606049  0.606049  0.250000  1
  Sn  Sn13  1  0.394539  0.001275  0.250000  1
  Sn  Sn14  1  0.001275  0.394539  0.250000  1
  Bi  Bi15  1  0.393132  0.393132  0.750000  1
