# generated using pymatgen
data_HoPaF8
_symmetry_space_group_name_H-M   'P 1'
_cell_length_a   8.26365645
_cell_length_b   8.32914840
_cell_length_c   8.14383372
_cell_angle_alpha   63.60449041
_cell_angle_beta   64.16067203
_cell_angle_gamma   80.71475650
_symmetry_Int_Tables_number   1
_chemical_formula_structural   HoPaF8
_chemical_formula_sum   'Ho3 Pa3 F24'
_cell_volume   451.53112062
_cell_formula_units_Z   3
loop_
 _symmetry_equiv_pos_site_id
 _symmetry_equiv_pos_as_xyz
  1  'x, y, z'
loop_
 _atom_site_type_symbol
 _atom_site_label
 _atom_site_symmetry_multiplicity
 _atom_site_fract_x
 _atom_site_fract_y
 _atom_site_fract_z
 _atom_site_occupancy
  Ho  Ho0  1  0.368334  0.236576  0.334703  1
  Ho  Ho1  1  0.221739  0.361582  0.843958  1
  Ho  Ho2  1  0.780802  0.617823  0.165486  1
  Pa  Pa3  1  0.626374  0.775699  0.661362  1
  Pa  Pa4  1  0.787373  0.207379  0.757844  1
  Pa  Pa5  1  0.213523  0.786646  0.260580  1
  F  F6  1  0.313603  0.266178  0.608314  1
  F  F7  1  0.683935  0.742466  0.390737  1
  F  F8  1  0.728195  0.684317  0.888269  1
  F  F9  1  0.270741  0.318179  0.103488  1
  F  F10  1  0.824521  0.931916  0.947326  1
  F  F11  1  0.181426  0.052556  0.048206  1
  F  F12  1  0.053993  0.172281  0.553668  1
  F  F13  1  0.929250  0.830974  0.460934  1
  F  F14  1  0.410027  0.598716  0.742782  1
  F  F15  1  0.599575  0.404943  0.245231  1
  F  F16  1  0.501057  0.996121  0.497869  1
  F  F17  1  0.003578  0.507017  0.992674  1
  F  F18  1  0.511858  0.244319  0.790563  1
  F  F19  1  0.496294  0.755237  0.200185  1
  F  F20  1  0.744805  0.500332  0.711336  1
  F  F21  1  0.252618  0.514139  0.286263  1
  F  F22  1  0.399500  0.811762  0.914980  1
  F  F23  1  0.614499  0.181930  0.066201  1
  F  F24  1  0.180827  0.610881  0.570261  1
  F  F25  1  0.812641  0.392282  0.442199  1
  F  F26  1  0.722151  0.024346  0.644471  1
  F  F27  1  0.271538  0.969875  0.353761  1
  F  F28  1  0.968259  0.275382  0.849930  1
  F  F29  1  0.026965  0.728147  0.166421  1
