# generated using pymatgen
data_Yb2Sc3Pt4
_symmetry_space_group_name_H-M   'P 1'
_cell_length_a   7.30626400
_cell_length_b   7.36277500
_cell_length_c   13.97494300
_cell_angle_alpha   90.00000000
_cell_angle_beta   90.00000000
_cell_angle_gamma   90.00000000
_symmetry_Int_Tables_number   1
_chemical_formula_structural   Yb2Sc3Pt4
_chemical_formula_sum   'Yb8 Sc12 Pt16'
_cell_volume   751.77336519
_cell_formula_units_Z   4
loop_
 _symmetry_equiv_pos_site_id
 _symmetry_equiv_pos_as_xyz
  1  'x, y, z'
loop_
 _atom_site_type_symbol
 _atom_site_label
 _atom_site_symmetry_multiplicity
 _atom_site_fract_x
 _atom_site_fract_y
 _atom_site_fract_z
 _atom_site_occupancy
  Yb  Yb0  1  0.485562  0.675004  0.592956  1
  Yb  Yb1  1  0.985562  0.824996  0.907044  1
  Yb  Yb2  1  0.514438  0.324996  0.092956  1
  Yb  Yb3  1  0.014438  0.175004  0.407044  1
  Yb  Yb4  1  0.514438  0.324996  0.407044  1
  Yb  Yb5  1  0.014438  0.175004  0.092956  1
  Yb  Yb6  1  0.485562  0.675004  0.907044  1
  Yb  Yb7  1  0.985562  0.824996  0.592956  1
  Sc  Sc8  1  0.645900  0.166103  0.624362  1
  Sc  Sc9  1  0.145900  0.333897  0.875638  1
  Sc  Sc10  1  0.354100  0.833897  0.124362  1
  Sc  Sc11  1  0.854100  0.666103  0.375638  1
  Sc  Sc12  1  0.354100  0.833897  0.375638  1
  Sc  Sc13  1  0.854100  0.666103  0.124362  1
  Sc  Sc14  1  0.645900  0.166103  0.875638  1
  Sc  Sc15  1  0.145900  0.333897  0.624362  1
  Sc  Sc16  1  0.806806  0.506073  0.750000  1
  Sc  Sc17  1  0.306806  0.993927  0.750000  1
  Sc  Sc18  1  0.193194  0.493927  0.250000  1
  Sc  Sc19  1  0.693194  0.006073  0.250000  1
  Pt  Pt20  1  0.678026  0.957738  0.452976  1
  Pt  Pt21  1  0.178026  0.542262  0.047024  1
  Pt  Pt22  1  0.321974  0.042262  0.952976  1
  Pt  Pt23  1  0.821974  0.457738  0.547024  1
  Pt  Pt24  1  0.321974  0.042262  0.547024  1
  Pt  Pt25  1  0.821974  0.457738  0.952976  1
  Pt  Pt26  1  0.678026  0.957738  0.047024  1
  Pt  Pt27  1  0.178026  0.542262  0.452976  1
  Pt  Pt28  1  0.442312  0.372072  0.750000  1
  Pt  Pt29  1  0.942312  0.127928  0.750000  1
  Pt  Pt30  1  0.557688  0.627928  0.250000  1
  Pt  Pt31  1  0.057688  0.872072  0.250000  1
  Pt  Pt32  1  0.665897  0.865732  0.750000  1
  Pt  Pt33  1  0.165897  0.634268  0.750000  1
  Pt  Pt34  1  0.334103  0.134268  0.250000  1
  Pt  Pt35  1  0.834103  0.365732  0.250000  1
