# generated using pymatgen
data_Dy3MgCo7NiP6
_symmetry_space_group_name_H-M   'P 1'
_cell_length_a   3.73889700
_cell_length_b   10.62401600
_cell_length_c   12.30907500
_cell_angle_alpha   90.00000000
_cell_angle_beta   90.00000000
_cell_angle_gamma   90.00000000
_symmetry_Int_Tables_number   1
_chemical_formula_structural   Dy3MgCo7NiP6
_chemical_formula_sum   'Dy6 Mg2 Co14 Ni2 P12'
_cell_volume   488.94232714
_cell_formula_units_Z   2
loop_
 _symmetry_equiv_pos_site_id
 _symmetry_equiv_pos_as_xyz
  1  'x, y, z'
loop_
 _atom_site_type_symbol
 _atom_site_label
 _atom_site_symmetry_multiplicity
 _atom_site_fract_x
 _atom_site_fract_y
 _atom_site_fract_z
 _atom_site_occupancy
  Dy  Dy0  1  0.000000  0.500000  0.523505  1
  Dy  Dy1  1  0.500000  0.000000  0.476495  1
  Dy  Dy2  1  0.500000  0.819112  0.205280  1
  Dy  Dy3  1  0.500000  0.180888  0.205280  1
  Dy  Dy4  1  0.000000  0.680888  0.794720  1
  Dy  Dy5  1  0.000000  0.319112  0.794720  1
  Mg  Mg6  1  0.500000  0.500000  0.155324  1
  Mg  Mg7  1  0.000000  0.000000  0.844676  1
  Co  Co8  1  0.000000  0.500000  0.987789  1
  Co  Co9  1  0.500000  0.000000  0.012211  1
  Co  Co10  1  0.500000  0.332707  0.995821  1
  Co  Co11  1  0.500000  0.667293  0.995821  1
  Co  Co12  1  0.000000  0.167293  0.004179  1
  Co  Co13  1  0.000000  0.832707  0.004179  1
  Co  Co14  1  0.500000  0.296726  0.432153  1
  Co  Co15  1  0.500000  0.703274  0.432153  1
  Co  Co16  1  0.000000  0.203274  0.567847  1
  Co  Co17  1  0.000000  0.796726  0.567847  1
  Co  Co18  1  0.500000  0.877433  0.706403  1
  Co  Co19  1  0.500000  0.122567  0.706403  1
  Co  Co20  1  0.000000  0.622567  0.293597  1
  Co  Co21  1  0.000000  0.377433  0.293597  1
  Ni  Ni22  1  0.500000  0.500000  0.702878  1
  Ni  Ni23  1  0.000000  0.000000  0.297122  1
  P  P24  1  0.500000  0.500000  0.884538  1
  P  P25  1  0.000000  0.000000  0.115462  1
  P  P26  1  0.500000  0.500000  0.354114  1
  P  P27  1  0.000000  0.000000  0.645886  1
  P  P28  1  0.500000  0.308644  0.614858  1
  P  P29  1  0.500000  0.691356  0.614858  1
  P  P30  1  0.000000  0.191356  0.385142  1
  P  P31  1  0.000000  0.808644  0.385142  1
  P  P32  1  0.500000  0.839651  0.894045  1
  P  P33  1  0.500000  0.160349  0.894045  1
  P  P34  1  0.000000  0.660349  0.105955  1
  P  P35  1  0.000000  0.339651  0.105955  1
