# generated using pymatgen
data_Hf10NiGeSb6
_symmetry_space_group_name_H-M   'P 1'
_cell_length_a   8.58686200
_cell_length_b   8.58686145
_cell_length_c   5.76698400
_cell_angle_alpha   90.00000000
_cell_angle_beta   90.00000000
_cell_angle_gamma   120.00000210
_symmetry_Int_Tables_number   1
_chemical_formula_structural   Hf10NiGeSb6
_chemical_formula_sum   'Hf10 Ni1 Ge1 Sb6'
_cell_volume   368.25470823
_cell_formula_units_Z   1
loop_
 _symmetry_equiv_pos_site_id
 _symmetry_equiv_pos_as_xyz
  1  'x, y, z'
loop_
 _atom_site_type_symbol
 _atom_site_label
 _atom_site_symmetry_multiplicity
 _atom_site_fract_x
 _atom_site_fract_y
 _atom_site_fract_z
 _atom_site_occupancy
  Hf  Hf0  1  0.666667  0.333333  0.500000  1
  Hf  Hf1  1  0.333333  0.666667  0.500000  1
  Hf  Hf2  1  0.333333  0.666667  0.000000  1
  Hf  Hf3  1  0.666667  0.333333  0.000000  1
  Hf  Hf4  1  0.737840  0.737840  0.256135  1
  Hf  Hf5  1  0.262160  0.000000  0.256135  1
  Hf  Hf6  1  0.000000  0.262160  0.256135  1
  Hf  Hf7  1  0.262160  0.262160  0.743865  1
  Hf  Hf8  1  0.737840  0.000000  0.743865  1
  Hf  Hf9  1  0.000000  0.737840  0.743865  1
  Ni  Ni10  1  0.000000  0.000000  0.500000  1
  Ge  Ge11  1  0.000000  0.000000  0.000000  1
  Sb  Sb12  1  0.390158  0.390158  0.250688  1
  Sb  Sb13  1  0.609842  0.000000  0.250688  1
  Sb  Sb14  1  0.000000  0.609842  0.250688  1
  Sb  Sb15  1  0.609842  0.609842  0.749312  1
  Sb  Sb16  1  0.390158  0.000000  0.749312  1
  Sb  Sb17  1  0.000000  0.390158  0.749312  1
