# generated using pymatgen
data_HoMo2O7F
_symmetry_space_group_name_H-M   'P 1'
_cell_length_a   6.62078900
_cell_length_b   4.31819991
_cell_length_c   11.54452325
_cell_angle_alpha   89.55831651
_cell_angle_beta   90.00000000
_cell_angle_gamma   90.00000000
_symmetry_Int_Tables_number   1
_chemical_formula_structural   HoMo2O7F
_chemical_formula_sum   'Ho2 Mo4 O14 F2'
_cell_volume   330.04684785
_cell_formula_units_Z   2
loop_
 _symmetry_equiv_pos_site_id
 _symmetry_equiv_pos_as_xyz
  1  'x, y, z'
loop_
 _atom_site_type_symbol
 _atom_site_label
 _atom_site_symmetry_multiplicity
 _atom_site_fract_x
 _atom_site_fract_y
 _atom_site_fract_z
 _atom_site_occupancy
  Ho  Ho0  1  0.798651  0.000000  0.750000  1
  Ho  Ho1  1  0.201349  0.000000  0.250000  1
  Mo  Mo2  1  0.331043  0.903573  0.594185  1
  Mo  Mo3  1  0.331043  0.096427  0.905815  1
  Mo  Mo4  1  0.668957  0.096427  0.405815  1
  Mo  Mo5  1  0.668957  0.903573  0.094185  1
  O  O6  1  0.341788  0.502105  0.596967  1
  O  O7  1  0.341788  0.497895  0.903033  1
  O  O8  1  0.658212  0.497895  0.403033  1
  O  O9  1  0.658212  0.502105  0.096967  1
  O  O10  1  0.075714  0.984130  0.628454  1
  O  O11  1  0.075714  0.015870  0.871546  1
  O  O12  1  0.924286  0.015870  0.371546  1
  O  O13  1  0.924286  0.984130  0.128454  1
  O  O14  1  0.650629  0.000106  0.566684  1
  O  O15  1  0.650629  0.999894  0.933316  1
  O  O16  1  0.349371  0.999894  0.433316  1
  O  O17  1  0.349371  0.000106  0.066684  1
  O  O18  1  0.441427  0.000000  0.750000  1
  O  O19  1  0.558573  0.000000  0.250000  1
  F  F20  1  0.802540  0.500000  0.750000  1
  F  F21  1  0.197460  0.500000  0.250000  1
