# generated using pymatgen
data_ErLuAu6
_symmetry_space_group_name_H-M   'P 1'
_cell_length_a   5.01406700
_cell_length_b   5.10224900
_cell_length_c   6.17050500
_cell_angle_alpha   90.00000000
_cell_angle_beta   90.00000000
_cell_angle_gamma   90.00000000
_symmetry_Int_Tables_number   1
_chemical_formula_structural   ErLuAu6
_chemical_formula_sum   'Er1 Lu1 Au6'
_cell_volume   157.86014256
_cell_formula_units_Z   1
loop_
 _symmetry_equiv_pos_site_id
 _symmetry_equiv_pos_as_xyz
  1  'x, y, z'
loop_
 _atom_site_type_symbol
 _atom_site_label
 _atom_site_symmetry_multiplicity
 _atom_site_fract_x
 _atom_site_fract_y
 _atom_site_fract_z
 _atom_site_occupancy
  Er  Er0  1  0.000000  0.344733  0.000000  1
  Lu  Lu1  1  0.500000  0.654028  0.500000  1
  Au  Au2  1  0.500000  0.663147  0.000000  1
  Au  Au3  1  0.000000  0.339969  0.500000  1
  Au  Au4  1  0.000000  0.839514  0.742642  1
  Au  Au5  1  0.000000  0.839514  0.257358  1
  Au  Au6  1  0.500000  0.159547  0.753216  1
  Au  Au7  1  0.500000  0.159547  0.246784  1
