# generated using pymatgen
data_Th14IrOs4Pt
_symmetry_space_group_name_H-M   'P 1'
_cell_length_a   10.05977948
_cell_length_b   10.07967844
_cell_length_c   6.33057275
_cell_angle_alpha   89.96674620
_cell_angle_beta   90.12456451
_cell_angle_gamma   119.93729125
_symmetry_Int_Tables_number   1
_chemical_formula_structural   Th14IrOs4Pt
_chemical_formula_sum   'Th14 Ir1 Os4 Pt1'
_cell_volume   556.26502674
_cell_formula_units_Z   1
loop_
 _symmetry_equiv_pos_site_id
 _symmetry_equiv_pos_as_xyz
  1  'x, y, z'
loop_
 _atom_site_type_symbol
 _atom_site_label
 _atom_site_symmetry_multiplicity
 _atom_site_fract_x
 _atom_site_fract_y
 _atom_site_fract_z
 _atom_site_occupancy
  Th  Th0  1  0.456539  0.540665  0.298868  1
  Th  Th1  1  0.084714  0.541775  0.296172  1
  Th  Th2  1  0.921776  0.457159  0.791175  1
  Th  Th3  1  0.252562  0.125770  0.499381  1
  Th  Th4  1  0.539960  0.082383  0.796968  1
  Th  Th5  1  0.740188  0.874028  0.998900  1
  Th  Th6  1  0.663708  0.329724  0.298034  1
  Th  Th7  1  0.132813  0.877417  0.001174  1
  Th  Th8  1  0.456590  0.915285  0.299228  1
  Th  Th9  1  0.535647  0.454784  0.793797  1
  Th  Th10  1  0.874168  0.125733  0.502826  1
  Th  Th11  1  0.128624  0.253883  0.000254  1
  Th  Th12  1  0.875613  0.750874  0.505662  1
  Th  Th13  1  0.333078  0.666212  0.787440  1
  Ir  Ir14  1  0.814126  0.190398  0.052359  1
  Os  Os15  1  0.627864  0.814590  0.551466  1
  Os  Os16  1  0.377262  0.188383  0.051782  1
  Os  Os17  1  0.184329  0.373337  0.551418  1
  Os  Os18  1  0.185725  0.812262  0.552925  1
  Pt  Pt19  1  0.814712  0.625337  0.054168  1
