# generated using pymatgen
data_Er7Co6CuSn22
_symmetry_space_group_name_H-M   'P 1'
_cell_length_a   9.60327700
_cell_length_b   9.60327739
_cell_length_c   9.88593000
_cell_angle_alpha   90.00000000
_cell_angle_beta   90.00000000
_cell_angle_gamma   120.00000211
_symmetry_Int_Tables_number   1
_chemical_formula_structural   Er7Co6CuSn22
_chemical_formula_sum   'Er7 Co6 Cu1 Sn22'
_cell_volume   789.56353524
_cell_formula_units_Z   1
loop_
 _symmetry_equiv_pos_site_id
 _symmetry_equiv_pos_as_xyz
  1  'x, y, z'
loop_
 _atom_site_type_symbol
 _atom_site_label
 _atom_site_symmetry_multiplicity
 _atom_site_fract_x
 _atom_site_fract_y
 _atom_site_fract_z
 _atom_site_occupancy
  Er  Er0  1  0.479445  0.520555  0.306279  1
  Er  Er1  1  0.520555  0.479445  0.693721  1
  Er  Er2  1  0.479445  0.958891  0.306279  1
  Er  Er3  1  0.520555  0.041109  0.693721  1
  Er  Er4  1  0.041109  0.520555  0.306279  1
  Er  Er5  1  0.958891  0.479445  0.693721  1
  Er  Er6  1  0.000000  0.000000  0.000000  1
  Co  Co7  1  0.831980  0.168020  0.197295  1
  Co  Co8  1  0.168020  0.831980  0.802705  1
  Co  Co9  1  0.831980  0.663962  0.197295  1
  Co  Co10  1  0.168020  0.336038  0.802705  1
  Co  Co11  1  0.336038  0.168020  0.197295  1
  Co  Co12  1  0.663962  0.831980  0.802705  1
  Cu  Cu13  1  0.000000  0.000000  0.500000  1
  Sn  Sn14  1  0.112432  0.887568  0.281405  1
  Sn  Sn15  1  0.887568  0.112432  0.718595  1
  Sn  Sn16  1  0.112432  0.224864  0.281405  1
  Sn  Sn17  1  0.887568  0.775136  0.718595  1
  Sn  Sn18  1  0.775136  0.887568  0.281405  1
  Sn  Sn19  1  0.224864  0.112432  0.718595  1
  Sn  Sn20  1  0.782820  0.217180  0.454201  1
  Sn  Sn21  1  0.217180  0.782820  0.545799  1
  Sn  Sn22  1  0.782820  0.565640  0.454201  1
  Sn  Sn23  1  0.217180  0.434360  0.545799  1
  Sn  Sn24  1  0.434360  0.217180  0.454201  1
  Sn  Sn25  1  0.565640  0.782820  0.545799  1
  Sn  Sn26  1  0.346016  0.000000  0.000000  1
  Sn  Sn27  1  0.653984  0.000000  0.000000  1
  Sn  Sn28  1  0.000000  0.346016  0.000000  1
  Sn  Sn29  1  0.000000  0.653984  0.000000  1
  Sn  Sn30  1  0.653984  0.653984  0.000000  1
  Sn  Sn31  1  0.346016  0.346016  0.000000  1
  Sn  Sn32  1  0.333333  0.666667  0.120915  1
  Sn  Sn33  1  0.666667  0.333333  0.879085  1
  Sn  Sn34  1  0.333333  0.666667  0.818259  1
  Sn  Sn35  1  0.666667  0.333333  0.181741  1
