# generated using pymatgen
data_Tb7Dy(LuPb3)2
_symmetry_space_group_name_H-M   'P 1'
_cell_length_a   9.06038200
_cell_length_b   9.06038288
_cell_length_c   6.63258800
_cell_angle_alpha   90.00000000
_cell_angle_beta   90.00000000
_cell_angle_gamma   119.99999677
_symmetry_Int_Tables_number   1
_chemical_formula_structural   Tb7Dy(LuPb3)2
_chemical_formula_sum   'Tb7 Dy1 Lu2 Pb6'
_cell_volume   471.52717412
_cell_formula_units_Z   1
loop_
 _symmetry_equiv_pos_site_id
 _symmetry_equiv_pos_as_xyz
  1  'x, y, z'
loop_
 _atom_site_type_symbol
 _atom_site_label
 _atom_site_symmetry_multiplicity
 _atom_site_fract_x
 _atom_site_fract_y
 _atom_site_fract_z
 _atom_site_occupancy
  Tb  Tb0  1  0.238155  0.238121  0.750716  1
  Tb  Tb1  1  0.238155  0.000035  0.249284  1
  Tb  Tb2  1  0.999965  0.761845  0.750716  1
  Tb  Tb3  1  0.761879  0.761845  0.249284  1
  Tb  Tb4  1  0.999965  0.238121  0.249284  1
  Tb  Tb5  1  0.761879  0.000035  0.750716  1
  Tb  Tb6  1  0.333333  0.666667  0.500000  1
  Dy  Dy7  1  0.666667  0.333333  0.500000  1
  Lu  Lu8  1  0.333333  0.666667  0.000000  1
  Lu  Lu9  1  0.666667  0.333333  0.000000  1
  Pb  Pb10  1  0.999854  0.395662  0.752727  1
  Pb  Pb11  1  0.395807  0.395662  0.247273  1
  Pb  Pb12  1  0.604338  0.000146  0.247273  1
  Pb  Pb13  1  0.604338  0.604193  0.752727  1
  Pb  Pb14  1  0.395807  0.000146  0.752727  1
  Pb  Pb15  1  0.999854  0.604193  0.247273  1
