# generated using pymatgen
data_EuZn4Cu9
_symmetry_space_group_name_H-M   'P 1'
_cell_length_a   8.34702556
_cell_length_b   8.34702614
_cell_length_c   8.34702561
_cell_angle_alpha   120.13250966
_cell_angle_beta   120.13251686
_cell_angle_gamma   89.77063765
_symmetry_Int_Tables_number   1
_chemical_formula_structural   EuZn4Cu9
_chemical_formula_sum   'Eu2 Zn8 Cu18'
_cell_volume   410.39847722
_cell_formula_units_Z   2
loop_
 _symmetry_equiv_pos_site_id
 _symmetry_equiv_pos_as_xyz
  1  'x, y, z'
loop_
 _atom_site_type_symbol
 _atom_site_label
 _atom_site_symmetry_multiplicity
 _atom_site_fract_x
 _atom_site_fract_y
 _atom_site_fract_z
 _atom_site_occupancy
  Eu  Eu0  1  0.750000  0.750000  0.000000  1
  Eu  Eu1  1  0.250000  0.250000  0.000000  1
  Zn  Zn2  1  0.696452  0.560564  0.500000  1
  Zn  Zn3  1  0.939436  0.803548  0.500000  1
  Zn  Zn4  1  0.196452  0.696452  0.135888  1
  Zn  Zn5  1  0.560564  0.060564  0.864112  1
  Zn  Zn6  1  0.439436  0.939436  0.135888  1
  Zn  Zn7  1  0.803548  0.303548  0.864112  1
  Zn  Zn8  1  0.303548  0.439436  0.500000  1
  Zn  Zn9  1  0.060564  0.196452  0.500000  1
  Cu  Cu10  1  0.436509  0.708448  0.500000  1
  Cu  Cu11  1  0.060891  0.796339  0.857230  1
  Cu  Cu12  1  0.939109  0.203661  0.142770  1
  Cu  Cu13  1  0.291552  0.791552  0.728060  1
  Cu  Cu14  1  0.563491  0.291552  0.500000  1
  Cu  Cu15  1  0.796339  0.939109  0.735448  1
  Cu  Cu16  1  0.439109  0.296339  0.735448  1
  Cu  Cu17  1  0.208448  0.936509  0.500000  1
  Cu  Cu18  1  0.296339  0.560891  0.857230  1
  Cu  Cu19  1  0.708448  0.208448  0.271940  1
  Cu  Cu20  1  0.000000  0.500000  0.500000  1
  Cu  Cu21  1  0.203661  0.060891  0.264552  1
  Cu  Cu22  1  0.936509  0.436509  0.728060  1
  Cu  Cu23  1  0.703661  0.439109  0.142770  1
  Cu  Cu24  1  0.063491  0.563491  0.271940  1
  Cu  Cu25  1  0.560891  0.703661  0.264552  1
  Cu  Cu26  1  0.500000  0.000000  0.500000  1
  Cu  Cu27  1  0.791552  0.063491  0.500000  1
