# generated using pymatgen
data_Ho10GaBi5C2
_symmetry_space_group_name_H-M   'P 1'
_cell_length_a   6.48369700
_cell_length_b   9.00866203
_cell_length_c   9.03553610
_cell_angle_alpha   119.90165278
_cell_angle_beta   90.00008845
_cell_angle_gamma   89.99983400
_symmetry_Int_Tables_number   1
_chemical_formula_structural   Ho10GaBi5C2
_chemical_formula_sum   'Ho10 Ga1 Bi5 C2'
_cell_volume   457.50632285
_cell_formula_units_Z   1
loop_
 _symmetry_equiv_pos_site_id
 _symmetry_equiv_pos_as_xyz
  1  'x, y, z'
loop_
 _atom_site_type_symbol
 _atom_site_label
 _atom_site_symmetry_multiplicity
 _atom_site_fract_x
 _atom_site_fract_y
 _atom_site_fract_z
 _atom_site_occupancy
  Ho  Ho0  1  0.504778  0.345028  0.681204  1
  Ho  Ho1  1  0.504778  0.663824  0.318796  1
  Ho  Ho2  1  0.995215  0.663818  0.318788  1
  Ho  Ho3  1  0.995215  0.345030  0.681212  1
  Ho  Ho4  1  0.749999  0.207867  0.000000  1
  Ho  Ho5  1  0.750004  0.784408  0.796323  1
  Ho  Ho6  1  0.750004  0.988086  0.203677  1
  Ho  Ho7  1  0.250003  0.790255  0.000000  1
  Ho  Ho8  1  0.250008  0.208182  0.208294  1
  Ho  Ho9  1  0.250008  0.999889  0.791706  1
  Ga  Ga10  1  0.750001  0.596346  0.000000  1
  Bi  Bi11  1  0.749998  0.398689  0.399636  1
  Bi  Bi12  1  0.749998  0.999053  0.600364  1
  Bi  Bi13  1  0.250001  0.402977  0.000000  1
  Bi  Bi14  1  0.249996  0.600591  0.596003  1
  Bi  Bi15  1  0.249996  0.004589  0.403997  1
  C  C16  1  0.498550  0.000680  0.000000  1
  C  C17  1  0.001450  0.000687  0.000000  1
