# generated using pymatgen
data_Y2Ho2InRu
_symmetry_space_group_name_H-M   'P 1'
_cell_length_a   9.64718541
_cell_length_b   9.68030172
_cell_length_c   9.63433283
_cell_angle_alpha   59.84204012
_cell_angle_beta   59.62498922
_cell_angle_gamma   59.88638684
_symmetry_Int_Tables_number   1
_chemical_formula_structural   Y2Ho2InRu
_chemical_formula_sum   'Y8 Ho8 In4 Ru4'
_cell_volume   633.08304565
_cell_formula_units_Z   4
loop_
 _symmetry_equiv_pos_site_id
 _symmetry_equiv_pos_as_xyz
  1  'x, y, z'
loop_
 _atom_site_type_symbol
 _atom_site_label
 _atom_site_symmetry_multiplicity
 _atom_site_fract_x
 _atom_site_fract_y
 _atom_site_fract_z
 _atom_site_occupancy
  Y  Y0  1  0.192282  0.194346  0.807237  1
  Y  Y1  1  0.599716  0.597155  0.205974  1
  Y  Y2  1  0.442824  0.058275  0.440626  1
  Y  Y3  1  0.441230  0.441899  0.058229  1
  Y  Y4  1  0.810870  0.189942  0.809246  1
  Y  Y5  1  0.190605  0.808188  0.193019  1
  Y  Y6  1  0.441230  0.058642  0.058229  1
  Y  Y7  1  0.192282  0.806135  0.807237  1
  Ho  Ho8  1  0.059536  0.441142  0.058181  1
  Ho  Ho9  1  0.810426  0.807154  0.191165  1
  Ho  Ho10  1  0.201547  0.599729  0.598995  1
  Ho  Ho11  1  0.059267  0.442335  0.439552  1
  Ho  Ho12  1  0.059267  0.058846  0.439552  1
  Ho  Ho13  1  0.810426  0.191255  0.191165  1
  Ho  Ho14  1  0.600034  0.208116  0.596591  1
  Ho  Ho15  1  0.600034  0.595258  0.596591  1
  In  In16  1  0.830541  0.833859  0.833033  1
  In  In17  1  0.830119  0.833333  0.503216  1
  In  In18  1  0.502193  0.832865  0.832078  1
  In  In19  1  0.830541  0.502568  0.833033  1
  Ru  Ru20  1  0.386230  0.829687  0.395087  1
  Ru  Ru21  1  0.386230  0.388996  0.395087  1
  Ru  Ru22  1  0.834786  0.387442  0.390330  1
  Ru  Ru23  1  0.387784  0.392833  0.826550  1
