# generated using pymatgen
data_Dy4Ho12Cd4Ni3Os
_symmetry_space_group_name_H-M   'P 1'
_cell_length_a   9.57120762
_cell_length_b   9.57120748
_cell_length_c   9.57120830
_cell_angle_alpha   59.52126295
_cell_angle_beta   59.52126699
_cell_angle_gamma   59.52126027
_symmetry_Int_Tables_number   1
_chemical_formula_structural   Dy4Ho12Cd4Ni3Os
_chemical_formula_sum   'Dy4 Ho12 Cd4 Ni3 Os1'
_cell_volume   613.24135368
_cell_formula_units_Z   1
loop_
 _symmetry_equiv_pos_site_id
 _symmetry_equiv_pos_as_xyz
  1  'x, y, z'
loop_
 _atom_site_type_symbol
 _atom_site_label
 _atom_site_symmetry_multiplicity
 _atom_site_fract_x
 _atom_site_fract_y
 _atom_site_fract_z
 _atom_site_occupancy
  Dy  Dy0  1  0.347708  0.347708  0.347708  1
  Dy  Dy1  1  0.351624  0.351624  0.952116  1
  Dy  Dy2  1  0.351624  0.952116  0.351624  1
  Dy  Dy3  1  0.952116  0.351624  0.351624  1
  Ho  Ho4  1  0.810387  0.188068  0.188068  1
  Ho  Ho5  1  0.186548  0.811641  0.811641  1
  Ho  Ho6  1  0.188068  0.810387  0.188068  1
  Ho  Ho7  1  0.811641  0.186548  0.811641  1
  Ho  Ho8  1  0.188068  0.188068  0.810387  1
  Ho  Ho9  1  0.811641  0.811641  0.186548  1
  Ho  Ho10  1  0.935793  0.566007  0.566007  1
  Ho  Ho11  1  0.557165  0.938785  0.938785  1
  Ho  Ho12  1  0.566007  0.935793  0.566007  1
  Ho  Ho13  1  0.938785  0.557165  0.938785  1
  Ho  Ho14  1  0.566007  0.566007  0.935793  1
  Ho  Ho15  1  0.938785  0.938785  0.557165  1
  Cd  Cd16  1  0.580367  0.580367  0.580367  1
  Cd  Cd17  1  0.580225  0.580225  0.255324  1
  Cd  Cd18  1  0.580225  0.255324  0.580225  1
  Cd  Cd19  1  0.255324  0.580225  0.580225  1
  Ni  Ni20  1  0.141981  0.141981  0.574889  1
  Ni  Ni21  1  0.141981  0.574889  0.141981  1
  Ni  Ni22  1  0.574889  0.141981  0.141981  1
  Os  Os23  1  0.143039  0.143039  0.143039  1
