# generated using pymatgen
data_Er6Al13Mo3Os7
_symmetry_space_group_name_H-M   'P 1'
_cell_length_a   8.96584881
_cell_length_b   8.96584938
_cell_length_c   8.96584971
_cell_angle_alpha   59.53443619
_cell_angle_beta   59.53443470
_cell_angle_gamma   59.53443396
_symmetry_Int_Tables_number   1
_chemical_formula_structural   Er6Al13Mo3Os7
_chemical_formula_sum   'Er6 Al13 Mo3 Os7'
_cell_volume   504.24008220
_cell_formula_units_Z   1
loop_
 _symmetry_equiv_pos_site_id
 _symmetry_equiv_pos_as_xyz
  1  'x, y, z'
loop_
 _atom_site_type_symbol
 _atom_site_label
 _atom_site_symmetry_multiplicity
 _atom_site_fract_x
 _atom_site_fract_y
 _atom_site_fract_z
 _atom_site_occupancy
  Er  Er0  1  0.707819  0.707819  0.286268  1
  Er  Er1  1  0.293176  0.708282  0.293176  1
  Er  Er2  1  0.708282  0.293176  0.293176  1
  Er  Er3  1  0.293176  0.293176  0.708282  1
  Er  Er4  1  0.707819  0.286268  0.707819  1
  Er  Er5  1  0.286268  0.707819  0.707819  1
  Al  Al6  1  0.880494  0.880494  0.880494  1
  Al  Al7  1  0.121018  0.121018  0.639310  1
  Al  Al8  1  0.121018  0.639310  0.121018  1
  Al  Al9  1  0.639310  0.121018  0.121018  1
  Al  Al10  1  0.122159  0.122159  0.122159  1
  Al  Al11  1  0.668923  0.668923  0.996053  1
  Al  Al12  1  0.668923  0.996053  0.668923  1
  Al  Al13  1  0.996053  0.668923  0.668923  1
  Al  Al14  1  0.663547  0.663547  0.663547  1
  Al  Al15  1  0.331637  0.331637  0.007735  1
  Al  Al16  1  0.331637  0.007735  0.331637  1
  Al  Al17  1  0.007735  0.331637  0.331637  1
  Al  Al18  1  0.332365  0.332365  0.332365  1
  Mo  Mo19  1  0.877382  0.877382  0.362462  1
  Mo  Mo20  1  0.877382  0.362462  0.877382  1
  Mo  Mo21  1  0.362462  0.877382  0.877382  1
  Os  Os22  1  0.004835  0.004835  0.004835  1
  Os  Os23  1  0.998197  0.998197  0.497089  1
  Os  Os24  1  0.503656  0.995785  0.503656  1
  Os  Os25  1  0.995785  0.503656  0.503656  1
  Os  Os26  1  0.503656  0.503656  0.995785  1
  Os  Os27  1  0.998197  0.497089  0.998197  1
  Os  Os28  1  0.497089  0.998197  0.998197  1
