# generated using pymatgen
data_TbSm2Y(ReB6)2
_symmetry_space_group_name_H-M   'P 1'
_cell_length_a   3.71974200
_cell_length_b   9.23823602
_cell_length_c   11.66263603
_cell_angle_alpha   90.00820170
_cell_angle_beta   90.00000000
_cell_angle_gamma   90.00000000
_symmetry_Int_Tables_number   1
_chemical_formula_structural   TbSm2Y(ReB6)2
_chemical_formula_sum   'Tb2 Sm4 Y2 Re4 B24'
_cell_volume   400.77312401
_cell_formula_units_Z   2
loop_
 _symmetry_equiv_pos_site_id
 _symmetry_equiv_pos_as_xyz
  1  'x, y, z'
loop_
 _atom_site_type_symbol
 _atom_site_label
 _atom_site_symmetry_multiplicity
 _atom_site_fract_x
 _atom_site_fract_y
 _atom_site_fract_z
 _atom_site_occupancy
  Tb  Tb0  1  0.000000  0.442606  0.130395  1
  Tb  Tb1  1  0.000000  0.557394  0.869605  1
  Sm  Sm2  1  0.000000  0.823310  0.086010  1
  Sm  Sm3  1  0.000000  0.176690  0.913990  1
  Sm  Sm4  1  0.000000  0.323317  0.414013  1
  Sm  Sm5  1  0.000000  0.676683  0.585987  1
  Y  Y6  1  0.000000  0.942659  0.369789  1
  Y  Y7  1  0.000000  0.057341  0.630211  1
  Re  Re8  1  0.000000  0.138450  0.179847  1
  Re  Re9  1  0.000000  0.861550  0.820153  1
  Re  Re10  1  0.000000  0.638675  0.320256  1
  Re  Re11  1  0.000000  0.361325  0.679744  1
  B  B12  1  0.500000  0.053886  0.068414  1
  B  B13  1  0.500000  0.946114  0.931587  1
  B  B14  1  0.500000  0.553950  0.431630  1
  B  B15  1  0.500000  0.446050  0.568369  1
  B  B16  1  0.500000  0.248402  0.083055  1
  B  B17  1  0.500000  0.751598  0.916945  1
  B  B18  1  0.500000  0.748696  0.417030  1
  B  B19  1  0.500000  0.251304  0.582970  1
  B  B20  1  0.500000  0.290793  0.233967  1
  B  B21  1  0.500000  0.709207  0.766033  1
  B  B22  1  0.500000  0.791095  0.266022  1
  B  B23  1  0.500000  0.208905  0.733978  1
  B  B24  1  0.500000  0.130070  0.313668  1
  B  B25  1  0.500000  0.869930  0.686332  1
  B  B26  1  0.500000  0.630268  0.186549  1
  B  B27  1  0.500000  0.369732  0.813451  1
  B  B28  1  0.500000  0.483332  0.287671  1
  B  B29  1  0.500000  0.516668  0.712329  1
  B  B30  1  0.500000  0.983082  0.212431  1
  B  B31  1  0.500000  0.016918  0.787569  1
  B  B32  1  0.500000  0.098489  0.472455  1
  B  B33  1  0.500000  0.901511  0.527545  1
  B  B34  1  0.500000  0.598668  0.027598  1
  B  B35  1  0.500000  0.401332  0.972402  1
