# generated using pymatgen
data_Cs6MnCr(IrBr9)2
_symmetry_space_group_name_H-M   'P 1'
_cell_length_a   7.73498200
_cell_length_b   7.73498158
_cell_length_c   19.58906600
_cell_angle_alpha   90.00000000
_cell_angle_beta   90.00000000
_cell_angle_gamma   119.99999325
_symmetry_Int_Tables_number   1
_chemical_formula_structural   Cs6MnCr(IrBr9)2
_chemical_formula_sum   'Cs6 Mn1 Cr1 Ir2 Br18'
_cell_volume   1014.99284739
_cell_formula_units_Z   1
loop_
 _symmetry_equiv_pos_site_id
 _symmetry_equiv_pos_as_xyz
  1  'x, y, z'
loop_
 _atom_site_type_symbol
 _atom_site_label
 _atom_site_symmetry_multiplicity
 _atom_site_fract_x
 _atom_site_fract_y
 _atom_site_fract_z
 _atom_site_occupancy
  Cs  Cs0  1  0.666667  0.333333  0.933421  1
  Cs  Cs1  1  0.333333  0.666667  0.434389  1
  Cs  Cs2  1  0.666667  0.333333  0.569525  1
  Cs  Cs3  1  0.333333  0.666667  0.070516  1
  Cs  Cs4  1  0.000000  0.000000  0.748574  1
  Cs  Cs5  1  0.000000  0.000000  0.248148  1
  Mn  Mn6  1  0.666667  0.333333  0.340733  1
  Cr  Cr7  1  0.333333  0.666667  0.835638  1
  Ir  Ir8  1  0.333333  0.666667  0.668211  1
  Ir  Ir9  1  0.666667  0.333333  0.167440  1
  Br  Br10  1  0.826210  0.652419  0.405386  1
  Br  Br11  1  0.178485  0.356971  0.904183  1
  Br  Br12  1  0.178485  0.821515  0.904183  1
  Br  Br13  1  0.180266  0.360533  0.595394  1
  Br  Br14  1  0.643029  0.821515  0.904183  1
  Br  Br15  1  0.347581  0.173790  0.405386  1
  Br  Br16  1  0.036182  0.518091  0.749008  1
  Br  Br17  1  0.826210  0.173790  0.405386  1
  Br  Br18  1  0.516864  0.033728  0.246325  1
  Br  Br19  1  0.481909  0.518091  0.749008  1
  Br  Br20  1  0.516864  0.483136  0.246325  1
  Br  Br21  1  0.966272  0.483136  0.246325  1
  Br  Br22  1  0.360653  0.180326  0.094173  1
  Br  Br23  1  0.481909  0.963818  0.749008  1
  Br  Br24  1  0.819674  0.639347  0.094173  1
  Br  Br25  1  0.180266  0.819734  0.595394  1
  Br  Br26  1  0.639467  0.819734  0.595394  1
  Br  Br27  1  0.819674  0.180326  0.094173  1
