# generated using pymatgen
data_Nb2FeP2Rh
_symmetry_space_group_name_H-M   'P 1'
_cell_length_a   3.66212100
_cell_length_b   6.29425300
_cell_length_c   7.12530855
_cell_angle_alpha   90.91880493
_cell_angle_beta   90.00000000
_cell_angle_gamma   90.00000000
_symmetry_Int_Tables_number   1
_chemical_formula_structural   Nb2FeP2Rh
_chemical_formula_sum   'Nb4 Fe2 P4 Rh2'
_cell_volume   164.21949676
_cell_formula_units_Z   2
loop_
 _symmetry_equiv_pos_site_id
 _symmetry_equiv_pos_as_xyz
  1  'x, y, z'
loop_
 _atom_site_type_symbol
 _atom_site_label
 _atom_site_symmetry_multiplicity
 _atom_site_fract_x
 _atom_site_fract_y
 _atom_site_fract_z
 _atom_site_occupancy
  Nb  Nb0  1  0.250000  0.527737  0.164659  1
  Nb  Nb1  1  0.750000  0.472263  0.835341  1
  Nb  Nb2  1  0.750000  0.977004  0.679456  1
  Nb  Nb3  1  0.250000  0.022996  0.320544  1
  Fe  Fe4  1  0.750000  0.862536  0.057674  1
  Fe  Fe5  1  0.250000  0.137464  0.942326  1
  P  P6  1  0.250000  0.780659  0.890160  1
  P  P7  1  0.750000  0.219341  0.109840  1
  P  P8  1  0.750000  0.738341  0.362706  1
  P  P9  1  0.250000  0.261659  0.637294  1
  Rh  Rh10  1  0.250000  0.650805  0.565387  1
  Rh  Rh11  1  0.750000  0.349195  0.434613  1
