# generated using pymatgen
data_CeTm11Co4
_symmetry_space_group_name_H-M   'P 1'
_cell_length_a   6.17723000
_cell_length_b   6.83868541
_cell_length_c   9.38164600
_cell_angle_alpha   90.00000000
_cell_angle_beta   90.00000000
_cell_angle_gamma   91.99819190
_symmetry_Int_Tables_number   1
_chemical_formula_structural   CeTm11Co4
_chemical_formula_sum   'Ce1 Tm11 Co4'
_cell_volume   396.07850773
_cell_formula_units_Z   1
loop_
 _symmetry_equiv_pos_site_id
 _symmetry_equiv_pos_as_xyz
  1  'x, y, z'
loop_
 _atom_site_type_symbol
 _atom_site_label
 _atom_site_symmetry_multiplicity
 _atom_site_fract_x
 _atom_site_fract_y
 _atom_site_fract_z
 _atom_site_occupancy
  Ce  Ce0  1  0.352016  0.559840  0.250000  1
  Tm  Tm1  1  0.673788  0.175173  0.069067  1
  Tm  Tm2  1  0.136875  0.043910  0.250000  1
  Tm  Tm3  1  0.826697  0.674393  0.435255  1
  Tm  Tm4  1  0.323964  0.827429  0.930744  1
  Tm  Tm5  1  0.177928  0.325063  0.567935  1
  Tm  Tm6  1  0.673788  0.175173  0.430933  1
  Tm  Tm7  1  0.177928  0.325063  0.932065  1
  Tm  Tm8  1  0.323964  0.827429  0.569256  1
  Tm  Tm9  1  0.859490  0.958112  0.750000  1
  Tm  Tm10  1  0.643709  0.455255  0.750000  1
  Tm  Tm11  1  0.826697  0.674393  0.064745  1
  Co  Co12  1  0.977467  0.395162  0.250000  1
  Co  Co13  1  0.449670  0.112629  0.750000  1
  Co  Co14  1  0.530423  0.858819  0.250000  1
  Co  Co15  1  0.045594  0.612158  0.750000  1
