# generated using pymatgen
data_TbHo5MnBi2
_symmetry_space_group_name_H-M   'P 1'
_cell_length_a   8.28735520
_cell_length_b   8.28422895
_cell_length_c   4.27806600
_cell_angle_alpha   90.00000000
_cell_angle_beta   90.00000000
_cell_angle_gamma   119.98751707
_symmetry_Int_Tables_number   1
_chemical_formula_structural   TbHo5MnBi2
_chemical_formula_sum   'Tb1 Ho5 Mn1 Bi2'
_cell_volume   254.39043201
_cell_formula_units_Z   1
loop_
 _symmetry_equiv_pos_site_id
 _symmetry_equiv_pos_as_xyz
  1  'x, y, z'
loop_
 _atom_site_type_symbol
 _atom_site_label
 _atom_site_symmetry_multiplicity
 _atom_site_fract_x
 _atom_site_fract_y
 _atom_site_fract_z
 _atom_site_occupancy
  Tb  Tb0  1  0.000000  0.606412  0.500000  1
  Ho  Ho1  1  0.232433  0.000058  0.000000  1
  Ho  Ho2  1  0.391315  0.390946  0.500000  1
  Ho  Ho3  1  0.767567  0.767625  0.000000  1
  Ho  Ho4  1  0.000000  0.233538  0.000000  1
  Ho  Ho5  1  0.608685  0.999630  0.500000  1
  Mn  Mn6  1  0.000000  0.002752  0.500000  1
  Bi  Bi7  1  0.334836  0.666938  0.000000  1
  Bi  Bi8  1  0.665164  0.332101  0.000000  1
