# generated using pymatgen
data_SmEr6Sn23Rh6
_symmetry_space_group_name_H-M   'P 1'
_cell_length_a   9.85102300
_cell_length_b   9.85102174
_cell_length_c   10.10287200
_cell_angle_alpha   90.00000000
_cell_angle_beta   90.00000000
_cell_angle_gamma   120.00000089
_symmetry_Int_Tables_number   1
_chemical_formula_structural   SmEr6Sn23Rh6
_chemical_formula_sum   'Sm1 Er6 Sn23 Rh6'
_cell_volume   849.05942813
_cell_formula_units_Z   1
loop_
 _symmetry_equiv_pos_site_id
 _symmetry_equiv_pos_as_xyz
  1  'x, y, z'
loop_
 _atom_site_type_symbol
 _atom_site_label
 _atom_site_symmetry_multiplicity
 _atom_site_fract_x
 _atom_site_fract_y
 _atom_site_fract_z
 _atom_site_occupancy
  Sm  Sm0  1  0.000000  0.000000  0.000000  1
  Er  Er1  1  0.480054  0.519946  0.307577  1
  Er  Er2  1  0.519946  0.480054  0.692423  1
  Er  Er3  1  0.480054  0.960109  0.307577  1
  Er  Er4  1  0.519946  0.039891  0.692423  1
  Er  Er5  1  0.039891  0.519946  0.307577  1
  Er  Er6  1  0.960109  0.480054  0.692423  1
  Sn  Sn7  1  0.120270  0.879730  0.282091  1
  Sn  Sn8  1  0.879730  0.120270  0.717909  1
  Sn  Sn9  1  0.120270  0.240539  0.282091  1
  Sn  Sn10  1  0.879730  0.759461  0.717909  1
  Sn  Sn11  1  0.759461  0.879730  0.282091  1
  Sn  Sn12  1  0.240539  0.120270  0.717909  1
  Sn  Sn13  1  0.777424  0.222576  0.456119  1
  Sn  Sn14  1  0.222576  0.777424  0.543881  1
  Sn  Sn15  1  0.777424  0.554847  0.456119  1
  Sn  Sn16  1  0.222576  0.445153  0.543881  1
  Sn  Sn17  1  0.445153  0.222576  0.456119  1
  Sn  Sn18  1  0.554847  0.777424  0.543881  1
  Sn  Sn19  1  0.351546  0.000000  0.000000  1
  Sn  Sn20  1  0.648454  0.000000  0.000000  1
  Sn  Sn21  1  0.000000  0.351546  0.000000  1
  Sn  Sn22  1  0.000000  0.648454  0.000000  1
  Sn  Sn23  1  0.648454  0.648454  0.000000  1
  Sn  Sn24  1  0.351546  0.351546  0.000000  1
  Sn  Sn25  1  0.333333  0.666667  0.124365  1
  Sn  Sn26  1  0.666667  0.333333  0.875635  1
  Sn  Sn27  1  0.333333  0.666667  0.821107  1
  Sn  Sn28  1  0.666667  0.333333  0.178893  1
  Sn  Sn29  1  0.000000  0.000000  0.500000  1
  Rh  Rh30  1  0.831022  0.168978  0.198863  1
  Rh  Rh31  1  0.168978  0.831022  0.801137  1
  Rh  Rh32  1  0.831022  0.662046  0.198863  1
  Rh  Rh33  1  0.168978  0.337954  0.801137  1
  Rh  Rh34  1  0.337954  0.168978  0.198863  1
  Rh  Rh35  1  0.662046  0.831022  0.801137  1
