# generated using pymatgen
data_Lu3ThCdIr
_symmetry_space_group_name_H-M   'P 1'
_cell_length_a   9.60588437
_cell_length_b   9.60588450
_cell_length_c   9.60588500
_cell_angle_alpha   60.00000171
_cell_angle_beta   60.00000128
_cell_angle_gamma   60.00000128
_symmetry_Int_Tables_number   1
_chemical_formula_structural   Lu3ThCdIr
_chemical_formula_sum   'Lu12 Th4 Cd4 Ir4'
_cell_volume   626.75399974
_cell_formula_units_Z   4
loop_
 _symmetry_equiv_pos_site_id
 _symmetry_equiv_pos_as_xyz
  1  'x, y, z'
loop_
 _atom_site_type_symbol
 _atom_site_label
 _atom_site_symmetry_multiplicity
 _atom_site_fract_x
 _atom_site_fract_y
 _atom_site_fract_z
 _atom_site_occupancy
  Lu  Lu0  1  0.812435  0.187565  0.187565  1
  Lu  Lu1  1  0.187565  0.812435  0.812435  1
  Lu  Lu2  1  0.187565  0.812435  0.187565  1
  Lu  Lu3  1  0.812435  0.187565  0.812435  1
  Lu  Lu4  1  0.187565  0.187565  0.812435  1
  Lu  Lu5  1  0.812435  0.812435  0.187565  1
  Lu  Lu6  1  0.934344  0.565656  0.565656  1
  Lu  Lu7  1  0.565656  0.934344  0.934344  1
  Lu  Lu8  1  0.565656  0.934344  0.565656  1
  Lu  Lu9  1  0.934344  0.565656  0.934344  1
  Lu  Lu10  1  0.565656  0.565656  0.934344  1
  Lu  Lu11  1  0.934344  0.934344  0.565656  1
  Th  Th12  1  0.351608  0.351608  0.351608  1
  Th  Th13  1  0.351608  0.351608  0.945175  1
  Th  Th14  1  0.351608  0.945175  0.351608  1
  Th  Th15  1  0.945175  0.351608  0.351608  1
  Cd  Cd16  1  0.584267  0.584267  0.584267  1
  Cd  Cd17  1  0.584267  0.584267  0.247199  1
  Cd  Cd18  1  0.584267  0.247199  0.584267  1
  Cd  Cd19  1  0.247199  0.584267  0.584267  1
  Ir  Ir20  1  0.141752  0.141752  0.141752  1
  Ir  Ir21  1  0.141752  0.141752  0.574744  1
  Ir  Ir22  1  0.141752  0.574744  0.141752  1
  Ir  Ir23  1  0.574744  0.141752  0.141752  1
