# generated using pymatgen
data_TbY2Si5
_symmetry_space_group_name_H-M   'P 1'
_cell_length_a   6.68861000
_cell_length_b   6.68586077
_cell_length_c   8.30920900
_cell_angle_alpha   90.00000000
_cell_angle_beta   90.00000000
_cell_angle_gamma   120.01359344
_symmetry_Int_Tables_number   1
_chemical_formula_structural   TbY2Si5
_chemical_formula_sum   'Tb2 Y4 Si10'
_cell_volume   321.75404272
_cell_formula_units_Z   2
loop_
 _symmetry_equiv_pos_site_id
 _symmetry_equiv_pos_as_xyz
  1  'x, y, z'
loop_
 _atom_site_type_symbol
 _atom_site_label
 _atom_site_symmetry_multiplicity
 _atom_site_fract_x
 _atom_site_fract_y
 _atom_site_fract_z
 _atom_site_occupancy
  Tb  Tb0  1  0.330756  0.000000  0.000000  1
  Tb  Tb1  1  0.330756  0.000000  0.500000  1
  Y  Y2  1  0.999976  0.330739  0.499996  1
  Y  Y3  1  0.999976  0.330739  0.000004  1
  Y  Y4  1  0.669237  0.669261  0.999996  1
  Y  Y5  1  0.669237  0.669261  0.500004  1
  Si  Si6  1  0.380327  0.331416  0.250000  1
  Si  Si7  1  0.668864  0.049038  0.250000  1
  Si  Si8  1  0.951043  0.619728  0.250000  1
  Si  Si9  1  0.619827  0.950962  0.750000  1
  Si  Si10  1  0.999898  0.999993  0.250000  1
  Si  Si11  1  0.666677  0.333382  0.750000  1
  Si  Si12  1  0.048912  0.668584  0.750000  1
  Si  Si13  1  0.331315  0.380272  0.750000  1
  Si  Si14  1  0.333294  0.666618  0.250000  1
  Si  Si15  1  0.999905  0.000007  0.750000  1
