# generated using pymatgen
data_DyY2TcB7
_symmetry_space_group_name_H-M   'P 1'
_cell_length_a   8.09499534
_cell_length_b   8.09499504
_cell_length_c   9.35987227
_cell_angle_alpha   90.02698236
_cell_angle_beta   89.97301835
_cell_angle_gamma   154.72759160
_symmetry_Int_Tables_number   1
_chemical_formula_structural   DyY2TcB7
_chemical_formula_sum   'Dy2 Y4 Tc2 B14'
_cell_volume   261.84967810
_cell_formula_units_Z   2
loop_
 _symmetry_equiv_pos_site_id
 _symmetry_equiv_pos_as_xyz
  1  'x, y, z'
loop_
 _atom_site_type_symbol
 _atom_site_label
 _atom_site_symmetry_multiplicity
 _atom_site_fract_x
 _atom_site_fract_y
 _atom_site_fract_z
 _atom_site_occupancy
  Dy  Dy0  1  0.895325  0.104675  0.060018  1
  Dy  Dy1  1  0.104675  0.895325  0.939982  1
  Y  Y2  1  0.895202  0.104798  0.439516  1
  Y  Y3  1  0.104798  0.895202  0.560484  1
  Y  Y4  1  0.241910  0.758090  0.249909  1
  Y  Y5  1  0.758090  0.241910  0.750091  1
  Tc  Tc6  1  0.052954  0.947046  0.249754  1
  Tc  Tc7  1  0.947046  0.052954  0.750246  1
  B  B8  1  0.727056  0.272944  0.466922  1
  B  B9  1  0.272944  0.727056  0.533078  1
  B  B10  1  0.727048  0.272952  0.033024  1
  B  B11  1  0.272952  0.727048  0.966976  1
  B  B12  1  0.631745  0.368255  0.150842  1
  B  B13  1  0.368255  0.631745  0.849158  1
  B  B14  1  0.631778  0.368222  0.348932  1
  B  B15  1  0.368222  0.631778  0.651068  1
  B  B16  1  0.521032  0.478968  0.095813  1
  B  B17  1  0.478968  0.521032  0.904187  1
  B  B18  1  0.521042  0.478958  0.404089  1
  B  B19  1  0.478958  0.521042  0.595911  1
  B  B20  1  0.458116  0.541884  0.249814  1
  B  B21  1  0.541884  0.458116  0.750186  1
