# generated using pymatgen
data_LiHoTmAs2
_symmetry_space_group_name_H-M   'P 1'
_cell_length_a   4.14419100
_cell_length_b   4.14419189
_cell_length_c   13.96120100
_cell_angle_alpha   90.00000000
_cell_angle_beta   90.00000000
_cell_angle_gamma   119.99998492
_symmetry_Int_Tables_number   1
_chemical_formula_structural   LiHoTmAs2
_chemical_formula_sum   'Li2 Ho2 Tm2 As4'
_cell_volume   207.65055541
_cell_formula_units_Z   2
loop_
 _symmetry_equiv_pos_site_id
 _symmetry_equiv_pos_as_xyz
  1  'x, y, z'
loop_
 _atom_site_type_symbol
 _atom_site_label
 _atom_site_symmetry_multiplicity
 _atom_site_fract_x
 _atom_site_fract_y
 _atom_site_fract_z
 _atom_site_occupancy
  Li  Li0  1  0.000000  0.000000  0.749582  1
  Li  Li1  1  0.000000  0.000000  0.249582  1
  Ho  Ho2  1  0.333333  0.666667  0.889497  1
  Ho  Ho3  1  0.666667  0.333333  0.389497  1
  Tm  Tm4  1  0.666667  0.333333  0.110265  1
  Tm  Tm5  1  0.333333  0.666667  0.610265  1
  As  As6  1  0.000000  0.000000  0.001331  1
  As  As7  1  0.333333  0.666667  0.249326  1
  As  As8  1  0.666667  0.333333  0.749326  1
  As  As9  1  0.000000  0.000000  0.501331  1
