# generated using pymatgen
data_TcSCl
_symmetry_space_group_name_H-M   'P 1'
_cell_length_a   9.28904860
_cell_length_b   9.28904893
_cell_length_c   11.18243200
_cell_angle_alpha   90.00000000
_cell_angle_beta   90.00000000
_cell_angle_gamma   104.13467701
_symmetry_Int_Tables_number   1
_chemical_formula_structural   TcSCl
_chemical_formula_sum   'Tc12 S12 Cl12'
_cell_volume   935.67940991
_cell_formula_units_Z   12
loop_
 _symmetry_equiv_pos_site_id
 _symmetry_equiv_pos_as_xyz
  1  'x, y, z'
loop_
 _atom_site_type_symbol
 _atom_site_label
 _atom_site_symmetry_multiplicity
 _atom_site_fract_x
 _atom_site_fract_y
 _atom_site_fract_z
 _atom_site_occupancy
  Tc  Tc0  1  0.375252  0.624748  0.250000  1
  Tc  Tc1  1  0.314047  0.816565  0.099869  1
  Tc  Tc2  1  0.394292  0.897779  0.318746  1
  Tc  Tc3  1  0.624748  0.375252  0.750000  1
  Tc  Tc4  1  0.605708  0.102221  0.818746  1
  Tc  Tc5  1  0.685953  0.183435  0.599869  1
  Tc  Tc6  1  0.816565  0.314047  0.900131  1
  Tc  Tc7  1  0.897779  0.394292  0.681254  1
  Tc  Tc8  1  0.876896  0.123104  0.750000  1
  Tc  Tc9  1  0.102221  0.605708  0.181254  1
  Tc  Tc10  1  0.183435  0.685953  0.400131  1
  Tc  Tc11  1  0.123104  0.876896  0.250000  1
  S  S12  1  0.288101  0.561340  0.049262  1
  S  S13  1  0.438660  0.711899  0.450738  1
  S  S14  1  0.329866  0.062046  0.173058  1
  S  S15  1  0.561340  0.288101  0.950738  1
  S  S16  1  0.711899  0.438660  0.549262  1
  S  S17  1  0.670134  0.937954  0.673058  1
  S  S18  1  0.937954  0.670134  0.326942  1
  S  S19  1  0.790097  0.063283  0.949838  1
  S  S20  1  0.936717  0.209903  0.550162  1
  S  S21  1  0.062046  0.329866  0.826942  1
  S  S22  1  0.063283  0.790097  0.050162  1
  S  S23  1  0.209903  0.936717  0.449838  1
  Cl  Cl24  1  0.465491  0.534509  0.750000  1
  Cl  Cl25  1  0.429010  0.171668  0.672742  1
  Cl  Cl26  1  0.404979  0.893419  0.894262  1
  Cl  Cl27  1  0.534509  0.465491  0.250000  1
  Cl  Cl28  1  0.595021  0.106581  0.394262  1
  Cl  Cl29  1  0.570990  0.828332  0.172742  1
  Cl  Cl30  1  0.828332  0.570990  0.827258  1
  Cl  Cl31  1  0.893419  0.404979  0.105738  1
  Cl  Cl32  1  0.961546  0.038453  0.250000  1
  Cl  Cl33  1  0.106581  0.595021  0.605738  1
  Cl  Cl34  1  0.038453  0.961546  0.750000  1
  Cl  Cl35  1  0.171668  0.429010  0.327258  1
