# generated using pymatgen
data_Pr12Os2I17
_symmetry_space_group_name_H-M   'P 1'
_cell_length_a   10.13718721
_cell_length_b   12.15216141
_cell_length_c   12.20104693
_cell_angle_alpha   93.59440093
_cell_angle_beta   104.67514462
_cell_angle_gamma   114.44693896
_symmetry_Int_Tables_number   1
_chemical_formula_structural   Pr12Os2I17
_chemical_formula_sum   'Pr12 Os2 I17'
_cell_volume   1299.46719792
_cell_formula_units_Z   1
loop_
 _symmetry_equiv_pos_site_id
 _symmetry_equiv_pos_as_xyz
  1  'x, y, z'
loop_
 _atom_site_type_symbol
 _atom_site_label
 _atom_site_symmetry_multiplicity
 _atom_site_fract_x
 _atom_site_fract_y
 _atom_site_fract_z
 _atom_site_occupancy
  Pr  Pr0  1  0.059978  0.513070  0.323948  1
  Pr  Pr1  1  0.989206  0.811989  0.580601  1
  Pr  Pr2  1  0.644633  0.240105  0.284097  1
  Pr  Pr3  1  0.010794  0.188011  0.419399  1
  Pr  Pr4  1  0.224241  0.668993  0.991208  1
  Pr  Pr5  1  0.261762  0.988750  0.893368  1
  Pr  Pr6  1  0.355367  0.759895  0.715903  1
  Pr  Pr7  1  0.940022  0.486930  0.676052  1
  Pr  Pr8  1  0.738238  0.011250  0.106632  1
  Pr  Pr9  1  0.151846  0.287965  0.151690  1
  Pr  Pr10  1  0.775759  0.331007  0.008792  1
  Pr  Pr11  1  0.848154  0.712035  0.848310  1
  Os  Os12  1  0.104206  0.738277  0.785517  1
  Os  Os13  1  0.895794  0.261723  0.214483  1
  I  I14  1  0.785299  0.528841  0.417714  1
  I  I15  1  0.640829  0.419006  0.757840  1
  I  I16  1  0.842391  0.894728  0.323678  1
  I  I17  1  0.324622  0.212151  0.369673  1
  I  I18  1  0.157609  0.105272  0.676322  1
  I  I19  1  0.588068  0.052869  0.843317  1
  I  I20  1  0.753555  0.181984  0.536747  1
  I  I21  1  0.547578  0.706535  0.952496  1
  I  I22  1  0.359171  0.580994  0.242160  1
  I  I23  1  0.214701  0.471159  0.582286  1
  I  I24  1  0.055327  0.367618  0.896995  1
  I  I25  1  0.452422  0.293465  0.047504  1
  I  I26  1  0.000000  0.000000  0.000000  1
  I  I27  1  0.246445  0.818016  0.463253  1
  I  I28  1  0.411932  0.947131  0.156683  1
  I  I29  1  0.675378  0.787849  0.630327  1
  I  I30  1  0.944673  0.632382  0.103005  1
