# generated using pymatgen
data_MgVSb2(SeO3)8
_symmetry_space_group_name_H-M   'P 1'
_cell_length_a   8.22900702
_cell_length_b   8.27816304
_cell_length_c   8.24785764
_cell_angle_alpha   89.29755770
_cell_angle_beta   90.17209143
_cell_angle_gamma   89.64747432
_symmetry_Int_Tables_number   1
_chemical_formula_structural   MgVSb2(SeO3)8
_chemical_formula_sum   'Mg1 V1 Sb2 Se8 O24'
_cell_volume   561.79729780
_cell_formula_units_Z   1
loop_
 _symmetry_equiv_pos_site_id
 _symmetry_equiv_pos_as_xyz
  1  'x, y, z'
loop_
 _atom_site_type_symbol
 _atom_site_label
 _atom_site_symmetry_multiplicity
 _atom_site_fract_x
 _atom_site_fract_y
 _atom_site_fract_z
 _atom_site_occupancy
  Mg  Mg0  1  0.000000  0.500000  0.000000  1
  V  V1  1  0.500000  0.500000  0.500000  1
  Sb  Sb2  1  0.000000  0.000000  0.500000  1
  Sb  Sb3  1  0.500000  0.000000  0.000000  1
  Se  Se4  1  0.330740  0.668048  0.174548  1
  Se  Se5  1  0.824258  0.334623  0.333567  1
  Se  Se6  1  0.671992  0.822640  0.672693  1
  Se  Se7  1  0.165766  0.170344  0.831377  1
  Se  Se8  1  0.669260  0.331952  0.825452  1
  Se  Se9  1  0.175742  0.665377  0.666433  1
  Se  Se10  1  0.328008  0.177360  0.327307  1
  Se  Se11  1  0.834234  0.829656  0.168623  1
  O  O12  1  0.249191  0.533820  0.050911  1
  O  O13  1  0.733429  0.460667  0.476526  1
  O  O14  1  0.757846  0.964258  0.536719  1
  O  O15  1  0.259878  0.022522  0.963496  1
  O  O16  1  0.534607  0.961667  0.759337  1
  O  O17  1  0.481265  0.550446  0.274452  1
  O  O18  1  0.952936  0.462194  0.244853  1
  O  O19  1  0.035173  0.023968  0.739900  1
  O  O20  1  0.963492  0.237710  0.477500  1
  O  O21  1  0.538372  0.736858  0.542779  1
  O  O22  1  0.475865  0.762250  0.038300  1
  O  O23  1  0.037854  0.252605  0.961756  1
  O  O24  1  0.750809  0.466180  0.949089  1
  O  O25  1  0.266571  0.539333  0.523474  1
  O  O26  1  0.242154  0.035742  0.463281  1
  O  O27  1  0.740122  0.977478  0.036504  1
  O  O28  1  0.465393  0.038333  0.240663  1
  O  O29  1  0.518735  0.449554  0.725548  1
  O  O30  1  0.047064  0.537806  0.755147  1
  O  O31  1  0.964827  0.976032  0.260100  1
  O  O32  1  0.036508  0.762290  0.522500  1
  O  O33  1  0.461628  0.263142  0.457221  1
  O  O34  1  0.524135  0.237750  0.961700  1
  O  O35  1  0.962146  0.747395  0.038244  1
