# generated using pymatgen
data_TbHoTa3P7Rh9
_symmetry_space_group_name_H-M   'P 1'
_cell_length_a   3.92251700
_cell_length_b   9.63239531
_cell_length_c   9.63277700
_cell_angle_alpha   120.00177295
_cell_angle_beta   90.00052826
_cell_angle_gamma   89.99815231
_symmetry_Int_Tables_number   1
_chemical_formula_structural   TbHoTa3P7Rh9
_chemical_formula_sum   'Tb1 Ho1 Ta3 P7 Rh9'
_cell_volume   315.19078444
_cell_formula_units_Z   1
loop_
 _symmetry_equiv_pos_site_id
 _symmetry_equiv_pos_as_xyz
  1  'x, y, z'
loop_
 _atom_site_type_symbol
 _atom_site_label
 _atom_site_symmetry_multiplicity
 _atom_site_fract_x
 _atom_site_fract_y
 _atom_site_fract_z
 _atom_site_occupancy
  Tb  Tb0  1  0.261170  0.666671  0.333349  1
  Ho  Ho1  1  0.762248  0.333346  0.666657  1
  Ta  Ta2  1  0.761973  0.094924  0.872903  1
  Ta  Ta3  1  0.761946  0.127115  0.222019  1
  Ta  Ta4  1  0.761977  0.777960  0.905076  1
  P  P5  1  0.262135  0.999985  0.999999  1
  P  P6  1  0.761630  0.877330  0.589066  1
  P  P7  1  0.761594  0.410926  0.288240  1
  P  P8  1  0.761632  0.711741  0.122697  1
  P  P9  1  0.262030  0.117654  0.416362  1
  P  P10  1  0.262019  0.583646  0.701280  1
  P  P11  1  0.261997  0.298693  0.882350  1
  Rh  Rh12  1  0.261874  0.885343  0.161120  1
  Rh  Rh13  1  0.261880  0.838878  0.724225  1
  Rh  Rh14  1  0.261849  0.275767  0.114651  1
  Rh  Rh15  1  0.761890  0.611750  0.558001  1
  Rh  Rh16  1  0.761890  0.441968  0.053727  1
  Rh  Rh17  1  0.761916  0.946304  0.388261  1
  Rh  Rh18  1  0.262098  0.367562  0.439141  1
  Rh  Rh19  1  0.262122  0.560839  0.928425  1
  Rh  Rh20  1  0.262128  0.071599  0.632451  1
