# generated using pymatgen
data_Dy4Co7Ni(PRu)12
_symmetry_space_group_name_H-M   'P 1'
_cell_length_a   3.79227200
_cell_length_b   10.63902464
_cell_length_c   12.10463029
_cell_angle_alpha   89.89291941
_cell_angle_beta   90.00000000
_cell_angle_gamma   90.00000000
_symmetry_Int_Tables_number   1
_chemical_formula_structural   Dy4Co7Ni(PRu)12
_chemical_formula_sum   'Dy4 Co7 Ni1 P12 Ru12'
_cell_volume   488.37347167
_cell_formula_units_Z   1
loop_
 _symmetry_equiv_pos_site_id
 _symmetry_equiv_pos_as_xyz
  1  'x, y, z'
loop_
 _atom_site_type_symbol
 _atom_site_label
 _atom_site_symmetry_multiplicity
 _atom_site_fract_x
 _atom_site_fract_y
 _atom_site_fract_z
 _atom_site_occupancy
  Dy  Dy0  1  0.250000  0.583573  0.706365  1
  Dy  Dy1  1  0.250000  0.915662  0.207410  1
  Dy  Dy2  1  0.750000  0.415043  0.292939  1
  Dy  Dy3  1  0.750000  0.086590  0.793785  1
  Co  Co4  1  0.250000  0.612592  0.195522  1
  Co  Co5  1  0.750000  0.112531  0.304024  1
  Co  Co6  1  0.750000  0.387942  0.804366  1
  Co  Co7  1  0.250000  0.463292  0.934720  1
  Co  Co8  1  0.250000  0.036841  0.433922  1
  Co  Co9  1  0.750000  0.537654  0.064949  1
  Co  Co10  1  0.750000  0.961271  0.567668  1
  Ni  Ni11  1  0.250000  0.888441  0.697613  1
  P  P12  1  0.250000  0.426165  0.112352  1
  P  P13  1  0.250000  0.077357  0.610185  1
  P  P14  1  0.750000  0.574526  0.887185  1
  P  P15  1  0.750000  0.925997  0.388519  1
  P  P16  1  0.250000  0.272788  0.871814  1
  P  P17  1  0.250000  0.227875  0.371050  1
  P  P18  1  0.750000  0.728092  0.128748  1
  P  P19  1  0.750000  0.768121  0.625926  1
  P  P20  1  0.250000  0.600841  0.386096  1
  P  P21  1  0.250000  0.898887  0.890672  1
  P  P22  1  0.750000  0.398111  0.612989  1
  P  P23  1  0.750000  0.101769  0.113697  1
  Ru  Ru24  1  0.250000  0.706529  0.986024  1
  Ru  Ru25  1  0.250000  0.792369  0.487056  1
  Ru  Ru26  1  0.750000  0.293831  0.013688  1
  Ru  Ru27  1  0.750000  0.205306  0.514309  1
  Ru  Ru28  1  0.250000  0.404577  0.485204  1
  Ru  Ru29  1  0.250000  0.095186  0.985445  1
  Ru  Ru30  1  0.750000  0.592742  0.512823  1
  Ru  Ru31  1  0.750000  0.905480  0.014147  1
  Ru  Ru32  1  0.250000  0.223938  0.180189  1
  Ru  Ru33  1  0.250000  0.276850  0.680871  1
  Ru  Ru34  1  0.750000  0.777125  0.818221  1
  Ru  Ru35  1  0.750000  0.724105  0.319507  1
