# generated using pymatgen
data_Li8Dy7YSn7Sb
_symmetry_space_group_name_H-M   'P 1'
_cell_length_a   9.37735200
_cell_length_b   9.37611495
_cell_length_c   7.27963801
_cell_angle_alpha   90.07482352
_cell_angle_beta   90.00000000
_cell_angle_gamma   120.00436452
_symmetry_Int_Tables_number   1
_chemical_formula_structural   Li8Dy7YSn7Sb
_chemical_formula_sum   'Li8 Dy7 Y1 Sn7 Sb1'
_cell_volume   554.27330371
_cell_formula_units_Z   1
loop_
 _symmetry_equiv_pos_site_id
 _symmetry_equiv_pos_as_xyz
  1  'x, y, z'
loop_
 _atom_site_type_symbol
 _atom_site_label
 _atom_site_symmetry_multiplicity
 _atom_site_fract_x
 _atom_site_fract_y
 _atom_site_fract_z
 _atom_site_occupancy
  Li  Li0  1  0.166728  0.333455  0.288687  1
  Li  Li1  1  0.166878  0.833266  0.289086  1
  Li  Li2  1  0.666388  0.833266  0.289086  1
  Li  Li3  1  0.833334  0.666667  0.788680  1
  Li  Li4  1  0.832571  0.166338  0.789593  1
  Li  Li5  1  0.333765  0.166338  0.789593  1
  Li  Li6  1  0.333619  0.667240  0.668509  1
  Li  Li7  1  0.666674  0.333346  0.169379  1
  Dy  Dy8  1  0.515119  0.489354  0.491967  1
  Dy  Dy9  1  0.974236  0.489354  0.491967  1
  Dy  Dy10  1  0.487539  0.975081  0.994460  1
  Dy  Dy11  1  0.489647  0.512909  0.995164  1
  Dy  Dy12  1  0.023261  0.512909  0.995164  1
  Dy  Dy13  1  0.998917  0.997833  0.498747  1
  Dy  Dy14  1  0.999012  0.998023  0.001640  1
  Y  Y15  1  0.512557  0.025112  0.493931  1
  Sn  Sn16  1  0.166385  0.832634  0.729936  1
  Sn  Sn17  1  0.666249  0.832634  0.729936  1
  Sn  Sn18  1  0.833264  0.666529  0.230404  1
  Sn  Sn19  1  0.833882  0.167263  0.229905  1
  Sn  Sn20  1  0.333380  0.167263  0.229905  1
  Sn  Sn21  1  0.332836  0.665675  0.261610  1
  Sn  Sn22  1  0.667014  0.334028  0.762467  1
  Sb  Sb23  1  0.166744  0.333488  0.732178  1
