# generated using pymatgen
data_Y3Th2Al2Ru3
_symmetry_space_group_name_H-M   'P 1'
_cell_length_a   8.41100448
_cell_length_b   8.45567519
_cell_length_c   8.43882904
_cell_angle_alpha   109.12558964
_cell_angle_beta   109.35558785
_cell_angle_gamma   109.57437436
_symmetry_Int_Tables_number   1
_chemical_formula_structural   Y3Th2Al2Ru3
_chemical_formula_sum   'Y6 Th4 Al4 Ru6'
_cell_volume   464.04072771
_cell_formula_units_Z   2
loop_
 _symmetry_equiv_pos_site_id
 _symmetry_equiv_pos_as_xyz
  1  'x, y, z'
loop_
 _atom_site_type_symbol
 _atom_site_label
 _atom_site_symmetry_multiplicity
 _atom_site_fract_x
 _atom_site_fract_y
 _atom_site_fract_z
 _atom_site_occupancy
  Y  Y0  1  0.064241  0.753425  0.816348  1
  Y  Y1  1  0.813509  0.064155  0.750240  1
  Y  Y2  1  0.218526  0.219931  0.215909  1
  Y  Y3  1  0.499771  0.993912  0.277976  1
  Y  Y4  1  0.277407  0.501628  0.996658  1
  Y  Y5  1  0.998927  0.281396  0.507613  1
  Th  Th6  1  0.246968  0.688294  0.441832  1
  Th  Th7  1  0.753791  0.809918  0.059803  1
  Th  Th8  1  0.442669  0.249113  0.689912  1
  Th  Th9  1  0.691904  0.441077  0.249259  1
  Al  Al10  1  0.500694  0.000960  0.908194  1
  Al  Al11  1  0.601572  0.599964  0.595478  1
  Al  Al12  1  0.907750  0.495727  0.993814  1
  Al  Al13  1  0.998104  0.908105  0.507573  1
  Ru  Ru14  1  0.259117  0.133791  0.867124  1
  Ru  Ru15  1  0.732802  0.367980  0.622205  1
  Ru  Ru16  1  0.868121  0.256467  0.134238  1
  Ru  Ru17  1  0.116860  0.864721  0.252254  1
  Ru  Ru18  1  0.621770  0.734609  0.363143  1
  Ru  Ru19  1  0.385503  0.634826  0.750428  1
