# generated using pymatgen
data_LiSc4TcPt2
_symmetry_space_group_name_H-M   'P 1'
_cell_length_a   6.50800000
_cell_length_b   4.65677900
_cell_length_c   9.35474700
_cell_angle_alpha   90.00000612
_cell_angle_beta   90.00051255
_cell_angle_gamma   90.00008093
_symmetry_Int_Tables_number   1
_chemical_formula_structural   LiSc4TcPt2
_chemical_formula_sum   'Li2 Sc8 Tc2 Pt4'
_cell_volume   283.50793488
_cell_formula_units_Z   2
loop_
 _symmetry_equiv_pos_site_id
 _symmetry_equiv_pos_as_xyz
  1  'x, y, z'
loop_
 _atom_site_type_symbol
 _atom_site_label
 _atom_site_symmetry_multiplicity
 _atom_site_fract_x
 _atom_site_fract_y
 _atom_site_fract_z
 _atom_site_occupancy
  Li  Li0  1  0.749971  0.249998  0.125257  1
  Li  Li1  1  0.249962  0.749998  0.374759  1
  Sc  Sc2  1  0.493775  0.750003  0.118785  1
  Sc  Sc3  1  0.006142  0.749996  0.118803  1
  Sc  Sc4  1  0.506103  0.249997  0.381190  1
  Sc  Sc5  1  0.993750  0.250006  0.381220  1
  Sc  Sc6  1  0.994921  0.749994  0.630471  1
  Sc  Sc7  1  0.505216  0.750001  0.630469  1
  Sc  Sc8  1  0.005248  0.250011  0.869533  1
  Sc  Sc9  1  0.494828  0.249996  0.869535  1
  Tc  Tc10  1  0.750040  0.250005  0.621704  1
  Tc  Tc11  1  0.250049  0.750002  0.878275  1
  Pt  Pt12  1  0.249950  0.250000  0.129411  1
  Pt  Pt13  1  0.749944  0.750000  0.370577  1
  Pt  Pt14  1  0.250048  0.250002  0.620158  1
  Pt  Pt15  1  0.750052  0.749999  0.879851  1
