# generated using pymatgen
data_Tm2Pa(Co3P2)3
_symmetry_space_group_name_H-M   'P 1'
_cell_length_a   3.69665300
_cell_length_b   10.49481800
_cell_length_c   12.10762100
_cell_angle_alpha   90.00000000
_cell_angle_beta   90.00000000
_cell_angle_gamma   90.00000000
_symmetry_Int_Tables_number   1
_chemical_formula_structural   Tm2Pa(Co3P2)3
_chemical_formula_sum   'Tm4 Pa2 Co18 P12'
_cell_volume   469.72363741
_cell_formula_units_Z   2
loop_
 _symmetry_equiv_pos_site_id
 _symmetry_equiv_pos_as_xyz
  1  'x, y, z'
loop_
 _atom_site_type_symbol
 _atom_site_label
 _atom_site_symmetry_multiplicity
 _atom_site_fract_x
 _atom_site_fract_y
 _atom_site_fract_z
 _atom_site_occupancy
  Tm  Tm0  1  0.250000  0.934219  0.795120  1
  Tm  Tm1  1  0.250000  0.565781  0.795120  1
  Tm  Tm2  1  0.750000  0.065781  0.204880  1
  Tm  Tm3  1  0.750000  0.434219  0.204880  1
  Pa  Pa4  1  0.750000  0.250000  0.470696  1
  Pa  Pa5  1  0.250000  0.750000  0.529304  1
  Co  Co6  1  0.250000  0.250000  0.841657  1
  Co  Co7  1  0.750000  0.750000  0.158343  1
  Co  Co8  1  0.250000  0.250000  0.302372  1
  Co  Co9  1  0.750000  0.750000  0.697628  1
  Co  Co10  1  0.750000  0.250000  0.015148  1
  Co  Co11  1  0.250000  0.750000  0.984852  1
  Co  Co12  1  0.250000  0.416147  0.006497  1
  Co  Co13  1  0.250000  0.083853  0.006497  1
  Co  Co14  1  0.750000  0.583853  0.993503  1
  Co  Co15  1  0.750000  0.916147  0.993503  1
  Co  Co16  1  0.250000  0.448884  0.568441  1
  Co  Co17  1  0.250000  0.051116  0.568441  1
  Co  Co18  1  0.750000  0.551116  0.431559  1
  Co  Co19  1  0.750000  0.948884  0.431559  1
  Co  Co20  1  0.250000  0.870523  0.288942  1
  Co  Co21  1  0.250000  0.629477  0.288942  1
  Co  Co22  1  0.750000  0.129477  0.711058  1
  Co  Co23  1  0.750000  0.370523  0.711058  1
  P  P24  1  0.250000  0.250000  0.121139  1
  P  P25  1  0.750000  0.750000  0.878861  1
  P  P26  1  0.250000  0.250000  0.656437  1
  P  P27  1  0.750000  0.750000  0.343563  1
  P  P28  1  0.250000  0.442767  0.381908  1
  P  P29  1  0.250000  0.057233  0.381908  1
  P  P30  1  0.750000  0.557233  0.618092  1
  P  P31  1  0.750000  0.942767  0.618092  1
  P  P32  1  0.250000  0.903231  0.105852  1
  P  P33  1  0.250000  0.596769  0.105852  1
  P  P34  1  0.750000  0.096769  0.894148  1
  P  P35  1  0.750000  0.403231  0.894148  1
