# generated using pymatgen
data_DyLu3Al5Tc3
_symmetry_space_group_name_H-M   'P 1'
_cell_length_a   5.46819252
_cell_length_b   5.49105555
_cell_length_c   8.73081131
_cell_angle_alpha   89.99999703
_cell_angle_beta   89.97370173
_cell_angle_gamma   120.13839918
_symmetry_Int_Tables_number   1
_chemical_formula_structural   DyLu3Al5Tc3
_chemical_formula_sum   'Dy1 Lu3 Al5 Tc3'
_cell_volume   226.71353441
_cell_formula_units_Z   1
loop_
 _symmetry_equiv_pos_site_id
 _symmetry_equiv_pos_as_xyz
  1  'x, y, z'
loop_
 _atom_site_type_symbol
 _atom_site_label
 _atom_site_symmetry_multiplicity
 _atom_site_fract_x
 _atom_site_fract_y
 _atom_site_fract_z
 _atom_site_occupancy
  Dy  Dy0  1  0.335744  0.667872  0.443320  1
  Lu  Lu1  1  0.665442  0.332721  0.555389  1
  Lu  Lu2  1  0.665618  0.332809  0.944821  1
  Lu  Lu3  1  0.336262  0.668131  0.056139  1
  Al  Al4  1  0.835475  0.162963  0.249601  1
  Al  Al5  1  0.835475  0.672511  0.249601  1
  Al  Al6  1  0.323546  0.161772  0.249783  1
  Al  Al7  1  0.185854  0.842711  0.750474  1
  Al  Al8  1  0.185854  0.343143  0.750474  1
  Tc  Tc9  1  0.977063  0.988531  0.510404  1
  Tc  Tc10  1  0.977032  0.988516  0.989924  1
  Tc  Tc11  1  0.676636  0.838318  0.750070  1
