# generated using pymatgen
data_La2DyY3CoI10
_symmetry_space_group_name_H-M   'P 1'
_cell_length_a   7.83228447
_cell_length_b   9.86307200
_cell_length_c   9.78338251
_cell_angle_alpha   106.85026445
_cell_angle_beta   95.85432392
_cell_angle_gamma   105.60226256
_symmetry_Int_Tables_number   1
_chemical_formula_structural   La2DyY3CoI10
_chemical_formula_sum   'La2 Dy1 Y3 Co1 I10'
_cell_volume   683.26289630
_cell_formula_units_Z   1
loop_
 _symmetry_equiv_pos_site_id
 _symmetry_equiv_pos_as_xyz
  1  'x, y, z'
loop_
 _atom_site_type_symbol
 _atom_site_label
 _atom_site_symmetry_multiplicity
 _atom_site_fract_x
 _atom_site_fract_y
 _atom_site_fract_z
 _atom_site_occupancy
  La  La0  1  0.886669  0.957910  0.229923  1
  La  La1  1  0.113275  0.041769  0.769970  1
  Dy  Dy2  1  0.028178  0.717245  0.914252  1
  Y  Y3  1  0.971750  0.283703  0.085871  1
  Y  Y4  1  0.654142  0.875125  0.837161  1
  Y  Y5  1  0.345888  0.124857  0.162872  1
  Co  Co6  1  0.999952  0.999481  0.999844  1
  I  I7  1  0.651272  0.552433  0.730403  1
  I  I8  1  0.349240  0.447679  0.269831  1
  I  I9  1  0.729327  0.909439  0.540670  1
  I  I10  1  0.270638  0.090638  0.459350  1
  I  I11  1  0.082495  0.378868  0.823363  1
  I  I12  1  0.917520  0.621037  0.176491  1
  I  I13  1  0.444742  0.816387  0.089045  1
  I  I14  1  0.555029  0.183565  0.910775  1
  I  I15  1  0.225782  0.736439  0.656922  1
  I  I16  1  0.774104  0.263424  0.343256  1
