# generated using pymatgen
data_Ce4Ir3RhPb2
_symmetry_space_group_name_H-M   'P 1'
_cell_length_a   7.82127714
_cell_length_b   7.82127823
_cell_length_c   3.68620300
_cell_angle_alpha   90.00000000
_cell_angle_beta   90.00000000
_cell_angle_gamma   90.41069032
_symmetry_Int_Tables_number   1
_chemical_formula_structural   Ce4Ir3RhPb2
_chemical_formula_sum   'Ce4 Ir3 Rh1 Pb2'
_cell_volume   225.48803491
_cell_formula_units_Z   1
loop_
 _symmetry_equiv_pos_site_id
 _symmetry_equiv_pos_as_xyz
  1  'x, y, z'
loop_
 _atom_site_type_symbol
 _atom_site_label
 _atom_site_symmetry_multiplicity
 _atom_site_fract_x
 _atom_site_fract_y
 _atom_site_fract_z
 _atom_site_occupancy
  Ce  Ce0  1  0.672919  0.166963  0.500000  1
  Ce  Ce1  1  0.333037  0.827081  0.500000  1
  Ce  Ce2  1  0.167433  0.332567  0.500000  1
  Ce  Ce3  1  0.830551  0.669449  0.500000  1
  Ir  Ir4  1  0.132214  0.632165  0.000000  1
  Ir  Ir5  1  0.867835  0.367786  0.000000  1
  Ir  Ir6  1  0.628142  0.871858  0.000000  1
  Rh  Rh7  1  0.363369  0.136631  0.000000  1
  Pb  Pb8  1  0.004170  0.999672  0.000000  1
  Pb  Pb9  1  0.500328  0.495830  0.000000  1
