# generated using pymatgen
data_K2Si2Sn2O7
_symmetry_space_group_name_H-M   'P 1'
_cell_length_a   5.62786200
_cell_length_b   5.62786160
_cell_length_c   7.78082300
_cell_angle_alpha   90.00000000
_cell_angle_beta   90.00000000
_cell_angle_gamma   120.00000235
_symmetry_Int_Tables_number   1
_chemical_formula_structural   K2Si2Sn2O7
_chemical_formula_sum   'K2 Si2 Sn2 O7'
_cell_volume   213.42387746
_cell_formula_units_Z   1
loop_
 _symmetry_equiv_pos_site_id
 _symmetry_equiv_pos_as_xyz
  1  'x, y, z'
loop_
 _atom_site_type_symbol
 _atom_site_label
 _atom_site_symmetry_multiplicity
 _atom_site_fract_x
 _atom_site_fract_y
 _atom_site_fract_z
 _atom_site_occupancy
  K  K0  1  0.666667  0.333333  0.907904  1
  K  K1  1  0.333333  0.666667  0.092096  1
  Si  Si2  1  0.000000  0.000000  0.286822  1
  Si  Si3  1  0.000000  0.000000  0.713178  1
  Sn  Sn4  1  0.333333  0.666667  0.618426  1
  Sn  Sn5  1  0.666667  0.333333  0.381574  1
  O  O6  1  0.829779  0.149205  0.219094  1
  O  O7  1  0.170221  0.850795  0.780906  1
  O  O8  1  0.319426  0.170221  0.219094  1
  O  O9  1  0.000000  0.000000  0.500000  1
  O  O10  1  0.149205  0.319426  0.780906  1
  O  O11  1  0.850795  0.680574  0.219094  1
  O  O12  1  0.680574  0.829779  0.780906  1
