# generated using pymatgen
data_Tb7Ce(ReB6)4
_symmetry_space_group_name_H-M   'P 1'
_cell_length_a   3.71512800
_cell_length_b   9.21369701
_cell_length_c   11.60100901
_cell_angle_alpha   90.04346472
_cell_angle_beta   90.00000000
_cell_angle_gamma   90.00000000
_symmetry_Int_Tables_number   1
_chemical_formula_structural   Tb7Ce(ReB6)4
_chemical_formula_sum   'Tb7 Ce1 Re4 B24'
_cell_volume   397.10316379
_cell_formula_units_Z   1
loop_
 _symmetry_equiv_pos_site_id
 _symmetry_equiv_pos_as_xyz
  1  'x, y, z'
loop_
 _atom_site_type_symbol
 _atom_site_label
 _atom_site_symmetry_multiplicity
 _atom_site_fract_x
 _atom_site_fract_y
 _atom_site_fract_z
 _atom_site_occupancy
  Tb  Tb0  1  0.000000  0.677098  0.586694  1
  Tb  Tb1  1  0.000000  0.823543  0.085515  1
  Tb  Tb2  1  0.000000  0.175868  0.913896  1
  Tb  Tb3  1  0.000000  0.942602  0.369741  1
  Tb  Tb4  1  0.000000  0.056626  0.630620  1
  Tb  Tb5  1  0.000000  0.443102  0.129378  1
  Tb  Tb6  1  0.000000  0.557217  0.870083  1
  Ce  Ce7  1  0.000000  0.323309  0.414008  1
  Re  Re8  1  0.000000  0.637769  0.321220  1
  Re  Re9  1  0.000000  0.361826  0.678433  1
  Re  Re10  1  0.000000  0.138908  0.179412  1
  Re  Re11  1  0.000000  0.861663  0.821045  1
  B  B12  1  0.500000  0.553917  0.432238  1
  B  B13  1  0.500000  0.446094  0.567893  1
  B  B14  1  0.500000  0.053464  0.067028  1
  B  B15  1  0.500000  0.946606  0.932809  1
  B  B16  1  0.500000  0.748924  0.418049  1
  B  B17  1  0.500000  0.251713  0.582767  1
  B  B18  1  0.500000  0.248273  0.081242  1
  B  B19  1  0.500000  0.751484  0.918171  1
  B  B20  1  0.500000  0.791501  0.265589  1
  B  B21  1  0.500000  0.208696  0.735010  1
  B  B22  1  0.500000  0.290842  0.233822  1
  B  B23  1  0.500000  0.708524  0.765644  1
  B  B24  1  0.500000  0.631687  0.185529  1
  B  B25  1  0.500000  0.369197  0.814202  1
  B  B26  1  0.500000  0.131081  0.313386  1
  B  B27  1  0.500000  0.868746  0.686303  1
  B  B28  1  0.500000  0.983167  0.211379  1
  B  B29  1  0.500000  0.016526  0.788466  1
  B  B30  1  0.500000  0.484350  0.287824  1
  B  B31  1  0.500000  0.516968  0.712514  1
  B  B32  1  0.500000  0.601375  0.028035  1
  B  B33  1  0.500000  0.398943  0.971419  1
  B  B34  1  0.500000  0.100266  0.472001  1
  B  B35  1  0.500000  0.898123  0.528635  1
