# generated using pymatgen
data_TiCr(BRu)2
_symmetry_space_group_name_H-M   'P 1'
_cell_length_a   3.00719200
_cell_length_b   8.70604979
_cell_length_c   8.71201446
_cell_angle_alpha   119.97735743
_cell_angle_beta   90.00000000
_cell_angle_gamma   90.00000000
_symmetry_Int_Tables_number   1
_chemical_formula_structural   TiCr(BRu)2
_chemical_formula_sum   'Ti3 Cr3 B6 Ru6'
_cell_volume   197.57435256
_cell_formula_units_Z   3
loop_
 _symmetry_equiv_pos_site_id
 _symmetry_equiv_pos_as_xyz
  1  'x, y, z'
loop_
 _atom_site_type_symbol
 _atom_site_label
 _atom_site_symmetry_multiplicity
 _atom_site_fract_x
 _atom_site_fract_y
 _atom_site_fract_z
 _atom_site_occupancy
  Ti  Ti0  1  0.000000  0.586750  0.000000  1
  Ti  Ti1  1  0.000000  0.413190  0.413229  1
  Ti  Ti2  1  0.000000  0.999962  0.586771  1
  Cr  Cr3  1  0.000000  0.827960  0.827878  1
  Cr  Cr4  1  0.000000  0.000082  0.172122  1
  Cr  Cr5  1  0.000000  0.171914  0.000000  1
  B  B6  1  0.500000  0.000024  0.000000  1
  B  B7  1  0.500000  0.796844  0.000000  1
  B  B8  1  0.500000  0.203172  0.203011  1
  B  B9  1  0.500000  0.000162  0.796989  1
  B  B10  1  0.000000  0.333303  0.666729  1
  B  B11  1  0.000000  0.666575  0.333271  1
  Ru  Ru12  1  0.500000  0.539911  0.724889  1
  Ru  Ru13  1  0.500000  0.184947  0.460098  1
  Ru  Ru14  1  0.500000  0.275117  0.815002  1
  Ru  Ru15  1  0.500000  0.815023  0.275111  1
  Ru  Ru16  1  0.500000  0.724849  0.539902  1
  Ru  Ru17  1  0.500000  0.460115  0.184998  1
