# generated using pymatgen
data_Tm3Sn3GeRuRh
_symmetry_space_group_name_H-M   'P 1'
_cell_length_a   7.35467800
_cell_length_b   7.35467851
_cell_length_c   4.11376700
_cell_angle_alpha   90.00000000
_cell_angle_beta   90.00000000
_cell_angle_gamma   120.00000669
_symmetry_Int_Tables_number   1
_chemical_formula_structural   Tm3Sn3GeRuRh
_chemical_formula_sum   'Tm3 Sn3 Ge1 Ru1 Rh1'
_cell_volume   192.70707053
_cell_formula_units_Z   1
loop_
 _symmetry_equiv_pos_site_id
 _symmetry_equiv_pos_as_xyz
  1  'x, y, z'
loop_
 _atom_site_type_symbol
 _atom_site_label
 _atom_site_symmetry_multiplicity
 _atom_site_fract_x
 _atom_site_fract_y
 _atom_site_fract_z
 _atom_site_occupancy
  Tm  Tm0  1  0.006551  0.409219  0.000000  1
  Tm  Tm1  1  0.590781  0.597332  0.000000  1
  Tm  Tm2  1  0.402668  0.993449  0.000000  1
  Sn  Sn3  1  0.244007  0.258197  0.500000  1
  Sn  Sn4  1  0.014189  0.755993  0.500000  1
  Sn  Sn5  1  0.741803  0.985811  0.500000  1
  Ge  Ge6  1  0.666667  0.333333  0.500000  1
  Ru  Ru7  1  0.000000  0.000000  0.000000  1
  Rh  Rh8  1  0.333333  0.666667  0.500000  1
