# generated using pymatgen
data_YLu9(Ga2Sb)2
_symmetry_space_group_name_H-M   'P 1'
_cell_length_a   8.52706601
_cell_length_b   8.53807710
_cell_length_c   6.39742000
_cell_angle_alpha   90.00000000
_cell_angle_beta   90.00000000
_cell_angle_gamma   120.07050713
_symmetry_Int_Tables_number   1
_chemical_formula_structural   YLu9(Ga2Sb)2
_chemical_formula_sum   'Y1 Lu9 Ga4 Sb2'
_cell_volume   403.07531138
_cell_formula_units_Z   1
loop_
 _symmetry_equiv_pos_site_id
 _symmetry_equiv_pos_as_xyz
  1  'x, y, z'
loop_
 _atom_site_type_symbol
 _atom_site_label
 _atom_site_symmetry_multiplicity
 _atom_site_fract_x
 _atom_site_fract_y
 _atom_site_fract_z
 _atom_site_occupancy
  Y  Y0  1  0.764294  0.751014  0.250000  1
  Lu  Lu1  1  0.313631  0.656886  0.999623  1
  Lu  Lu2  1  0.668401  0.333755  0.501194  1
  Lu  Lu3  1  0.668401  0.333755  0.998806  1
  Lu  Lu4  1  0.313631  0.656886  0.500377  1
  Lu  Lu5  1  0.234801  0.000671  0.250000  1
  Lu  Lu6  1  0.232397  0.232346  0.750000  1
  Lu  Lu7  1  0.015165  0.765933  0.750000  1
  Lu  Lu8  1  0.014385  0.248625  0.250000  1
  Lu  Lu9  1  0.763552  0.014835  0.750000  1
  Ga  Ga10  1  0.998424  0.398669  0.750000  1
  Ga  Ga11  1  0.999509  0.598868  0.250000  1
  Ga  Ga12  1  0.401090  0.396648  0.250000  1
  Ga  Ga13  1  0.401969  0.003552  0.750000  1
  Sb  Sb14  1  0.604398  0.996508  0.250000  1
  Sb  Sb15  1  0.605952  0.611046  0.750000  1
