# generated using pymatgen
data_Y2Er2MoOsC4
_symmetry_space_group_name_H-M   'P 1'
_cell_length_a   5.08502600
_cell_length_b   6.59185668
_cell_length_c   9.87216103
_cell_angle_alpha   89.21481025
_cell_angle_beta   90.00000000
_cell_angle_gamma   90.00000000
_symmetry_Int_Tables_number   1
_chemical_formula_structural   Y2Er2MoOsC4
_chemical_formula_sum   'Y4 Er4 Mo2 Os2 C8'
_cell_volume   330.88142147
_cell_formula_units_Z   2
loop_
 _symmetry_equiv_pos_site_id
 _symmetry_equiv_pos_as_xyz
  1  'x, y, z'
loop_
 _atom_site_type_symbol
 _atom_site_label
 _atom_site_symmetry_multiplicity
 _atom_site_fract_x
 _atom_site_fract_y
 _atom_site_fract_z
 _atom_site_occupancy
  Y  Y0  1  0.250000  0.538229  0.217843  1
  Y  Y1  1  0.750000  0.461771  0.782157  1
  Y  Y2  1  0.750000  0.968410  0.715888  1
  Y  Y3  1  0.250000  0.031590  0.284112  1
  Er  Er4  1  0.250000  0.676646  0.558428  1
  Er  Er5  1  0.750000  0.323354  0.441572  1
  Er  Er6  1  0.750000  0.826071  0.058682  1
  Er  Er7  1  0.250000  0.173929  0.941318  1
  Mo  Mo8  1  0.250000  0.716773  0.867449  1
  Mo  Mo9  1  0.750000  0.283227  0.132551  1
  Os  Os10  1  0.750000  0.779652  0.366808  1
  Os  Os11  1  0.250000  0.220348  0.633192  1
  C  C12  1  0.250000  0.448852  0.757406  1
  C  C13  1  0.750000  0.551148  0.242594  1
  C  C14  1  0.750000  0.046495  0.260736  1
  C  C15  1  0.250000  0.953505  0.739264  1
  C  C16  1  0.250000  0.825877  0.051594  1
  C  C17  1  0.750000  0.174123  0.948406  1
  C  C18  1  0.750000  0.675310  0.548817  1
  C  C19  1  0.250000  0.324690  0.451183  1
