# generated using pymatgen
data_La3Mg2(Sn2Pd)2
_symmetry_space_group_name_H-M   'P 1'
_cell_length_a   8.89281284
_cell_length_b   9.19227541
_cell_length_c   9.19227626
_cell_angle_alpha   149.76315468
_cell_angle_beta   131.44806785
_cell_angle_gamma   58.57978621
_symmetry_Int_Tables_number   1
_chemical_formula_structural   La3Mg2(Sn2Pd)2
_chemical_formula_sum   'La3 Mg2 Sn4 Pd2'
_cell_volume   281.07380871
_cell_formula_units_Z   1
loop_
 _symmetry_equiv_pos_site_id
 _symmetry_equiv_pos_as_xyz
  1  'x, y, z'
loop_
 _atom_site_type_symbol
 _atom_site_label
 _atom_site_symmetry_multiplicity
 _atom_site_fract_x
 _atom_site_fract_y
 _atom_site_fract_z
 _atom_site_occupancy
  La  La0  1  0.345532  0.870711  0.474822  1
  La  La1  1  0.654468  0.129289  0.525178  1
  La  La2  1  0.000000  0.000000  0.000000  1
  Mg  Mg3  1  0.648497  0.331114  0.317384  1
  Mg  Mg4  1  0.351503  0.668886  0.682616  1
  Sn  Sn5  1  0.194289  0.218531  0.975758  1
  Sn  Sn6  1  0.805711  0.781469  0.024242  1
  Sn  Sn7  1  0.699104  0.503562  0.195542  1
  Sn  Sn8  1  0.300896  0.496438  0.804458  1
  Pd  Pd9  1  0.012183  0.331300  0.680886  1
  Pd  Pd10  1  0.987817  0.668700  0.319114  1
