# generated using pymatgen
data_TmCo2(PIr)3
_symmetry_space_group_name_H-M   'P 1'
_cell_length_a   3.85518000
_cell_length_b   10.59495900
_cell_length_c   12.18854400
_cell_angle_alpha   90.00000000
_cell_angle_beta   90.00000000
_cell_angle_gamma   90.00000000
_symmetry_Int_Tables_number   1
_chemical_formula_structural   TmCo2(PIr)3
_chemical_formula_sum   'Tm4 Co8 P12 Ir12'
_cell_volume   497.84685751
_cell_formula_units_Z   4
loop_
 _symmetry_equiv_pos_site_id
 _symmetry_equiv_pos_as_xyz
  1  'x, y, z'
loop_
 _atom_site_type_symbol
 _atom_site_label
 _atom_site_symmetry_multiplicity
 _atom_site_fract_x
 _atom_site_fract_y
 _atom_site_fract_z
 _atom_site_occupancy
  Tm  Tm0  1  0.250000  0.584868  0.710396  1
  Tm  Tm1  1  0.250000  0.915132  0.210396  1
  Tm  Tm2  1  0.750000  0.415132  0.289604  1
  Tm  Tm3  1  0.750000  0.084868  0.789604  1
  Co  Co4  1  0.250000  0.884542  0.697474  1
  Co  Co5  1  0.250000  0.615458  0.197474  1
  Co  Co6  1  0.750000  0.115458  0.302526  1
  Co  Co7  1  0.750000  0.384542  0.802526  1
  Co  Co8  1  0.250000  0.464235  0.933296  1
  Co  Co9  1  0.250000  0.035765  0.433296  1
  Co  Co10  1  0.750000  0.535765  0.066704  1
  Co  Co11  1  0.750000  0.964235  0.566704  1
  P  P12  1  0.250000  0.432216  0.111472  1
  P  P13  1  0.250000  0.067784  0.611472  1
  P  P14  1  0.750000  0.567784  0.888528  1
  P  P15  1  0.750000  0.932216  0.388528  1
  P  P16  1  0.250000  0.274364  0.870459  1
  P  P17  1  0.250000  0.225636  0.370459  1
  P  P18  1  0.750000  0.725636  0.129541  1
  P  P19  1  0.750000  0.774364  0.629541  1
  P  P20  1  0.250000  0.597284  0.376525  1
  P  P21  1  0.250000  0.902716  0.876525  1
  P  P22  1  0.750000  0.402716  0.623475  1
  P  P23  1  0.750000  0.097284  0.123475  1
  Ir  Ir24  1  0.250000  0.723751  0.990967  1
  Ir  Ir25  1  0.250000  0.776249  0.490967  1
  Ir  Ir26  1  0.750000  0.276249  0.009033  1
  Ir  Ir27  1  0.750000  0.223751  0.509033  1
  Ir  Ir28  1  0.250000  0.410531  0.475655  1
  Ir  Ir29  1  0.250000  0.089469  0.975655  1
  Ir  Ir30  1  0.750000  0.589469  0.524345  1
  Ir  Ir31  1  0.750000  0.910531  0.024345  1
  Ir  Ir32  1  0.250000  0.228324  0.179147  1
  Ir  Ir33  1  0.250000  0.271676  0.679147  1
  Ir  Ir34  1  0.750000  0.771676  0.820853  1
  Ir  Ir35  1  0.750000  0.728324  0.320853  1
