# generated using pymatgen
data_Er6Ti8Al8Os7
_symmetry_space_group_name_H-M   'P 1'
_cell_length_a   9.02404370
_cell_length_b   9.02404391
_cell_length_c   9.02404400
_cell_angle_alpha   59.99999966
_cell_angle_beta   59.99999889
_cell_angle_gamma   60.00000003
_symmetry_Int_Tables_number   1
_chemical_formula_structural   Er6Ti8Al8Os7
_chemical_formula_sum   'Er6 Ti8 Al8 Os7'
_cell_volume   519.62326945
_cell_formula_units_Z   1
loop_
 _symmetry_equiv_pos_site_id
 _symmetry_equiv_pos_as_xyz
  1  'x, y, z'
loop_
 _atom_site_type_symbol
 _atom_site_label
 _atom_site_symmetry_multiplicity
 _atom_site_fract_x
 _atom_site_fract_y
 _atom_site_fract_z
 _atom_site_occupancy
  Er  Er0  1  0.702303  0.702303  0.297697  1
  Er  Er1  1  0.297697  0.702303  0.297697  1
  Er  Er2  1  0.702303  0.297697  0.297697  1
  Er  Er3  1  0.297697  0.297697  0.702303  1
  Er  Er4  1  0.702303  0.297697  0.702303  1
  Er  Er5  1  0.297697  0.702303  0.702303  1
  Ti  Ti6  1  0.878920  0.878920  0.363241  1
  Ti  Ti7  1  0.878920  0.363241  0.878920  1
  Ti  Ti8  1  0.363241  0.878920  0.878920  1
  Ti  Ti9  1  0.878920  0.878920  0.878920  1
  Ti  Ti10  1  0.121080  0.121080  0.636759  1
  Ti  Ti11  1  0.121080  0.636759  0.121080  1
  Ti  Ti12  1  0.636759  0.121080  0.121080  1
  Ti  Ti13  1  0.121080  0.121080  0.121080  1
  Al  Al14  1  0.669045  0.669045  0.992866  1
  Al  Al15  1  0.669045  0.992866  0.669045  1
  Al  Al16  1  0.992866  0.669045  0.669045  1
  Al  Al17  1  0.669045  0.669045  0.669045  1
  Al  Al18  1  0.330955  0.330955  0.007134  1
  Al  Al19  1  0.330955  0.007134  0.330955  1
  Al  Al20  1  0.007134  0.330955  0.330955  1
  Al  Al21  1  0.330955  0.330955  0.330955  1
  Os  Os22  1  0.000000  0.000000  0.000000  1
  Os  Os23  1  0.000000  0.000000  0.500000  1
  Os  Os24  1  0.500000  0.000000  0.500000  1
  Os  Os25  1  0.000000  0.500000  0.500000  1
  Os  Os26  1  0.500000  0.500000  0.000000  1
  Os  Os27  1  0.000000  0.500000  0.000000  1
  Os  Os28  1  0.500000  0.000000  0.000000  1
