# generated using pymatgen
data_Pr2SiPd14
_symmetry_space_group_name_H-M   'P 1'
_cell_length_a   8.97605800
_cell_length_b   8.97605800
_cell_length_c   7.21448500
_cell_angle_alpha   90.00000000
_cell_angle_beta   90.00000000
_cell_angle_gamma   90.00000000
_symmetry_Int_Tables_number   1
_chemical_formula_structural   Pr2SiPd14
_chemical_formula_sum   'Pr4 Si2 Pd28'
_cell_volume   581.26829488
_cell_formula_units_Z   2
loop_
 _symmetry_equiv_pos_site_id
 _symmetry_equiv_pos_as_xyz
  1  'x, y, z'
loop_
 _atom_site_type_symbol
 _atom_site_label
 _atom_site_symmetry_multiplicity
 _atom_site_fract_x
 _atom_site_fract_y
 _atom_site_fract_z
 _atom_site_occupancy
  Pr  Pr0  1  0.500000  0.000000  0.936998  1
  Pr  Pr1  1  0.000000  0.500000  0.063002  1
  Pr  Pr2  1  0.000000  0.000000  0.500000  1
  Pr  Pr3  1  0.500000  0.500000  0.500000  1
  Si  Si4  1  0.500000  0.000000  0.449224  1
  Si  Si5  1  0.000000  0.500000  0.550776  1
  Pd  Pd6  1  0.334533  0.834533  0.614704  1
  Pd  Pd7  1  0.334533  0.165467  0.614704  1
  Pd  Pd8  1  0.665467  0.834533  0.614704  1
  Pd  Pd9  1  0.665467  0.165467  0.614704  1
  Pd  Pd10  1  0.165467  0.665467  0.385296  1
  Pd  Pd11  1  0.165467  0.334533  0.385296  1
  Pd  Pd12  1  0.834533  0.665467  0.385296  1
  Pd  Pd13  1  0.834533  0.334533  0.385296  1
  Pd  Pd14  1  0.500000  0.771106  0.257255  1
  Pd  Pd15  1  0.500000  0.228894  0.257255  1
  Pd  Pd16  1  0.271106  0.000000  0.257255  1
  Pd  Pd17  1  0.728894  0.000000  0.257255  1
  Pd  Pd18  1  0.000000  0.728894  0.742745  1
  Pd  Pd19  1  0.000000  0.271106  0.742745  1
  Pd  Pd20  1  0.228894  0.500000  0.742745  1
  Pd  Pd21  1  0.771106  0.500000  0.742745  1
  Pd  Pd22  1  0.500000  0.348379  0.857297  1
  Pd  Pd23  1  0.500000  0.651621  0.857297  1
  Pd  Pd24  1  0.848379  0.000000  0.857297  1
  Pd  Pd25  1  0.151621  0.000000  0.857297  1
  Pd  Pd26  1  0.000000  0.151621  0.142703  1
  Pd  Pd27  1  0.000000  0.848379  0.142703  1
  Pd  Pd28  1  0.651621  0.500000  0.142703  1
  Pd  Pd29  1  0.348379  0.500000  0.142703  1
  Pd  Pd30  1  0.250000  0.750000  0.000000  1
  Pd  Pd31  1  0.250000  0.250000  0.000000  1
  Pd  Pd32  1  0.750000  0.750000  0.000000  1
  Pd  Pd33  1  0.750000  0.250000  0.000000  1
