# generated using pymatgen
data_Pr4Nd4Sc12Si15Sn
_symmetry_space_group_name_H-M   'P 1'
_cell_length_a   7.28720336
_cell_length_b   7.56357052
_cell_length_c   14.31841329
_cell_angle_alpha   89.96200914
_cell_angle_beta   89.67002149
_cell_angle_gamma   90.11015830
_symmetry_Int_Tables_number   1
_chemical_formula_structural   Pr4Nd4Sc12Si15Sn
_chemical_formula_sum   'Pr4 Nd4 Sc12 Si15 Sn1'
_cell_volume   789.17721798
_cell_formula_units_Z   1
loop_
 _symmetry_equiv_pos_site_id
 _symmetry_equiv_pos_as_xyz
  1  'x, y, z'
loop_
 _atom_site_type_symbol
 _atom_site_label
 _atom_site_symmetry_multiplicity
 _atom_site_fract_x
 _atom_site_fract_y
 _atom_site_fract_z
 _atom_site_occupancy
  Pr  Pr0  1  0.987429  0.834418  0.598970  1
  Pr  Pr1  1  0.987135  0.827630  0.902824  1
  Pr  Pr2  1  0.512104  0.327746  0.097965  1
  Pr  Pr3  1  0.013062  0.172802  0.097888  1
  Nd  Nd4  1  0.008207  0.166598  0.398260  1
  Nd  Nd5  1  0.513026  0.324565  0.398405  1
  Nd  Nd6  1  0.488266  0.672503  0.902538  1
  Nd  Nd7  1  0.499402  0.679884  0.600811  1
  Sc  Sc8  1  0.341373  0.163996  0.630199  1
  Sc  Sc9  1  0.665282  0.824984  0.372970  1
  Sc  Sc10  1  0.660359  0.002289  0.751972  1
  Sc  Sc11  1  0.167517  0.681738  0.370068  1
  Sc  Sc12  1  0.830295  0.324278  0.875682  1
  Sc  Sc13  1  0.820044  0.323291  0.626487  1
  Sc  Sc14  1  0.839776  0.502101  0.249270  1
  Sc  Sc15  1  0.340461  0.997892  0.249295  1
  Sc  Sc16  1  0.329352  0.175128  0.875308  1
  Sc  Sc17  1  0.169859  0.675723  0.124950  1
  Sc  Sc18  1  0.670096  0.823794  0.124319  1
  Sc  Sc19  1  0.160586  0.498867  0.755457  1
  Si  Si20  1  0.288120  0.879741  0.751868  1
  Si  Si21  1  0.465130  0.625504  0.248799  1
  Si  Si22  1  0.034607  0.128295  0.751104  1
  Si  Si23  1  0.533561  0.375720  0.751790  1
  Si  Si24  1  0.963351  0.874939  0.247724  1
  Si  Si25  1  0.710643  0.115635  0.248432  1
  Si  Si26  1  0.848640  0.536510  0.039966  1
  Si  Si27  1  0.349045  0.962750  0.039633  1
  Si  Si28  1  0.151649  0.463604  0.960782  1
  Si  Si29  1  0.652995  0.039538  0.538119  1
  Si  Si30  1  0.346312  0.962478  0.459838  1
  Si  Si31  1  0.836372  0.540927  0.457396  1
  Si  Si32  1  0.791171  0.616447  0.751201  1
  Si  Si33  1  0.210236  0.383662  0.249729  1
  Si  Si34  1  0.650167  0.036711  0.960456  1
  Sn  Sn35  1  0.164369  0.457312  0.539523  1
