# generated using pymatgen
data_Tb4Dy8GaNi2HgOs2
_symmetry_space_group_name_H-M   'P 1'
_cell_length_a   8.34852073
_cell_length_b   8.35536209
_cell_length_c   8.34852100
_cell_angle_alpha   112.95018601
_cell_angle_beta   110.26105775
_cell_angle_gamma   105.26214465
_symmetry_Int_Tables_number   1
_chemical_formula_structural   Tb4Dy8GaNi2HgOs2
_chemical_formula_sum   'Tb4 Dy8 Ga1 Ni2 Hg1 Os2'
_cell_volume   446.41932589
_cell_formula_units_Z   1
loop_
 _symmetry_equiv_pos_site_id
 _symmetry_equiv_pos_as_xyz
  1  'x, y, z'
loop_
 _atom_site_type_symbol
 _atom_site_label
 _atom_site_symmetry_multiplicity
 _atom_site_fract_x
 _atom_site_fract_y
 _atom_site_fract_z
 _atom_site_occupancy
  Tb  Tb0  1  0.049718  0.742506  0.307804  1
  Tb  Tb1  1  0.950282  0.257494  0.692196  1
  Tb  Tb2  1  0.565297  0.257494  0.307212  1
  Tb  Tb3  1  0.434703  0.742506  0.692788  1
  Dy  Dy4  1  0.670047  0.856358  0.186313  1
  Dy  Dy5  1  0.329745  0.515892  0.186146  1
  Dy  Dy6  1  0.329954  0.143642  0.813687  1
  Dy  Dy7  1  0.670256  0.484108  0.813854  1
  Dy  Dy8  1  0.179556  0.223063  0.401984  1
  Dy  Dy9  1  0.821079  0.223063  0.043507  1
  Dy  Dy10  1  0.178921  0.776937  0.956493  1
  Dy  Dy11  1  0.820444  0.776937  0.598016  1
  Ga  Ga12  1  0.000000  0.500000  0.500000  1
  Ni  Ni13  1  0.884211  0.884473  0.000261  1
  Ni  Ni14  1  0.115789  0.115527  0.999739  1
  Hg  Hg15  1  0.500000  0.000000  0.500000  1
  Os  Os16  1  0.671222  0.500000  0.171222  1
  Os  Os17  1  0.328778  0.500000  0.828778  1
