# generated using pymatgen
data_Nd2ScSbO7
_symmetry_space_group_name_H-M   'P 1'
_cell_length_a   7.52626342
_cell_length_b   7.52626261
_cell_length_c   7.52626404
_cell_angle_alpha   120.30694146
_cell_angle_beta   119.53831064
_cell_angle_gamma   90.13535604
_symmetry_Int_Tables_number   1
_chemical_formula_structural   Nd2ScSbO7
_chemical_formula_sum   'Nd4 Sc2 Sb2 O14'
_cell_volume   301.79022749
_cell_formula_units_Z   2
loop_
 _symmetry_equiv_pos_site_id
 _symmetry_equiv_pos_as_xyz
  1  'x, y, z'
loop_
 _atom_site_type_symbol
 _atom_site_label
 _atom_site_symmetry_multiplicity
 _atom_site_fract_x
 _atom_site_fract_y
 _atom_site_fract_z
 _atom_site_occupancy
  Nd  Nd0  1  0.500000  0.500000  0.500000  1
  Nd  Nd1  1  0.500000  0.000000  0.000000  1
  Nd  Nd2  1  0.500000  0.500000  0.000000  1
  Nd  Nd3  1  0.000000  0.500000  0.500000  1
  Sc  Sc4  1  0.000000  0.000000  0.500000  1
  Sc  Sc5  1  0.000000  0.500000  0.000000  1
  Sb  Sb6  1  0.000000  0.000000  0.000000  1
  Sb  Sb7  1  0.500000  0.000000  0.500000  1
  O  O8  1  0.377032  0.627032  0.750000  1
  O  O9  1  0.622968  0.372968  0.250000  1
  O  O10  1  0.321978  0.071978  0.250000  1
  O  O11  1  0.908164  0.658164  0.250000  1
  O  O12  1  0.341553  0.677999  0.268527  1
  O  O13  1  0.909471  0.073026  0.231473  1
  O  O14  1  0.341553  0.073026  0.663554  1
  O  O15  1  0.909471  0.677999  0.836446  1
  O  O16  1  0.678022  0.928022  0.750000  1
  O  O17  1  0.091836  0.341836  0.750000  1
  O  O18  1  0.658447  0.322001  0.731473  1
  O  O19  1  0.090529  0.926974  0.768527  1
  O  O20  1  0.658447  0.926974  0.336446  1
  O  O21  1  0.090529  0.322001  0.163554  1
