# generated using pymatgen
data_Ho3Pa(ReN3)4
_symmetry_space_group_name_H-M   'P 1'
_cell_length_a   5.35380652
_cell_length_b   5.67200357
_cell_length_c   7.74021300
_cell_angle_alpha   90.00000000
_cell_angle_beta   90.00000000
_cell_angle_gamma   90.22868979
_symmetry_Int_Tables_number   1
_chemical_formula_structural   Ho3Pa(ReN3)4
_chemical_formula_sum   'Ho3 Pa1 Re4 N12'
_cell_volume   235.04370300
_cell_formula_units_Z   1
loop_
 _symmetry_equiv_pos_site_id
 _symmetry_equiv_pos_as_xyz
  1  'x, y, z'
loop_
 _atom_site_type_symbol
 _atom_site_label
 _atom_site_symmetry_multiplicity
 _atom_site_fract_x
 _atom_site_fract_y
 _atom_site_fract_z
 _atom_site_occupancy
  Ho  Ho0  1  0.485778  0.434046  0.250000  1
  Ho  Ho1  1  0.012837  0.932231  0.250000  1
  Ho  Ho2  1  0.517834  0.570525  0.750000  1
  Pa  Pa3  1  0.979232  0.071260  0.750000  1
  Re  Re4  1  0.491123  0.999137  0.494305  1
  Re  Re5  1  0.000548  0.497999  0.006171  1
  Re  Re6  1  0.000548  0.497999  0.493829  1
  Re  Re7  1  0.491123  0.999137  0.005695  1
  N  N8  1  0.697768  0.297010  0.550619  1
  N  N9  1  0.303653  0.705013  0.047686  1
  N  N10  1  0.197395  0.205142  0.046149  1
  N  N11  1  0.397551  0.972418  0.750000  1
  N  N12  1  0.915128  0.518471  0.250000  1
  N  N13  1  0.303653  0.705013  0.452314  1
  N  N14  1  0.813440  0.806556  0.945344  1
  N  N15  1  0.697768  0.297010  0.949381  1
  N  N16  1  0.813440  0.806556  0.554656  1
  N  N17  1  0.099563  0.461737  0.750000  1
  N  N18  1  0.197395  0.205142  0.453851  1
  N  N19  1  0.584221  0.017596  0.250000  1
