# generated using pymatgen
data_TbLu(GaPd)2
_symmetry_space_group_name_H-M   'P 1'
_cell_length_a   4.46228700
_cell_length_b   6.86495266
_cell_length_c   7.65869629
_cell_angle_alpha   88.26031620
_cell_angle_beta   90.00000000
_cell_angle_gamma   90.00000000
_symmetry_Int_Tables_number   1
_chemical_formula_structural   TbLu(GaPd)2
_chemical_formula_sum   'Tb2 Lu2 Ga4 Pd4'
_cell_volume   234.50368399
_cell_formula_units_Z   2
loop_
 _symmetry_equiv_pos_site_id
 _symmetry_equiv_pos_as_xyz
  1  'x, y, z'
loop_
 _atom_site_type_symbol
 _atom_site_label
 _atom_site_symmetry_multiplicity
 _atom_site_fract_x
 _atom_site_fract_y
 _atom_site_fract_z
 _atom_site_occupancy
  Tb  Tb0  1  0.250000  0.981527  0.299268  1
  Tb  Tb1  1  0.750000  0.018473  0.700732  1
  Lu  Lu2  1  0.250000  0.483338  0.197023  1
  Lu  Lu3  1  0.750000  0.516662  0.802977  1
  Ga  Ga4  1  0.250000  0.819289  0.924245  1
  Ga  Ga5  1  0.750000  0.180711  0.075755  1
  Ga  Ga6  1  0.250000  0.324373  0.573906  1
  Ga  Ga7  1  0.750000  0.675627  0.426094  1
  Pd  Pd8  1  0.750000  0.773110  0.094466  1
  Pd  Pd9  1  0.250000  0.226890  0.905534  1
  Pd  Pd10  1  0.750000  0.284641  0.399654  1
  Pd  Pd11  1  0.250000  0.715359  0.600346  1
