# generated using pymatgen
data_HoLuAl3Pt4
_symmetry_space_group_name_H-M   'P 1'
_cell_length_a   8.08515996
_cell_length_b   8.08516009
_cell_length_c   7.60696625
_cell_angle_alpha   90.11355007
_cell_angle_beta   89.88644804
_cell_angle_gamma   139.93250547
_symmetry_Int_Tables_number   1
_chemical_formula_structural   HoLuAl3Pt4
_chemical_formula_sum   'Ho2 Lu2 Al6 Pt8'
_cell_volume   320.08419637
_cell_formula_units_Z   2
loop_
 _symmetry_equiv_pos_site_id
 _symmetry_equiv_pos_as_xyz
  1  'x, y, z'
loop_
 _atom_site_type_symbol
 _atom_site_label
 _atom_site_symmetry_multiplicity
 _atom_site_fract_x
 _atom_site_fract_y
 _atom_site_fract_z
 _atom_site_occupancy
  Ho  Ho0  1  0.393415  0.606585  0.908100  1
  Ho  Ho1  1  0.606585  0.393415  0.091900  1
  Lu  Lu2  1  0.106267  0.893733  0.408273  1
  Lu  Lu3  1  0.893733  0.106267  0.591727  1
  Al  Al4  1  0.000000  0.000000  0.000000  1
  Al  Al5  1  0.500000  0.500000  0.500000  1
  Al  Al6  1  0.022977  0.476984  0.250622  1
  Al  Al7  1  0.476984  0.022977  0.749378  1
  Al  Al8  1  0.977023  0.523016  0.749378  1
  Al  Al9  1  0.523016  0.977023  0.250622  1
  Pt  Pt10  1  0.190729  0.307621  0.251855  1
  Pt  Pt11  1  0.307621  0.190729  0.748145  1
  Pt  Pt12  1  0.809271  0.692379  0.748145  1
  Pt  Pt13  1  0.692379  0.809271  0.251855  1
  Pt  Pt14  1  0.183862  0.816138  0.029327  1
  Pt  Pt15  1  0.816138  0.183862  0.970673  1
  Pt  Pt16  1  0.316563  0.683437  0.528897  1
  Pt  Pt17  1  0.683437  0.316563  0.471103  1
