# generated using pymatgen
data_Dy3InHg4
_symmetry_space_group_name_H-M   'P 1'
_cell_length_a   6.36948460
_cell_length_b   6.36948397
_cell_length_c   10.20587400
_cell_angle_alpha   90.00000000
_cell_angle_beta   90.00000000
_cell_angle_gamma   104.51837162
_symmetry_Int_Tables_number   1
_chemical_formula_structural   Dy3InHg4
_chemical_formula_sum   'Dy6 In2 Hg8'
_cell_volume   400.83376414
_cell_formula_units_Z   2
loop_
 _symmetry_equiv_pos_site_id
 _symmetry_equiv_pos_as_xyz
  1  'x, y, z'
loop_
 _atom_site_type_symbol
 _atom_site_label
 _atom_site_symmetry_multiplicity
 _atom_site_fract_x
 _atom_site_fract_y
 _atom_site_fract_z
 _atom_site_occupancy
  Dy  Dy0  1  0.786576  0.213424  0.000000  1
  Dy  Dy1  1  0.213424  0.786576  0.000000  1
  Dy  Dy2  1  0.213424  0.786576  0.500000  1
  Dy  Dy3  1  0.786576  0.213424  0.500000  1
  Dy  Dy4  1  0.566332  0.566332  0.250000  1
  Dy  Dy5  1  0.433668  0.433668  0.750000  1
  In  In6  1  0.990718  0.990718  0.250000  1
  In  In7  1  0.009282  0.009282  0.750000  1
  Hg  Hg8  1  0.036231  0.491032  0.250000  1
  Hg  Hg9  1  0.963769  0.508968  0.750000  1
  Hg  Hg10  1  0.491032  0.036231  0.250000  1
  Hg  Hg11  1  0.508968  0.963769  0.750000  1
  Hg  Hg12  1  0.291631  0.291631  0.028779  1
  Hg  Hg13  1  0.708369  0.708369  0.971221  1
  Hg  Hg14  1  0.708369  0.708369  0.528779  1
  Hg  Hg15  1  0.291631  0.291631  0.471221  1
