# generated using pymatgen
data_Tb2Ho14CdHg3Ir4
_symmetry_space_group_name_H-M   'P 1'
_cell_length_a   9.58092476
_cell_length_b   9.58351181
_cell_length_c   9.58174500
_cell_angle_alpha   60.00609494
_cell_angle_beta   59.99716449
_cell_angle_gamma   59.97069104
_symmetry_Int_Tables_number   1
_chemical_formula_structural   Tb2Ho14CdHg3Ir4
_chemical_formula_sum   'Tb2 Ho14 Cd1 Hg3 Ir4'
_cell_volume   621.97957174
_cell_formula_units_Z   1
loop_
 _symmetry_equiv_pos_site_id
 _symmetry_equiv_pos_as_xyz
  1  'x, y, z'
loop_
 _atom_site_type_symbol
 _atom_site_label
 _atom_site_symmetry_multiplicity
 _atom_site_fract_x
 _atom_site_fract_y
 _atom_site_fract_z
 _atom_site_occupancy
  Tb  Tb0  1  0.811747  0.812427  0.187913  1
  Tb  Tb1  1  0.187051  0.188456  0.812247  1
  Ho  Ho2  1  0.600403  0.599866  0.599459  1
  Ho  Ho3  1  0.600403  0.599866  0.200272  1
  Ho  Ho4  1  0.600923  0.199482  0.599797  1
  Ho  Ho5  1  0.196792  0.601380  0.600915  1
  Ho  Ho6  1  0.059506  0.439709  0.440451  1
  Ho  Ho7  1  0.438568  0.060401  0.061026  1
  Ho  Ho8  1  0.438568  0.060401  0.440005  1
  Ho  Ho9  1  0.059506  0.439709  0.060333  1
  Ho  Ho10  1  0.439086  0.439788  0.060563  1
  Ho  Ho11  1  0.059677  0.059907  0.440207  1
  Ho  Ho12  1  0.187758  0.811576  0.811744  1
  Ho  Ho13  1  0.811059  0.188809  0.188297  1
  Ho  Ho14  1  0.811059  0.188809  0.811837  1
  Ho  Ho15  1  0.187758  0.811576  0.188923  1
  Cd  Cd16  1  0.509735  0.829718  0.830273  1
  Hg  Hg17  1  0.833699  0.835518  0.834851  1
  Hg  Hg18  1  0.833699  0.835518  0.495932  1
  Hg  Hg19  1  0.833226  0.495416  0.835679  1
  Ir  Ir20  1  0.391975  0.392741  0.391287  1
  Ir  Ir21  1  0.391975  0.392741  0.823997  1
  Ir  Ir22  1  0.391649  0.824078  0.392137  1
  Ir  Ir23  1  0.824178  0.392110  0.391856  1
