# generated using pymatgen
data_Ho4Er2Cd23P
_symmetry_space_group_name_H-M   'P 1'
_cell_length_a   9.94312806
_cell_length_b   9.94090213
_cell_length_c   9.94091600
_cell_angle_alpha   60.01412192
_cell_angle_beta   59.99248112
_cell_angle_gamma   59.99259964
_symmetry_Int_Tables_number   1
_chemical_formula_structural   Ho4Er2Cd23P
_chemical_formula_sum   'Ho4 Er2 Cd23 P1'
_cell_volume   694.79643093
_cell_formula_units_Z   1
loop_
 _symmetry_equiv_pos_site_id
 _symmetry_equiv_pos_as_xyz
  1  'x, y, z'
loop_
 _atom_site_type_symbol
 _atom_site_label
 _atom_site_symmetry_multiplicity
 _atom_site_fract_x
 _atom_site_fract_y
 _atom_site_fract_z
 _atom_site_occupancy
  Ho  Ho0  1  0.696950  0.303404  0.303468  1
  Ho  Ho1  1  0.696460  0.303089  0.696461  1
  Ho  Ho2  1  0.696382  0.696459  0.303211  1
  Ho  Ho3  1  0.303147  0.696728  0.696646  1
  Er  Er4  1  0.304183  0.696258  0.304222  1
  Er  Er5  1  0.304234  0.304196  0.696170  1
  Cd  Cd6  1  0.633671  0.122293  0.122326  1
  Cd  Cd7  1  0.122112  0.634620  0.122333  1
  Cd  Cd8  1  0.122167  0.122336  0.634543  1
  Cd  Cd9  1  0.120724  0.119766  0.119912  1
  Cd  Cd10  1  0.364929  0.878409  0.878358  1
  Cd  Cd11  1  0.878477  0.365387  0.877746  1
  Cd  Cd12  1  0.878416  0.877731  0.365466  1
  Cd  Cd13  1  0.879182  0.879615  0.879467  1
  Cd  Cd14  1  0.500068  0.999935  0.999919  1
  Cd  Cd15  1  0.499904  0.999998  0.499914  1
  Cd  Cd16  1  0.499868  0.499880  0.000041  1
  Cd  Cd17  1  0.999885  0.500033  0.500023  1
  Cd  Cd18  1  0.999840  0.500158  0.000005  1
  Cd  Cd19  1  0.999859  0.999975  0.500169  1
  Cd  Cd20  1  0.999209  0.000014  0.999999  1
  Cd  Cd21  1  0.988526  0.336808  0.336964  1
  Cd  Cd22  1  0.337157  0.987496  0.337421  1
  Cd  Cd23  1  0.337182  0.337248  0.987683  1
  Cd  Cd24  1  0.340350  0.339937  0.340148  1
  Cd  Cd25  1  0.012787  0.662558  0.662350  1
  Cd  Cd26  1  0.662400  0.012210  0.662709  1
  Cd  Cd27  1  0.662415  0.662864  0.012031  1
  Cd  Cd28  1  0.659898  0.660698  0.660402  1
  P  P29  1  0.499619  0.499897  0.499893  1
