# generated using pymatgen
data_Ho2Fe3Co8NiP7
_symmetry_space_group_name_H-M   'P 1'
_cell_length_a   8.99020294
_cell_length_b   8.99390545
_cell_length_c   3.62378100
_cell_angle_alpha   90.00000000
_cell_angle_beta   90.00000000
_cell_angle_gamma   120.07906857
_symmetry_Int_Tables_number   1
_chemical_formula_structural   Ho2Fe3Co8NiP7
_chemical_formula_sum   'Ho2 Fe3 Co8 Ni1 P7'
_cell_volume   253.55011606
_cell_formula_units_Z   1
loop_
 _symmetry_equiv_pos_site_id
 _symmetry_equiv_pos_as_xyz
  1  'x, y, z'
loop_
 _atom_site_type_symbol
 _atom_site_label
 _atom_site_symmetry_multiplicity
 _atom_site_fract_x
 _atom_site_fract_y
 _atom_site_fract_z
 _atom_site_occupancy
  Ho  Ho0  1  0.998989  0.999939  0.000000  1
  Ho  Ho1  1  0.333659  0.666011  0.500000  1
  Fe  Fe2  1  0.542881  0.116206  0.500000  1
  Fe  Fe3  1  0.573025  0.457432  0.500000  1
  Fe  Fe4  1  0.884188  0.426384  0.500000  1
  Co  Co5  1  0.606073  0.703915  0.000000  1
  Co  Co6  1  0.098637  0.393851  0.000000  1
  Co  Co7  1  0.784582  0.176969  0.000000  1
  Co  Co8  1  0.391632  0.215154  0.000000  1
  Co  Co9  1  0.823354  0.608215  0.000000  1
  Co  Co10  1  0.716672  0.949543  0.500000  1
  Co  Co11  1  0.232813  0.284234  0.500000  1
  Co  Co12  1  0.052230  0.767961  0.500000  1
  Ni  Ni13  1  0.295256  0.900923  0.000000  1
  P  P14  1  0.557109  0.922912  0.000000  1
  P  P15  1  0.370111  0.446225  0.000000  1
  P  P16  1  0.072817  0.625939  0.000000  1
  P  P17  1  0.957438  0.221420  0.500000  1
  P  P18  1  0.262690  0.047026  0.500000  1
  P  P19  1  0.779049  0.735831  0.500000  1
  P  P20  1  0.666795  0.333910  0.000000  1
