# generated using pymatgen
data_SrLi2Tl2(B3O5)6
_symmetry_space_group_name_H-M   'P 1'
_cell_length_a   8.65495600
_cell_length_b   8.59957341
_cell_length_c   17.46180200
_cell_angle_alpha   87.19431785
_cell_angle_beta   90.00000000
_cell_angle_gamma   90.00000000
_symmetry_Int_Tables_number   1
_chemical_formula_structural   SrLi2Tl2(B3O5)6
_chemical_formula_sum   'Sr2 Li4 Tl4 B36 O60'
_cell_volume   1298.10530806
_cell_formula_units_Z   2
loop_
 _symmetry_equiv_pos_site_id
 _symmetry_equiv_pos_as_xyz
  1  'x, y, z'
loop_
 _atom_site_type_symbol
 _atom_site_label
 _atom_site_symmetry_multiplicity
 _atom_site_fract_x
 _atom_site_fract_y
 _atom_site_fract_z
 _atom_site_occupancy
  Sr  Sr0  1  0.000000  0.000000  0.000000  1
  Sr  Sr1  1  0.500000  0.000000  0.500000  1
  Li  Li2  1  0.242496  0.218474  0.622521  1
  Li  Li3  1  0.742496  0.781526  0.877479  1
  Li  Li4  1  0.757504  0.781526  0.377479  1
  Li  Li5  1  0.257504  0.218474  0.122521  1
  Tl  Tl6  1  0.449521  0.473713  0.815844  1
  Tl  Tl7  1  0.949521  0.526287  0.684156  1
  Tl  Tl8  1  0.550479  0.526287  0.184156  1
  Tl  Tl9  1  0.050479  0.473713  0.315844  1
  B  B10  1  0.648119  0.174719  0.919530  1
  B  B11  1  0.148119  0.825281  0.580470  1
  B  B12  1  0.351881  0.825281  0.080470  1
  B  B13  1  0.851881  0.174719  0.419530  1
  B  B14  1  0.615621  0.180228  0.060844  1
  B  B15  1  0.115621  0.819772  0.439156  1
  B  B16  1  0.384379  0.819772  0.939156  1
  B  B17  1  0.884379  0.180228  0.560844  1
  B  B18  1  0.390209  0.224999  0.977018  1
  B  B19  1  0.890209  0.775001  0.522982  1
  B  B20  1  0.609791  0.775001  0.022982  1
  B  B21  1  0.109791  0.224999  0.477018  1
  B  B22  1  0.139634  0.333962  0.912249  1
  B  B23  1  0.639634  0.666038  0.587751  1
  B  B24  1  0.860366  0.666038  0.087751  1
  B  B25  1  0.360366  0.333962  0.412249  1
  B  B26  1  0.857216  0.381465  0.904462  1
  B  B27  1  0.357216  0.618535  0.595538  1
  B  B28  1  0.142784  0.618535  0.095538  1
  B  B29  1  0.642784  0.381465  0.404462  1
  B  B30  1  0.034944  0.602018  0.892978  1
  B  B31  1  0.534944  0.397982  0.607022  1
  B  B32  1  0.965056  0.397982  0.107022  1
  B  B33  1  0.465056  0.602018  0.392978  1
  B  B34  1  0.189473  0.956734  0.707869  1
  B  B35  1  0.689473  0.043266  0.792131  1
  B  B36  1  0.810527  0.043266  0.292131  1
  B  B37  1  0.310527  0.956734  0.207869  1
  B  B38  1  0.167491  0.853118  0.841999  1
  B  B39  1  0.667491  0.146882  0.658001  1
  B  B40  1  0.832509  0.146882  0.158001  1
  B  B41  1  0.332509  0.853118  0.341999  1
  B  B42  1  0.177623  0.137880  0.811241  1
  B  B43  1  0.677623  0.862120  0.688759  1
  B  B44  1  0.822377  0.862120  0.188759  1
  B  B45  1  0.322377  0.137880  0.311241  1
  O  O46  1  0.710502  0.330667  0.896597  1
  O  O47  1  0.210502  0.669333  0.603403  1
  O  O48  1  0.289498  0.669333  0.103403  1
  O  O49  1  0.789498  0.330667  0.396597  1
  O  O50  1  0.702745  0.050048  0.870346  1
  O  O51  1  0.202745  0.949952  0.629654  1
  O  O52  1  0.297255  0.949952  0.129654  1
  O  O53  1  0.797255  0.050048  0.370346  1
  O  O54  1  0.697368  0.128889  0.999052  1
  O  O55  1  0.197368  0.871111  0.500948  1
  O  O56  1  0.302632  0.871111  0.000948  1
  O  O57  1  0.802632  0.128889  0.499052  1
  O  O58  1  0.477254  0.193899  0.914500  1
  O  O59  1  0.977254  0.806101  0.585500  1
  O  O60  1  0.522746  0.806101  0.085500  1
  O  O61  1  0.022746  0.193899  0.414500  1
  O  O62  1  0.675567  0.192488  0.131920  1
  O  O63  1  0.175567  0.807512  0.368080  1
  O  O64  1  0.324433  0.807512  0.868080  1
  O  O65  1  0.824433  0.192488  0.631920  1
  O  O66  1  0.458427  0.226582  0.050543  1
  O  O67  1  0.958427  0.773418  0.449457  1
  O  O68  1  0.541573  0.773418  0.949457  1
  O  O69  1  0.041573  0.226582  0.550543  1
  O  O70  1  0.234541  0.258077  0.974784  1
  O  O71  1  0.734541  0.741923  0.525216  1
  O  O72  1  0.765459  0.741923  0.025216  1
  O  O73  1  0.265459  0.258077  0.474784  1
  O  O74  1  0.977955  0.286328  0.928418  1
  O  O75  1  0.477955  0.713672  0.571582  1
  O  O76  1  0.022045  0.713672  0.071582  1
  O  O77  1  0.522045  0.286328  0.428418  1
  O  O78  1  0.156999  0.505663  0.910416  1
  O  O79  1  0.656999  0.494337  0.589584  1
  O  O80  1  0.843001  0.494337  0.089584  1
  O  O81  1  0.343001  0.505663  0.410416  1
  O  O82  1  0.185084  0.287554  0.833838  1
  O  O83  1  0.685084  0.712446  0.666162  1
  O  O84  1  0.814916  0.712446  0.166162  1
  O  O85  1  0.314916  0.287554  0.333838  1
  O  O86  1  0.884805  0.540432  0.885070  1
  O  O87  1  0.384805  0.459568  0.614930  1
  O  O88  1  0.115195  0.459568  0.114930  1
  O  O89  1  0.615195  0.540432  0.385070  1
  O  O90  1  0.042151  0.761064  0.881231  1
  O  O91  1  0.542151  0.238936  0.618769  1
  O  O92  1  0.957849  0.238936  0.118769  1
  O  O93  1  0.457849  0.761064  0.381231  1
  O  O94  1  0.210097  0.110251  0.733781  1
  O  O95  1  0.710097  0.889749  0.766219  1
  O  O96  1  0.789903  0.889749  0.266219  1
  O  O97  1  0.289903  0.110251  0.233781  1
  O  O98  1  0.160062  0.835127  0.758249  1
  O  O99  1  0.660062  0.164873  0.741751  1
  O  O100  1  0.839938  0.164873  0.241751  1
  O  O101  1  0.339938  0.835127  0.258249  1
  O  O102  1  0.135566  0.016895  0.860916  1
  O  O103  1  0.635566  0.983105  0.639084  1
  O  O104  1  0.864434  0.983105  0.139084  1
  O  O105  1  0.364434  0.016895  0.360916  1
