# generated using pymatgen
data_Nd3Al12IrRu2Pt
_symmetry_space_group_name_H-M   'P 1'
_cell_length_a   8.93871672
_cell_length_b   8.92116269
_cell_length_c   9.64691865
_cell_angle_alpha   89.68138863
_cell_angle_beta   90.06211165
_cell_angle_gamma   119.98089923
_symmetry_Int_Tables_number   1
_chemical_formula_structural   Nd3Al12IrRu2Pt
_chemical_formula_sum   'Nd6 Al24 Ir2 Ru4 Pt2'
_cell_volume   666.33387565
_cell_formula_units_Z   2
loop_
 _symmetry_equiv_pos_site_id
 _symmetry_equiv_pos_as_xyz
  1  'x, y, z'
loop_
 _atom_site_type_symbol
 _atom_site_label
 _atom_site_symmetry_multiplicity
 _atom_site_fract_x
 _atom_site_fract_y
 _atom_site_fract_z
 _atom_site_occupancy
  Nd  Nd0  1  0.189392  0.380431  0.248220  1
  Nd  Nd1  1  0.810608  0.619569  0.751780  1
  Nd  Nd2  1  0.619037  0.809293  0.249958  1
  Nd  Nd3  1  0.380963  0.190707  0.750042  1
  Nd  Nd4  1  0.189247  0.808739  0.251622  1
  Nd  Nd5  1  0.810753  0.191261  0.748378  1
  Al  Al6  1  0.331298  0.668237  0.023343  1
  Al  Al7  1  0.668702  0.331763  0.976657  1
  Al  Al8  1  0.669887  0.339472  0.521024  1
  Al  Al9  1  0.330113  0.660528  0.478976  1
  Al  Al10  1  0.163515  0.327356  0.574809  1
  Al  Al11  1  0.836485  0.672644  0.425191  1
  Al  Al12  1  0.674812  0.833274  0.575219  1
  Al  Al13  1  0.840721  0.674979  0.075305  1
  Al  Al14  1  0.325188  0.166726  0.424781  1
  Al  Al15  1  0.159279  0.325021  0.924695  1
  Al  Al16  1  0.158640  0.833012  0.576348  1
  Al  Al17  1  0.324487  0.159126  0.074784  1
  Al  Al18  1  0.841360  0.166988  0.423652  1
  Al  Al19  1  0.675513  0.840874  0.925216  1
  Al  Al20  1  0.837209  0.163456  0.073977  1
  Al  Al21  1  0.162791  0.836544  0.926023  1
  Al  Al22  1  0.563977  0.128550  0.246033  1
  Al  Al23  1  0.436023  0.871450  0.753967  1
  Al  Al24  1  0.874317  0.437172  0.250677  1
  Al  Al25  1  0.125683  0.562828  0.749323  1
  Al  Al26  1  0.563503  0.435888  0.253508  1
  Al  Al27  1  0.436497  0.564112  0.746492  1
  Al  Al28  1  0.998563  0.998894  0.249970  1
  Al  Al29  1  0.001437  0.001106  0.750030  1
  Ir  Ir30  1  0.500000  0.000000  0.000000  1
  Ir  Ir31  1  0.000000  0.500000  0.000000  1
  Ru  Ru32  1  0.000000  0.500000  0.500000  1
  Ru  Ru33  1  0.500000  0.500000  0.500000  1
  Ru  Ru34  1  0.000000  0.000000  0.000000  1
  Ru  Ru35  1  0.000000  0.000000  0.500000  1
  Pt  Pt36  1  0.500000  0.000000  0.500000  1
  Pt  Pt37  1  0.500000  0.500000  0.000000  1
