# generated using pymatgen
data_NaCrNiF6
_symmetry_space_group_name_H-M   'P 1'
_cell_length_a   8.99655700
_cell_length_b   8.99655733
_cell_length_c   5.01174300
_cell_angle_alpha   90.00000000
_cell_angle_beta   90.00000000
_cell_angle_gamma   120.00000247
_symmetry_Int_Tables_number   1
_chemical_formula_structural   NaCrNiF6
_chemical_formula_sum   'Na3 Cr3 Ni3 F18'
_cell_volume   351.29510720
_cell_formula_units_Z   3
loop_
 _symmetry_equiv_pos_site_id
 _symmetry_equiv_pos_as_xyz
  1  'x, y, z'
loop_
 _atom_site_type_symbol
 _atom_site_label
 _atom_site_symmetry_multiplicity
 _atom_site_fract_x
 _atom_site_fract_y
 _atom_site_fract_z
 _atom_site_occupancy
  Na  Na0  1  0.631013  0.000000  0.000000  1
  Na  Na1  1  0.000000  0.631013  0.000000  1
  Na  Na2  1  0.368987  0.368987  0.000000  1
  Cr  Cr3  1  0.333333  0.666667  0.498231  1
  Cr  Cr4  1  0.666667  0.333333  0.501769  1
  Cr  Cr5  1  0.000000  0.000000  0.000000  1
  Ni  Ni6  1  0.302841  0.000000  0.500000  1
  Ni  Ni7  1  0.000000  0.302841  0.500000  1
  Ni  Ni8  1  0.697159  0.697159  0.500000  1
  F  F9  1  0.125604  0.531535  0.287107  1
  F  F10  1  0.468465  0.594069  0.287107  1
  F  F11  1  0.531535  0.125604  0.712893  1
  F  F12  1  0.405931  0.874396  0.287107  1
  F  F13  1  0.594069  0.468465  0.712893  1
  F  F14  1  0.874396  0.405931  0.712893  1
  F  F15  1  0.098493  0.203845  0.230374  1
  F  F16  1  0.796155  0.894649  0.230374  1
  F  F17  1  0.203845  0.098493  0.769626  1
  F  F18  1  0.105351  0.901507  0.230374  1
  F  F19  1  0.894649  0.796155  0.769626  1
  F  F20  1  0.901507  0.105351  0.769626  1
  F  F21  1  0.452659  0.226745  0.294914  1
  F  F22  1  0.773255  0.225914  0.294914  1
  F  F23  1  0.226745  0.452659  0.705086  1
  F  F24  1  0.774086  0.547341  0.294914  1
  F  F25  1  0.225914  0.773255  0.705086  1
  F  F26  1  0.547341  0.774086  0.705086  1
