# generated using pymatgen
data_Ho4ErOs2
_symmetry_space_group_name_H-M   'P 1'
_cell_length_a   6.32051082
_cell_length_b   7.33498306
_cell_length_c   8.38663065
_cell_angle_alpha   96.91609672
_cell_angle_beta   112.13688101
_cell_angle_gamma   89.99999984
_symmetry_Int_Tables_number   1
_chemical_formula_structural   Ho4ErOs2
_chemical_formula_sum   'Ho8 Er2 Os4'
_cell_volume   357.09434714
_cell_formula_units_Z   2
loop_
 _symmetry_equiv_pos_site_id
 _symmetry_equiv_pos_as_xyz
  1  'x, y, z'
loop_
 _atom_site_type_symbol
 _atom_site_label
 _atom_site_symmetry_multiplicity
 _atom_site_fract_x
 _atom_site_fract_y
 _atom_site_fract_z
 _atom_site_occupancy
  Ho  Ho0  1  0.792452  0.584002  0.816295  1
  Ho  Ho1  1  0.976157  0.915998  0.183705  1
  Ho  Ho2  1  0.207548  0.415998  0.183705  1
  Ho  Ho3  1  0.023843  0.084002  0.816295  1
  Ho  Ho4  1  0.204072  0.683628  0.564514  1
  Ho  Ho5  1  0.639559  0.816372  0.435486  1
  Ho  Ho6  1  0.795928  0.316372  0.435486  1
  Ho  Ho7  1  0.360441  0.183628  0.564514  1
  Er  Er8  1  0.420659  0.750000  0.000000  1
  Er  Er9  1  0.579341  0.250000  0.000000  1
  Os  Os10  1  0.602347  0.922954  0.780720  1
  Os  Os11  1  0.821627  0.577046  0.219280  1
  Os  Os12  1  0.397653  0.077046  0.219280  1
  Os  Os13  1  0.178373  0.422954  0.780720  1
