# generated using pymatgen
data_Eu2Th2H9
_symmetry_space_group_name_H-M   'P 1'
_cell_length_a   6.76159562
_cell_length_b   6.76159525
_cell_length_c   6.76159596
_cell_angle_alpha   131.84825955
_cell_angle_beta   131.84828103
_cell_angle_gamma   70.46877192
_symmetry_Int_Tables_number   1
_chemical_formula_structural   Eu2Th2H9
_chemical_formula_sum   'Eu2 Th2 H9'
_cell_volume   168.08455914
_cell_formula_units_Z   1
loop_
 _symmetry_equiv_pos_site_id
 _symmetry_equiv_pos_as_xyz
  1  'x, y, z'
loop_
 _atom_site_type_symbol
 _atom_site_label
 _atom_site_symmetry_multiplicity
 _atom_site_fract_x
 _atom_site_fract_y
 _atom_site_fract_z
 _atom_site_occupancy
  Eu  Eu0  1  0.500000  0.000000  0.500000  1
  Eu  Eu1  1  0.000000  0.500000  0.500000  1
  Th  Th2  1  0.744094  0.744094  0.000000  1
  Th  Th3  1  0.255906  0.255906  0.000000  1
  H  H4  1  0.891824  0.374616  0.000000  1
  H  H5  1  0.374616  0.891824  0.000000  1
  H  H6  1  0.625384  0.108176  0.000000  1
  H  H7  1  0.108176  0.108176  0.482792  1
  H  H8  1  0.374616  0.374616  0.482792  1
  H  H9  1  0.500000  0.500000  0.000000  1
  H  H10  1  0.108176  0.625384  0.000000  1
  H  H11  1  0.625384  0.625384  0.517208  1
  H  H12  1  0.891824  0.891824  0.517208  1
