# generated using pymatgen
data_TbHo(Ga4Ni)2
_symmetry_space_group_name_H-M   'P 1'
_cell_length_a   7.92862670
_cell_length_b   7.92862700
_cell_length_c   6.59448900
_cell_angle_alpha   90.00000000
_cell_angle_beta   90.00000000
_cell_angle_gamma   150.06440076
_symmetry_Int_Tables_number   1
_chemical_formula_structural   TbHo(Ga4Ni)2
_chemical_formula_sum   'Tb1 Ho1 Ga8 Ni2'
_cell_volume   206.87142780
_cell_formula_units_Z   1
loop_
 _symmetry_equiv_pos_site_id
 _symmetry_equiv_pos_as_xyz
  1  'x, y, z'
loop_
 _atom_site_type_symbol
 _atom_site_label
 _atom_site_symmetry_multiplicity
 _atom_site_fract_x
 _atom_site_fract_y
 _atom_site_fract_z
 _atom_site_occupancy
  Tb  Tb0  1  0.881252  0.118748  0.250000  1
  Ho  Ho1  1  0.118977  0.881023  0.750000  1
  Ga  Ga2  1  0.314058  0.685942  0.551020  1
  Ga  Ga3  1  0.071530  0.928470  0.250000  1
  Ga  Ga4  1  0.500327  0.499673  0.998966  1
  Ga  Ga5  1  0.685317  0.314683  0.449652  1
  Ga  Ga6  1  0.500327  0.499673  0.501034  1
  Ga  Ga7  1  0.685317  0.314683  0.050348  1
  Ga  Ga8  1  0.314058  0.685942  0.948980  1
  Ga  Ga9  1  0.928863  0.071137  0.750000  1
  Ni  Ni10  1  0.775788  0.224212  0.750000  1
  Ni  Ni11  1  0.224188  0.775812  0.250000  1
