# generated using pymatgen
data_ZrNpF7
_symmetry_space_group_name_H-M   'P 1'
_cell_length_a   5.85133000
_cell_length_b   9.49796239
_cell_length_c   12.67960157
_cell_angle_alpha   61.36034104
_cell_angle_beta   90.00000000
_cell_angle_gamma   90.00000000
_symmetry_Int_Tables_number   1
_chemical_formula_structural   ZrNpF7
_chemical_formula_sum   'Zr4 Np4 F28'
_cell_volume   618.46155231
_cell_formula_units_Z   4
loop_
 _symmetry_equiv_pos_site_id
 _symmetry_equiv_pos_as_xyz
  1  'x, y, z'
loop_
 _atom_site_type_symbol
 _atom_site_label
 _atom_site_symmetry_multiplicity
 _atom_site_fract_x
 _atom_site_fract_y
 _atom_site_fract_z
 _atom_site_occupancy
  Zr  Zr0  1  0.743140  0.277924  0.454576  1
  Zr  Zr1  1  0.243140  0.722076  0.045424  1
  Zr  Zr2  1  0.256860  0.722076  0.545424  1
  Zr  Zr3  1  0.756860  0.277924  0.954576  1
  Np  Np4  1  0.741561  0.815068  0.264444  1
  Np  Np5  1  0.241561  0.184932  0.235556  1
  Np  Np6  1  0.258439  0.184932  0.735556  1
  Np  Np7  1  0.758439  0.815068  0.764444  1
  F  F8  1  0.454282  0.715331  0.919422  1
  F  F9  1  0.954282  0.284669  0.580578  1
  F  F10  1  0.545718  0.284669  0.080578  1
  F  F11  1  0.045718  0.715331  0.419422  1
  F  F12  1  0.456712  0.286496  0.546006  1
  F  F13  1  0.956712  0.713504  0.953994  1
  F  F14  1  0.543288  0.713504  0.453994  1
  F  F15  1  0.043288  0.286496  0.046006  1
  F  F16  1  0.762952  0.521463  0.859878  1
  F  F17  1  0.262952  0.478537  0.640122  1
  F  F18  1  0.237048  0.478537  0.140122  1
  F  F19  1  0.737048  0.521463  0.359878  1
  F  F20  1  0.770178  0.032383  0.056319  1
  F  F21  1  0.270178  0.967617  0.443681  1
  F  F22  1  0.229822  0.967617  0.943681  1
  F  F23  1  0.729822  0.032383  0.556319  1
  F  F24  1  0.981850  0.735116  0.639955  1
  F  F25  1  0.481850  0.264884  0.860045  1
  F  F26  1  0.018150  0.264884  0.360045  1
  F  F27  1  0.518150  0.735116  0.139955  1
  F  F28  1  0.037118  0.736934  0.170790  1
  F  F29  1  0.537118  0.263066  0.329210  1
  F  F30  1  0.962882  0.263066  0.829210  1
  F  F31  1  0.462882  0.736934  0.670790  1
  F  F32  1  0.408715  0.966073  0.232126  1
  F  F33  1  0.908715  0.033927  0.267874  1
  F  F34  1  0.591285  0.033927  0.767874  1
  F  F35  1  0.091285  0.966073  0.732126  1
