# generated using pymatgen
data_Gd6DyY3(SiB4)4
_symmetry_space_group_name_H-M   'P 1'
_cell_length_a   7.26518000
_cell_length_b   7.26518006
_cell_length_c   8.18404300
_cell_angle_alpha   90.00017077
_cell_angle_beta   89.99982924
_cell_angle_gamma   90.00697154
_symmetry_Int_Tables_number   1
_chemical_formula_structural   Gd6DyY3(SiB4)4
_chemical_formula_sum   'Gd6 Dy1 Y3 Si4 B16'
_cell_volume   431.97703613
_cell_formula_units_Z   1
loop_
 _symmetry_equiv_pos_site_id
 _symmetry_equiv_pos_as_xyz
  1  'x, y, z'
loop_
 _atom_site_type_symbol
 _atom_site_label
 _atom_site_symmetry_multiplicity
 _atom_site_fract_x
 _atom_site_fract_y
 _atom_site_fract_z
 _atom_site_occupancy
  Gd  Gd0  1  0.680541  0.180600  0.225062  1
  Gd  Gd1  1  0.319398  0.819458  0.774937  1
  Gd  Gd2  1  0.319400  0.819459  0.225062  1
  Gd  Gd3  1  0.819419  0.680581  0.224669  1
  Gd  Gd4  1  0.819423  0.680577  0.775336  1
  Gd  Gd5  1  0.680542  0.180602  0.774937  1
  Dy  Dy6  1  0.180264  0.319736  0.777721  1
  Y  Y7  1  0.180264  0.319736  0.222290  1
  Y  Y8  1  0.000350  0.000384  0.500001  1
  Y  Y9  1  0.499616  0.499650  0.500001  1
  Si  Si10  1  0.115308  0.613783  0.500003  1
  Si  Si11  1  0.886217  0.384692  0.500003  1
  Si  Si12  1  0.384527  0.115473  0.500001  1
  Si  Si13  1  0.614122  0.885878  0.499999  1
  B  B14  1  0.172645  0.039661  0.999998  1
  B  B15  1  0.827771  0.960770  0.000000  1
  B  B16  1  0.960898  0.172546  0.999997  1
  B  B17  1  0.327454  0.539102  0.999997  1
  B  B18  1  0.039261  0.827705  0.000000  1
  B  B19  1  0.672295  0.460739  0.000000  1
  B  B20  1  0.539230  0.672229  0.000000  1
  B  B21  1  0.460339  0.327355  0.999998  1
  B  B22  1  0.090216  0.589947  0.999996  1
  B  B23  1  0.910053  0.409784  0.999996  1
  B  B24  1  0.409831  0.090169  0.999998  1
  B  B25  1  0.590285  0.909715  0.000001  1
  B  B26  1  0.000297  0.000132  0.159716  1
  B  B27  1  0.000300  0.000135  0.840284  1
  B  B28  1  0.499865  0.499700  0.840284  1
  B  B29  1  0.499868  0.499703  0.159716  1
