# generated using pymatgen
data_Yb8Si12PdPt3
_symmetry_space_group_name_H-M   'P 1'
_cell_length_a   8.22713700
_cell_length_b   8.22713706
_cell_length_c   8.26808900
_cell_angle_alpha   90.00000000
_cell_angle_beta   90.00000000
_cell_angle_gamma   119.99999574
_symmetry_Int_Tables_number   1
_chemical_formula_structural   Yb8Si12PdPt3
_chemical_formula_sum   'Yb8 Si12 Pd1 Pt3'
_cell_volume   484.65562209
_cell_formula_units_Z   1
loop_
 _symmetry_equiv_pos_site_id
 _symmetry_equiv_pos_as_xyz
  1  'x, y, z'
loop_
 _atom_site_type_symbol
 _atom_site_label
 _atom_site_symmetry_multiplicity
 _atom_site_fract_x
 _atom_site_fract_y
 _atom_site_fract_z
 _atom_site_occupancy
  Yb  Yb0  1  0.500900  0.001801  0.250070  1
  Yb  Yb1  1  0.500274  0.000549  0.749859  1
  Yb  Yb2  1  0.998199  0.499100  0.250070  1
  Yb  Yb3  1  0.999451  0.499726  0.749859  1
  Yb  Yb4  1  0.500900  0.499100  0.250070  1
  Yb  Yb5  1  0.500274  0.499726  0.749859  1
  Yb  Yb6  1  0.000000  0.000000  0.250187  1
  Yb  Yb7  1  0.000000  0.000000  0.749568  1
  Si  Si8  1  0.165234  0.330469  0.000392  1
  Si  Si9  1  0.835039  0.670078  0.999693  1
  Si  Si10  1  0.669531  0.834766  0.000392  1
  Si  Si11  1  0.835379  0.670758  0.500158  1
  Si  Si12  1  0.329922  0.164961  0.999693  1
  Si  Si13  1  0.164525  0.329052  0.499218  1
  Si  Si14  1  0.165234  0.834766  0.000392  1
  Si  Si15  1  0.329242  0.164621  0.500158  1
  Si  Si16  1  0.835039  0.164961  0.999693  1
  Si  Si17  1  0.670948  0.835475  0.499218  1
  Si  Si18  1  0.835379  0.164621  0.500158  1
  Si  Si19  1  0.164525  0.835475  0.499218  1
  Pd  Pd20  1  0.333333  0.666667  0.500490  1
  Pt  Pt21  1  0.333333  0.666667  0.001306  1
  Pt  Pt22  1  0.666667  0.333333  0.998617  1
  Pt  Pt23  1  0.666667  0.333333  0.501664  1
