# generated using pymatgen
data_Hf8Ti8Si15GeW4
_symmetry_space_group_name_H-M   'P 1'
_cell_length_a   6.57005014
_cell_length_b   6.70991049
_cell_length_c   12.94432525
_cell_angle_alpha   90.00921263
_cell_angle_beta   90.05322383
_cell_angle_gamma   89.97531004
_symmetry_Int_Tables_number   1
_chemical_formula_structural   Hf8Ti8Si15GeW4
_chemical_formula_sum   'Hf8 Ti8 Si15 Ge1 W4'
_cell_volume   570.64313104
_cell_formula_units_Z   1
loop_
 _symmetry_equiv_pos_site_id
 _symmetry_equiv_pos_as_xyz
  1  'x, y, z'
loop_
 _atom_site_type_symbol
 _atom_site_label
 _atom_site_symmetry_multiplicity
 _atom_site_fract_x
 _atom_site_fract_y
 _atom_site_fract_z
 _atom_site_occupancy
  Hf  Hf0  1  0.496222  0.674358  0.594515  1
  Hf  Hf1  1  0.993620  0.827866  0.907572  1
  Hf  Hf2  1  0.506411  0.328030  0.092169  1
  Hf  Hf3  1  0.005911  0.169862  0.407386  1
  Hf  Hf4  1  0.510696  0.325016  0.406335  1
  Hf  Hf5  1  0.006233  0.171597  0.092100  1
  Hf  Hf6  1  0.493692  0.671692  0.907323  1
  Hf  Hf7  1  0.991553  0.829529  0.593743  1
  Ti  Ti8  1  0.663063  0.168758  0.625074  1
  Ti  Ti9  1  0.163606  0.330364  0.875464  1
  Ti  Ti10  1  0.336454  0.830679  0.124543  1
  Ti  Ti11  1  0.834869  0.669291  0.375070  1
  Ti  Ti12  1  0.339057  0.834326  0.374005  1
  Ti  Ti13  1  0.836394  0.669687  0.124527  1
  Ti  Ti14  1  0.662720  0.170282  0.875493  1
  Ti  Ti15  1  0.161398  0.328216  0.626092  1
  Si  Si16  1  0.672476  0.959683  0.462568  1
  Si  Si17  1  0.171329  0.539544  0.037886  1
  Si  Si18  1  0.328183  0.039027  0.961848  1
  Si  Si19  1  0.824224  0.459887  0.538637  1
  Si  Si20  1  0.327731  0.039548  0.537982  1
  Si  Si21  1  0.828496  0.460726  0.961772  1
  Si  Si22  1  0.671105  0.960813  0.037982  1
  Si  Si23  1  0.460475  0.383766  0.750102  1
  Si  Si24  1  0.960233  0.115945  0.750883  1
  Si  Si25  1  0.538904  0.615715  0.249594  1
  Si  Si26  1  0.038871  0.883843  0.249961  1
  Si  Si27  1  0.699030  0.861300  0.751129  1
  Si  Si28  1  0.198649  0.639159  0.750131  1
  Si  Si29  1  0.300414  0.140525  0.249236  1
  Si  Si30  1  0.801858  0.360443  0.249553  1
  Ge  Ge31  1  0.177027  0.539801  0.461792  1
  W  W32  1  0.834546  0.494470  0.750118  1
  W  W33  1  0.334391  0.005473  0.750312  1
  W  W34  1  0.165045  0.506243  0.247534  1
  W  W35  1  0.665114  0.994535  0.249569  1
