# generated using pymatgen
data_Ca(PtO2)3
_symmetry_space_group_name_H-M   'P 1'
_cell_length_a   6.31142074
_cell_length_b   6.31142015
_cell_length_c   3.27508700
_cell_angle_alpha   90.00000000
_cell_angle_beta   90.00000000
_cell_angle_gamma   109.19869919
_symmetry_Int_Tables_number   1
_chemical_formula_structural   Ca(PtO2)3
_chemical_formula_sum   'Ca1 Pt3 O6'
_cell_volume   123.20422792
_cell_formula_units_Z   1
loop_
 _symmetry_equiv_pos_site_id
 _symmetry_equiv_pos_as_xyz
  1  'x, y, z'
loop_
 _atom_site_type_symbol
 _atom_site_label
 _atom_site_symmetry_multiplicity
 _atom_site_fract_x
 _atom_site_fract_y
 _atom_site_fract_z
 _atom_site_occupancy
  Ca  Ca0  1  0.500000  0.500000  0.000000  1
  Pt  Pt1  1  0.000000  0.500000  0.500000  1
  Pt  Pt2  1  0.000000  0.000000  0.000000  1
  Pt  Pt3  1  0.500000  0.000000  0.500000  1
  O  O4  1  0.664521  0.923261  0.000000  1
  O  O5  1  0.335479  0.076739  0.000000  1
  O  O6  1  0.923261  0.664521  0.000000  1
  O  O7  1  0.076739  0.335479  0.000000  1
  O  O8  1  0.661612  0.338388  0.500000  1
  O  O9  1  0.338388  0.661612  0.500000  1
