# generated using pymatgen
data_Pr2DyMg3Ga2Hg
_symmetry_space_group_name_H-M   'P 1'
_cell_length_a   7.52111183
_cell_length_b   7.59422458
_cell_length_c   4.50460300
_cell_angle_alpha   90.00000000
_cell_angle_beta   90.00000000
_cell_angle_gamma   120.32208901
_symmetry_Int_Tables_number   1
_chemical_formula_structural   Pr2DyMg3Ga2Hg
_chemical_formula_sum   'Pr2 Dy1 Mg3 Ga2 Hg1'
_cell_volume   222.09251803
_cell_formula_units_Z   1
loop_
 _symmetry_equiv_pos_site_id
 _symmetry_equiv_pos_as_xyz
  1  'x, y, z'
loop_
 _atom_site_type_symbol
 _atom_site_label
 _atom_site_symmetry_multiplicity
 _atom_site_fract_x
 _atom_site_fract_y
 _atom_site_fract_z
 _atom_site_occupancy
  Pr  Pr0  1  0.574507  0.573114  0.000000  1
  Pr  Pr1  1  0.425493  0.998606  0.000000  1
  Dy  Dy2  1  0.000000  0.424778  0.000000  1
  Mg  Mg3  1  0.000000  0.751486  0.500000  1
  Mg  Mg4  1  0.245515  0.247571  0.500000  1
  Mg  Mg5  1  0.754485  0.002056  0.500000  1
  Ga  Ga6  1  0.326114  0.661036  0.500000  1
  Ga  Ga7  1  0.673886  0.334921  0.500000  1
  Hg  Hg8  1  0.000000  0.006432  0.000000  1
