# generated using pymatgen
data_TbDy9Y2Co5Bi
_symmetry_space_group_name_H-M   'P 1'
_cell_length_a   8.32607446
_cell_length_b   8.32269259
_cell_length_c   8.32269225
_cell_angle_alpha   107.01147998
_cell_angle_beta   110.69951230
_cell_angle_gamma   110.71271151
_symmetry_Int_Tables_number   1
_chemical_formula_structural   TbDy9Y2Co5Bi
_chemical_formula_sum   'Tb1 Dy9 Y2 Co5 Bi1'
_cell_volume   443.45047828
_cell_formula_units_Z   1
loop_
 _symmetry_equiv_pos_site_id
 _symmetry_equiv_pos_as_xyz
  1  'x, y, z'
loop_
 _atom_site_type_symbol
 _atom_site_label
 _atom_site_symmetry_multiplicity
 _atom_site_fract_x
 _atom_site_fract_y
 _atom_site_fract_z
 _atom_site_occupancy
  Tb  Tb0  1  0.892681  0.708748  0.183934  1
  Dy  Dy1  1  0.524169  0.708440  0.815730  1
  Dy  Dy2  1  0.309983  0.621329  0.311768  1
  Dy  Dy3  1  0.309983  0.998216  0.688653  1
  Dy  Dy4  1  0.690245  0.378870  0.688658  1
  Dy  Dy5  1  0.690245  0.001585  0.311374  1
  Dy  Dy6  1  0.194357  0.204549  0.398556  1
  Dy  Dy7  1  0.806003  0.796075  0.602511  1
  Dy  Dy8  1  0.194357  0.795801  0.989808  1
  Dy  Dy9  1  0.806003  0.203492  0.009931  1
  Y  Y10  1  0.476441  0.291372  0.185068  1
  Y  Y11  1  0.106478  0.291433  0.815044  1
  Co  Co12  1  0.500050  0.612067  0.110804  1
  Co  Co13  1  0.500050  0.389246  0.887983  1
  Co  Co14  1  0.377379  0.000415  0.376962  1
  Co  Co15  1  0.622633  0.999760  0.622873  1
  Co  Co16  1  0.999307  0.998907  0.000401  1
  Bi  Bi17  1  0.999635  0.499693  0.499942  1
