# generated using pymatgen
data_Ti6I11
_symmetry_space_group_name_H-M   'P 1'
_cell_length_a   11.34731200
_cell_length_b   13.44858800
_cell_length_c   15.84299100
_cell_angle_alpha   90.00000000
_cell_angle_beta   90.00000000
_cell_angle_gamma   90.00000000
_symmetry_Int_Tables_number   1
_chemical_formula_structural   Ti6I11
_chemical_formula_sum   'Ti24 I44'
_cell_volume   2417.72477461
_cell_formula_units_Z   4
loop_
 _symmetry_equiv_pos_site_id
 _symmetry_equiv_pos_as_xyz
  1  'x, y, z'
loop_
 _atom_site_type_symbol
 _atom_site_label
 _atom_site_symmetry_multiplicity
 _atom_site_fract_x
 _atom_site_fract_y
 _atom_site_fract_z
 _atom_site_occupancy
  Ti  Ti0  1  0.602878  0.978428  0.108726  1
  Ti  Ti1  1  0.102878  0.521572  0.891274  1
  Ti  Ti2  1  0.102878  0.021572  0.608726  1
  Ti  Ti3  1  0.602878  0.478428  0.391274  1
  Ti  Ti4  1  0.397122  0.021572  0.891274  1
  Ti  Ti5  1  0.897122  0.478428  0.108726  1
  Ti  Ti6  1  0.897122  0.978428  0.391274  1
  Ti  Ti7  1  0.397122  0.521572  0.608726  1
  Ti  Ti8  1  0.635440  0.088456  0.948735  1
  Ti  Ti9  1  0.135440  0.411544  0.051265  1
  Ti  Ti10  1  0.135440  0.911544  0.448735  1
  Ti  Ti11  1  0.635440  0.588456  0.551265  1
  Ti  Ti12  1  0.364560  0.911544  0.051265  1
  Ti  Ti13  1  0.864560  0.588456  0.948735  1
  Ti  Ti14  1  0.864560  0.088456  0.551265  1
  Ti  Ti15  1  0.364560  0.411544  0.448735  1
  Ti  Ti16  1  0.421772  0.127008  0.052517  1
  Ti  Ti17  1  0.921772  0.372992  0.947483  1
  Ti  Ti18  1  0.921772  0.872992  0.552517  1
  Ti  Ti19  1  0.421772  0.627008  0.447483  1
  Ti  Ti20  1  0.578228  0.872992  0.947483  1
  Ti  Ti21  1  0.078228  0.627008  0.052517  1
  Ti  Ti22  1  0.078228  0.127008  0.447483  1
  Ti  Ti23  1  0.578228  0.372992  0.552517  1
  I  I24  1  0.647383  0.183935  0.109136  1
  I  I25  1  0.147383  0.316065  0.890864  1
  I  I26  1  0.147383  0.816065  0.609136  1
  I  I27  1  0.647383  0.683935  0.390864  1
  I  I28  1  0.352617  0.816065  0.890864  1
  I  I29  1  0.852617  0.683935  0.109136  1
  I  I30  1  0.852617  0.183935  0.390864  1
  I  I31  1  0.352617  0.316065  0.609136  1
  I  I32  1  0.535656  0.773886  0.104079  1
  I  I33  1  0.035656  0.726114  0.895921  1
  I  I34  1  0.035656  0.226114  0.604079  1
  I  I35  1  0.535656  0.273886  0.395921  1
  I  I36  1  0.464344  0.226114  0.895921  1
  I  I37  1  0.964344  0.273886  0.104079  1
  I  I38  1  0.964344  0.773886  0.395921  1
  I  I39  1  0.464344  0.726114  0.604079  1
  I  I40  1  0.400938  0.017940  0.204808  1
  I  I41  1  0.900938  0.482060  0.795192  1
  I  I42  1  0.900938  0.982060  0.704808  1
  I  I43  1  0.400938  0.517940  0.295192  1
  I  I44  1  0.599062  0.982060  0.795192  1
  I  I45  1  0.099062  0.517940  0.204808  1
  I  I46  1  0.099062  0.017940  0.295192  1
  I  I47  1  0.599062  0.482060  0.704808  1
  I  I48  1  0.801118  0.944658  0.001875  1
  I  I49  1  0.301118  0.555342  0.998125  1
  I  I50  1  0.301118  0.055342  0.501875  1
  I  I51  1  0.801118  0.444658  0.498125  1
  I  I52  1  0.198882  0.055342  0.998125  1
  I  I53  1  0.698882  0.444658  0.001875  1
  I  I54  1  0.698882  0.944658  0.498125  1
  I  I55  1  0.198882  0.555342  0.501875  1
  I  I56  1  0.322143  0.299835  0.126468  1
  I  I57  1  0.822143  0.200165  0.873532  1
  I  I58  1  0.822143  0.700165  0.626468  1
  I  I59  1  0.322143  0.799835  0.373532  1
  I  I60  1  0.677857  0.700165  0.873532  1
  I  I61  1  0.177857  0.799835  0.126468  1
  I  I62  1  0.177857  0.299835  0.373532  1
  I  I63  1  0.677857  0.200165  0.626468  1
  I  I64  1  0.750000  0.936225  0.250000  1
  I  I65  1  0.250000  0.563775  0.750000  1
  I  I66  1  0.250000  0.063775  0.750000  1
  I  I67  1  0.750000  0.436225  0.250000  1
