# generated using pymatgen
data_Dy8HoErIn6
_symmetry_space_group_name_H-M   'P 1'
_cell_length_a   6.02611307
_cell_length_b   9.16287325
_cell_length_c   9.16287320
_cell_angle_alpha   83.79239935
_cell_angle_beta   70.80203366
_cell_angle_gamma   70.80203497
_symmetry_Int_Tables_number   1
_chemical_formula_structural   Dy8HoErIn6
_chemical_formula_sum   'Dy8 Ho1 Er1 In6'
_cell_volume   451.23376956
_cell_formula_units_Z   1
loop_
 _symmetry_equiv_pos_site_id
 _symmetry_equiv_pos_as_xyz
  1  'x, y, z'
loop_
 _atom_site_type_symbol
 _atom_site_label
 _atom_site_symmetry_multiplicity
 _atom_site_fract_x
 _atom_site_fract_y
 _atom_site_fract_z
 _atom_site_occupancy
  Dy  Dy0  1  0.719399  0.862114  0.698899  1
  Dy  Dy1  1  0.280413  0.137886  0.301101  1
  Dy  Dy2  1  0.780601  0.301101  0.137886  1
  Dy  Dy3  1  0.219587  0.698899  0.862114  1
  Dy  Dy4  1  0.581701  0.698899  0.137886  1
  Dy  Dy5  1  0.418486  0.301101  0.862114  1
  Dy  Dy6  1  0.081514  0.137886  0.698899  1
  Dy  Dy7  1  0.918299  0.862114  0.301101  1
  Ho  Ho8  1  0.250000  0.500000  0.500000  1
  Er  Er9  1  0.750000  0.500000  0.500000  1
  In  In10  1  0.161551  0.500000  0.176383  1
  In  In11  1  0.837934  0.500000  0.823617  1
  In  In12  1  0.338449  0.823617  0.500000  1
  In  In13  1  0.662066  0.176383  0.500000  1
  In  In14  1  0.250000  0.000000  0.000000  1
  In  In15  1  0.750000  0.000000  0.000000  1
