# generated using pymatgen
data_Er5ScAl16Os6Rh
_symmetry_space_group_name_H-M   'P 1'
_cell_length_a   8.91042490
_cell_length_b   8.91042409
_cell_length_c   8.88371400
_cell_angle_alpha   60.09911112
_cell_angle_beta   60.09911410
_cell_angle_gamma   59.80177555
_symmetry_Int_Tables_number   1
_chemical_formula_structural   Er5ScAl16Os6Rh
_chemical_formula_sum   'Er5 Sc1 Al16 Os6 Rh1'
_cell_volume   498.73354495
_cell_formula_units_Z   1
loop_
 _symmetry_equiv_pos_site_id
 _symmetry_equiv_pos_as_xyz
  1  'x, y, z'
loop_
 _atom_site_type_symbol
 _atom_site_label
 _atom_site_symmetry_multiplicity
 _atom_site_fract_x
 _atom_site_fract_y
 _atom_site_fract_z
 _atom_site_occupancy
  Er  Er0  1  0.711262  0.289304  0.288738  1
  Er  Er1  1  0.711262  0.289304  0.710696  1
  Er  Er2  1  0.712087  0.712087  0.287913  1
  Er  Er3  1  0.289304  0.711262  0.710696  1
  Er  Er4  1  0.289304  0.711262  0.288738  1
  Sc  Sc5  1  0.285990  0.285990  0.714010  1
  Al  Al6  1  0.630635  0.123276  0.123044  1
  Al  Al7  1  0.123276  0.630635  0.123044  1
  Al  Al8  1  0.124051  0.124051  0.633166  1
  Al  Al9  1  0.124051  0.124051  0.118730  1
  Al  Al10  1  0.366834  0.881270  0.875949  1
  Al  Al11  1  0.881270  0.366834  0.875949  1
  Al  Al12  1  0.876956  0.876956  0.369365  1
  Al  Al13  1  0.876956  0.876956  0.876724  1
  Al  Al14  1  0.999742  0.332952  0.333653  1
  Al  Al15  1  0.332952  0.999742  0.333653  1
  Al  Al16  1  0.333738  0.333738  0.995256  1
  Al  Al17  1  0.333738  0.333738  0.337270  1
  Al  Al18  1  0.004744  0.662730  0.666262  1
  Al  Al19  1  0.662730  0.004744  0.666262  1
  Al  Al20  1  0.666347  0.666347  0.000258  1
  Al  Al21  1  0.666347  0.666347  0.667048  1
  Os  Os22  1  0.498600  0.000458  0.999542  1
  Os  Os23  1  0.498600  0.000458  0.501400  1
  Os  Os24  1  0.499448  0.499448  0.000552  1
  Os  Os25  1  0.000458  0.498600  0.501400  1
  Os  Os26  1  0.000458  0.498600  0.999542  1
  Os  Os27  1  0.999448  0.999448  0.500552  1
  Rh  Rh28  1  0.999411  0.999411  0.000589  1
