# generated using pymatgen
data_Dy7TmSc12Si15P
_symmetry_space_group_name_H-M   'P 1'
_cell_length_a   7.08214800
_cell_length_b   7.36822895
_cell_length_c   13.95258431
_cell_angle_alpha   89.96558136
_cell_angle_beta   89.92728238
_cell_angle_gamma   90.09838570
_symmetry_Int_Tables_number   1
_chemical_formula_structural   Dy7TmSc12Si15P
_chemical_formula_sum   'Dy7 Tm1 Sc12 Si15 P1'
_cell_volume   728.08435085
_cell_formula_units_Z   1
loop_
 _symmetry_equiv_pos_site_id
 _symmetry_equiv_pos_as_xyz
  1  'x, y, z'
loop_
 _atom_site_type_symbol
 _atom_site_label
 _atom_site_symmetry_multiplicity
 _atom_site_fract_x
 _atom_site_fract_y
 _atom_site_fract_z
 _atom_site_occupancy
  Dy  Dy0  1  0.010332  0.174912  0.096390  1
  Dy  Dy1  1  0.990588  0.826737  0.899980  1
  Dy  Dy2  1  0.489391  0.675292  0.903733  1
  Dy  Dy3  1  0.990658  0.826902  0.599245  1
  Dy  Dy4  1  0.511318  0.324709  0.096008  1
  Dy  Dy5  1  0.010757  0.174654  0.404231  1
  Dy  Dy6  1  0.511209  0.325010  0.404634  1
  Tm  Tm7  1  0.489759  0.675759  0.596647  1
  Sc  Sc8  1  0.159661  0.502051  0.749684  1
  Sc  Sc9  1  0.838888  0.497455  0.250075  1
  Sc  Sc10  1  0.339090  0.002379  0.250215  1
  Sc  Sc11  1  0.662164  0.999152  0.749606  1
  Sc  Sc12  1  0.327511  0.174117  0.627326  1
  Sc  Sc13  1  0.668028  0.822883  0.375661  1
  Sc  Sc14  1  0.168638  0.676856  0.375492  1
  Sc  Sc15  1  0.668401  0.823623  0.124617  1
  Sc  Sc16  1  0.832639  0.322708  0.626355  1
  Sc  Sc17  1  0.327533  0.173642  0.872252  1
  Sc  Sc18  1  0.832498  0.322654  0.873134  1
  Sc  Sc19  1  0.168349  0.677016  0.124703  1
  Si  Si20  1  0.964563  0.883347  0.250448  1
  Si  Si21  1  0.465375  0.615382  0.250344  1
  Si  Si22  1  0.531012  0.383235  0.749405  1
  Si  Si23  1  0.297356  0.862711  0.749210  1
  Si  Si24  1  0.714674  0.125389  0.250396  1
  Si  Si25  1  0.215156  0.374146  0.250342  1
  Si  Si26  1  0.786156  0.628677  0.749156  1
  Si  Si27  1  0.159658  0.464427  0.540774  1
  Si  Si28  1  0.841590  0.535812  0.461996  1
  Si  Si29  1  0.340337  0.963966  0.461825  1
  Si  Si30  1  0.842364  0.535795  0.037945  1
  Si  Si31  1  0.658778  0.035616  0.541161  1
  Si  Si32  1  0.157066  0.463460  0.959449  1
  Si  Si33  1  0.658898  0.036986  0.959290  1
  Si  Si34  1  0.340649  0.965422  0.038632  1
  P  P35  1  0.028953  0.127117  0.749637  1
