# generated using pymatgen
data_HfZr3IrAuN
_symmetry_space_group_name_H-M   'P 1'
_cell_length_a   8.89395118
_cell_length_b   8.89395095
_cell_length_c   8.89395100
_cell_angle_alpha   60.00000352
_cell_angle_beta   60.00000438
_cell_angle_gamma   60.00000635
_symmetry_Int_Tables_number   1
_chemical_formula_structural   HfZr3IrAuN
_chemical_formula_sum   'Hf4 Zr12 Ir4 Au4 N4'
_cell_volume   497.47269943
_cell_formula_units_Z   4
loop_
 _symmetry_equiv_pos_site_id
 _symmetry_equiv_pos_as_xyz
  1  'x, y, z'
loop_
 _atom_site_type_symbol
 _atom_site_label
 _atom_site_symmetry_multiplicity
 _atom_site_fract_x
 _atom_site_fract_y
 _atom_site_fract_z
 _atom_site_occupancy
  Hf  Hf0  1  0.099920  0.633360  0.633360  1
  Hf  Hf1  1  0.633360  0.099920  0.633360  1
  Hf  Hf2  1  0.633360  0.633360  0.099920  1
  Hf  Hf3  1  0.633360  0.633360  0.633360  1
  Zr  Zr4  1  0.818656  0.818656  0.181344  1
  Zr  Zr5  1  0.181344  0.181344  0.818656  1
  Zr  Zr6  1  0.818656  0.181344  0.818656  1
  Zr  Zr7  1  0.181344  0.818656  0.181344  1
  Zr  Zr8  1  0.181344  0.818656  0.818656  1
  Zr  Zr9  1  0.818656  0.181344  0.181344  1
  Zr  Zr10  1  0.431807  0.431807  0.068193  1
  Zr  Zr11  1  0.068193  0.068193  0.431807  1
  Zr  Zr12  1  0.431807  0.068193  0.431807  1
  Zr  Zr13  1  0.068193  0.431807  0.068193  1
  Zr  Zr14  1  0.068193  0.431807  0.431807  1
  Zr  Zr15  1  0.431807  0.068193  0.068193  1
  Ir  Ir16  1  0.462956  0.845681  0.845681  1
  Ir  Ir17  1  0.845681  0.462956  0.845681  1
  Ir  Ir18  1  0.845681  0.845681  0.462956  1
  Ir  Ir19  1  0.845681  0.845681  0.845681  1
  Au  Au20  1  0.760609  0.413131  0.413131  1
  Au  Au21  1  0.413131  0.760609  0.413131  1
  Au  Au22  1  0.413131  0.413131  0.760609  1
  Au  Au23  1  0.413131  0.413131  0.413131  1
  N  N24  1  0.622103  0.125966  0.125966  1
  N  N25  1  0.125966  0.622103  0.125966  1
  N  N26  1  0.125966  0.125966  0.622103  1
  N  N27  1  0.125966  0.125966  0.125966  1
