# generated using pymatgen
data_Mn12V6Si5Os
_symmetry_space_group_name_H-M   'P 1'
_cell_length_a   4.02598000
_cell_length_b   5.69737200
_cell_length_c   12.05830900
_cell_angle_alpha   89.99760588
_cell_angle_beta   89.99887954
_cell_angle_gamma   90.00002428
_symmetry_Int_Tables_number   1
_chemical_formula_structural   Mn12V6Si5Os
_chemical_formula_sum   'Mn12 V6 Si5 Os1'
_cell_volume   276.58753157
_cell_formula_units_Z   1
loop_
 _symmetry_equiv_pos_site_id
 _symmetry_equiv_pos_as_xyz
  1  'x, y, z'
loop_
 _atom_site_type_symbol
 _atom_site_label
 _atom_site_symmetry_multiplicity
 _atom_site_fract_x
 _atom_site_fract_y
 _atom_site_fract_z
 _atom_site_occupancy
  Mn  Mn0  1  0.500000  0.254584  0.999986  1
  Mn  Mn1  1  0.500000  0.745417  0.000014  1
  Mn  Mn2  1  0.999905  0.251875  0.167838  1
  Mn  Mn3  1  0.999905  0.748131  0.167825  1
  Mn  Mn4  1  0.499898  0.249945  0.333893  1
  Mn  Mn5  1  0.499896  0.750056  0.333855  1
  Mn  Mn6  1  0.000000  0.250313  0.499990  1
  Mn  Mn7  1  0.000000  0.749686  0.500010  1
  Mn  Mn8  1  0.500104  0.249944  0.666145  1
  Mn  Mn9  1  0.500102  0.750055  0.666107  1
  Mn  Mn10  1  0.000095  0.251870  0.832175  1
  Mn  Mn11  1  0.000095  0.748126  0.832162  1
  V  V12  1  0.000000  0.500000  0.000000  1
  V  V13  1  0.499916  0.999966  0.172668  1
  V  V14  1  0.999891  0.500045  0.335849  1
  V  V15  1  0.500000  0.000000  0.500000  1
  V  V16  1  0.000109  0.499955  0.664151  1
  V  V17  1  0.500084  0.000034  0.827333  1
  Si  Si18  1  0.499900  0.499990  0.168328  1
  Si  Si19  1  0.999892  0.000010  0.334312  1
  Si  Si20  1  0.500000  0.500000  0.500000  1
  Si  Si21  1  0.000107  0.999990  0.665688  1
  Si  Si22  1  0.500100  0.500010  0.831672  1
  Os  Os23  1  0.000000  0.000000  0.000000  1
