# generated using pymatgen
data_Tb2LuBi5O14
_symmetry_space_group_name_H-M   'P 1'
_cell_length_a   6.61696573
_cell_length_b   6.75215833
_cell_length_c   7.79618743
_cell_angle_alpha   106.90502569
_cell_angle_beta   89.54598005
_cell_angle_gamma   98.82530765
_symmetry_Int_Tables_number   1
_chemical_formula_structural   Tb2LuBi5O14
_chemical_formula_sum   'Tb2 Lu1 Bi5 O14'
_cell_volume   329.07877568
_cell_formula_units_Z   1
loop_
 _symmetry_equiv_pos_site_id
 _symmetry_equiv_pos_as_xyz
  1  'x, y, z'
loop_
 _atom_site_type_symbol
 _atom_site_label
 _atom_site_symmetry_multiplicity
 _atom_site_fract_x
 _atom_site_fract_y
 _atom_site_fract_z
 _atom_site_occupancy
  Tb  Tb0  1  0.539867  0.994613  0.751602  1
  Tb  Tb1  1  0.262189  0.538591  0.885013  1
  Lu  Lu2  1  0.463087  0.003084  0.252691  1
  Bi  Bi3  1  0.003459  0.007029  0.501305  1
  Bi  Bi4  1  0.003361  0.002057  0.002437  1
  Bi  Bi5  1  0.737927  0.478469  0.115569  1
  Bi  Bi6  1  0.720348  0.460162  0.610739  1
  Bi  Bi7  1  0.269064  0.529423  0.386020  1
  O  O8  1  0.450563  0.658852  0.169331  1
  O  O9  1  0.539526  0.345583  0.823980  1
  O  O10  1  0.304930  0.920833  0.954822  1
  O  O11  1  0.696306  0.050326  0.053416  1
  O  O12  1  0.302569  0.923374  0.509629  1
  O  O13  1  0.699516  0.079677  0.483638  1
  O  O14  1  0.529118  0.348189  0.345459  1
  O  O15  1  0.453803  0.641246  0.656037  1
  O  O16  1  0.935008  0.669251  0.957729  1
  O  O17  1  0.084071  0.327110  0.037899  1
  O  O18  1  0.088342  0.333289  0.627290  1
  O  O19  1  0.905056  0.681045  0.373088  1
  O  O20  1  0.879296  0.930185  0.733011  1
  O  O21  1  0.132595  0.077615  0.269294  1
