# generated using pymatgen
data_Yb2LuAl3Ge2Pt
_symmetry_space_group_name_H-M   'P 1'
_cell_length_a   6.94243979
_cell_length_b   6.94243858
_cell_length_c   4.26195100
_cell_angle_alpha   90.00000000
_cell_angle_beta   90.00000000
_cell_angle_gamma   120.21993538
_symmetry_Int_Tables_number   1
_chemical_formula_structural   Yb2LuAl3Ge2Pt
_chemical_formula_sum   'Yb2 Lu1 Al3 Ge2 Pt1'
_cell_volume   177.49923670
_cell_formula_units_Z   1
loop_
 _symmetry_equiv_pos_site_id
 _symmetry_equiv_pos_as_xyz
  1  'x, y, z'
loop_
 _atom_site_type_symbol
 _atom_site_label
 _atom_site_symmetry_multiplicity
 _atom_site_fract_x
 _atom_site_fract_y
 _atom_site_fract_z
 _atom_site_occupancy
  Yb  Yb0  1  0.421858  0.001000  0.000000  1
  Yb  Yb1  1  0.001000  0.421857  0.000000  1
  Lu  Lu2  1  0.582541  0.582541  0.000000  1
  Al  Al3  1  0.766221  0.997735  0.500001  1
  Al  Al4  1  0.233828  0.233828  0.500001  1
  Al  Al5  1  0.997735  0.766220  0.500001  1
  Ge  Ge6  1  0.664789  0.338946  0.500001  1
  Ge  Ge7  1  0.338946  0.664789  0.500001  1
  Pt  Pt8  1  0.993082  0.993082  0.000000  1
