# generated using pymatgen
data_Dy10GaSnSb4
_symmetry_space_group_name_H-M   'P 1'
_cell_length_a   6.42388700
_cell_length_b   8.94777111
_cell_length_c   8.90940322
_cell_angle_alpha   120.14256708
_cell_angle_beta   89.99999356
_cell_angle_gamma   90.00001412
_symmetry_Int_Tables_number   1
_chemical_formula_structural   Dy10GaSnSb4
_chemical_formula_sum   'Dy10 Ga1 Sn1 Sb4'
_cell_volume   442.85984452
_cell_formula_units_Z   1
loop_
 _symmetry_equiv_pos_site_id
 _symmetry_equiv_pos_as_xyz
  1  'x, y, z'
loop_
 _atom_site_type_symbol
 _atom_site_label
 _atom_site_symmetry_multiplicity
 _atom_site_fract_x
 _atom_site_fract_y
 _atom_site_fract_z
 _atom_site_occupancy
  Dy  Dy0  1  0.501288  0.340239  0.675539  1
  Dy  Dy1  1  0.501288  0.664700  0.324461  1
  Dy  Dy2  1  0.998713  0.664700  0.324462  1
  Dy  Dy3  1  0.998713  0.340239  0.675538  1
  Dy  Dy4  1  0.749999  0.248386  0.000000  1
  Dy  Dy5  1  0.750001  0.752726  0.764725  1
  Dy  Dy6  1  0.750001  0.988003  0.235275  1
  Dy  Dy7  1  0.250000  0.756390  0.000000  1
  Dy  Dy8  1  0.250000  0.244676  0.242748  1
  Dy  Dy9  1  0.250000  0.001928  0.757252  1
  Ga  Ga10  1  0.750000  0.606888  0.000000  1
  Sn  Sn11  1  0.250000  0.391702  0.000000  1
  Sb  Sb12  1  0.750001  0.387642  0.389607  1
  Sb  Sb13  1  0.750001  0.998035  0.610393  1
  Sb  Sb14  1  0.250001  0.610939  0.608135  1
  Sb  Sb15  1  0.250001  0.002805  0.391865  1
