# generated using pymatgen
data_LiAgCl2
_symmetry_space_group_name_H-M   'P 1'
_cell_length_a   6.64435400
_cell_length_b   7.00968600
_cell_length_c   8.25605900
_cell_angle_alpha   90.00000000
_cell_angle_beta   90.00000000
_cell_angle_gamma   90.00000000
_symmetry_Int_Tables_number   1
_chemical_formula_structural   LiAgCl2
_chemical_formula_sum   'Li4 Ag4 Cl8'
_cell_volume   384.52458743
_cell_formula_units_Z   4
loop_
 _symmetry_equiv_pos_site_id
 _symmetry_equiv_pos_as_xyz
  1  'x, y, z'
loop_
 _atom_site_type_symbol
 _atom_site_label
 _atom_site_symmetry_multiplicity
 _atom_site_fract_x
 _atom_site_fract_y
 _atom_site_fract_z
 _atom_site_occupancy
  Li  Li0  1  0.999284  0.081093  0.627684  1
  Li  Li1  1  0.499284  0.418907  0.127684  1
  Li  Li2  1  0.999284  0.581093  0.872316  1
  Li  Li3  1  0.499284  0.918907  0.372316  1
  Ag  Ag4  1  0.000862  0.085110  0.129960  1
  Ag  Ag5  1  0.500862  0.414890  0.629960  1
  Ag  Ag6  1  0.000862  0.585110  0.370040  1
  Ag  Ag7  1  0.500862  0.914890  0.870040  1
  Cl  Cl8  1  0.357592  0.067617  0.605925  1
  Cl  Cl9  1  0.394751  0.092110  0.139144  1
  Cl  Cl10  1  0.894751  0.407890  0.639144  1
  Cl  Cl11  1  0.857592  0.432383  0.105925  1
  Cl  Cl12  1  0.357592  0.567617  0.894075  1
  Cl  Cl13  1  0.394751  0.592110  0.360856  1
  Cl  Cl14  1  0.894751  0.907890  0.860856  1
  Cl  Cl15  1  0.857592  0.932383  0.394075  1
