# generated using pymatgen
data_Lu2Co9Si7Ni3
_symmetry_space_group_name_H-M   'P 1'
_cell_length_a   9.10489100
_cell_length_b   9.12250537
_cell_length_c   3.64130100
_cell_angle_alpha   90.00000000
_cell_angle_beta   90.00000000
_cell_angle_gamma   119.95372143
_symmetry_Int_Tables_number   1
_chemical_formula_structural   Lu2Co9Si7Ni3
_chemical_formula_sum   'Lu2 Co9 Si7 Ni3'
_cell_volume   262.04653881
_cell_formula_units_Z   1
loop_
 _symmetry_equiv_pos_site_id
 _symmetry_equiv_pos_as_xyz
  1  'x, y, z'
loop_
 _atom_site_type_symbol
 _atom_site_label
 _atom_site_symmetry_multiplicity
 _atom_site_fract_x
 _atom_site_fract_y
 _atom_site_fract_z
 _atom_site_occupancy
  Lu  Lu0  1  0.998038  0.998169  0.000000  1
  Lu  Lu1  1  0.671658  0.335010  0.500000  1
  Co  Co2  1  0.891951  0.284790  0.000000  1
  Co  Co3  1  0.202497  0.386493  0.000000  1
  Co  Co4  1  0.610777  0.816335  0.000000  1
  Co  Co5  1  0.185121  0.796220  0.000000  1
  Co  Co6  1  0.763933  0.045501  0.500000  1
  Co  Co7  1  0.954076  0.720105  0.500000  1
  Co  Co8  1  0.456135  0.562841  0.500000  1
  Co  Co9  1  0.434671  0.883233  0.500000  1
  Co  Co10  1  0.108862  0.546011  0.500000  1
  Si  Si11  1  0.447302  0.387269  0.000000  1
  Si  Si12  1  0.616440  0.062149  0.000000  1
  Si  Si13  1  0.940809  0.554720  0.000000  1
  Si  Si14  1  0.035372  0.265108  0.500000  1
  Si  Si15  1  0.735809  0.778014  0.500000  1
  Si  Si16  1  0.225259  0.957245  0.500000  1
  Si  Si17  1  0.332356  0.664685  0.000000  1
  Ni  Ni18  1  0.717554  0.610108  0.000000  1
  Ni  Ni19  1  0.393016  0.111760  0.000000  1
  Ni  Ni20  1  0.278361  0.234234  0.500000  1
