# generated using pymatgen
data_Pr5Nd(Si2Rh3)2
_symmetry_space_group_name_H-M   'P 1'
_cell_length_a   5.77148518
_cell_length_b   7.80836661
_cell_length_c   15.04982600
_cell_angle_alpha   90.00000000
_cell_angle_beta   90.00000000
_cell_angle_gamma   90.07341660
_symmetry_Int_Tables_number   1
_chemical_formula_structural   Pr5Nd(Si2Rh3)2
_chemical_formula_sum   'Pr10 Nd2 Si8 Rh12'
_cell_volume   678.23297778
_cell_formula_units_Z   2
loop_
 _symmetry_equiv_pos_site_id
 _symmetry_equiv_pos_as_xyz
  1  'x, y, z'
loop_
 _atom_site_type_symbol
 _atom_site_label
 _atom_site_symmetry_multiplicity
 _atom_site_fract_x
 _atom_site_fract_y
 _atom_site_fract_z
 _atom_site_occupancy
  Pr  Pr0  1  0.139960  0.473384  0.890802  1
  Pr  Pr1  1  0.359537  0.972376  0.890701  1
  Pr  Pr2  1  0.616909  0.333428  0.750000  1
  Pr  Pr3  1  0.383091  0.666572  0.250000  1
  Pr  Pr4  1  0.640463  0.027624  0.390701  1
  Pr  Pr5  1  0.860040  0.526616  0.109198  1
  Pr  Pr6  1  0.860040  0.526616  0.390802  1
  Pr  Pr7  1  0.359537  0.972376  0.609299  1
  Pr  Pr8  1  0.139960  0.473384  0.609198  1
  Pr  Pr9  1  0.640463  0.027624  0.109299  1
  Nd  Nd10  1  0.881931  0.833778  0.750000  1
  Nd  Nd11  1  0.118069  0.166222  0.250000  1
  Si  Si12  1  0.366174  0.373509  0.097700  1
  Si  Si13  1  0.633826  0.626491  0.902300  1
  Si  Si14  1  0.866547  0.125981  0.902475  1
  Si  Si15  1  0.366174  0.373509  0.402300  1
  Si  Si16  1  0.866547  0.125981  0.597525  1
  Si  Si17  1  0.633826  0.626491  0.597700  1
  Si  Si18  1  0.133453  0.874019  0.402475  1
  Si  Si19  1  0.133453  0.874019  0.097525  1
  Rh  Rh20  1  0.603545  0.337833  0.962441  1
  Rh  Rh21  1  0.396455  0.662167  0.037559  1
  Rh  Rh22  1  0.572417  0.319217  0.250000  1
  Rh  Rh23  1  0.396455  0.662167  0.462441  1
  Rh  Rh24  1  0.072413  0.178875  0.750000  1
  Rh  Rh25  1  0.102913  0.162209  0.462335  1
  Rh  Rh26  1  0.427583  0.680783  0.750000  1
  Rh  Rh27  1  0.927587  0.821125  0.250000  1
  Rh  Rh28  1  0.102913  0.162209  0.037665  1
  Rh  Rh29  1  0.603545  0.337833  0.537559  1
  Rh  Rh30  1  0.897087  0.837791  0.537665  1
  Rh  Rh31  1  0.897087  0.837791  0.962335  1
