# generated using pymatgen
data_Pr5CdRuO12
_symmetry_space_group_name_H-M   'P 1'
_cell_length_a   7.17907955
_cell_length_b   7.17908011
_cell_length_c   7.64996190
_cell_angle_alpha   74.42832864
_cell_angle_beta   74.42833674
_cell_angle_gamma   52.24032589
_symmetry_Int_Tables_number   1
_chemical_formula_structural   Pr5CdRuO12
_chemical_formula_sum   'Pr5 Cd1 Ru1 O12'
_cell_volume   297.44925920
_cell_formula_units_Z   1
loop_
 _symmetry_equiv_pos_site_id
 _symmetry_equiv_pos_as_xyz
  1  'x, y, z'
loop_
 _atom_site_type_symbol
 _atom_site_label
 _atom_site_symmetry_multiplicity
 _atom_site_fract_x
 _atom_site_fract_y
 _atom_site_fract_z
 _atom_site_occupancy
  Pr  Pr0  1  0.305827  0.301003  0.358112  1
  Pr  Pr1  1  0.698997  0.694173  0.641888  1
  Pr  Pr2  1  0.690189  0.695383  0.166509  1
  Pr  Pr3  1  0.304617  0.309811  0.833491  1
  Pr  Pr4  1  0.008907  0.991093  0.500000  1
  Cd  Cd5  1  0.757711  0.242289  0.000000  1
  Ru  Ru6  1  0.244835  0.755165  0.000000  1
  O  O7  1  0.095658  0.598347  0.571353  1
  O  O8  1  0.042579  0.955851  0.181947  1
  O  O9  1  0.401653  0.904342  0.428647  1
  O  O10  1  0.464942  0.537100  0.181286  1
  O  O11  1  0.103545  0.582532  0.081026  1
  O  O12  1  0.904916  0.402174  0.422298  1
  O  O13  1  0.044149  0.957421  0.818053  1
  O  O14  1  0.597826  0.095083  0.577702  1
  O  O15  1  0.462900  0.535058  0.818714  1
  O  O16  1  0.553054  0.099774  0.084040  1
  O  O17  1  0.417468  0.896455  0.918974  1
  O  O18  1  0.900226  0.446946  0.915960  1
