# generated using pymatgen
data_ThSc2Co9
_symmetry_space_group_name_H-M   'P 1'
_cell_length_a   8.51313693
_cell_length_b   8.51313683
_cell_length_c   8.51313881
_cell_angle_alpha   33.46003743
_cell_angle_beta   33.46003874
_cell_angle_gamma   33.46003168
_symmetry_Int_Tables_number   1
_chemical_formula_structural   ThSc2Co9
_chemical_formula_sum   'Th1 Sc2 Co9'
_cell_volume   167.03422540
_cell_formula_units_Z   1
loop_
 _symmetry_equiv_pos_site_id
 _symmetry_equiv_pos_as_xyz
  1  'x, y, z'
loop_
 _atom_site_type_symbol
 _atom_site_label
 _atom_site_symmetry_multiplicity
 _atom_site_fract_x
 _atom_site_fract_y
 _atom_site_fract_z
 _atom_site_occupancy
  Th  Th0  1  0.000000  0.000000  0.000000  1
  Sc  Sc1  1  0.857791  0.857791  0.857791  1
  Sc  Sc2  1  0.142209  0.142209  0.142209  1
  Co  Co3  1  0.412242  0.920339  0.412242  1
  Co  Co4  1  0.412242  0.412242  0.920339  1
  Co  Co5  1  0.920339  0.412242  0.412242  1
  Co  Co6  1  0.587758  0.079661  0.587758  1
  Co  Co7  1  0.587758  0.587758  0.079661  1
  Co  Co8  1  0.079661  0.587758  0.587758  1
  Co  Co9  1  0.664944  0.664944  0.664944  1
  Co  Co10  1  0.335056  0.335056  0.335056  1
  Co  Co11  1  0.500000  0.500000  0.500000  1
