# generated using pymatgen
data_Y18Er2Cd6FeNi
_symmetry_space_group_name_H-M   'P 1'
_cell_length_a   9.63311400
_cell_length_b   9.63311535
_cell_length_c   9.81860600
_cell_angle_alpha   90.00000000
_cell_angle_beta   90.00000000
_cell_angle_gamma   119.99999537
_symmetry_Int_Tables_number   1
_chemical_formula_structural   Y18Er2Cd6FeNi
_chemical_formula_sum   'Y18 Er2 Cd6 Fe1 Ni1'
_cell_volume   789.06711747
_cell_formula_units_Z   1
loop_
 _symmetry_equiv_pos_site_id
 _symmetry_equiv_pos_as_xyz
  1  'x, y, z'
loop_
 _atom_site_type_symbol
 _atom_site_label
 _atom_site_symmetry_multiplicity
 _atom_site_fract_x
 _atom_site_fract_y
 _atom_site_fract_z
 _atom_site_occupancy
  Y  Y0  1  0.541753  0.458247  0.250000  1
  Y  Y1  1  0.541753  0.083507  0.250000  1
  Y  Y2  1  0.916493  0.458247  0.250000  1
  Y  Y3  1  0.456536  0.543464  0.750000  1
  Y  Y4  1  0.456536  0.913071  0.750000  1
  Y  Y5  1  0.086929  0.543464  0.750000  1
  Y  Y6  1  0.211408  0.788592  0.436014  1
  Y  Y7  1  0.211408  0.422819  0.436014  1
  Y  Y8  1  0.577181  0.788592  0.436014  1
  Y  Y9  1  0.789726  0.210274  0.562392  1
  Y  Y10  1  0.789726  0.579451  0.562392  1
  Y  Y11  1  0.420549  0.210274  0.562392  1
  Y  Y12  1  0.789726  0.210274  0.937608  1
  Y  Y13  1  0.789726  0.579451  0.937608  1
  Y  Y14  1  0.420549  0.210274  0.937608  1
  Y  Y15  1  0.211408  0.788592  0.063986  1
  Y  Y16  1  0.211408  0.422819  0.063986  1
  Y  Y17  1  0.577181  0.788592  0.063986  1
  Er  Er18  1  0.000000  0.000000  0.500055  1
  Er  Er19  1  0.000000  0.000000  0.999945  1
  Cd  Cd20  1  0.885318  0.114682  0.250000  1
  Cd  Cd21  1  0.885318  0.770636  0.250000  1
  Cd  Cd22  1  0.229364  0.114682  0.250000  1
  Cd  Cd23  1  0.114738  0.885262  0.750000  1
  Cd  Cd24  1  0.114738  0.229476  0.750000  1
  Cd  Cd25  1  0.770524  0.885262  0.750000  1
  Fe  Fe26  1  0.333333  0.666667  0.250000  1
  Ni  Ni27  1  0.666667  0.333333  0.750000  1
