# generated using pymatgen
data_Hf6Co16Si9Tc2P3
_symmetry_space_group_name_H-M   'P 1'
_cell_length_a   12.05059347
_cell_length_b   12.03192244
_cell_length_c   3.67915200
_cell_angle_alpha   90.00000000
_cell_angle_beta   90.00000000
_cell_angle_gamma   119.89999647
_symmetry_Int_Tables_number   1
_chemical_formula_structural   Hf6Co16Si9Tc2P3
_chemical_formula_sum   'Hf6 Co16 Si9 Tc2 P3'
_cell_volume   462.44339367
_cell_formula_units_Z   1
loop_
 _symmetry_equiv_pos_site_id
 _symmetry_equiv_pos_as_xyz
  1  'x, y, z'
loop_
 _atom_site_type_symbol
 _atom_site_label
 _atom_site_symmetry_multiplicity
 _atom_site_fract_x
 _atom_site_fract_y
 _atom_site_fract_z
 _atom_site_occupancy
  Hf  Hf0  1  0.811763  0.813080  0.500000  1
  Hf  Hf1  1  0.999691  0.178259  0.500000  1
  Hf  Hf2  1  0.337238  0.665726  0.000000  1
  Hf  Hf3  1  0.664698  0.332215  0.000000  1
  Hf  Hf4  1  0.001753  0.558937  0.000000  1
  Hf  Hf5  1  0.189303  0.001361  0.500000  1
  Co  Co6  1  0.627053  0.825131  0.000000  1
  Co  Co7  1  0.374339  0.192948  0.000000  1
  Co  Co8  1  0.002248  0.728355  0.500000  1
  Co  Co9  1  0.277373  0.273506  0.500000  1
  Co  Co10  1  0.873423  0.352716  0.500000  1
  Co  Co11  1  0.723964  0.997796  0.500000  1
  Co  Co12  1  0.821535  0.631203  0.000000  1
  Co  Co13  1  0.183516  0.813926  0.000000  1
  Co  Co14  1  0.358227  0.884556  0.500000  1
  Co  Co15  1  0.126210  0.479940  0.500000  1
  Co  Co16  1  0.642618  0.524077  0.500000  1
  Co  Co17  1  0.994334  0.994055  0.000000  1
  Co  Co18  1  0.518244  0.647662  0.500000  1
  Co  Co19  1  0.480556  0.127394  0.500000  1
  Co  Co20  1  0.195896  0.369405  0.000000  1
  Co  Co21  1  0.802670  0.170527  0.000000  1
  Si  Si22  1  0.999051  0.346029  0.000000  1
  Si  Si23  1  0.823489  0.516227  0.500000  1
  Si  Si24  1  0.685483  0.166198  0.500000  1
  Si  Si25  1  0.176161  0.173151  0.000000  1
  Si  Si26  1  0.635902  0.640214  0.000000  1
  Si  Si27  1  0.517253  0.836371  0.500000  1
  Si  Si28  1  0.179259  0.693682  0.500000  1
  Si  Si29  1  0.482380  0.318068  0.500000  1
  Si  Si30  1  0.313808  0.478819  0.500000  1
  Tc  Tc31  1  0.440954  0.441776  0.000000  1
  Tc  Tc32  1  0.554429  0.002106  0.000000  1
  P  P33  1  0.820878  0.997162  0.000000  1
  P  P34  1  0.363396  0.004386  0.000000  1
  P  P35  1  0.000907  0.823037  0.000000  1
