# generated using pymatgen
data_Er3Ga3Ag2Hg
_symmetry_space_group_name_H-M   'P 1'
_cell_length_a   7.16877400
_cell_length_b   7.24388202
_cell_length_c   4.26384100
_cell_angle_alpha   90.00000000
_cell_angle_beta   90.00000000
_cell_angle_gamma   120.34719417
_symmetry_Int_Tables_number   1
_chemical_formula_structural   Er3Ga3Ag2Hg
_chemical_formula_sum   'Er3 Ga3 Ag2 Hg1'
_cell_volume   191.08114263
_cell_formula_units_Z   1
loop_
 _symmetry_equiv_pos_site_id
 _symmetry_equiv_pos_as_xyz
  1  'x, y, z'
loop_
 _atom_site_type_symbol
 _atom_site_label
 _atom_site_symmetry_multiplicity
 _atom_site_fract_x
 _atom_site_fract_y
 _atom_site_fract_z
 _atom_site_occupancy
  Er  Er0  1  0.423265  0.424728  0.500000  1
  Er  Er1  1  0.576735  0.001464  0.500000  1
  Er  Er2  1  0.000000  0.579960  0.500000  1
  Ga  Ga3  1  0.661789  0.335294  0.000000  1
  Ga  Ga4  1  0.338211  0.673507  0.000000  1
  Ga  Ga5  1  0.000000  0.989194  0.500000  1
  Ag  Ag6  1  0.751455  0.750212  0.000000  1
  Ag  Ag7  1  0.248545  0.998757  0.000000  1
  Hg  Hg8  1  0.000000  0.246884  0.000000  1
