# generated using pymatgen
data_Hf6Sc3CrRe3P
_symmetry_space_group_name_H-M   'P 1'
_cell_length_a   8.59866700
_cell_length_b   8.59866806
_cell_length_c   8.46249600
_cell_angle_alpha   90.00000000
_cell_angle_beta   90.00000000
_cell_angle_gamma   119.99999976
_symmetry_Int_Tables_number   1
_chemical_formula_structural   Hf6Sc3CrRe3P
_chemical_formula_sum   'Hf12 Sc6 Cr2 Re6 P2'
_cell_volume   541.86540371
_cell_formula_units_Z   2
loop_
 _symmetry_equiv_pos_site_id
 _symmetry_equiv_pos_as_xyz
  1  'x, y, z'
loop_
 _atom_site_type_symbol
 _atom_site_label
 _atom_site_symmetry_multiplicity
 _atom_site_fract_x
 _atom_site_fract_y
 _atom_site_fract_z
 _atom_site_occupancy
  Hf  Hf0  1  0.194242  0.805758  0.452701  1
  Hf  Hf1  1  0.194242  0.388481  0.452701  1
  Hf  Hf2  1  0.611519  0.805758  0.452701  1
  Hf  Hf3  1  0.805758  0.194242  0.547299  1
  Hf  Hf4  1  0.805758  0.611519  0.547299  1
  Hf  Hf5  1  0.388481  0.194242  0.547299  1
  Hf  Hf6  1  0.805758  0.194242  0.952701  1
  Hf  Hf7  1  0.805758  0.611519  0.952701  1
  Hf  Hf8  1  0.388481  0.194242  0.952701  1
  Hf  Hf9  1  0.194242  0.805758  0.047299  1
  Hf  Hf10  1  0.194242  0.388481  0.047299  1
  Hf  Hf11  1  0.611519  0.805758  0.047299  1
  Sc  Sc12  1  0.540300  0.459700  0.250000  1
  Sc  Sc13  1  0.540300  0.080601  0.250000  1
  Sc  Sc14  1  0.919399  0.459700  0.250000  1
  Sc  Sc15  1  0.459700  0.540300  0.750000  1
  Sc  Sc16  1  0.459700  0.919399  0.750000  1
  Sc  Sc17  1  0.080601  0.540300  0.750000  1
  Cr  Cr18  1  0.000000  0.000000  0.500000  1
  Cr  Cr19  1  0.000000  0.000000  0.000000  1
  Re  Re20  1  0.892866  0.107134  0.250000  1
  Re  Re21  1  0.892866  0.785732  0.250000  1
  Re  Re22  1  0.214268  0.107134  0.250000  1
  Re  Re23  1  0.107134  0.892866  0.750000  1
  Re  Re24  1  0.107134  0.214268  0.750000  1
  Re  Re25  1  0.785732  0.892866  0.750000  1
  P  P26  1  0.333333  0.666667  0.250000  1
  P  P27  1  0.666667  0.333333  0.750000  1
