# generated using pymatgen
data_Ca3La5(NdRu2)2
_symmetry_space_group_name_H-M   'P 1'
_cell_length_a   9.07010087
_cell_length_b   9.02549259
_cell_length_c   7.43316833
_cell_angle_alpha   84.06138565
_cell_angle_beta   84.51074444
_cell_angle_gamma   43.47779660
_symmetry_Int_Tables_number   1
_chemical_formula_structural   Ca3La5(NdRu2)2
_chemical_formula_sum   'Ca3 La5 Nd2 Ru4'
_cell_volume   416.25388191
_cell_formula_units_Z   1
loop_
 _symmetry_equiv_pos_site_id
 _symmetry_equiv_pos_as_xyz
  1  'x, y, z'
loop_
 _atom_site_type_symbol
 _atom_site_label
 _atom_site_symmetry_multiplicity
 _atom_site_fract_x
 _atom_site_fract_y
 _atom_site_fract_z
 _atom_site_occupancy
  Ca  Ca0  1  0.794136  0.633476  0.683879  1
  Ca  Ca1  1  0.637504  0.790011  0.185360  1
  Ca  Ca2  1  0.207455  0.365229  0.317204  1
  La  La3  1  0.010209  0.804021  0.905482  1
  La  La4  1  0.200627  0.988179  0.597399  1
  La  La5  1  0.983678  0.203832  0.098158  1
  La  La6  1  0.804714  0.012402  0.405080  1
  La  La7  1  0.366665  0.213702  0.819673  1
  Nd  Nd8  1  0.572221  0.432109  0.749119  1
  Nd  Nd9  1  0.427414  0.571737  0.247277  1
  Ru  Ru10  1  0.167924  0.617416  0.600315  1
  Ru  Ru11  1  0.366429  0.845461  0.906400  1
  Ru  Ru12  1  0.838763  0.359160  0.407889  1
  Ru  Ru13  1  0.622263  0.163266  0.076766  1
