# generated using pymatgen
data_TbYbPa2(B4Os)4
_symmetry_space_group_name_H-M   'P 1'
_cell_length_a   3.58133400
_cell_length_b   5.98164616
_cell_length_c   11.59155301
_cell_angle_alpha   90.08464874
_cell_angle_beta   90.00000000
_cell_angle_gamma   90.00000000
_symmetry_Int_Tables_number   1
_chemical_formula_structural   TbYbPa2(B4Os)4
_chemical_formula_sum   'Tb1 Yb1 Pa2 B16 Os4'
_cell_volume   248.31713954
_cell_formula_units_Z   1
loop_
 _symmetry_equiv_pos_site_id
 _symmetry_equiv_pos_as_xyz
  1  'x, y, z'
loop_
 _atom_site_type_symbol
 _atom_site_label
 _atom_site_symmetry_multiplicity
 _atom_site_fract_x
 _atom_site_fract_y
 _atom_site_fract_z
 _atom_site_occupancy
  Tb  Tb0  1  0.000000  0.627877  0.852760  1
  Yb  Yb1  1  0.000000  0.371177  0.147530  1
  Pa  Pa2  1  0.000000  0.128830  0.650815  1
  Pa  Pa3  1  0.000000  0.870987  0.347713  1
  B  B4  1  0.500000  0.473994  0.691778  1
  B  B5  1  0.500000  0.525459  0.308071  1
  B  B6  1  0.500000  0.971249  0.810242  1
  B  B7  1  0.500000  0.027520  0.189776  1
  B  B8  1  0.500000  0.289111  0.814597  1
  B  B9  1  0.500000  0.710877  0.185363  1
  B  B10  1  0.500000  0.789254  0.688274  1
  B  B11  1  0.500000  0.211598  0.312024  1
  B  B12  1  0.500000  0.362500  0.969824  1
  B  B13  1  0.500000  0.636825  0.031532  1
  B  B14  1  0.500000  0.865526  0.531420  1
  B  B15  1  0.500000  0.133798  0.467424  1
  B  B16  1  0.500000  0.386861  0.546181  1
  B  B17  1  0.500000  0.612492  0.452963  1
  B  B18  1  0.500000  0.887578  0.955794  1
  B  B19  1  0.500000  0.114724  0.046154  1
  Os  Os20  1  0.000000  0.138922  0.904525  1
  Os  Os21  1  0.000000  0.861612  0.094658  1
  Os  Os22  1  0.000000  0.643852  0.594588  1
  Os  Os23  1  0.000000  0.357378  0.405993  1
