# generated using pymatgen
data_Sr5Ge2BiH
_symmetry_space_group_name_H-M   'P 1'
_cell_length_a   9.81778439
_cell_length_b   9.81778389
_cell_length_c   9.81778434
_cell_angle_alpha   129.19788402
_cell_angle_beta   129.19788048
_cell_angle_gamma   74.69238070
_symmetry_Int_Tables_number   1
_chemical_formula_structural   Sr5Ge2BiH
_chemical_formula_sum   'Sr10 Ge4 Bi2 H2'
_cell_volume   553.70219952
_cell_formula_units_Z   2
loop_
 _symmetry_equiv_pos_site_id
 _symmetry_equiv_pos_as_xyz
  1  'x, y, z'
loop_
 _atom_site_type_symbol
 _atom_site_label
 _atom_site_symmetry_multiplicity
 _atom_site_fract_x
 _atom_site_fract_y
 _atom_site_fract_z
 _atom_site_occupancy
  Sr  Sr0  1  0.500000  0.500000  0.000000  1
  Sr  Sr1  1  0.000000  0.000000  0.000000  1
  Sr  Sr2  1  0.519927  0.019927  0.822745  1
  Sr  Sr3  1  0.197182  0.697182  0.177255  1
  Sr  Sr4  1  0.019927  0.197182  0.500000  1
  Sr  Sr5  1  0.697182  0.519927  0.500000  1
  Sr  Sr6  1  0.480073  0.980073  0.177255  1
  Sr  Sr7  1  0.802818  0.302818  0.822745  1
  Sr  Sr8  1  0.980073  0.802818  0.500000  1
  Sr  Sr9  1  0.302818  0.480073  0.500000  1
  Ge  Ge10  1  0.880770  0.380770  0.261542  1
  Ge  Ge11  1  0.119230  0.619230  0.738458  1
  Ge  Ge12  1  0.380770  0.119230  0.500000  1
  Ge  Ge13  1  0.619230  0.880770  0.500000  1
  Bi  Bi14  1  0.250000  0.250000  0.000000  1
  Bi  Bi15  1  0.750000  0.750000  0.000000  1
  H  H16  1  0.250000  0.750000  0.500000  1
  H  H17  1  0.750000  0.250000  0.500000  1
