# generated using pymatgen
data_ErTh2(InRu)3
_symmetry_space_group_name_H-M   'P 1'
_cell_length_a   7.66872470
_cell_length_b   7.31071937
_cell_length_c   4.04664600
_cell_angle_alpha   90.00000000
_cell_angle_beta   90.00000000
_cell_angle_gamma   118.46736349
_symmetry_Int_Tables_number   1
_chemical_formula_structural   ErTh2(InRu)3
_chemical_formula_sum   'Er1 Th2 In3 Ru3'
_cell_volume   199.43951308
_cell_formula_units_Z   1
loop_
 _symmetry_equiv_pos_site_id
 _symmetry_equiv_pos_as_xyz
  1  'x, y, z'
loop_
 _atom_site_type_symbol
 _atom_site_label
 _atom_site_symmetry_multiplicity
 _atom_site_fract_x
 _atom_site_fract_y
 _atom_site_fract_z
 _atom_site_occupancy
  Er  Er0  1  0.000000  0.406452  0.500000  1
  Th  Th1  1  0.413621  0.998001  0.500000  1
  Th  Th2  1  0.586379  0.584381  0.500000  1
  In  In3  1  0.234347  0.252109  0.000000  1
  In  In4  1  0.765653  0.017762  0.000000  1
  In  In5  1  0.000000  0.728906  0.000000  1
  Ru  Ru6  1  0.000000  0.988195  0.500000  1
  Ru  Ru7  1  0.635761  0.329976  0.000000  1
  Ru  Ru8  1  0.364239  0.694218  0.000000  1
