# generated using pymatgen
data_Y3Lu7Cd3Ir
_symmetry_space_group_name_H-M   'P 1'
_cell_length_a   9.54419400
_cell_length_b   9.54419447
_cell_length_c   9.65361500
_cell_angle_alpha   90.00000000
_cell_angle_beta   90.00000000
_cell_angle_gamma   119.99999839
_symmetry_Int_Tables_number   1
_chemical_formula_structural   Y3Lu7Cd3Ir
_chemical_formula_sum   'Y6 Lu14 Cd6 Ir2'
_cell_volume   761.55127812
_cell_formula_units_Z   2
loop_
 _symmetry_equiv_pos_site_id
 _symmetry_equiv_pos_as_xyz
  1  'x, y, z'
loop_
 _atom_site_type_symbol
 _atom_site_label
 _atom_site_symmetry_multiplicity
 _atom_site_fract_x
 _atom_site_fract_y
 _atom_site_fract_z
 _atom_site_occupancy
  Y  Y0  1  0.540417  0.459583  0.250000  1
  Y  Y1  1  0.540417  0.080833  0.250000  1
  Y  Y2  1  0.919167  0.459583  0.250000  1
  Y  Y3  1  0.459583  0.540417  0.750000  1
  Y  Y4  1  0.459583  0.919167  0.750000  1
  Y  Y5  1  0.080833  0.540417  0.750000  1
  Lu  Lu6  1  0.000000  0.000000  0.500000  1
  Lu  Lu7  1  0.000000  0.000000  0.000000  1
  Lu  Lu8  1  0.209629  0.790371  0.440066  1
  Lu  Lu9  1  0.209629  0.419260  0.440066  1
  Lu  Lu10  1  0.580740  0.790371  0.440066  1
  Lu  Lu11  1  0.790371  0.209629  0.559934  1
  Lu  Lu12  1  0.790371  0.580740  0.559934  1
  Lu  Lu13  1  0.419260  0.209629  0.559934  1
  Lu  Lu14  1  0.790371  0.209629  0.940066  1
  Lu  Lu15  1  0.790371  0.580740  0.940066  1
  Lu  Lu16  1  0.419260  0.209629  0.940066  1
  Lu  Lu17  1  0.209629  0.790371  0.059934  1
  Lu  Lu18  1  0.209629  0.419260  0.059934  1
  Lu  Lu19  1  0.580740  0.790371  0.059934  1
  Cd  Cd20  1  0.886739  0.113261  0.250000  1
  Cd  Cd21  1  0.886739  0.773479  0.250000  1
  Cd  Cd22  1  0.226521  0.113261  0.250000  1
  Cd  Cd23  1  0.113261  0.886739  0.750000  1
  Cd  Cd24  1  0.113261  0.226521  0.750000  1
  Cd  Cd25  1  0.773479  0.886739  0.750000  1
  Ir  Ir26  1  0.333333  0.666667  0.250000  1
  Ir  Ir27  1  0.666667  0.333333  0.750000  1
