# generated using pymatgen
data_Sm2Al9Os2Au
_symmetry_space_group_name_H-M   'P 1'
_cell_length_a   7.63647100
_cell_length_b   7.63647022
_cell_length_c   9.55340500
_cell_angle_alpha   90.00000000
_cell_angle_beta   90.00000000
_cell_angle_gamma   119.43026808
_symmetry_Int_Tables_number   1
_chemical_formula_structural   Sm2Al9Os2Au
_chemical_formula_sum   'Sm4 Al18 Os4 Au2'
_cell_volume   485.22029108
_cell_formula_units_Z   2
loop_
 _symmetry_equiv_pos_site_id
 _symmetry_equiv_pos_as_xyz
  1  'x, y, z'
loop_
 _atom_site_type_symbol
 _atom_site_label
 _atom_site_symmetry_multiplicity
 _atom_site_fract_x
 _atom_site_fract_y
 _atom_site_fract_z
 _atom_site_occupancy
  Sm  Sm0  1  0.997495  0.675497  0.250000  1
  Sm  Sm1  1  0.002505  0.324503  0.750000  1
  Sm  Sm2  1  0.675497  0.997495  0.250000  1
  Sm  Sm3  1  0.324503  0.002505  0.750000  1
  Al  Al4  1  0.143569  0.143569  0.250000  1
  Al  Al5  1  0.856431  0.856431  0.750000  1
  Al  Al6  1  0.003732  0.347057  0.075469  1
  Al  Al7  1  0.996268  0.652943  0.924531  1
  Al  Al8  1  0.996268  0.652943  0.575469  1
  Al  Al9  1  0.347057  0.003732  0.424531  1
  Al  Al10  1  0.003732  0.347057  0.424531  1
  Al  Al11  1  0.652943  0.996268  0.575469  1
  Al  Al12  1  0.652943  0.996268  0.924531  1
  Al  Al13  1  0.347057  0.003732  0.075469  1
  Al  Al14  1  0.344425  0.344425  0.551583  1
  Al  Al15  1  0.655575  0.655575  0.448417  1
  Al  Al16  1  0.655575  0.655575  0.051583  1
  Al  Al17  1  0.344425  0.344425  0.948417  1
  Al  Al18  1  0.337554  0.552432  0.250000  1
  Al  Al19  1  0.662446  0.447568  0.750000  1
  Al  Al20  1  0.552432  0.337554  0.250000  1
  Al  Al21  1  0.447568  0.662446  0.750000  1
  Os  Os22  1  0.672030  0.327970  0.000000  1
  Os  Os23  1  0.327970  0.672030  0.000000  1
  Os  Os24  1  0.327970  0.672030  0.500000  1
  Os  Os25  1  0.672030  0.327970  0.500000  1
  Au  Au26  1  0.000000  0.000000  0.000000  1
  Au  Au27  1  0.000000  0.000000  0.500000  1
