# generated using pymatgen
data_Pa2(B2Ir)3
_symmetry_space_group_name_H-M   'P 1'
_cell_length_a   3.71463700
_cell_length_b   5.98948238
_cell_length_c   5.98948180
_cell_angle_alpha   94.72853701
_cell_angle_beta   90.00000000
_cell_angle_gamma   90.00000000
_symmetry_Int_Tables_number   1
_chemical_formula_structural   Pa2(B2Ir)3
_chemical_formula_sum   'Pa2 B6 Ir3'
_cell_volume   132.80494863
_cell_formula_units_Z   1
loop_
 _symmetry_equiv_pos_site_id
 _symmetry_equiv_pos_as_xyz
  1  'x, y, z'
loop_
 _atom_site_type_symbol
 _atom_site_label
 _atom_site_symmetry_multiplicity
 _atom_site_fract_x
 _atom_site_fract_y
 _atom_site_fract_z
 _atom_site_occupancy
  Pa  Pa0  1  0.000000  0.271856  0.728144  1
  Pa  Pa1  1  0.000000  0.728144  0.271856  1
  B  B2  1  0.500000  0.916932  0.613542  1
  B  B3  1  0.500000  0.083068  0.386458  1
  B  B4  1  0.500000  0.613542  0.916932  1
  B  B5  1  0.500000  0.386458  0.083068  1
  B  B6  1  0.500000  0.604984  0.604984  1
  B  B7  1  0.500000  0.395016  0.395016  1
  Ir  Ir8  1  0.500000  0.000000  0.000000  1
  Ir  Ir9  1  0.000000  0.759424  0.759424  1
  Ir  Ir10  1  0.000000  0.240576  0.240576  1
