# generated using pymatgen
data_Tb2Nd2Y2IrI10
_symmetry_space_group_name_H-M   'P 1'
_cell_length_a   7.82599784
_cell_length_b   9.86137138
_cell_length_c   9.88650272
_cell_angle_alpha   106.94649676
_cell_angle_beta   96.42159071
_cell_angle_gamma   104.95985049
_symmetry_Int_Tables_number   1
_chemical_formula_structural   Tb2Nd2Y2IrI10
_chemical_formula_sum   'Tb2 Nd2 Y2 Ir1 I10'
_cell_volume   690.52341382
_cell_formula_units_Z   1
loop_
 _symmetry_equiv_pos_site_id
 _symmetry_equiv_pos_as_xyz
  1  'x, y, z'
loop_
 _atom_site_type_symbol
 _atom_site_label
 _atom_site_symmetry_multiplicity
 _atom_site_fract_x
 _atom_site_fract_y
 _atom_site_fract_z
 _atom_site_occupancy
  Tb  Tb0  1  0.969820  0.286335  0.085951  1
  Tb  Tb1  1  0.030180  0.713665  0.914049  1
  Nd  Nd2  1  0.116374  0.043422  0.761517  1
  Nd  Nd3  1  0.883626  0.956578  0.238483  1
  Y  Y4  1  0.348721  0.125516  0.165752  1
  Y  Y5  1  0.651279  0.874484  0.834248  1
  Ir  Ir6  1  0.000000  0.000000  0.000000  1
  I  I7  1  0.348937  0.448017  0.270691  1
  I  I8  1  0.651063  0.551983  0.729309  1
  I  I9  1  0.264687  0.089057  0.457740  1
  I  I10  1  0.735313  0.910943  0.542260  1
  I  I11  1  0.084308  0.376777  0.823941  1
  I  I12  1  0.915692  0.623223  0.176059  1
  I  I13  1  0.449998  0.817548  0.088882  1
  I  I14  1  0.550002  0.182452  0.911118  1
  I  I15  1  0.775017  0.260006  0.342947  1
  I  I16  1  0.224983  0.739994  0.657053  1
