# generated using pymatgen
data_Nd12TcOsPd2
_symmetry_space_group_name_H-M   'P 1'
_cell_length_a   6.49007662
_cell_length_b   7.46876749
_cell_length_c   9.91279200
_cell_angle_alpha   90.00000000
_cell_angle_beta   90.00000000
_cell_angle_gamma   90.23455135
_symmetry_Int_Tables_number   1
_chemical_formula_structural   Nd12TcOsPd2
_chemical_formula_sum   'Nd12 Tc1 Os1 Pd2'
_cell_volume   480.49748419
_cell_formula_units_Z   1
loop_
 _symmetry_equiv_pos_site_id
 _symmetry_equiv_pos_as_xyz
  1  'x, y, z'
loop_
 _atom_site_type_symbol
 _atom_site_label
 _atom_site_symmetry_multiplicity
 _atom_site_fract_x
 _atom_site_fract_y
 _atom_site_fract_z
 _atom_site_occupancy
  Nd  Nd0  1  0.327674  0.683127  0.060105  1
  Nd  Nd1  1  0.162163  0.171297  0.433475  1
  Nd  Nd2  1  0.662057  0.329382  0.565906  1
  Nd  Nd3  1  0.829192  0.816143  0.939573  1
  Nd  Nd4  1  0.662057  0.329382  0.934094  1
  Nd  Nd5  1  0.829192  0.816143  0.560427  1
  Nd  Nd6  1  0.327674  0.683127  0.439895  1
  Nd  Nd7  1  0.162163  0.171297  0.066525  1
  Nd  Nd8  1  0.870368  0.539450  0.250000  1
  Nd  Nd9  1  0.643650  0.027463  0.250000  1
  Nd  Nd10  1  0.146228  0.473101  0.750000  1
  Nd  Nd11  1  0.371286  0.958822  0.750000  1
  Tc  Tc12  1  0.068445  0.883499  0.250000  1
  Os  Os13  1  0.566494  0.616501  0.750000  1
  Pd  Pd14  1  0.434002  0.386802  0.250000  1
  Pd  Pd15  1  0.937354  0.114465  0.750000  1
