# generated using pymatgen
data_Hf12Tc6Ru5Au
_symmetry_space_group_name_H-M   'P 1'
_cell_length_a   4.61244200
_cell_length_b   6.53996500
_cell_length_c   13.85843400
_cell_angle_alpha   89.99980854
_cell_angle_beta   89.99978069
_cell_angle_gamma   90.00019575
_symmetry_Int_Tables_number   1
_chemical_formula_structural   Hf12Tc6Ru5Au
_chemical_formula_sum   'Hf12 Tc6 Ru5 Au1'
_cell_volume   418.04256141
_cell_formula_units_Z   1
loop_
 _symmetry_equiv_pos_site_id
 _symmetry_equiv_pos_as_xyz
  1  'x, y, z'
loop_
 _atom_site_type_symbol
 _atom_site_label
 _atom_site_symmetry_multiplicity
 _atom_site_fract_x
 _atom_site_fract_y
 _atom_site_fract_z
 _atom_site_occupancy
  Hf  Hf0  1  0.499999  0.261483  0.000000  1
  Hf  Hf1  1  0.499999  0.738517  0.000000  1
  Hf  Hf2  1  0.999970  0.254723  0.171547  1
  Hf  Hf3  1  0.999971  0.745276  0.171547  1
  Hf  Hf4  1  0.499971  0.249406  0.334170  1
  Hf  Hf5  1  0.499972  0.750593  0.334171  1
  Hf  Hf6  1  0.999999  0.250032  0.500000  1
  Hf  Hf7  1  0.000001  0.749968  0.500000  1
  Hf  Hf8  1  0.500025  0.249407  0.665829  1
  Hf  Hf9  1  0.500026  0.750594  0.665830  1
  Hf  Hf10  1  0.000029  0.254724  0.828454  1
  Hf  Hf11  1  0.000030  0.745277  0.828454  1
  Tc  Tc12  1  0.000000  0.500001  0.000000  1
  Tc  Tc13  1  0.499971  0.999999  0.164527  1
  Tc  Tc14  1  0.999968  0.500002  0.333876  1
  Tc  Tc15  1  0.499999  0.000000  0.500000  1
  Tc  Tc16  1  0.000032  0.500000  0.666123  1
  Tc  Tc17  1  0.500026  0.000001  0.835473  1
  Ru  Ru18  1  0.499965  0.500000  0.166915  1
  Ru  Ru19  1  0.999963  0.000000  0.332906  1
  Ru  Ru20  1  0.499999  0.500001  0.500000  1
  Ru  Ru21  1  0.000037  0.000000  0.667094  1
  Ru  Ru22  1  0.500034  0.500002  0.833085  1
  Au  Au23  1  0.000000  0.000000  0.000000  1
