# generated using pymatgen
data_PaSb3F20
_symmetry_space_group_name_H-M   'P 1'
_cell_length_a   9.10386894
_cell_length_b   9.10386923
_cell_length_c   5.63085963
_cell_angle_alpha   88.31021865
_cell_angle_beta   88.31022093
_cell_angle_gamma   111.64505605
_symmetry_Int_Tables_number   1
_chemical_formula_structural   PaSb3F20
_chemical_formula_sum   'Pa1 Sb3 F20'
_cell_volume   433.18233055
_cell_formula_units_Z   1
loop_
 _symmetry_equiv_pos_site_id
 _symmetry_equiv_pos_as_xyz
  1  'x, y, z'
loop_
 _atom_site_type_symbol
 _atom_site_label
 _atom_site_symmetry_multiplicity
 _atom_site_fract_x
 _atom_site_fract_y
 _atom_site_fract_z
 _atom_site_occupancy
  Pa  Pa0  1  0.793021  0.206979  0.000000  1
  Sb  Sb1  1  0.196555  0.803445  0.000000  1
  Sb  Sb2  1  0.257229  0.248153  0.242347  1
  Sb  Sb3  1  0.751847  0.742771  0.757653  1
  F  F4  1  0.268893  0.447405  0.342060  1
  F  F5  1  0.456617  0.252921  0.333550  1
  F  F6  1  0.747079  0.543383  0.666450  1
  F  F7  1  0.552595  0.731107  0.657940  1
  F  F8  1  0.329617  0.318153  0.927372  1
  F  F9  1  0.681847  0.670383  0.072628  1
  F  F10  1  0.833792  0.422007  0.140360  1
  F  F11  1  0.397725  0.842202  0.120177  1
  F  F12  1  0.157798  0.602275  0.879823  1
  F  F13  1  0.577993  0.166208  0.859640  1
  F  F14  1  0.038760  0.208697  0.124122  1
  F  F15  1  0.207501  0.021049  0.116347  1
  F  F16  1  0.978951  0.792499  0.883653  1
  F  F17  1  0.791303  0.961240  0.875878  1
  F  F18  1  0.149551  0.137916  0.522212  1
  F  F19  1  0.862084  0.850449  0.477788  1
  F  F20  1  0.908419  0.300201  0.683450  1
  F  F21  1  0.274804  0.913783  0.708038  1
  F  F22  1  0.086217  0.725196  0.291962  1
  F  F23  1  0.699799  0.091581  0.316550  1
