# generated using pymatgen
data_LiLa2Nd14Cd3Pt4
_symmetry_space_group_name_H-M   'P 1'
_cell_length_a   10.05847338
_cell_length_b   10.05848471
_cell_length_c   10.07159655
_cell_angle_alpha   60.02135534
_cell_angle_beta   60.02169459
_cell_angle_gamma   60.05394855
_symmetry_Int_Tables_number   1
_chemical_formula_structural   LiLa2Nd14Cd3Pt4
_chemical_formula_sum   'Li1 La2 Nd14 Cd3 Pt4'
_cell_volume   721.05110341
_cell_formula_units_Z   1
loop_
 _symmetry_equiv_pos_site_id
 _symmetry_equiv_pos_as_xyz
  1  'x, y, z'
loop_
 _atom_site_type_symbol
 _atom_site_label
 _atom_site_symmetry_multiplicity
 _atom_site_fract_x
 _atom_site_fract_y
 _atom_site_fract_z
 _atom_site_occupancy
  Li  Li0  1  0.572613  0.572616  0.571643  1
  La  La1  1  0.349380  0.349367  0.350374  1
  La  La2  1  0.350000  0.349999  0.949326  1
  Nd  Nd3  1  0.350216  0.947952  0.351077  1
  Nd  Nd4  1  0.947949  0.350219  0.351073  1
  Nd  Nd5  1  0.810383  0.191914  0.191796  1
  Nd  Nd6  1  0.187843  0.812466  0.811485  1
  Nd  Nd7  1  0.191917  0.810381  0.191797  1
  Nd  Nd8  1  0.812466  0.187844  0.811486  1
  Nd  Nd9  1  0.191550  0.191553  0.810408  1
  Nd  Nd10  1  0.811442  0.811441  0.187956  1
  Nd  Nd11  1  0.937257  0.564935  0.564984  1
  Nd  Nd12  1  0.562812  0.935791  0.935704  1
  Nd  Nd13  1  0.564936  0.937254  0.564989  1
  Nd  Nd14  1  0.935791  0.562813  0.935702  1
  Nd  Nd15  1  0.565026  0.565029  0.936925  1
  Nd  Nd16  1  0.936037  0.936040  0.562433  1
  Cd  Cd17  1  0.582565  0.582567  0.256579  1
  Cd  Cd18  1  0.583144  0.256121  0.581527  1
  Cd  Cd19  1  0.256122  0.583146  0.581525  1
  Pt  Pt20  1  0.143616  0.143615  0.144082  1
  Pt  Pt21  1  0.142725  0.142727  0.571211  1
  Pt  Pt22  1  0.142441  0.571771  0.142959  1
  Pt  Pt23  1  0.571772  0.142440  0.142960  1
