# generated using pymatgen
data_Yb3SmEr4(B6Os)4
_symmetry_space_group_name_H-M   'P 1'
_cell_length_a   3.64154800
_cell_length_b   9.14198108
_cell_length_c   11.54468600
_cell_angle_alpha   89.93238870
_cell_angle_beta   90.00000000
_cell_angle_gamma   90.00000000
_symmetry_Int_Tables_number   1
_chemical_formula_structural   Yb3SmEr4(B6Os)4
_chemical_formula_sum   'Yb3 Sm1 Er4 B24 Os4'
_cell_volume   384.33344609
_cell_formula_units_Z   1
loop_
 _symmetry_equiv_pos_site_id
 _symmetry_equiv_pos_as_xyz
  1  'x, y, z'
loop_
 _atom_site_type_symbol
 _atom_site_label
 _atom_site_symmetry_multiplicity
 _atom_site_fract_x
 _atom_site_fract_y
 _atom_site_fract_z
 _atom_site_occupancy
  Yb  Yb0  1  0.000000  0.324749  0.414457  1
  Yb  Yb1  1  0.000000  0.675572  0.584736  1
  Yb  Yb2  1  0.000000  0.823003  0.086438  1
  Sm  Sm3  1  0.000000  0.176331  0.914777  1
  Er  Er4  1  0.000000  0.941159  0.367935  1
  Er  Er5  1  0.000000  0.057755  0.630314  1
  Er  Er6  1  0.000000  0.443427  0.132662  1
  Er  Er7  1  0.000000  0.558771  0.868430  1
  B  B8  1  0.500000  0.553408  0.432981  1
  B  B9  1  0.500000  0.446531  0.567253  1
  B  B10  1  0.500000  0.053218  0.068369  1
  B  B11  1  0.500000  0.944474  0.932924  1
  B  B12  1  0.500000  0.748362  0.417395  1
  B  B13  1  0.500000  0.251508  0.581992  1
  B  B14  1  0.500000  0.249206  0.084013  1
  B  B15  1  0.500000  0.751077  0.917706  1
  B  B16  1  0.500000  0.790705  0.264502  1
  B  B17  1  0.500000  0.209583  0.734290  1
  B  B18  1  0.500000  0.291109  0.235820  1
  B  B19  1  0.500000  0.709638  0.764542  1
  B  B20  1  0.500000  0.630828  0.186243  1
  B  B21  1  0.500000  0.370337  0.813730  1
  B  B22  1  0.500000  0.130626  0.314135  1
  B  B23  1  0.500000  0.868951  0.684786  1
  B  B24  1  0.500000  0.982445  0.211477  1
  B  B25  1  0.500000  0.015451  0.787508  1
  B  B26  1  0.500000  0.483644  0.289279  1
  B  B27  1  0.500000  0.516989  0.711182  1
  B  B28  1  0.500000  0.598514  0.027354  1
  B  B29  1  0.500000  0.403144  0.973455  1
  B  B30  1  0.500000  0.096638  0.472647  1
  B  B31  1  0.500000  0.902831  0.526212  1
  Os  Os32  1  0.000000  0.638935  0.320632  1
  Os  Os33  1  0.000000  0.360631  0.680061  1
  Os  Os34  1  0.000000  0.138577  0.180094  1
  Os  Os35  1  0.000000  0.861873  0.819668  1
