# generated using pymatgen
data_Li3Nd2Dy3(P3Ir4)4
_symmetry_space_group_name_H-M   'P 1'
_cell_length_a   12.74829600
_cell_length_b   12.74970785
_cell_length_c   3.99135700
_cell_angle_alpha   90.00000000
_cell_angle_beta   90.00000000
_cell_angle_gamma   119.99633177
_symmetry_Int_Tables_number   1
_chemical_formula_structural   Li3Nd2Dy3(P3Ir4)4
_chemical_formula_sum   'Li3 Nd2 Dy3 P12 Ir16'
_cell_volume   561.84902273
_cell_formula_units_Z   1
loop_
 _symmetry_equiv_pos_site_id
 _symmetry_equiv_pos_as_xyz
  1  'x, y, z'
loop_
 _atom_site_type_symbol
 _atom_site_label
 _atom_site_symmetry_multiplicity
 _atom_site_fract_x
 _atom_site_fract_y
 _atom_site_fract_z
 _atom_site_occupancy
  Li  Li0  1  0.999872  0.441146  0.500000  1
  Li  Li1  1  0.558726  0.558854  0.500000  1
  Li  Li2  1  0.442175  0.000000  0.500000  1
  Nd  Nd3  1  0.999820  0.809073  0.000000  1
  Nd  Nd4  1  0.190747  0.190927  0.000000  1
  Dy  Dy5  1  0.333432  0.666639  0.500000  1
  Dy  Dy6  1  0.666794  0.333361  0.500000  1
  Dy  Dy7  1  0.807971  0.000000  0.000000  1
  P  P8  1  0.000123  0.627400  0.500000  1
  P  P9  1  0.372723  0.372600  0.500000  1
  P  P10  1  0.629676  0.000000  0.500000  1
  P  P11  1  0.515998  0.688016  0.000000  1
  P  P12  1  0.312482  0.828092  0.000000  1
  P  P13  1  0.171388  0.483411  0.000000  1
  P  P14  1  0.484389  0.171908  0.000000  1
  P  P15  1  0.687978  0.516589  0.000000  1
  P  P16  1  0.827982  0.311984  0.000000  1
  P  P17  1  0.998391  0.180562  0.500000  1
  P  P18  1  0.817829  0.819438  0.500000  1
  P  P19  1  0.181667  0.000000  0.500000  1
  Ir  Ir20  1  0.509447  0.868347  0.000000  1
  Ir  Ir21  1  0.131981  0.640509  0.000000  1
  Ir  Ir22  1  0.359501  0.491309  0.000000  1
  Ir  Ir23  1  0.491474  0.359491  0.000000  1
  Ir  Ir24  1  0.868193  0.508691  0.000000  1
  Ir  Ir25  1  0.641101  0.131653  0.000000  1
  Ir  Ir26  1  0.998487  0.280957  0.000000  1
  Ir  Ir27  1  0.717531  0.719043  0.000000  1
  Ir  Ir28  1  0.282954  0.000000  0.000000  1
  Ir  Ir29  1  0.626496  0.807703  0.500000  1
  Ir  Ir30  1  0.196351  0.819722  0.500000  1
  Ir  Ir31  1  0.179636  0.376315  0.500000  1
  Ir  Ir32  1  0.376629  0.180278  0.500000  1
  Ir  Ir33  1  0.803321  0.623685  0.500000  1
  Ir  Ir34  1  0.818793  0.192297  0.500000  1
  Ir  Ir35  1  0.997942  0.000000  0.500000  1
