# generated using pymatgen
data_P4OsRu
_symmetry_space_group_name_H-M   'P 1'
_cell_length_a   2.92716200
_cell_length_b   5.12906136
_cell_length_c   5.92465142
_cell_angle_alpha   89.95699212
_cell_angle_beta   90.00000000
_cell_angle_gamma   90.00000000
_symmetry_Int_Tables_number   1
_chemical_formula_structural   P4OsRu
_chemical_formula_sum   'P4 Os1 Ru1'
_cell_volume   88.95028302
_cell_formula_units_Z   1
loop_
 _symmetry_equiv_pos_site_id
 _symmetry_equiv_pos_as_xyz
  1  'x, y, z'
loop_
 _atom_site_type_symbol
 _atom_site_label
 _atom_site_symmetry_multiplicity
 _atom_site_fract_x
 _atom_site_fract_y
 _atom_site_fract_z
 _atom_site_occupancy
  P  P0  1  0.500000  0.337572  0.872970  1
  P  P1  1  0.500000  0.662428  0.127030  1
  P  P2  1  0.000000  0.161869  0.372046  1
  P  P3  1  0.000000  0.838131  0.627954  1
  Os  Os4  1  0.500000  0.500000  0.500000  1
  Ru  Ru5  1  0.000000  0.000000  0.000000  1
