# generated using pymatgen
data_NaPr(TlBr3)2
_symmetry_space_group_name_H-M   'P 1'
_cell_length_a   7.79940486
_cell_length_b   8.38239300
_cell_length_c   13.74361100
_cell_angle_alpha   90.00000000
_cell_angle_beta   123.81147793
_cell_angle_gamma   90.00000000
_symmetry_Int_Tables_number   1
_chemical_formula_structural   NaPr(TlBr3)2
_chemical_formula_sum   'Na2 Pr2 Tl4 Br12'
_cell_volume   746.56046856
_cell_formula_units_Z   2
loop_
 _symmetry_equiv_pos_site_id
 _symmetry_equiv_pos_as_xyz
  1  'x, y, z'
loop_
 _atom_site_type_symbol
 _atom_site_label
 _atom_site_symmetry_multiplicity
 _atom_site_fract_x
 _atom_site_fract_y
 _atom_site_fract_z
 _atom_site_occupancy
  Na  Na0  1  0.500000  0.500001  0.000000  1
  Na  Na1  1  0.499999  0.000000  0.500000  1
  Pr  Pr2  1  0.000000  0.000000  0.000000  1
  Pr  Pr3  1  0.000000  0.500001  0.500000  1
  Tl  Tl4  1  0.275063  0.419633  0.250937  1
  Tl  Tl5  1  0.724937  0.919634  0.249064  1
  Tl  Tl6  1  0.275062  0.080367  0.750936  1
  Tl  Tl7  1  0.724937  0.580366  0.749064  1
  Br  Br8  1  0.234973  0.700860  0.053989  1
  Br  Br9  1  0.362986  0.184686  0.054330  1
  Br  Br10  1  0.136571  0.030918  0.246504  1
  Br  Br11  1  0.863429  0.530918  0.253496  1
  Br  Br12  1  0.637016  0.684687  0.445670  1
  Br  Br13  1  0.765026  0.200859  0.446011  1
  Br  Br14  1  0.234975  0.799141  0.553989  1
  Br  Br15  1  0.362985  0.315314  0.554330  1
  Br  Br16  1  0.136571  0.469083  0.746504  1
  Br  Br17  1  0.863430  0.969082  0.753496  1
  Br  Br18  1  0.637015  0.815314  0.945670  1
  Br  Br19  1  0.765026  0.299140  0.946011  1
