# generated using pymatgen
data_Ho7TmTc3B24Os
_symmetry_space_group_name_H-M   'P 1'
_cell_length_a   3.66338300
_cell_length_b   9.13427944
_cell_length_c   11.51404901
_cell_angle_alpha   89.95284341
_cell_angle_beta   90.00000000
_cell_angle_gamma   90.00000000
_symmetry_Int_Tables_number   1
_chemical_formula_structural   Ho7TmTc3B24Os
_chemical_formula_sum   'Ho7 Tm1 Tc3 B24 Os1'
_cell_volume   385.28716887
_cell_formula_units_Z   1
loop_
 _symmetry_equiv_pos_site_id
 _symmetry_equiv_pos_as_xyz
  1  'x, y, z'
loop_
 _atom_site_type_symbol
 _atom_site_label
 _atom_site_symmetry_multiplicity
 _atom_site_fract_x
 _atom_site_fract_y
 _atom_site_fract_z
 _atom_site_occupancy
  Ho  Ho0  1  0.000000  0.323631  0.413932  1
  Ho  Ho1  1  0.000000  0.675501  0.584564  1
  Ho  Ho2  1  0.000000  0.822707  0.087060  1
  Ho  Ho3  1  0.000000  0.178293  0.914435  1
  Ho  Ho4  1  0.000000  0.942564  0.370060  1
  Ho  Ho5  1  0.000000  0.058253  0.630240  1
  Ho  Ho6  1  0.000000  0.442993  0.129745  1
  Tm  Tm7  1  0.000000  0.557063  0.869310  1
  Tc  Tc8  1  0.000000  0.638421  0.320314  1
  Tc  Tc9  1  0.000000  0.362167  0.680568  1
  Tc  Tc10  1  0.000000  0.137987  0.178028  1
  B  B11  1  0.500000  0.552982  0.433082  1
  B  B12  1  0.500000  0.447014  0.566971  1
  B  B13  1  0.500000  0.052877  0.066715  1
  B  B14  1  0.500000  0.946083  0.932960  1
  B  B15  1  0.500000  0.748507  0.418834  1
  B  B16  1  0.500000  0.251295  0.581361  1
  B  B17  1  0.500000  0.249215  0.081164  1
  B  B18  1  0.500000  0.750471  0.918444  1
  B  B19  1  0.500000  0.791778  0.265388  1
  B  B20  1  0.500000  0.208748  0.735189  1
  B  B21  1  0.500000  0.291761  0.234799  1
  B  B22  1  0.500000  0.708350  0.765377  1
  B  B23  1  0.500000  0.630826  0.185359  1
  B  B24  1  0.500000  0.369716  0.815373  1
  B  B25  1  0.500000  0.130453  0.314159  1
  B  B26  1  0.500000  0.868886  0.685770  1
  B  B27  1  0.500000  0.981733  0.211711  1
  B  B28  1  0.500000  0.016877  0.788399  1
  B  B29  1  0.500000  0.481904  0.288116  1
  B  B30  1  0.500000  0.518261  0.712173  1
  B  B31  1  0.500000  0.601514  0.027303  1
  B  B32  1  0.500000  0.400222  0.971279  1
  B  B33  1  0.500000  0.101723  0.471864  1
  B  B34  1  0.500000  0.898338  0.528717  1
  Os  Os35  1  0.000000  0.860886  0.821239  1
