# generated using pymatgen
data_Sc3Ga2Ag3Ge
_symmetry_space_group_name_H-M   'P 1'
_cell_length_a   7.04927500
_cell_length_b   7.04927455
_cell_length_c   3.93700000
_cell_angle_alpha   90.00000000
_cell_angle_beta   90.00000000
_cell_angle_gamma   119.99999741
_symmetry_Int_Tables_number   1
_chemical_formula_structural   Sc3Ga2Ag3Ge
_chemical_formula_sum   'Sc3 Ga2 Ag3 Ge1'
_cell_volume   169.42790340
_cell_formula_units_Z   1
loop_
 _symmetry_equiv_pos_site_id
 _symmetry_equiv_pos_as_xyz
  1  'x, y, z'
loop_
 _atom_site_type_symbol
 _atom_site_label
 _atom_site_symmetry_multiplicity
 _atom_site_fract_x
 _atom_site_fract_y
 _atom_site_fract_z
 _atom_site_occupancy
  Sc  Sc0  1  0.419484  0.423401  0.000000  1
  Sc  Sc1  1  0.576599  0.996083  0.000000  1
  Sc  Sc2  1  0.003917  0.580516  0.000000  1
  Ga  Ga3  1  0.666667  0.333333  0.500000  1
  Ga  Ga4  1  0.000000  0.000000  0.000000  1
  Ag  Ag5  1  0.747756  0.743394  0.500000  1
  Ag  Ag6  1  0.256606  0.004362  0.500000  1
  Ag  Ag7  1  0.995638  0.252244  0.500000  1
  Ge  Ge8  1  0.333333  0.666667  0.500000  1
