# generated using pymatgen
data_Lu2Pa(Fe3P2)3
_symmetry_space_group_name_H-M   'P 1'
_cell_length_a   3.67612500
_cell_length_b   10.49981600
_cell_length_c   12.11504300
_cell_angle_alpha   90.00000000
_cell_angle_beta   90.00000000
_cell_angle_gamma   90.00000000
_symmetry_Int_Tables_number   1
_chemical_formula_structural   Lu2Pa(Fe3P2)3
_chemical_formula_sum   'Lu4 Pa2 Fe18 P12'
_cell_volume   467.62413601
_cell_formula_units_Z   2
loop_
 _symmetry_equiv_pos_site_id
 _symmetry_equiv_pos_as_xyz
  1  'x, y, z'
loop_
 _atom_site_type_symbol
 _atom_site_label
 _atom_site_symmetry_multiplicity
 _atom_site_fract_x
 _atom_site_fract_y
 _atom_site_fract_z
 _atom_site_occupancy
  Lu  Lu0  1  0.500000  0.818505  0.206081  1
  Lu  Lu1  1  0.500000  0.181495  0.206081  1
  Lu  Lu2  1  0.000000  0.681495  0.793919  1
  Lu  Lu3  1  0.000000  0.318505  0.793919  1
  Pa  Pa4  1  0.000000  0.500000  0.530528  1
  Pa  Pa5  1  0.500000  0.000000  0.469472  1
  Fe  Fe6  1  0.500000  0.500000  0.151767  1
  Fe  Fe7  1  0.000000  0.000000  0.848233  1
  Fe  Fe8  1  0.500000  0.500000  0.693982  1
  Fe  Fe9  1  0.000000  0.000000  0.306018  1
  Fe  Fe10  1  0.000000  0.500000  0.987381  1
  Fe  Fe11  1  0.500000  0.000000  0.012619  1
  Fe  Fe12  1  0.500000  0.327889  0.995953  1
  Fe  Fe13  1  0.500000  0.672111  0.995953  1
  Fe  Fe14  1  0.000000  0.172111  0.004047  1
  Fe  Fe15  1  0.000000  0.827889  0.004047  1
  Fe  Fe16  1  0.500000  0.303516  0.430198  1
  Fe  Fe17  1  0.500000  0.696484  0.430198  1
  Fe  Fe18  1  0.000000  0.196484  0.569802  1
  Fe  Fe19  1  0.000000  0.803516  0.569802  1
  Fe  Fe20  1  0.500000  0.883144  0.710171  1
  Fe  Fe21  1  0.500000  0.116856  0.710171  1
  Fe  Fe22  1  0.000000  0.616856  0.289829  1
  Fe  Fe23  1  0.000000  0.383144  0.289829  1
  P  P24  1  0.500000  0.500000  0.880576  1
  P  P25  1  0.000000  0.000000  0.119424  1
  P  P26  1  0.500000  0.500000  0.340344  1
  P  P27  1  0.000000  0.000000  0.659656  1
  P  P28  1  0.500000  0.302702  0.616391  1
  P  P29  1  0.500000  0.697298  0.616391  1
  P  P30  1  0.000000  0.197298  0.383609  1
  P  P31  1  0.000000  0.802702  0.383609  1
  P  P32  1  0.500000  0.850426  0.888825  1
  P  P33  1  0.500000  0.149574  0.888825  1
  P  P34  1  0.000000  0.649574  0.111175  1
  P  P35  1  0.000000  0.350426  0.111175  1
