# generated using pymatgen
data_YbBi7(Os2O11)2
_symmetry_space_group_name_H-M   'P 1'
_cell_length_a   6.71192716
_cell_length_b   7.50863479
_cell_length_c   10.00276700
_cell_angle_alpha   100.74186914
_cell_angle_beta   92.27088758
_cell_angle_gamma   89.87540337
_symmetry_Int_Tables_number   1
_chemical_formula_structural   YbBi7(Os2O11)2
_chemical_formula_sum   'Yb1 Bi7 Os4 O22'
_cell_volume   494.88395870
_cell_formula_units_Z   1
loop_
 _symmetry_equiv_pos_site_id
 _symmetry_equiv_pos_as_xyz
  1  'x, y, z'
loop_
 _atom_site_type_symbol
 _atom_site_label
 _atom_site_symmetry_multiplicity
 _atom_site_fract_x
 _atom_site_fract_y
 _atom_site_fract_z
 _atom_site_occupancy
  Yb  Yb0  1  0.748074  0.369665  0.481346  1
  Bi  Bi1  1  0.249398  0.624019  0.515442  1
  Bi  Bi2  1  0.749596  0.870162  0.484912  1
  Bi  Bi3  1  0.250851  0.132929  0.515953  1
  Bi  Bi4  1  0.448168  0.955352  0.823436  1
  Bi  Bi5  1  0.557013  0.049971  0.182204  1
  Bi  Bi6  1  0.424086  0.455132  0.823772  1
  Bi  Bi7  1  0.576885  0.544381  0.179302  1
  Os  Os8  1  0.934712  0.701851  0.807291  1
  Os  Os9  1  0.062283  0.296853  0.189710  1
  Os  Os10  1  0.934489  0.203389  0.809960  1
  Os  Os11  1  0.065733  0.795544  0.186537  1
  O  O12  1  0.227597  0.712038  0.764454  1
  O  O13  1  0.771387  0.293362  0.238366  1
  O  O14  1  0.640454  0.688240  0.828060  1
  O  O15  1  0.357652  0.309179  0.170511  1
  O  O16  1  0.639776  0.227530  0.836630  1
  O  O17  1  0.357758  0.772815  0.159247  1
  O  O18  1  0.892316  0.169668  0.612019  1
  O  O19  1  0.110519  0.839415  0.386537  1
  O  O20  1  0.227721  0.171618  0.765857  1
  O  O21  1  0.773358  0.825603  0.236929  1
  O  O22  1  0.900989  0.637902  0.605827  1
  O  O23  1  0.101195  0.352526  0.393697  1
  O  O24  1  0.042461  0.546874  0.186323  1
  O  O25  1  0.960227  0.453470  0.814741  1
  O  O26  1  0.996169  0.760073  0.998761  1
  O  O27  1  0.998560  0.238968  0.999538  1
  O  O28  1  0.565694  0.604635  0.396730  1
  O  O29  1  0.435035  0.397393  0.605322  1
  O  O30  1  0.089747  0.047348  0.195669  1
  O  O31  1  0.903772  0.951240  0.799493  1
  O  O32  1  0.545663  0.096256  0.398161  1
  O  O33  1  0.460661  0.904601  0.607265  1
