# generated using pymatgen
data_Lu2HfRhF14
_symmetry_space_group_name_H-M   'P 1'
_cell_length_a   5.50507423
_cell_length_b   8.80474138
_cell_length_c   11.87643616
_cell_angle_alpha   62.86387521
_cell_angle_beta   89.98950360
_cell_angle_gamma   89.94418318
_symmetry_Int_Tables_number   1
_chemical_formula_structural   Lu2HfRhF14
_chemical_formula_sum   'Lu4 Hf2 Rh2 F28'
_cell_volume   512.29404034
_cell_formula_units_Z   2
loop_
 _symmetry_equiv_pos_site_id
 _symmetry_equiv_pos_as_xyz
  1  'x, y, z'
loop_
 _atom_site_type_symbol
 _atom_site_label
 _atom_site_symmetry_multiplicity
 _atom_site_fract_x
 _atom_site_fract_y
 _atom_site_fract_z
 _atom_site_occupancy
  Lu  Lu0  1  0.258103  0.816302  0.261532  1
  Lu  Lu1  1  0.741897  0.183698  0.738468  1
  Lu  Lu2  1  0.758471  0.183915  0.233193  1
  Lu  Lu3  1  0.241529  0.816085  0.766807  1
  Hf  Hf4  1  0.257165  0.274697  0.456161  1
  Hf  Hf5  1  0.742835  0.725303  0.543839  1
  Rh  Rh6  1  0.758922  0.727251  0.042060  1
  Rh  Rh7  1  0.241078  0.272749  0.957940  1
  F  F8  1  0.950089  0.708452  0.411929  1
  F  F9  1  0.049911  0.291548  0.588071  1
  F  F10  1  0.442156  0.292648  0.085627  1
  F  F11  1  0.557844  0.707352  0.914373  1
  F  F12  1  0.467165  0.732091  0.135554  1
  F  F13  1  0.532835  0.267909  0.864446  1
  F  F14  1  0.966048  0.272152  0.355036  1
  F  F15  1  0.033952  0.727848  0.644964  1
  F  F16  1  0.955385  0.747245  0.173076  1
  F  F17  1  0.044615  0.252755  0.826924  1
  F  F18  1  0.459412  0.253878  0.322061  1
  F  F19  1  0.540588  0.746122  0.677939  1
  F  F20  1  0.768583  0.481200  0.138367  1
  F  F21  1  0.231417  0.518800  0.861633  1
  F  F22  1  0.278471  0.529227  0.355606  1
  F  F23  1  0.721529  0.470773  0.644394  1
  F  F24  1  0.942470  0.278888  0.046741  1
  F  F25  1  0.057530  0.721112  0.953259  1
  F  F26  1  0.435010  0.725764  0.450553  1
  F  F27  1  0.564990  0.274236  0.549447  1
  F  F28  1  0.740165  0.979670  0.442402  1
  F  F29  1  0.259835  0.020330  0.557598  1
  F  F30  1  0.240581  0.026900  0.050714  1
  F  F31  1  0.759419  0.973100  0.949286  1
  F  F32  1  0.580912  0.970290  0.231752  1
  F  F33  1  0.419088  0.029710  0.768248  1
  F  F34  1  0.081854  0.028406  0.267549  1
  F  F35  1  0.918146  0.971594  0.732451  1
