# generated using pymatgen
data_Yb7Co4Sn13
_symmetry_space_group_name_H-M   'P 1'
_cell_length_a   11.15965900
_cell_length_b   11.15965900
_cell_length_c   4.61711000
_cell_angle_alpha   90.00000000
_cell_angle_beta   90.00000000
_cell_angle_gamma   90.00000000
_symmetry_Int_Tables_number   1
_chemical_formula_structural   Yb7Co4Sn13
_chemical_formula_sum   'Yb7 Co4 Sn13'
_cell_volume   575.00559437
_cell_formula_units_Z   1
loop_
 _symmetry_equiv_pos_site_id
 _symmetry_equiv_pos_as_xyz
  1  'x, y, z'
loop_
 _atom_site_type_symbol
 _atom_site_label
 _atom_site_symmetry_multiplicity
 _atom_site_fract_x
 _atom_site_fract_y
 _atom_site_fract_z
 _atom_site_occupancy
  Yb  Yb0  1  0.000000  0.000000  0.000000  1
  Yb  Yb1  1  0.337496  0.671420  0.500000  1
  Yb  Yb2  1  0.662504  0.328580  0.500000  1
  Yb  Yb3  1  0.328580  0.337496  0.500000  1
  Yb  Yb4  1  0.671420  0.662504  0.500000  1
  Yb  Yb5  1  0.500000  0.000000  0.500000  1
  Yb  Yb6  1  0.000000  0.500000  0.500000  1
  Co  Co7  1  0.119924  0.724623  0.000000  1
  Co  Co8  1  0.880076  0.275377  0.000000  1
  Co  Co9  1  0.275377  0.119924  0.000000  1
  Co  Co10  1  0.724623  0.880076  0.000000  1
  Sn  Sn11  1  0.282451  0.889672  0.000000  1
  Sn  Sn12  1  0.717549  0.110328  0.000000  1
  Sn  Sn13  1  0.110328  0.282451  0.000000  1
  Sn  Sn14  1  0.889672  0.717549  0.000000  1
  Sn  Sn15  1  0.077676  0.805794  0.500000  1
  Sn  Sn16  1  0.922324  0.194206  0.500000  1
  Sn  Sn17  1  0.194206  0.077676  0.500000  1
  Sn  Sn18  1  0.805794  0.922324  0.500000  1
  Sn  Sn19  1  0.520794  0.785842  0.000000  1
  Sn  Sn20  1  0.479206  0.214158  0.000000  1
  Sn  Sn21  1  0.214158  0.520794  0.000000  1
  Sn  Sn22  1  0.785842  0.479206  0.000000  1
  Sn  Sn23  1  0.500000  0.500000  0.000000  1
