# generated using pymatgen
data_Li2NdHo2Al7
_symmetry_space_group_name_H-M   'P 1'
_cell_length_a   9.32070485
_cell_length_b   9.32070512
_cell_length_c   9.32070556
_cell_angle_alpha   34.63749578
_cell_angle_beta   34.63749638
_cell_angle_gamma   34.63749194
_symmetry_Int_Tables_number   1
_chemical_formula_structural   Li2NdHo2Al7
_chemical_formula_sum   'Li2 Nd1 Ho2 Al7'
_cell_volume   233.42807068
_cell_formula_units_Z   1
loop_
 _symmetry_equiv_pos_site_id
 _symmetry_equiv_pos_as_xyz
  1  'x, y, z'
loop_
 _atom_site_type_symbol
 _atom_site_label
 _atom_site_symmetry_multiplicity
 _atom_site_fract_x
 _atom_site_fract_y
 _atom_site_fract_z
 _atom_site_occupancy
  Li  Li0  1  0.335238  0.335238  0.335238  1
  Li  Li1  1  0.664762  0.664762  0.664762  1
  Nd  Nd2  1  0.000000  0.000000  0.000000  1
  Ho  Ho3  1  0.141276  0.141276  0.141276  1
  Ho  Ho4  1  0.858724  0.858724  0.858724  1
  Al  Al5  1  0.585957  0.585957  0.076719  1
  Al  Al6  1  0.414043  0.923281  0.414043  1
  Al  Al7  1  0.585957  0.076719  0.585957  1
  Al  Al8  1  0.076719  0.585957  0.585957  1
  Al  Al9  1  0.414043  0.414043  0.923281  1
  Al  Al10  1  0.500000  0.500000  0.500000  1
  Al  Al11  1  0.923281  0.414043  0.414043  1
