# generated using pymatgen
data_Dy3Er2(SiBi)2
_symmetry_space_group_name_H-M   'P 1'
_cell_length_a   8.64025828
_cell_length_b   8.62646930
_cell_length_c   7.90266526
_cell_angle_alpha   90.07000954
_cell_angle_beta   90.09804586
_cell_angle_gamma   125.64191468
_symmetry_Int_Tables_number   1
_chemical_formula_structural   Dy3Er2(SiBi)2
_chemical_formula_sum   'Dy6 Er4 Si4 Bi4'
_cell_volume   478.68285570
_cell_formula_units_Z   2
loop_
 _symmetry_equiv_pos_site_id
 _symmetry_equiv_pos_as_xyz
  1  'x, y, z'
loop_
 _atom_site_type_symbol
 _atom_site_label
 _atom_site_symmetry_multiplicity
 _atom_site_fract_x
 _atom_site_fract_y
 _atom_site_fract_z
 _atom_site_occupancy
  Dy  Dy0  1  0.042597  0.286964  0.335687  1
  Dy  Dy1  1  0.957403  0.713036  0.664313  1
  Dy  Dy2  1  0.457264  0.212769  0.835513  1
  Dy  Dy3  1  0.786863  0.542468  0.164322  1
  Dy  Dy4  1  0.542736  0.787231  0.164487  1
  Dy  Dy5  1  0.213137  0.457532  0.835678  1
  Er  Er6  1  0.714842  0.957217  0.663844  1
  Er  Er7  1  0.285158  0.042783  0.336156  1
  Er  Er8  1  0.000000  0.000000  0.000000  1
  Er  Er9  1  0.500000  0.500000  0.500000  1
  Si  Si10  1  0.364155  0.363144  0.135225  1
  Si  Si11  1  0.635845  0.636856  0.864775  1
  Si  Si12  1  0.134820  0.134875  0.633509  1
  Si  Si13  1  0.865180  0.865125  0.366491  1
  Bi  Bi14  1  0.792799  0.206520  0.998493  1
  Bi  Bi15  1  0.207202  0.793480  0.001507  1
  Bi  Bi16  1  0.705543  0.290429  0.499460  1
  Bi  Bi17  1  0.294457  0.709571  0.500540  1
