# generated using pymatgen
data_Nd4Mg3(ZnAg4)2
_symmetry_space_group_name_H-M   'P 1'
_cell_length_a   8.67954642
_cell_length_b   8.67954747
_cell_length_c   10.36740100
_cell_angle_alpha   90.00000000
_cell_angle_beta   90.00000000
_cell_angle_gamma   107.79308627
_symmetry_Int_Tables_number   1
_chemical_formula_structural   Nd4Mg3(ZnAg4)2
_chemical_formula_sum   'Nd8 Mg6 Zn4 Ag16'
_cell_volume   743.66407844
_cell_formula_units_Z   2
loop_
 _symmetry_equiv_pos_site_id
 _symmetry_equiv_pos_as_xyz
  1  'x, y, z'
loop_
 _atom_site_type_symbol
 _atom_site_label
 _atom_site_symmetry_multiplicity
 _atom_site_fract_x
 _atom_site_fract_y
 _atom_site_fract_z
 _atom_site_occupancy
  Nd  Nd0  1  0.704723  0.295277  0.000000  1
  Nd  Nd1  1  0.295277  0.704723  0.000000  1
  Nd  Nd2  1  0.795277  0.204723  0.500000  1
  Nd  Nd3  1  0.204723  0.795277  0.500000  1
  Nd  Nd4  1  0.301635  0.301635  0.205214  1
  Nd  Nd5  1  0.698365  0.698365  0.794786  1
  Nd  Nd6  1  0.198365  0.198365  0.705214  1
  Nd  Nd7  1  0.801635  0.801635  0.294786  1
  Mg  Mg8  1  0.021778  0.521778  0.250000  1
  Mg  Mg9  1  0.978222  0.478222  0.750000  1
  Mg  Mg10  1  0.478222  0.978222  0.750000  1
  Mg  Mg11  1  0.521778  0.021778  0.250000  1
  Mg  Mg12  1  0.000000  0.000000  0.000000  1
  Mg  Mg13  1  0.500000  0.500000  0.500000  1
  Zn  Zn14  1  0.093113  0.093113  0.410357  1
  Zn  Zn15  1  0.906887  0.906887  0.589643  1
  Zn  Zn16  1  0.406887  0.406887  0.910357  1
  Zn  Zn17  1  0.593113  0.593113  0.089643  1
  Ag  Ag18  1  0.900727  0.172569  0.210003  1
  Ag  Ag19  1  0.099273  0.827431  0.789997  1
  Ag  Ag20  1  0.599273  0.327431  0.710003  1
  Ag  Ag21  1  0.672569  0.400727  0.289997  1
  Ag  Ag22  1  0.400727  0.672569  0.289997  1
  Ag  Ag23  1  0.327431  0.599273  0.710003  1
  Ag  Ag24  1  0.827431  0.099273  0.789997  1
  Ag  Ag25  1  0.172569  0.900727  0.210003  1
  Ag  Ag26  1  0.924043  0.657565  0.028317  1
  Ag  Ag27  1  0.075957  0.342435  0.971683  1
  Ag  Ag28  1  0.575957  0.842435  0.528317  1
  Ag  Ag29  1  0.157565  0.424043  0.471683  1
  Ag  Ag30  1  0.424043  0.157565  0.471683  1
  Ag  Ag31  1  0.842435  0.575957  0.528317  1
  Ag  Ag32  1  0.342435  0.075957  0.971683  1
  Ag  Ag33  1  0.657565  0.924043  0.028317  1
