# generated using pymatgen
data_Y2Tm2OsRu7
_symmetry_space_group_name_H-M   'P 1'
_cell_length_a   5.32255027
_cell_length_b   5.22038884
_cell_length_c   8.91653608
_cell_angle_alpha   89.99987123
_cell_angle_beta   89.98651592
_cell_angle_gamma   120.36076547
_symmetry_Int_Tables_number   1
_chemical_formula_structural   Y2Tm2OsRu7
_chemical_formula_sum   'Y2 Tm2 Os1 Ru7'
_cell_volume   213.77607989
_cell_formula_units_Z   1
loop_
 _symmetry_equiv_pos_site_id
 _symmetry_equiv_pos_as_xyz
  1  'x, y, z'
loop_
 _atom_site_type_symbol
 _atom_site_label
 _atom_site_symmetry_multiplicity
 _atom_site_fract_x
 _atom_site_fract_y
 _atom_site_fract_z
 _atom_site_occupancy
  Y  Y0  1  0.669012  0.336892  0.567263  1
  Y  Y1  1  0.333424  0.667954  0.432298  1
  Tm  Tm2  1  0.333229  0.667690  0.066402  1
  Tm  Tm3  1  0.669558  0.337815  0.933842  1
  Os  Os4  1  0.164512  0.329716  0.752116  1
  Ru  Ru5  1  0.004743  0.008437  0.500075  1
  Ru  Ru6  1  0.005200  0.009317  0.000313  1
  Ru  Ru7  1  0.169175  0.822203  0.752304  1
  Ru  Ru8  1  0.650551  0.821102  0.752231  1
  Ru  Ru9  1  0.829061  0.657672  0.247646  1
  Ru  Ru10  1  0.829027  0.169425  0.247702  1
  Ru  Ru11  1  0.342509  0.171777  0.247809  1
