# generated using pymatgen
data_Tb4ErCo2
_symmetry_space_group_name_H-M   'P 1'
_cell_length_a   6.28921428
_cell_length_b   6.88275184
_cell_length_c   8.55180030
_cell_angle_alpha   96.20625418
_cell_angle_beta   111.57463102
_cell_angle_gamma   89.99999614
_symmetry_Int_Tables_number   1
_chemical_formula_structural   Tb4ErCo2
_chemical_formula_sum   'Tb8 Er2 Co4'
_cell_volume   341.91331632
_cell_formula_units_Z   2
loop_
 _symmetry_equiv_pos_site_id
 _symmetry_equiv_pos_as_xyz
  1  'x, y, z'
loop_
 _atom_site_type_symbol
 _atom_site_label
 _atom_site_symmetry_multiplicity
 _atom_site_fract_x
 _atom_site_fract_y
 _atom_site_fract_z
 _atom_site_occupancy
  Tb  Tb0  1  0.793501  0.586196  0.812479  1
  Tb  Tb1  1  0.981022  0.913804  0.187521  1
  Tb  Tb2  1  0.206499  0.413804  0.187521  1
  Tb  Tb3  1  0.018978  0.086196  0.812479  1
  Tb  Tb4  1  0.214119  0.684587  0.568956  1
  Tb  Tb5  1  0.645161  0.815413  0.431044  1
  Tb  Tb6  1  0.785881  0.315413  0.431044  1
  Tb  Tb7  1  0.354839  0.184587  0.568956  1
  Er  Er8  1  0.429475  0.750000  0.000000  1
  Er  Er9  1  0.570525  0.250000  0.000000  1
  Co  Co10  1  0.600762  0.928470  0.780972  1
  Co  Co11  1  0.819789  0.571530  0.219028  1
  Co  Co12  1  0.399238  0.071530  0.219028  1
  Co  Co13  1  0.180211  0.428470  0.780972  1
