# generated using pymatgen
data_Ta6CoB5Ru6
_symmetry_space_group_name_H-M   'P 1'
_cell_length_a   3.10082600
_cell_length_b   6.52429726
_cell_length_c   11.20168709
_cell_angle_alpha   90.07058862
_cell_angle_beta   90.00000000
_cell_angle_gamma   90.00000000
_symmetry_Int_Tables_number   1
_chemical_formula_structural   Ta6CoB5Ru6
_chemical_formula_sum   'Ta6 Co1 B5 Ru6'
_cell_volume   226.61791744
_cell_formula_units_Z   1
loop_
 _symmetry_equiv_pos_site_id
 _symmetry_equiv_pos_as_xyz
  1  'x, y, z'
loop_
 _atom_site_type_symbol
 _atom_site_label
 _atom_site_symmetry_multiplicity
 _atom_site_fract_x
 _atom_site_fract_y
 _atom_site_fract_z
 _atom_site_occupancy
  Ta  Ta0  1  0.000000  0.229479  0.950864  1
  Ta  Ta1  1  0.000000  0.761933  0.041316  1
  Ta  Ta2  1  0.000000  0.220996  0.544167  1
  Ta  Ta3  1  0.000000  0.774985  0.457816  1
  Ta  Ta4  1  0.000000  0.148063  0.262184  1
  Ta  Ta5  1  0.000000  0.855562  0.746306  1
  Co  Co6  1  0.500000  0.051131  0.085134  1
  B  B7  1  0.500000  0.944166  0.905106  1
  B  B8  1  0.500000  0.045120  0.422037  1
  B  B9  1  0.500000  0.951923  0.582644  1
  B  B10  1  0.000000  0.549834  0.250016  1
  B  B11  1  0.000000  0.452597  0.746519  1
  Ru  Ru12  1  0.500000  0.442090  0.124796  1
  Ru  Ru13  1  0.500000  0.571735  0.870620  1
  Ru  Ru14  1  0.500000  0.426957  0.378767  1
  Ru  Ru15  1  0.500000  0.571840  0.624418  1
  Ru  Ru16  1  0.500000  0.797935  0.260246  1
  Ru  Ru17  1  0.500000  0.203655  0.747045  1
