# generated using pymatgen
data_RbLu3Se5
_symmetry_space_group_name_H-M   'P 1'
_cell_length_a   4.06657200
_cell_length_b   12.20487900
_cell_length_c   21.74344100
_cell_angle_alpha   90.00000000
_cell_angle_beta   90.00000000
_cell_angle_gamma   90.00000000
_symmetry_Int_Tables_number   1
_chemical_formula_structural   RbLu3Se5
_chemical_formula_sum   'Rb4 Lu12 Se20'
_cell_volume   1079.17088129
_cell_formula_units_Z   4
loop_
 _symmetry_equiv_pos_site_id
 _symmetry_equiv_pos_as_xyz
  1  'x, y, z'
loop_
 _atom_site_type_symbol
 _atom_site_label
 _atom_site_symmetry_multiplicity
 _atom_site_fract_x
 _atom_site_fract_y
 _atom_site_fract_z
 _atom_site_occupancy
  Rb  Rb0  1  0.250000  0.852746  0.092849  1
  Rb  Rb1  1  0.750000  0.147254  0.907151  1
  Rb  Rb2  1  0.750000  0.352746  0.407151  1
  Rb  Rb3  1  0.250000  0.647254  0.592849  1
  Lu  Lu4  1  0.750000  0.797676  0.825320  1
  Lu  Lu5  1  0.250000  0.202324  0.174680  1
  Lu  Lu6  1  0.250000  0.297676  0.674680  1
  Lu  Lu7  1  0.750000  0.702324  0.325320  1
  Lu  Lu8  1  0.250000  0.956388  0.697975  1
  Lu  Lu9  1  0.750000  0.043612  0.302025  1
  Lu  Lu10  1  0.750000  0.456388  0.802025  1
  Lu  Lu11  1  0.250000  0.543612  0.197975  1
  Lu  Lu12  1  0.750000  0.391729  0.053946  1
  Lu  Lu13  1  0.250000  0.608271  0.946054  1
  Lu  Lu14  1  0.250000  0.891729  0.446054  1
  Lu  Lu15  1  0.750000  0.108271  0.553946  1
  Se  Se16  1  0.250000  0.947477  0.569134  1
  Se  Se17  1  0.750000  0.052523  0.430866  1
  Se  Se18  1  0.750000  0.447477  0.930866  1
  Se  Se19  1  0.250000  0.552523  0.069134  1
  Se  Se20  1  0.750000  0.765453  0.953200  1
  Se  Se21  1  0.250000  0.234547  0.046800  1
  Se  Se22  1  0.250000  0.265453  0.546800  1
  Se  Se23  1  0.750000  0.734547  0.453200  1
  Se  Se24  1  0.250000  0.951251  0.826282  1
  Se  Se25  1  0.750000  0.048749  0.173718  1
  Se  Se26  1  0.750000  0.451251  0.673718  1
  Se  Se27  1  0.250000  0.548749  0.326282  1
  Se  Se28  1  0.750000  0.126063  0.684895  1
  Se  Se29  1  0.250000  0.873937  0.315105  1
  Se  Se30  1  0.250000  0.626063  0.815105  1
  Se  Se31  1  0.750000  0.373937  0.184895  1
  Se  Se32  1  0.750000  0.695267  0.197162  1
  Se  Se33  1  0.250000  0.304733  0.802838  1
  Se  Se34  1  0.250000  0.195267  0.302838  1
  Se  Se35  1  0.750000  0.804733  0.697162  1
