# generated using pymatgen
data_Tm6Lu4InPb5
_symmetry_space_group_name_H-M   'P 1'
_cell_length_a   6.53696503
_cell_length_b   8.89094574
_cell_length_c   8.91970504
_cell_angle_alpha   120.00255559
_cell_angle_beta   90.00294316
_cell_angle_gamma   89.99269307
_symmetry_Int_Tables_number   1
_chemical_formula_structural   Tm6Lu4InPb5
_chemical_formula_sum   'Tm6 Lu4 In1 Pb5'
_cell_volume   448.94595045
_cell_formula_units_Z   1
loop_
 _symmetry_equiv_pos_site_id
 _symmetry_equiv_pos_as_xyz
  1  'x, y, z'
loop_
 _atom_site_type_symbol
 _atom_site_label
 _atom_site_symmetry_multiplicity
 _atom_site_fract_x
 _atom_site_fract_y
 _atom_site_fract_z
 _atom_site_occupancy
  Tm  Tm0  1  0.750138  0.235928  0.000710  1
  Tm  Tm1  1  0.749984  0.761611  0.767930  1
  Tm  Tm2  1  0.749974  0.994316  0.232541  1
  Tm  Tm3  1  0.250063  0.765599  0.998916  1
  Tm  Tm4  1  0.250038  0.236729  0.235261  1
  Tm  Tm5  1  0.250052  0.000641  0.764420  1
  Lu  Lu6  1  0.502072  0.337085  0.670683  1
  Lu  Lu7  1  0.502088  0.666393  0.329511  1
  Lu  Lu8  1  0.997830  0.666098  0.329078  1
  Lu  Lu9  1  0.997909  0.337160  0.671138  1
  In  In10  1  0.749751  0.600576  0.999556  1
  Pb  Pb11  1  0.750161  0.393236  0.394515  1
  Pb  Pb12  1  0.750024  0.998713  0.605564  1
  Pb  Pb13  1  0.250450  0.397843  0.000099  1
  Pb  Pb14  1  0.249723  0.605520  0.602995  1
  Pb  Pb15  1  0.249743  0.002552  0.397082  1
