# generated using pymatgen
data_DySi7Ir3
_symmetry_space_group_name_H-M   'P 1'
_cell_length_a   8.05155706
_cell_length_b   8.05155767
_cell_length_c   8.05155809
_cell_angle_alpha   56.50897834
_cell_angle_beta   56.50897206
_cell_angle_gamma   56.50897577
_symmetry_Int_Tables_number   1
_chemical_formula_structural   DySi7Ir3
_chemical_formula_sum   'Dy2 Si14 Ir6'
_cell_volume   339.30347272
_cell_formula_units_Z   2
loop_
 _symmetry_equiv_pos_site_id
 _symmetry_equiv_pos_as_xyz
  1  'x, y, z'
loop_
 _atom_site_type_symbol
 _atom_site_label
 _atom_site_symmetry_multiplicity
 _atom_site_fract_x
 _atom_site_fract_y
 _atom_site_fract_z
 _atom_site_occupancy
  Dy  Dy0  1  0.000000  0.000000  0.000000  1
  Dy  Dy1  1  0.500000  0.500000  0.500000  1
  Si  Si2  1  0.750000  0.750000  0.750000  1
  Si  Si3  1  0.250000  0.250000  0.250000  1
  Si  Si4  1  0.850639  0.064232  0.672256  1
  Si  Si5  1  0.672256  0.850639  0.064232  1
  Si  Si6  1  0.064232  0.672256  0.850639  1
  Si  Si7  1  0.649361  0.827744  0.435768  1
  Si  Si8  1  0.435768  0.649361  0.827744  1
  Si  Si9  1  0.827744  0.435768  0.649361  1
  Si  Si10  1  0.172256  0.564232  0.350639  1
  Si  Si11  1  0.564232  0.350639  0.172256  1
  Si  Si12  1  0.350639  0.172256  0.564232  1
  Si  Si13  1  0.935768  0.327744  0.149361  1
  Si  Si14  1  0.327744  0.149361  0.935768  1
  Si  Si15  1  0.149361  0.935768  0.327744  1
  Ir  Ir16  1  0.070638  0.429362  0.750000  1
  Ir  Ir17  1  0.250000  0.929362  0.570638  1
  Ir  Ir18  1  0.570638  0.250000  0.929362  1
  Ir  Ir19  1  0.929362  0.570638  0.250000  1
  Ir  Ir20  1  0.429362  0.750000  0.070638  1
  Ir  Ir21  1  0.750000  0.070638  0.429362  1
