# generated using pymatgen
data_Na3(MnN2)2
_symmetry_space_group_name_H-M   'P 1'
_cell_length_a   5.53748700
_cell_length_b   9.36162700
_cell_length_c   9.48477300
_cell_angle_alpha   90.00000000
_cell_angle_beta   90.00000000
_cell_angle_gamma   90.00000000
_symmetry_Int_Tables_number   1
_chemical_formula_structural   Na3(MnN2)2
_chemical_formula_sum   'Na12 Mn8 N16'
_cell_volume   491.68956824
_cell_formula_units_Z   4
loop_
 _symmetry_equiv_pos_site_id
 _symmetry_equiv_pos_as_xyz
  1  'x, y, z'
loop_
 _atom_site_type_symbol
 _atom_site_label
 _atom_site_symmetry_multiplicity
 _atom_site_fract_x
 _atom_site_fract_y
 _atom_site_fract_z
 _atom_site_occupancy
  Na  Na0  1  0.640342  0.153844  0.417998  1
  Na  Na1  1  0.859658  0.846156  0.417998  1
  Na  Na2  1  0.640342  0.346156  0.082002  1
  Na  Na3  1  0.859658  0.653844  0.082002  1
  Na  Na4  1  0.359658  0.846156  0.582002  1
  Na  Na5  1  0.140342  0.153844  0.582002  1
  Na  Na6  1  0.359658  0.653844  0.917998  1
  Na  Na7  1  0.140342  0.346156  0.917998  1
  Na  Na8  1  0.750000  0.500000  0.415285  1
  Na  Na9  1  0.750000  0.000000  0.084715  1
  Na  Na10  1  0.250000  0.500000  0.584715  1
  Na  Na11  1  0.250000  0.000000  0.915285  1
  Mn  Mn12  1  0.750000  0.500000  0.738673  1
  Mn  Mn13  1  0.750000  0.000000  0.761327  1
  Mn  Mn14  1  0.250000  0.500000  0.261327  1
  Mn  Mn15  1  0.250000  0.000000  0.238673  1
  Mn  Mn16  1  0.705229  0.250000  0.750000  1
  Mn  Mn17  1  0.794771  0.750000  0.750000  1
  Mn  Mn18  1  0.294771  0.750000  0.250000  1
  Mn  Mn19  1  0.205229  0.250000  0.250000  1
  N  N20  1  0.892349  0.359446  0.639328  1
  N  N21  1  0.607651  0.640554  0.639328  1
  N  N22  1  0.892349  0.140554  0.860672  1
  N  N23  1  0.607651  0.859446  0.860672  1
  N  N24  1  0.107651  0.640554  0.360672  1
  N  N25  1  0.392349  0.359446  0.360672  1
  N  N26  1  0.107651  0.859446  0.139328  1
  N  N27  1  0.392349  0.140554  0.139328  1
  N  N28  1  0.544689  0.393202  0.838872  1
  N  N29  1  0.955311  0.606798  0.838872  1
  N  N30  1  0.544689  0.106798  0.661128  1
  N  N31  1  0.955311  0.893202  0.661128  1
  N  N32  1  0.455311  0.606798  0.161128  1
  N  N33  1  0.044689  0.393202  0.161128  1
  N  N34  1  0.455311  0.893202  0.338872  1
  N  N35  1  0.044689  0.106798  0.338872  1
