# generated using pymatgen
data_La6Si2GeSe14
_symmetry_space_group_name_H-M   'P 1'
_cell_length_a   10.86095200
_cell_length_b   10.86095134
_cell_length_c   6.10473500
_cell_angle_alpha   90.00000000
_cell_angle_beta   90.00000000
_cell_angle_gamma   120.00000811
_symmetry_Int_Tables_number   1
_chemical_formula_structural   La6Si2GeSe14
_chemical_formula_sum   'La6 Si2 Ge1 Se14'
_cell_volume   623.63886844
_cell_formula_units_Z   1
loop_
 _symmetry_equiv_pos_site_id
 _symmetry_equiv_pos_as_xyz
  1  'x, y, z'
loop_
 _atom_site_type_symbol
 _atom_site_label
 _atom_site_symmetry_multiplicity
 _atom_site_fract_x
 _atom_site_fract_y
 _atom_site_fract_z
 _atom_site_occupancy
  La  La0  1  0.308665  0.104686  0.753992  1
  La  La1  1  0.796021  0.691335  0.753992  1
  La  La2  1  0.895314  0.203979  0.753992  1
  La  La3  1  0.025253  0.562032  0.250388  1
  La  La4  1  0.536778  0.974747  0.250388  1
  La  La5  1  0.437968  0.463222  0.250388  1
  Si  Si6  1  0.000000  0.000000  0.165648  1
  Si  Si7  1  0.333333  0.666667  0.661610  1
  Ge  Ge8  1  0.666667  0.333333  0.517505  1
  Se  Se9  1  0.000000  0.000000  0.537550  1
  Se  Se10  1  0.333333  0.666667  0.034200  1
  Se  Se11  1  0.143575  0.224212  0.020918  1
  Se  Se12  1  0.080637  0.856425  0.020918  1
  Se  Se13  1  0.775788  0.919363  0.020918  1
  Se  Se14  1  0.189920  0.442479  0.517774  1
  Se  Se15  1  0.252558  0.810080  0.517774  1
  Se  Se16  1  0.557521  0.747442  0.517774  1
  Se  Se17  1  0.411857  0.171543  0.274800  1
  Se  Se18  1  0.759687  0.588143  0.274800  1
  Se  Se19  1  0.828457  0.240313  0.274800  1
  Se  Se20  1  0.922367  0.498188  0.764639  1
  Se  Se21  1  0.575821  0.077633  0.764639  1
  Se  Se22  1  0.501812  0.424179  0.764639  1
