# generated using pymatgen
data_Zr4Fe2Sb4PdPt
_symmetry_space_group_name_H-M   'P 1'
_cell_length_a   7.65394047
_cell_length_b   7.65394042
_cell_length_c   7.65394165
_cell_angle_alpha   131.44741519
_cell_angle_beta   131.44741453
_cell_angle_gamma   71.10318787
_symmetry_Int_Tables_number   1
_chemical_formula_structural   Zr4Fe2Sb4PdPt
_chemical_formula_sum   'Zr4 Fe2 Sb4 Pd1 Pt1'
_cell_volume   246.65826933
_cell_formula_units_Z   1
loop_
 _symmetry_equiv_pos_site_id
 _symmetry_equiv_pos_as_xyz
  1  'x, y, z'
loop_
 _atom_site_type_symbol
 _atom_site_label
 _atom_site_symmetry_multiplicity
 _atom_site_fract_x
 _atom_site_fract_y
 _atom_site_fract_z
 _atom_site_occupancy
  Zr  Zr0  1  0.375122  0.886546  0.011994  1
  Zr  Zr1  1  0.113454  0.125447  0.488575  1
  Zr  Zr2  1  0.636871  0.624878  0.511424  1
  Zr  Zr3  1  0.874552  0.363128  0.988005  1
  Fe  Fe4  1  0.000000  0.000000  0.000000  1
  Fe  Fe5  1  0.749999  0.250000  0.500000  1
  Sb  Sb6  1  0.640125  0.123033  0.014558  1
  Sb  Sb7  1  0.374432  0.359875  0.482906  1
  Sb  Sb8  1  0.876967  0.891525  0.517093  1
  Sb  Sb9  1  0.108474  0.625567  0.985441  1
  Pd  Pd10  1  0.250000  0.749999  0.500000  1
  Pt  Pt11  1  0.500000  0.500000  0.000000  1
