# generated using pymatgen
data_Nd4Ga4PdPtRh2
_symmetry_space_group_name_H-M   'P 1'
_cell_length_a   4.49125000
_cell_length_b   7.09844946
_cell_length_c   7.84271930
_cell_angle_alpha   89.75282329
_cell_angle_beta   90.00000000
_cell_angle_gamma   90.00000000
_symmetry_Int_Tables_number   1
_chemical_formula_structural   Nd4Ga4PdPtRh2
_chemical_formula_sum   'Nd4 Ga4 Pd1 Pt1 Rh2'
_cell_volume   250.03071054
_cell_formula_units_Z   1
loop_
 _symmetry_equiv_pos_site_id
 _symmetry_equiv_pos_as_xyz
  1  'x, y, z'
loop_
 _atom_site_type_symbol
 _atom_site_label
 _atom_site_symmetry_multiplicity
 _atom_site_fract_x
 _atom_site_fract_y
 _atom_site_fract_z
 _atom_site_occupancy
  Nd  Nd0  1  0.250000  0.034477  0.685249  1
  Nd  Nd1  1  0.250000  0.529695  0.815926  1
  Nd  Nd2  1  0.750000  0.975187  0.307448  1
  Nd  Nd3  1  0.750000  0.474474  0.192235  1
  Ga  Ga4  1  0.250000  0.154094  0.072332  1
  Ga  Ga5  1  0.250000  0.654614  0.428452  1
  Ga  Ga6  1  0.750000  0.841929  0.932776  1
  Ga  Ga7  1  0.750000  0.339483  0.567230  1
  Pd  Pd8  1  0.750000  0.718030  0.609198  1
  Pt  Pt9  1  0.750000  0.221045  0.889644  1
  Rh  Rh10  1  0.250000  0.278641  0.391535  1
  Rh  Rh11  1  0.250000  0.778331  0.107973  1
