# generated using pymatgen
data_Sm8InHgPd23
_symmetry_space_group_name_H-M   'P 1'
_cell_length_a   8.48087900
_cell_length_b   8.58384100
_cell_length_c   8.48747000
_cell_angle_alpha   90.00000000
_cell_angle_beta   90.00000000
_cell_angle_gamma   90.00000000
_symmetry_Int_Tables_number   1
_chemical_formula_structural   Sm8InHgPd23
_chemical_formula_sum   'Sm8 In1 Hg1 Pd23'
_cell_volume   617.87522803
_cell_formula_units_Z   1
loop_
 _symmetry_equiv_pos_site_id
 _symmetry_equiv_pos_as_xyz
  1  'x, y, z'
loop_
 _atom_site_type_symbol
 _atom_site_label
 _atom_site_symmetry_multiplicity
 _atom_site_fract_x
 _atom_site_fract_y
 _atom_site_fract_z
 _atom_site_occupancy
  Sm  Sm0  1  0.249526  0.243087  0.258924  1
  Sm  Sm1  1  0.748999  0.748470  0.750213  1
  Sm  Sm2  1  0.748999  0.748470  0.249787  1
  Sm  Sm3  1  0.748999  0.251530  0.750213  1
  Sm  Sm4  1  0.249526  0.243087  0.741076  1
  Sm  Sm5  1  0.249526  0.756913  0.258924  1
  Sm  Sm6  1  0.249526  0.756913  0.741076  1
  Sm  Sm7  1  0.748999  0.251530  0.249787  1
  In  In8  1  0.999205  0.000000  0.000000  1
  Hg  Hg9  1  0.274110  0.500000  0.000000  1
  Pd  Pd10  1  0.733522  0.500000  0.000000  1
  Pd  Pd11  1  0.998060  0.266534  0.500000  1
  Pd  Pd12  1  0.500001  0.262701  0.000000  1
  Pd  Pd13  1  0.998060  0.733466  0.500000  1
  Pd  Pd14  1  0.500001  0.737299  0.000000  1
  Pd  Pd15  1  0.500924  0.000000  0.265635  1
  Pd  Pd16  1  0.267481  0.000000  0.500000  1
  Pd  Pd17  1  0.500924  0.000000  0.734365  1
  Pd  Pd18  1  0.732361  0.000000  0.500000  1
  Pd  Pd19  1  0.001051  0.500000  0.266617  1
  Pd  Pd20  1  0.001051  0.500000  0.733383  1
  Pd  Pd21  1  0.254256  0.500000  0.500000  1
  Pd  Pd22  1  0.745186  0.500000  0.500000  1
  Pd  Pd23  1  0.501234  0.254545  0.500000  1
  Pd  Pd24  1  0.501234  0.745455  0.500000  1
  Pd  Pd25  1  0.499250  0.500000  0.258596  1
  Pd  Pd26  1  0.499250  0.500000  0.741404  1
  Pd  Pd27  1  0.311998  0.000000  0.000000  1
  Pd  Pd28  1  0.686637  0.000000  0.000000  1
  Pd  Pd29  1  0.001692  0.310534  0.000000  1
  Pd  Pd30  1  0.001692  0.689466  0.000000  1
  Pd  Pd31  1  0.998360  0.000000  0.313583  1
  Pd  Pd32  1  0.998360  0.000000  0.686417  1
