# generated using pymatgen
data_Cs5RbY2Cl12
_symmetry_space_group_name_H-M   'P 1'
_cell_length_a   9.44011900
_cell_length_b   9.46537809
_cell_length_c   7.84882000
_cell_angle_alpha   90.00000000
_cell_angle_beta   90.00000000
_cell_angle_gamma   89.88494079
_symmetry_Int_Tables_number   1
_chemical_formula_structural   Cs5RbY2Cl12
_chemical_formula_sum   'Cs5 Rb1 Y2 Cl12'
_cell_volume   701.32436755
_cell_formula_units_Z   1
loop_
 _symmetry_equiv_pos_site_id
 _symmetry_equiv_pos_as_xyz
  1  'x, y, z'
loop_
 _atom_site_type_symbol
 _atom_site_label
 _atom_site_symmetry_multiplicity
 _atom_site_fract_x
 _atom_site_fract_y
 _atom_site_fract_z
 _atom_site_occupancy
  Cs  Cs0  1  0.000000  0.000000  0.000000  1
  Cs  Cs1  1  0.236127  0.580692  0.500000  1
  Cs  Cs2  1  0.763873  0.419308  0.500000  1
  Cs  Cs3  1  0.419296  0.236201  0.000000  1
  Cs  Cs4  1  0.580704  0.763799  0.000000  1
  Rb  Rb5  1  0.000000  0.000000  0.500000  1
  Y  Y6  1  0.500000  0.000000  0.500000  1
  Y  Y7  1  0.000000  0.500000  0.000000  1
  Cl  Cl8  1  0.693808  0.055152  0.737202  1
  Cl  Cl9  1  0.306192  0.944848  0.737202  1
  Cl  Cl10  1  0.944484  0.692051  0.239926  1
  Cl  Cl11  1  0.055516  0.307949  0.239926  1
  Cl  Cl12  1  0.306192  0.944848  0.262798  1
  Cl  Cl13  1  0.693808  0.055152  0.262798  1
  Cl  Cl14  1  0.055516  0.307949  0.760074  1
  Cl  Cl15  1  0.944484  0.692051  0.760074  1
  Cl  Cl16  1  0.570001  0.730155  0.500000  1
  Cl  Cl17  1  0.429999  0.269845  0.500000  1
  Cl  Cl18  1  0.270171  0.570005  0.000000  1
  Cl  Cl19  1  0.729829  0.429995  0.000000  1
