# generated using pymatgen
data_Tb4Al14Ga4CuRh5
_symmetry_space_group_name_H-M   'P 1'
_cell_length_a   7.56891710
_cell_length_b   7.55266523
_cell_length_c   9.45354576
_cell_angle_alpha   90.21127421
_cell_angle_beta   89.95805586
_cell_angle_gamma   119.50319297
_symmetry_Int_Tables_number   1
_chemical_formula_structural   Tb4Al14Ga4CuRh5
_chemical_formula_sum   'Tb4 Al14 Ga4 Cu1 Rh5'
_cell_volume   470.33630947
_cell_formula_units_Z   1
loop_
 _symmetry_equiv_pos_site_id
 _symmetry_equiv_pos_as_xyz
  1  'x, y, z'
loop_
 _atom_site_type_symbol
 _atom_site_label
 _atom_site_symmetry_multiplicity
 _atom_site_fract_x
 _atom_site_fract_y
 _atom_site_fract_z
 _atom_site_occupancy
  Tb  Tb0  1  0.994157  0.671920  0.245339  1
  Tb  Tb1  1  0.005843  0.328080  0.754661  1
  Tb  Tb2  1  0.676514  0.996613  0.248259  1
  Tb  Tb3  1  0.323486  0.003387  0.751741  1
  Al  Al4  1  0.998830  0.664909  0.571379  1
  Al  Al5  1  0.335290  0.999871  0.425970  1
  Al  Al6  1  0.001170  0.335091  0.428621  1
  Al  Al7  1  0.664710  0.000129  0.574030  1
  Al  Al8  1  0.659549  0.997288  0.921899  1
  Al  Al9  1  0.340451  0.002712  0.078101  1
  Al  Al10  1  0.333508  0.333208  0.552765  1
  Al  Al11  1  0.666492  0.666792  0.447235  1
  Al  Al12  1  0.663024  0.663058  0.053368  1
  Al  Al13  1  0.336976  0.336942  0.946632  1
  Al  Al14  1  0.338385  0.550403  0.250388  1
  Al  Al15  1  0.661615  0.449597  0.749612  1
  Al  Al16  1  0.549058  0.338996  0.250638  1
  Al  Al17  1  0.450942  0.661004  0.749362  1
  Ga  Ga18  1  0.132814  0.129984  0.250568  1
  Ga  Ga19  1  0.867186  0.870016  0.749432  1
  Ga  Ga20  1  0.000353  0.336316  0.081521  1
  Ga  Ga21  1  0.999647  0.663684  0.918479  1
  Cu  Cu22  1  0.000000  0.000000  0.000000  1
  Rh  Rh23  1  0.667713  0.326408  0.999682  1
  Rh  Rh24  1  0.332287  0.673592  0.000318  1
  Rh  Rh25  1  0.327777  0.671244  0.500380  1
  Rh  Rh26  1  0.672223  0.328756  0.499620  1
  Rh  Rh27  1  0.000000  0.000000  0.500000  1
