# generated using pymatgen
data_Ca(FeI4)2
_symmetry_space_group_name_H-M   'P 1'
_cell_length_a   11.82469254
_cell_length_b   11.82469305
_cell_length_c   14.10737578
_cell_angle_alpha   55.06347100
_cell_angle_beta   55.06346995
_cell_angle_gamma   48.33635415
_symmetry_Int_Tables_number   1
_chemical_formula_structural   Ca(FeI4)2
_chemical_formula_sum   'Ca2 Fe4 I16'
_cell_volume   1147.15241158
_cell_formula_units_Z   2
loop_
 _symmetry_equiv_pos_site_id
 _symmetry_equiv_pos_as_xyz
  1  'x, y, z'
loop_
 _atom_site_type_symbol
 _atom_site_label
 _atom_site_symmetry_multiplicity
 _atom_site_fract_x
 _atom_site_fract_y
 _atom_site_fract_z
 _atom_site_occupancy
  Ca  Ca0  1  0.996451  0.003549  0.250000  1
  Ca  Ca1  1  0.003549  0.996451  0.750000  1
  Fe  Fe2  1  0.320992  0.843526  0.472168  1
  Fe  Fe3  1  0.156474  0.679008  0.027832  1
  Fe  Fe4  1  0.679008  0.156474  0.527832  1
  Fe  Fe5  1  0.843526  0.320992  0.972168  1
  I  I6  1  0.607327  0.699911  0.452065  1
  I  I7  1  0.300089  0.392673  0.047935  1
  I  I8  1  0.392673  0.300089  0.547935  1
  I  I9  1  0.699911  0.607327  0.952065  1
  I  I10  1  0.177561  0.128793  0.475000  1
  I  I11  1  0.871207  0.822439  0.025000  1
  I  I12  1  0.822439  0.871207  0.525000  1
  I  I13  1  0.128793  0.177561  0.975000  1
  I  I14  1  0.319695  0.851480  0.285120  1
  I  I15  1  0.148520  0.680305  0.214880  1
  I  I16  1  0.680305  0.148520  0.714880  1
  I  I17  1  0.851480  0.319695  0.785120  1
  I  I18  1  0.175163  0.699718  0.671655  1
  I  I19  1  0.300282  0.824837  0.828345  1
  I  I20  1  0.824837  0.300282  0.328345  1
  I  I21  1  0.699718  0.175163  0.171655  1
