# generated using pymatgen
data_CsIn(CO3)2
_symmetry_space_group_name_H-M   'P 1'
_cell_length_a   14.27321565
_cell_length_b   14.27321564
_cell_length_c   14.27321642
_cell_angle_alpha   20.58354854
_cell_angle_beta   20.58354904
_cell_angle_gamma   20.58354376
_symmetry_Int_Tables_number   1
_chemical_formula_structural   CsIn(CO3)2
_chemical_formula_sum   'Cs2 In2 C4 O12'
_cell_volume   314.60908777
_cell_formula_units_Z   2
loop_
 _symmetry_equiv_pos_site_id
 _symmetry_equiv_pos_as_xyz
  1  'x, y, z'
loop_
 _atom_site_type_symbol
 _atom_site_label
 _atom_site_symmetry_multiplicity
 _atom_site_fract_x
 _atom_site_fract_y
 _atom_site_fract_z
 _atom_site_occupancy
  Cs  Cs0  1  0.250000  0.250000  0.250000  1
  Cs  Cs1  1  0.750000  0.750000  0.750000  1
  In  In2  1  0.500000  0.500000  0.500000  1
  In  In3  1  0.000000  0.000000  0.000000  1
  C  C4  1  0.362139  0.362139  0.362139  1
  C  C5  1  0.862139  0.862139  0.862139  1
  C  C6  1  0.637861  0.637861  0.637861  1
  C  C7  1  0.137861  0.137861  0.137861  1
  O  O8  1  0.317422  0.637689  0.134486  1
  O  O9  1  0.134486  0.317422  0.637689  1
  O  O10  1  0.637689  0.134486  0.317422  1
  O  O11  1  0.634486  0.137689  0.817422  1
  O  O12  1  0.817422  0.634486  0.137689  1
  O  O13  1  0.137689  0.817422  0.634486  1
  O  O14  1  0.682578  0.362311  0.865514  1
  O  O15  1  0.865514  0.682578  0.362311  1
  O  O16  1  0.362311  0.865514  0.682578  1
  O  O17  1  0.365514  0.862311  0.182578  1
  O  O18  1  0.182578  0.365514  0.862311  1
  O  O19  1  0.862311  0.182578  0.365514  1
