# generated using pymatgen
data_Er2Al9Cu2Re
_symmetry_space_group_name_H-M   'P 1'
_cell_length_a   7.52819371
_cell_length_b   7.52844535
_cell_length_c   9.42259100
_cell_angle_alpha   90.00000000
_cell_angle_beta   90.00000000
_cell_angle_gamma   118.55325579
_symmetry_Int_Tables_number   1
_chemical_formula_structural   Er2Al9Cu2Re
_chemical_formula_sum   'Er4 Al18 Cu4 Re2'
_cell_volume   469.07848499
_cell_formula_units_Z   2
loop_
 _symmetry_equiv_pos_site_id
 _symmetry_equiv_pos_as_xyz
  1  'x, y, z'
loop_
 _atom_site_type_symbol
 _atom_site_label
 _atom_site_symmetry_multiplicity
 _atom_site_fract_x
 _atom_site_fract_y
 _atom_site_fract_z
 _atom_site_occupancy
  Er  Er0  1  0.992674  0.680884  0.250000  1
  Er  Er1  1  0.007326  0.319116  0.750000  1
  Er  Er2  1  0.680909  0.992715  0.250000  1
  Er  Er3  1  0.319091  0.007285  0.750000  1
  Al  Al4  1  0.136371  0.136362  0.250000  1
  Al  Al5  1  0.863629  0.863638  0.750000  1
  Al  Al6  1  0.000383  0.337826  0.077007  1
  Al  Al7  1  0.999617  0.662174  0.922993  1
  Al  Al8  1  0.999617  0.662174  0.577007  1
  Al  Al9  1  0.337881  0.000365  0.423015  1
  Al  Al10  1  0.000383  0.337826  0.422993  1
  Al  Al11  1  0.662119  0.999635  0.576985  1
  Al  Al12  1  0.662119  0.999635  0.923015  1
  Al  Al13  1  0.337881  0.000365  0.076985  1
  Al  Al14  1  0.331951  0.331891  0.549009  1
  Al  Al15  1  0.668049  0.668109  0.450991  1
  Al  Al16  1  0.668049  0.668109  0.049009  1
  Al  Al17  1  0.331951  0.331891  0.950991  1
  Al  Al18  1  0.346755  0.558358  0.250000  1
  Al  Al19  1  0.653245  0.441642  0.750000  1
  Al  Al20  1  0.558330  0.346798  0.250000  1
  Al  Al21  1  0.441670  0.653202  0.750000  1
  Cu  Cu22  1  0.672151  0.328188  0.999960  1
  Cu  Cu23  1  0.327849  0.671812  0.000040  1
  Cu  Cu24  1  0.327849  0.671812  0.499960  1
  Cu  Cu25  1  0.672151  0.328188  0.500040  1
  Re  Re26  1  0.000000  0.000000  0.000000  1
  Re  Re27  1  0.000000  0.000000  0.500000  1
