# generated using pymatgen
data_LiTb6Mn2AlC12
_symmetry_space_group_name_H-M   'P 1'
_cell_length_a   8.18058000
_cell_length_b   8.18057942
_cell_length_c   5.06014200
_cell_angle_alpha   90.00000000
_cell_angle_beta   90.00000000
_cell_angle_gamma   120.00000828
_symmetry_Int_Tables_number   1
_chemical_formula_structural   LiTb6Mn2AlC12
_chemical_formula_sum   'Li1 Tb6 Mn2 Al1 C12'
_cell_volume   293.26582799
_cell_formula_units_Z   1
loop_
 _symmetry_equiv_pos_site_id
 _symmetry_equiv_pos_as_xyz
  1  'x, y, z'
loop_
 _atom_site_type_symbol
 _atom_site_label
 _atom_site_symmetry_multiplicity
 _atom_site_fract_x
 _atom_site_fract_y
 _atom_site_fract_z
 _atom_site_occupancy
  Li  Li0  1  0.000000  0.000000  0.500000  1
  Tb  Tb1  1  0.616450  0.685526  0.744182  1
  Tb  Tb2  1  0.930924  0.616450  0.255818  1
  Tb  Tb3  1  0.685526  0.069076  0.255818  1
  Tb  Tb4  1  0.314474  0.930924  0.744182  1
  Tb  Tb5  1  0.069076  0.383550  0.744182  1
  Tb  Tb6  1  0.383550  0.314474  0.255818  1
  Mn  Mn7  1  0.666667  0.333333  0.750264  1
  Mn  Mn8  1  0.333333  0.666667  0.249736  1
  Al  Al9  1  0.000000  0.000000  0.000000  1
  C  C10  1  0.969843  0.762616  0.761818  1
  C  C11  1  0.207229  0.969843  0.238182  1
  C  C12  1  0.762616  0.792771  0.238182  1
  C  C13  1  0.237384  0.207229  0.761818  1
  C  C14  1  0.792771  0.030157  0.761818  1
  C  C15  1  0.030157  0.237384  0.238182  1
  C  C16  1  0.857932  0.574017  0.756778  1
  C  C17  1  0.283915  0.857932  0.243222  1
  C  C18  1  0.574017  0.716085  0.243222  1
  C  C19  1  0.425983  0.283915  0.756778  1
  C  C20  1  0.142068  0.425983  0.243222  1
  C  C21  1  0.716085  0.142068  0.756778  1
