# generated using pymatgen
data_PrY5U4O20
_symmetry_space_group_name_H-M   'P 1'
_cell_length_a   6.68372698
_cell_length_b   7.56774755
_cell_length_c   8.48712017
_cell_angle_alpha   100.90762252
_cell_angle_beta   97.86591614
_cell_angle_gamma   107.33167623
_symmetry_Int_Tables_number   1
_chemical_formula_structural   PrY5U4O20
_chemical_formula_sum   'Pr1 Y5 U4 O20'
_cell_volume   393.74789044
_cell_formula_units_Z   1
loop_
 _symmetry_equiv_pos_site_id
 _symmetry_equiv_pos_as_xyz
  1  'x, y, z'
loop_
 _atom_site_type_symbol
 _atom_site_label
 _atom_site_symmetry_multiplicity
 _atom_site_fract_x
 _atom_site_fract_y
 _atom_site_fract_z
 _atom_site_occupancy
  Pr  Pr0  1  0.000000  0.500000  0.500000  1
  Y  Y1  1  0.614499  0.705799  0.700743  1
  Y  Y2  1  0.385501  0.294201  0.299257  1
  Y  Y3  1  0.198139  0.898153  0.894269  1
  Y  Y4  1  0.801861  0.101847  0.105731  1
  Y  Y5  1  0.000000  0.000000  0.500000  1
  U  U6  1  0.403507  0.805635  0.301211  1
  U  U7  1  0.199500  0.400293  0.901739  1
  U  U8  1  0.800500  0.599707  0.098261  1
  U  U9  1  0.596493  0.194365  0.698789  1
  O  O10  1  0.438190  0.531763  0.135484  1
  O  O11  1  0.555481  0.987219  0.841234  1
  O  O12  1  0.271291  0.145130  0.745355  1
  O  O13  1  0.367428  0.596129  0.439418  1
  O  O14  1  0.054217  0.732690  0.329028  1
  O  O15  1  0.444519  0.012781  0.158766  1
  O  O16  1  0.150675  0.183692  0.031002  1
  O  O17  1  0.561810  0.468237  0.864516  1
  O  O18  1  0.855166  0.336725  0.950557  1
  O  O19  1  0.262158  0.608902  0.765946  1
  O  O20  1  0.952555  0.780706  0.657286  1
  O  O21  1  0.354693  0.061560  0.453332  1
  O  O22  1  0.645307  0.938440  0.546668  1
  O  O23  1  0.047445  0.219294  0.342714  1
  O  O24  1  0.737842  0.391098  0.234054  1
  O  O25  1  0.144834  0.663275  0.049443  1
  O  O26  1  0.849325  0.816308  0.968998  1
  O  O27  1  0.945783  0.267310  0.670972  1
  O  O28  1  0.632572  0.403871  0.560582  1
  O  O29  1  0.728709  0.854870  0.254645  1
