# generated using pymatgen
data_U4Re7Si3GeP2
_symmetry_space_group_name_H-M   'P 1'
_cell_length_a   7.13972405
_cell_length_b   7.13863059
_cell_length_c   7.13972410
_cell_angle_alpha   109.23727606
_cell_angle_beta   109.61057958
_cell_angle_gamma   109.57224290
_symmetry_Int_Tables_number   1
_chemical_formula_structural   U4Re7Si3GeP2
_chemical_formula_sum   'U4 Re7 Si3 Ge1 P2'
_cell_volume   280.10263233
_cell_formula_units_Z   1
loop_
 _symmetry_equiv_pos_site_id
 _symmetry_equiv_pos_as_xyz
  1  'x, y, z'
loop_
 _atom_site_type_symbol
 _atom_site_label
 _atom_site_symmetry_multiplicity
 _atom_site_fract_x
 _atom_site_fract_y
 _atom_site_fract_z
 _atom_site_occupancy
  U  U0  1  0.486028  0.487396  0.487030  1
  U  U1  1  0.000557  0.002241  0.497246  1
  U  U2  1  0.504994  0.002241  0.001683  1
  U  U3  1  0.000365  0.487396  0.001367  1
  Re  Re4  1  0.748390  0.246650  0.498261  1
  Re  Re5  1  0.500229  0.248369  0.748139  1
  Re  Re6  1  0.500643  0.746514  0.245870  1
  Re  Re7  1  0.251783  0.498829  0.749640  1
  Re  Re8  1  0.749190  0.498829  0.247047  1
  Re  Re9  1  0.248200  0.746958  0.498759  1
  Re  Re10  1  0.008185  0.024900  0.016716  1
  Si  Si11  1  0.685282  0.994100  0.684347  1
  Si  Si12  1  0.309753  0.994100  0.308819  1
  Si  Si13  1  0.695725  0.692332  0.996608  1
  Ge  Ge14  1  0.997192  0.699933  0.702742  1
  P  P15  1  0.315333  0.312633  0.997300  1
  P  P16  1  0.998151  0.316578  0.318427  1
