# generated using pymatgen
data_Tm3ZnIn3IrRh
_symmetry_space_group_name_H-M   'P 1'
_cell_length_a   7.69557300
_cell_length_b   7.69557213
_cell_length_c   3.75250200
_cell_angle_alpha   90.00000000
_cell_angle_beta   90.00000000
_cell_angle_gamma   119.99999944
_symmetry_Int_Tables_number   1
_chemical_formula_structural   Tm3ZnIn3IrRh
_chemical_formula_sum   'Tm3 Zn1 In3 Ir1 Rh1'
_cell_volume   192.45688045
_cell_formula_units_Z   1
loop_
 _symmetry_equiv_pos_site_id
 _symmetry_equiv_pos_as_xyz
  1  'x, y, z'
loop_
 _atom_site_type_symbol
 _atom_site_label
 _atom_site_symmetry_multiplicity
 _atom_site_fract_x
 _atom_site_fract_y
 _atom_site_fract_z
 _atom_site_occupancy
  Tm  Tm0  1  0.025702  0.411793  0.500000  1
  Tm  Tm1  1  0.588207  0.613909  0.500000  1
  Tm  Tm2  1  0.386091  0.974298  0.500000  1
  Zn  Zn3  1  0.666667  0.333333  0.000000  1
  In  In4  1  0.266741  0.258958  0.000000  1
  In  In5  1  0.992217  0.733259  0.000000  1
  In  In6  1  0.741042  0.007783  0.000000  1
  Ir  Ir7  1  0.333333  0.666667  0.000000  1
  Rh  Rh8  1  0.000000  0.000000  0.500000  1
