# generated using pymatgen
data_LiUSiO5
_symmetry_space_group_name_H-M   'P 1'
_cell_length_a   8.25882100
_cell_length_b   7.95463924
_cell_length_c   7.94840704
_cell_angle_alpha   60.44575822
_cell_angle_beta   90.00000000
_cell_angle_gamma   90.00000000
_symmetry_Int_Tables_number   1
_chemical_formula_structural   LiUSiO5
_chemical_formula_sum   'Li4 U4 Si4 O20'
_cell_volume   454.23704021
_cell_formula_units_Z   4
loop_
 _symmetry_equiv_pos_site_id
 _symmetry_equiv_pos_as_xyz
  1  'x, y, z'
loop_
 _atom_site_type_symbol
 _atom_site_label
 _atom_site_symmetry_multiplicity
 _atom_site_fract_x
 _atom_site_fract_y
 _atom_site_fract_z
 _atom_site_occupancy
  Li  Li0  1  0.421722  0.250769  0.319719  1
  Li  Li1  1  0.578278  0.749231  0.680281  1
  Li  Li2  1  0.078278  0.250769  0.819719  1
  Li  Li3  1  0.921722  0.749231  0.180281  1
  U  U4  1  0.746472  0.250826  0.000889  1
  U  U5  1  0.753528  0.250826  0.500889  1
  U  U6  1  0.253528  0.749174  0.999111  1
  U  U7  1  0.246472  0.749174  0.499111  1
  Si  Si8  1  0.614877  0.748848  0.264896  1
  Si  Si9  1  0.885123  0.748848  0.764896  1
  Si  Si10  1  0.114877  0.251152  0.235104  1
  Si  Si11  1  0.385123  0.251152  0.735104  1
  O  O12  1  0.756829  0.566260  0.848280  1
  O  O13  1  0.344551  0.751552  0.745588  1
  O  O14  1  0.262140  0.064628  0.847179  1
  O  O15  1  0.655449  0.248448  0.254412  1
  O  O16  1  0.512689  0.263197  0.887346  1
  O  O17  1  0.010193  0.245237  0.061872  1
  O  O18  1  0.487311  0.736803  0.112654  1
  O  O19  1  0.237860  0.064628  0.347179  1
  O  O20  1  0.743171  0.566260  0.348280  1
  O  O21  1  0.987311  0.263197  0.387346  1
  O  O22  1  0.762140  0.935372  0.652821  1
  O  O23  1  0.510193  0.754763  0.438128  1
  O  O24  1  0.844551  0.248448  0.754412  1
  O  O25  1  0.489807  0.245237  0.561872  1
  O  O26  1  0.155449  0.751552  0.245588  1
  O  O27  1  0.012689  0.736803  0.612654  1
  O  O28  1  0.737860  0.935372  0.152821  1
  O  O29  1  0.989807  0.754763  0.938128  1
  O  O30  1  0.243171  0.433740  0.151720  1
  O  O31  1  0.256829  0.433740  0.651720  1
