# generated using pymatgen
data_Ce2DySn3Ir2Rh
_symmetry_space_group_name_H-M   'P 1'
_cell_length_a   7.51937906
_cell_length_b   7.48205602
_cell_length_c   4.01607900
_cell_angle_alpha   90.00000000
_cell_angle_beta   90.00000000
_cell_angle_gamma   119.83592604
_symmetry_Int_Tables_number   1
_chemical_formula_structural   Ce2DySn3Ir2Rh
_chemical_formula_sum   'Ce2 Dy1 Sn3 Ir2 Rh1'
_cell_volume   195.99792278
_cell_formula_units_Z   1
loop_
 _symmetry_equiv_pos_site_id
 _symmetry_equiv_pos_as_xyz
  1  'x, y, z'
loop_
 _atom_site_type_symbol
 _atom_site_label
 _atom_site_symmetry_multiplicity
 _atom_site_fract_x
 _atom_site_fract_y
 _atom_site_fract_z
 _atom_site_occupancy
  Ce  Ce0  1  0.413634  0.413898  0.500000  1
  Ce  Ce1  1  0.586366  0.000265  0.500000  1
  Dy  Dy2  1  0.000000  0.592086  0.500000  1
  Sn  Sn3  1  0.751312  0.744580  0.000000  1
  Sn  Sn4  1  0.248688  0.993267  0.000000  1
  Sn  Sn5  1  0.000000  0.261035  0.000000  1
  Ir  Ir6  1  0.655705  0.323770  0.000000  1
  Ir  Ir7  1  0.344295  0.668067  0.000000  1
  Rh  Rh8  1  0.000000  0.003033  0.500000  1
