# generated using pymatgen
data_Tb6DyIrI12
_symmetry_space_group_name_H-M   'P 1'
_cell_length_a   9.83696041
_cell_length_b   9.83695895
_cell_length_c   9.83696001
_cell_angle_alpha   106.95250717
_cell_angle_beta   106.95250018
_cell_angle_gamma   106.95251217
_symmetry_Int_Tables_number   1
_chemical_formula_structural   Tb6DyIrI12
_chemical_formula_sum   'Tb6 Dy1 Ir1 I12'
_cell_volume   793.76046755
_cell_formula_units_Z   1
loop_
 _symmetry_equiv_pos_site_id
 _symmetry_equiv_pos_as_xyz
  1  'x, y, z'
loop_
 _atom_site_type_symbol
 _atom_site_label
 _atom_site_symmetry_multiplicity
 _atom_site_fract_x
 _atom_site_fract_y
 _atom_site_fract_z
 _atom_site_occupancy
  Tb  Tb0  1  0.905026  0.976795  0.703465  1
  Tb  Tb1  1  0.976795  0.703465  0.905026  1
  Tb  Tb2  1  0.703465  0.905026  0.976795  1
  Tb  Tb3  1  0.094974  0.023205  0.296535  1
  Tb  Tb4  1  0.023205  0.296535  0.094974  1
  Tb  Tb5  1  0.296535  0.094974  0.023205  1
  Dy  Dy6  1  0.500000  0.500000  0.500000  1
  Ir  Ir7  1  0.000000  0.000000  0.000000  1
  I  I8  1  0.535020  0.836458  0.612125  1
  I  I9  1  0.836458  0.612125  0.535020  1
  I  I10  1  0.612125  0.535020  0.836458  1
  I  I11  1  0.464980  0.163542  0.387875  1
  I  I12  1  0.163542  0.387875  0.464980  1
  I  I13  1  0.387875  0.464980  0.163542  1
  I  I14  1  0.676598  0.224448  0.070711  1
  I  I15  1  0.224448  0.070711  0.676598  1
  I  I16  1  0.070711  0.676598  0.224448  1
  I  I17  1  0.323402  0.775552  0.929289  1
  I  I18  1  0.775552  0.929289  0.323402  1
  I  I19  1  0.929289  0.323402  0.775552  1
