# generated using pymatgen
data_HfZr2MoP2
_symmetry_space_group_name_H-M   'P 1'
_cell_length_a   6.89746600
_cell_length_b   3.56824400
_cell_length_c   8.37588700
_cell_angle_alpha   90.00000000
_cell_angle_beta   90.00000000
_cell_angle_gamma   90.00000000
_symmetry_Int_Tables_number   1
_chemical_formula_structural   HfZr2MoP2
_chemical_formula_sum   'Hf2 Zr4 Mo2 P4'
_cell_volume   206.14600469
_cell_formula_units_Z   2
loop_
 _symmetry_equiv_pos_site_id
 _symmetry_equiv_pos_as_xyz
  1  'x, y, z'
loop_
 _atom_site_type_symbol
 _atom_site_label
 _atom_site_symmetry_multiplicity
 _atom_site_fract_x
 _atom_site_fract_y
 _atom_site_fract_z
 _atom_site_occupancy
  Hf  Hf0  1  0.862010  0.250001  0.057699  1
  Hf  Hf1  1  0.362011  0.250001  0.442302  1
  Zr  Zr2  1  0.527895  0.749999  0.172574  1
  Zr  Zr3  1  0.027896  0.749999  0.327427  1
  Zr  Zr4  1  0.965051  0.250001  0.665629  1
  Zr  Zr5  1  0.465051  0.250001  0.834371  1
  Mo  Mo6  1  0.641284  0.749999  0.561775  1
  Mo  Mo7  1  0.141284  0.749999  0.938224  1
  P  P8  1  0.239535  0.250001  0.136256  1
  P  P9  1  0.739535  0.250001  0.363745  1
  P  P10  1  0.264225  0.749999  0.652154  1
  P  P11  1  0.764226  0.749999  0.847846  1
