# generated using pymatgen
data_Rb8Er6BBr20
_symmetry_space_group_name_H-M   'P 1'
_cell_length_a   12.17610869
_cell_length_b   12.17610957
_cell_length_c   12.17608500
_cell_angle_alpha   60.00006403
_cell_angle_beta   60.00006166
_cell_angle_gamma   59.99987005
_symmetry_Int_Tables_number   1
_chemical_formula_structural   Rb8Er6BBr20
_chemical_formula_sum   'Rb8 Er6 B1 Br20'
_cell_volume   1276.46738654
_cell_formula_units_Z   1
loop_
 _symmetry_equiv_pos_site_id
 _symmetry_equiv_pos_as_xyz
  1  'x, y, z'
loop_
 _atom_site_type_symbol
 _atom_site_label
 _atom_site_symmetry_multiplicity
 _atom_site_fract_x
 _atom_site_fract_y
 _atom_site_fract_z
 _atom_site_occupancy
  Rb  Rb0  1  0.359381  0.359381  0.359387  1
  Rb  Rb1  1  0.640619  0.640619  0.640613  1
  Rb  Rb2  1  0.359381  0.359381  0.921852  1
  Rb  Rb3  1  0.359387  0.921852  0.359381  1
  Rb  Rb4  1  0.640619  0.640619  0.078148  1
  Rb  Rb5  1  0.640613  0.078148  0.640619  1
  Rb  Rb6  1  0.921852  0.359387  0.359381  1
  Rb  Rb7  1  0.078148  0.640613  0.640619  1
  Er  Er8  1  0.849661  0.150339  0.150339  1
  Er  Er9  1  0.150339  0.849661  0.849661  1
  Er  Er10  1  0.150339  0.849661  0.150339  1
  Er  Er11  1  0.849661  0.150339  0.849661  1
  Er  Er12  1  0.150337  0.150337  0.849663  1
  Er  Er13  1  0.849663  0.849663  0.150337  1
  B  B14  1  0.000000  0.000000  0.000000  1
  Br  Br15  1  0.329108  0.999998  0.000002  1
  Br  Br16  1  0.670892  0.000002  0.999998  1
  Br  Br17  1  0.999998  0.329108  0.670892  1
  Br  Br18  1  0.000002  0.670892  0.329108  1
  Br  Br19  1  0.999998  0.329108  0.000002  1
  Br  Br20  1  0.670892  0.000002  0.329108  1
  Br  Br21  1  0.000002  0.670892  0.999998  1
  Br  Br22  1  0.329108  0.999998  0.670892  1
  Br  Br23  1  0.000000  0.000000  0.329108  1
  Br  Br24  1  0.000000  0.000000  0.670892  1
  Br  Br25  1  0.670892  0.329108  0.000000  1
  Br  Br26  1  0.329108  0.670892  0.000000  1
  Br  Br27  1  0.681896  0.318104  0.318104  1
  Br  Br28  1  0.318104  0.681896  0.681896  1
  Br  Br29  1  0.318104  0.681896  0.318104  1
  Br  Br30  1  0.681896  0.318104  0.681896  1
  Br  Br31  1  0.318106  0.318106  0.681894  1
  Br  Br32  1  0.681894  0.681894  0.318106  1
  Br  Br33  1  0.250000  0.250000  0.250000  1
  Br  Br34  1  0.750000  0.750000  0.750000  1
