# generated using pymatgen
data_TbLu2Zn2Co9B4
_symmetry_space_group_name_H-M   'P 1'
_cell_length_a   5.07046864
_cell_length_b   5.07069475
_cell_length_c   9.67300800
_cell_angle_alpha   90.00002579
_cell_angle_beta   90.00024924
_cell_angle_gamma   119.98172364
_symmetry_Int_Tables_number   1
_chemical_formula_structural   TbLu2Zn2Co9B4
_chemical_formula_sum   'Tb1 Lu2 Zn2 Co9 B4'
_cell_volume   215.42083196
_cell_formula_units_Z   1
loop_
 _symmetry_equiv_pos_site_id
 _symmetry_equiv_pos_as_xyz
  1  'x, y, z'
loop_
 _atom_site_type_symbol
 _atom_site_label
 _atom_site_symmetry_multiplicity
 _atom_site_fract_x
 _atom_site_fract_y
 _atom_site_fract_z
 _atom_site_occupancy
  Tb  Tb0  1  0.999986  0.000001  0.999901  1
  Lu  Lu1  1  0.000005  0.000004  0.342429  1
  Lu  Lu2  1  0.999997  0.000002  0.657790  1
  Zn  Zn3  1  0.333272  0.666636  0.999908  1
  Zn  Zn4  1  0.666703  0.333362  0.999907  1
  Co  Co5  1  0.499997  0.000001  0.500052  1
  Co  Co6  1  0.499996  0.500003  0.500068  1
  Co  Co7  1  0.999996  0.499996  0.500045  1
  Co  Co8  1  0.499990  0.999998  0.211204  1
  Co  Co9  1  0.499993  0.499997  0.211183  1
  Co  Co10  1  0.999994  0.500000  0.211171  1
  Co  Co11  1  0.499995  0.000000  0.788739  1
  Co  Co12  1  0.499995  0.499997  0.788718  1
  Co  Co13  1  0.999996  0.500000  0.788770  1
  B  B14  1  0.333398  0.666617  0.351146  1
  B  B15  1  0.666590  0.333389  0.351145  1
  B  B16  1  0.666645  0.333354  0.648913  1
  B  B17  1  0.333353  0.666643  0.648912  1
