# generated using pymatgen
data_HoTmPa(InPt)3
_symmetry_space_group_name_H-M   'P 1'
_cell_length_a   7.61088307
_cell_length_b   7.57255113
_cell_length_c   3.95529400
_cell_angle_alpha   90.00000000
_cell_angle_beta   90.00000000
_cell_angle_gamma   120.10698622
_symmetry_Int_Tables_number   1
_chemical_formula_structural   HoTmPa(InPt)3
_chemical_formula_sum   'Ho1 Tm1 Pa1 In3 Pt3'
_cell_volume   197.20478947
_cell_formula_units_Z   1
loop_
 _symmetry_equiv_pos_site_id
 _symmetry_equiv_pos_as_xyz
  1  'x, y, z'
loop_
 _atom_site_type_symbol
 _atom_site_label
 _atom_site_symmetry_multiplicity
 _atom_site_fract_x
 _atom_site_fract_y
 _atom_site_fract_z
 _atom_site_occupancy
  Ho  Ho0  1  0.001562  0.594301  0.500000  1
  Tm  Tm1  1  0.407096  0.405515  0.500000  1
  Pa  Pa2  1  0.589192  0.000002  0.500000  1
  In  In3  1  0.742286  0.730836  0.000000  1
  In  In4  1  0.011939  0.268982  0.000000  1
  In  In5  1  0.246988  0.000321  0.000000  1
  Pt  Pt6  1  0.349399  0.684287  0.000000  1
  Pt  Pt7  1  0.663941  0.315355  0.000000  1
  Pt  Pt8  1  0.987595  0.000402  0.500000  1
