# generated using pymatgen
data_Lu3AgSn3Ru2
_symmetry_space_group_name_H-M   'P 1'
_cell_length_a   7.80368600
_cell_length_b   7.80368609
_cell_length_c   3.61335300
_cell_angle_alpha   90.00000000
_cell_angle_beta   90.00000000
_cell_angle_gamma   119.99999848
_symmetry_Int_Tables_number   1
_chemical_formula_structural   Lu3AgSn3Ru2
_chemical_formula_sum   'Lu3 Ag1 Sn3 Ru2'
_cell_volume   190.56388888
_cell_formula_units_Z   1
loop_
 _symmetry_equiv_pos_site_id
 _symmetry_equiv_pos_as_xyz
  1  'x, y, z'
loop_
 _atom_site_type_symbol
 _atom_site_label
 _atom_site_symmetry_multiplicity
 _atom_site_fract_x
 _atom_site_fract_y
 _atom_site_fract_z
 _atom_site_occupancy
  Lu  Lu0  1  0.376956  0.407480  0.500000  1
  Lu  Lu1  1  0.592520  0.969476  0.500000  1
  Lu  Lu2  1  0.030524  0.623044  0.500000  1
  Ag  Ag3  1  0.666667  0.333333  0.000000  1
  Sn  Sn4  1  0.733002  0.728881  0.000000  1
  Sn  Sn5  1  0.271119  0.004121  0.000000  1
  Sn  Sn6  1  0.995879  0.266998  0.000000  1
  Ru  Ru7  1  0.333333  0.666667  0.000000  1
  Ru  Ru8  1  0.000000  0.000000  0.500000  1
