# generated using pymatgen
data_U4BeB14
_symmetry_space_group_name_H-M   'P 1'
_cell_length_a   7.14449100
_cell_length_b   7.14449100
_cell_length_c   7.33924400
_cell_angle_alpha   90.00000000
_cell_angle_beta   90.00000000
_cell_angle_gamma   90.00000000
_symmetry_Int_Tables_number   1
_chemical_formula_structural   U4BeB14
_chemical_formula_sum   'U8 Be2 B28'
_cell_volume   374.62254803
_cell_formula_units_Z   2
loop_
 _symmetry_equiv_pos_site_id
 _symmetry_equiv_pos_as_xyz
  1  'x, y, z'
loop_
 _atom_site_type_symbol
 _atom_site_label
 _atom_site_symmetry_multiplicity
 _atom_site_fract_x
 _atom_site_fract_y
 _atom_site_fract_z
 _atom_site_occupancy
  U  U0  1  0.199836  0.324976  0.000000  1
  U  U1  1  0.675024  0.199836  0.000000  1
  U  U2  1  0.324976  0.800164  0.000000  1
  U  U3  1  0.699836  0.175024  0.500000  1
  U  U4  1  0.300164  0.824976  0.500000  1
  U  U5  1  0.800164  0.675024  0.000000  1
  U  U6  1  0.824976  0.699836  0.500000  1
  U  U7  1  0.175024  0.300164  0.500000  1
  Be  Be8  1  0.000000  0.000000  0.000000  1
  Be  Be9  1  0.500000  0.500000  0.500000  1
  B  B10  1  0.176082  0.040423  0.226875  1
  B  B11  1  0.959577  0.176082  0.226875  1
  B  B12  1  0.040423  0.823918  0.226875  1
  B  B13  1  0.676082  0.459577  0.273125  1
  B  B14  1  0.323918  0.540423  0.273125  1
  B  B15  1  0.823918  0.959577  0.226875  1
  B  B16  1  0.540423  0.676082  0.273125  1
  B  B17  1  0.459577  0.323918  0.273125  1
  B  B18  1  0.823918  0.959577  0.773125  1
  B  B19  1  0.040423  0.823918  0.773125  1
  B  B20  1  0.959577  0.176082  0.773125  1
  B  B21  1  0.323918  0.540423  0.726875  1
  B  B22  1  0.676082  0.459577  0.726875  1
  B  B23  1  0.176082  0.040423  0.773125  1
  B  B24  1  0.459577  0.323918  0.726875  1
  B  B25  1  0.540423  0.676082  0.726875  1
  B  B26  1  0.089038  0.589038  0.250000  1
  B  B27  1  0.410962  0.089038  0.250000  1
  B  B28  1  0.589038  0.910962  0.250000  1
  B  B29  1  0.910962  0.410962  0.250000  1
  B  B30  1  0.910962  0.410962  0.750000  1
  B  B31  1  0.589038  0.910962  0.750000  1
  B  B32  1  0.410962  0.089038  0.750000  1
  B  B33  1  0.089038  0.589038  0.750000  1
  B  B34  1  0.000000  0.000000  0.389131  1
  B  B35  1  0.500000  0.500000  0.110869  1
  B  B36  1  0.000000  0.000000  0.610869  1
  B  B37  1  0.500000  0.500000  0.889131  1
