# generated using pymatgen
data_Nd5(PdO6)2
_symmetry_space_group_name_H-M   'P 1'
_cell_length_a   7.11624709
_cell_length_b   7.11624642
_cell_length_c   7.55335458
_cell_angle_alpha   74.58767223
_cell_angle_beta   74.58767529
_cell_angle_gamma   50.55660628
_symmetry_Int_Tables_number   1
_chemical_formula_structural   Nd5(PdO6)2
_chemical_formula_sum   'Nd5 Pd2 O12'
_cell_volume   282.34739398
_cell_formula_units_Z   1
loop_
 _symmetry_equiv_pos_site_id
 _symmetry_equiv_pos_as_xyz
  1  'x, y, z'
loop_
 _atom_site_type_symbol
 _atom_site_label
 _atom_site_symmetry_multiplicity
 _atom_site_fract_x
 _atom_site_fract_y
 _atom_site_fract_z
 _atom_site_occupancy
  Nd  Nd0  1  0.303225  0.303225  0.357881  1
  Nd  Nd1  1  0.696775  0.696775  0.642119  1
  Nd  Nd2  1  0.694716  0.694716  0.164149  1
  Nd  Nd3  1  0.305284  0.305284  0.835851  1
  Nd  Nd4  1  0.000000  0.000000  0.500000  1
  Pd  Pd5  1  0.753213  0.246787  0.000000  1
  Pd  Pd6  1  0.246787  0.753213  0.000000  1
  O  O7  1  0.095597  0.598326  0.575781  1
  O  O8  1  0.999430  0.999430  0.177055  1
  O  O9  1  0.401674  0.904403  0.424219  1
  O  O10  1  0.500090  0.500090  0.179178  1
  O  O11  1  0.099887  0.573726  0.081144  1
  O  O12  1  0.904403  0.401674  0.424219  1
  O  O13  1  0.000570  0.000570  0.822945  1
  O  O14  1  0.598326  0.095596  0.575781  1
  O  O15  1  0.499910  0.499910  0.820822  1
  O  O16  1  0.573726  0.099887  0.081144  1
  O  O17  1  0.426274  0.900113  0.918856  1
  O  O18  1  0.900113  0.426274  0.918856  1
