# generated using pymatgen
data_Sm6Pu2Cu3Si12Pd
_symmetry_space_group_name_H-M   'P 1'
_cell_length_a   8.09292400
_cell_length_b   8.09292506
_cell_length_c   8.29634300
_cell_angle_alpha   90.00000000
_cell_angle_beta   90.00000000
_cell_angle_gamma   119.99999566
_symmetry_Int_Tables_number   1
_chemical_formula_structural   Sm6Pu2Cu3Si12Pd
_chemical_formula_sum   'Sm6 Pu2 Cu3 Si12 Pd1'
_cell_volume   470.57443622
_cell_formula_units_Z   1
loop_
 _symmetry_equiv_pos_site_id
 _symmetry_equiv_pos_as_xyz
  1  'x, y, z'
loop_
 _atom_site_type_symbol
 _atom_site_label
 _atom_site_symmetry_multiplicity
 _atom_site_fract_x
 _atom_site_fract_y
 _atom_site_fract_z
 _atom_site_occupancy
  Sm  Sm0  1  0.499148  0.500852  0.750051  1
  Sm  Sm1  1  0.499159  0.500841  0.249959  1
  Sm  Sm2  1  0.001706  0.500852  0.750051  1
  Sm  Sm3  1  0.001681  0.500841  0.249959  1
  Sm  Sm4  1  0.499148  0.998294  0.750051  1
  Sm  Sm5  1  0.499159  0.998319  0.249959  1
  Pu  Pu6  1  0.000000  0.000000  0.750462  1
  Pu  Pu7  1  0.000000  0.000000  0.249470  1
  Cu  Cu8  1  0.666667  0.333333  0.000000  1
  Cu  Cu9  1  0.333333  0.666667  0.000034  1
  Cu  Cu10  1  0.333333  0.666667  0.499988  1
  Si  Si11  1  0.831987  0.168013  0.000045  1
  Si  Si12  1  0.167763  0.832237  0.000073  1
  Si  Si13  1  0.336026  0.168013  0.000045  1
  Si  Si14  1  0.167569  0.832431  0.499931  1
  Si  Si15  1  0.664473  0.832237  0.000073  1
  Si  Si16  1  0.835266  0.164734  0.499944  1
  Si  Si17  1  0.831987  0.663974  0.000045  1
  Si  Si18  1  0.664863  0.832431  0.499931  1
  Si  Si19  1  0.167763  0.335527  0.000073  1
  Si  Si20  1  0.329469  0.164734  0.499944  1
  Si  Si21  1  0.167569  0.335137  0.499931  1
  Si  Si22  1  0.835266  0.670531  0.499944  1
  Pd  Pd23  1  0.666667  0.333333  0.500036  1
