# generated using pymatgen
data_Sr8Pd(RuN4)2
_symmetry_space_group_name_H-M   'P 1'
_cell_length_a   9.99637776
_cell_length_b   5.35597328
_cell_length_c   7.60030753
_cell_angle_alpha   90.00001259
_cell_angle_beta   75.17552124
_cell_angle_gamma   74.46089871
_symmetry_Int_Tables_number   1
_chemical_formula_structural   Sr8Pd(RuN4)2
_chemical_formula_sum   'Sr8 Pd1 Ru2 N8'
_cell_volume   377.97166557
_cell_formula_units_Z   1
loop_
 _symmetry_equiv_pos_site_id
 _symmetry_equiv_pos_as_xyz
  1  'x, y, z'
loop_
 _atom_site_type_symbol
 _atom_site_label
 _atom_site_symmetry_multiplicity
 _atom_site_fract_x
 _atom_site_fract_y
 _atom_site_fract_z
 _atom_site_occupancy
  Sr  Sr0  1  0.052790  0.973605  0.739369  1
  Sr  Sr1  1  0.947210  0.026395  0.260631  1
  Sr  Sr2  1  0.680376  0.659812  0.462033  1
  Sr  Sr3  1  0.319624  0.340188  0.537967  1
  Sr  Sr4  1  0.820170  0.589915  0.974815  1
  Sr  Sr5  1  0.179830  0.410085  0.025185  1
  Sr  Sr6  1  0.404200  0.797900  0.195365  1
  Sr  Sr7  1  0.595800  0.202100  0.804635  1
  Pd  Pd8  1  0.000000  0.500000  0.500000  1
  Ru  Ru9  1  0.375638  0.812181  0.789776  1
  Ru  Ru10  1  0.624362  0.187819  0.210224  1
  N  N11  1  0.215664  0.892167  0.994060  1
  N  N12  1  0.784336  0.107833  0.005940  1
  N  N13  1  0.351688  0.824157  0.555809  1
  N  N14  1  0.648312  0.175843  0.444191  1
  N  N15  1  0.558548  0.720726  0.826723  1
  N  N16  1  0.441452  0.279274  0.173277  1
  N  N17  1  0.937137  0.531430  0.251654  1
  N  N18  1  0.062863  0.468570  0.748346  1
