# generated using pymatgen
data_Ho5TmAl24(Ru3Pt)2
_symmetry_space_group_name_H-M   'P 1'
_cell_length_a   8.80227187
_cell_length_b   8.78634763
_cell_length_c   9.54347737
_cell_angle_alpha   90.04054416
_cell_angle_beta   90.08759531
_cell_angle_gamma   119.57834255
_symmetry_Int_Tables_number   1
_chemical_formula_structural   Ho5TmAl24(Ru3Pt)2
_chemical_formula_sum   'Ho5 Tm1 Al24 Ru6 Pt2'
_cell_volume   641.90233514
_cell_formula_units_Z   1
loop_
 _symmetry_equiv_pos_site_id
 _symmetry_equiv_pos_as_xyz
  1  'x, y, z'
loop_
 _atom_site_type_symbol
 _atom_site_label
 _atom_site_symmetry_multiplicity
 _atom_site_fract_x
 _atom_site_fract_y
 _atom_site_fract_z
 _atom_site_occupancy
  Ho  Ho0  1  0.809269  0.612971  0.747282  1
  Ho  Ho1  1  0.615395  0.808942  0.251835  1
  Ho  Ho2  1  0.384595  0.191038  0.748142  1
  Ho  Ho3  1  0.191572  0.805662  0.252215  1
  Ho  Ho4  1  0.808235  0.194044  0.747781  1
  Tm  Tm5  1  0.191401  0.388798  0.253096  1
  Al  Al6  1  0.327160  0.664053  0.026072  1
  Al  Al7  1  0.672767  0.335580  0.974412  1
  Al  Al8  1  0.666724  0.332653  0.522994  1
  Al  Al9  1  0.333098  0.667082  0.476572  1
  Al  Al10  1  0.163686  0.327107  0.576304  1
  Al  Al11  1  0.836168  0.672684  0.423094  1
  Al  Al12  1  0.673659  0.836867  0.575979  1
  Al  Al13  1  0.842195  0.675772  0.079046  1
  Al  Al14  1  0.325999  0.163192  0.423561  1
  Al  Al15  1  0.157853  0.324149  0.921539  1
  Al  Al16  1  0.163554  0.836942  0.577496  1
  Al  Al17  1  0.322511  0.162290  0.079903  1
  Al  Al18  1  0.836877  0.163185  0.422098  1
  Al  Al19  1  0.677203  0.837790  0.920491  1
  Al  Al20  1  0.842206  0.167698  0.079515  1
  Al  Al21  1  0.158282  0.832397  0.920904  1
  Al  Al22  1  0.561758  0.124973  0.252477  1
  Al  Al23  1  0.438180  0.875027  0.747410  1
  Al  Al24  1  0.877982  0.439817  0.249126  1
  Al  Al25  1  0.122317  0.559865  0.750927  1
  Al  Al26  1  0.562005  0.437578  0.252910  1
  Al  Al27  1  0.437391  0.562192  0.746966  1
  Al  Al28  1  0.998705  0.001357  0.250341  1
  Al  Al29  1  0.001919  0.999848  0.749676  1
  Ru  Ru30  1  0.000213  0.499784  0.000308  1
  Ru  Ru31  1  0.499900  0.999799  0.499849  1
  Ru  Ru32  1  0.000220  0.499782  0.499693  1
  Ru  Ru33  1  0.499569  0.499794  0.499690  1
  Ru  Ru34  1  0.999983  0.999908  0.999994  1
  Ru  Ru35  1  0.999960  0.999888  0.500025  1
  Pt  Pt36  1  0.499862  0.999717  0.000047  1
  Pt  Pt37  1  0.499626  0.499774  0.000230  1
