# generated using pymatgen
data_Ti2Cu2PtAu
_symmetry_space_group_name_H-M   'P 1'
_cell_length_a   4.72531111
_cell_length_b   4.72630700
_cell_length_c   4.65638000
_cell_angle_alpha   90.00000000
_cell_angle_beta   90.00000000
_cell_angle_gamma   120.40528056
_symmetry_Int_Tables_number   1
_chemical_formula_structural   Ti2Cu2PtAu
_chemical_formula_sum   'Ti2 Cu2 Pt1 Au1'
_cell_volume   89.68984050
_cell_formula_units_Z   1
loop_
 _symmetry_equiv_pos_site_id
 _symmetry_equiv_pos_as_xyz
  1  'x, y, z'
loop_
 _atom_site_type_symbol
 _atom_site_label
 _atom_site_symmetry_multiplicity
 _atom_site_fract_x
 _atom_site_fract_y
 _atom_site_fract_z
 _atom_site_occupancy
  Ti  Ti0  1  0.775435  0.766575  0.250000  1
  Ti  Ti1  1  0.224104  0.232408  0.750000  1
  Cu  Cu2  1  0.885114  0.557720  0.750000  1
  Cu  Cu3  1  0.448752  0.112681  0.250000  1
  Pt  Pt4  1  0.118978  0.437874  0.250000  1
  Au  Au5  1  0.547615  0.892741  0.750000  1
