# generated using pymatgen
data_Ce2Nd6Cu3Si12Rh
_symmetry_space_group_name_H-M   'P 1'
_cell_length_a   8.12809900
_cell_length_b   8.12809993
_cell_length_c   8.51775600
_cell_angle_alpha   90.00000000
_cell_angle_beta   90.00000000
_cell_angle_gamma   120.00000030
_symmetry_Int_Tables_number   1
_chemical_formula_structural   Ce2Nd6Cu3Si12Rh
_chemical_formula_sum   'Ce2 Nd6 Cu3 Si12 Rh1'
_cell_volume   487.34200345
_cell_formula_units_Z   1
loop_
 _symmetry_equiv_pos_site_id
 _symmetry_equiv_pos_as_xyz
  1  'x, y, z'
loop_
 _atom_site_type_symbol
 _atom_site_label
 _atom_site_symmetry_multiplicity
 _atom_site_fract_x
 _atom_site_fract_y
 _atom_site_fract_z
 _atom_site_occupancy
  Ce  Ce0  1  0.000000  0.000000  0.750298  1
  Ce  Ce1  1  0.000000  0.000000  0.249800  1
  Nd  Nd2  1  0.499285  0.500715  0.751540  1
  Nd  Nd3  1  0.499285  0.998573  0.751540  1
  Nd  Nd4  1  0.001427  0.500715  0.751540  1
  Nd  Nd5  1  0.499966  0.500034  0.248598  1
  Nd  Nd6  1  0.000070  0.500034  0.248598  1
  Nd  Nd7  1  0.499966  0.999930  0.248598  1
  Cu  Cu8  1  0.666667  0.333333  0.997372  1
  Cu  Cu9  1  0.666667  0.333333  0.502040  1
  Cu  Cu10  1  0.333333  0.666667  0.498628  1
  Si  Si11  1  0.833132  0.166868  0.999665  1
  Si  Si12  1  0.833132  0.666263  0.999665  1
  Si  Si13  1  0.333737  0.166868  0.999665  1
  Si  Si14  1  0.831836  0.168164  0.500279  1
  Si  Si15  1  0.831836  0.663671  0.500279  1
  Si  Si16  1  0.336329  0.168164  0.500279  1
  Si  Si17  1  0.168333  0.831667  0.499788  1
  Si  Si18  1  0.663335  0.831667  0.499788  1
  Si  Si19  1  0.168333  0.336665  0.499788  1
  Si  Si20  1  0.167247  0.832753  0.000443  1
  Si  Si21  1  0.665507  0.832753  0.000443  1
  Si  Si22  1  0.167247  0.334493  0.000443  1
  Rh  Rh23  1  0.333333  0.666667  0.000922  1
