# generated using pymatgen
data_DyLu5(AuO7)2
_symmetry_space_group_name_H-M   'P 1'
_cell_length_a   6.38245449
_cell_length_b   6.38245526
_cell_length_c   7.31916970
_cell_angle_alpha   89.95918663
_cell_angle_beta   90.04081741
_cell_angle_gamma   108.67596964
_symmetry_Int_Tables_number   1
_chemical_formula_structural   DyLu5(AuO7)2
_chemical_formula_sum   'Dy1 Lu5 Au2 O14'
_cell_volume   282.45233410
_cell_formula_units_Z   1
loop_
 _symmetry_equiv_pos_site_id
 _symmetry_equiv_pos_as_xyz
  1  'x, y, z'
loop_
 _atom_site_type_symbol
 _atom_site_label
 _atom_site_symmetry_multiplicity
 _atom_site_fract_x
 _atom_site_fract_y
 _atom_site_fract_z
 _atom_site_occupancy
  Dy  Dy0  1  0.500000  0.500000  0.500000  1
  Lu  Lu1  1  0.001696  0.471378  0.751355  1
  Lu  Lu2  1  0.500000  0.500000  0.000000  1
  Lu  Lu3  1  0.998304  0.528622  0.248645  1
  Lu  Lu4  1  0.471378  0.001696  0.248645  1
  Lu  Lu5  1  0.528622  0.998304  0.751355  1
  Au  Au6  1  0.000000  0.000000  0.000000  1
  Au  Au7  1  0.000000  0.000000  0.500000  1
  O  O8  1  0.080999  0.334819  0.475217  1
  O  O9  1  0.916082  0.083918  0.750044  1
  O  O10  1  0.083998  0.334806  0.024873  1
  O  O11  1  0.919001  0.665181  0.524783  1
  O  O12  1  0.641063  0.358937  0.754227  1
  O  O13  1  0.665181  0.919001  0.475217  1
  O  O14  1  0.334819  0.080999  0.524783  1
  O  O15  1  0.334806  0.083998  0.975127  1
  O  O16  1  0.665194  0.916002  0.024873  1
  O  O17  1  0.916002  0.665194  0.975127  1
  O  O18  1  0.634440  0.365560  0.245275  1
  O  O19  1  0.358937  0.641063  0.245773  1
  O  O20  1  0.365560  0.634440  0.754725  1
  O  O21  1  0.083918  0.916082  0.249956  1
