# generated using pymatgen
data_Tm8Al2IrPt
_symmetry_space_group_name_H-M   'P 1'
_cell_length_a   9.43117610
_cell_length_b   9.43117544
_cell_length_c   9.38386000
_cell_angle_alpha   60.16582705
_cell_angle_beta   60.16582933
_cell_angle_gamma   60.53195353
_symmetry_Int_Tables_number   1
_chemical_formula_structural   Tm8Al2IrPt
_chemical_formula_sum   'Tm16 Al4 Ir2 Pt2'
_cell_volume   594.02757847
_cell_formula_units_Z   2
loop_
 _symmetry_equiv_pos_site_id
 _symmetry_equiv_pos_as_xyz
  1  'x, y, z'
loop_
 _atom_site_type_symbol
 _atom_site_label
 _atom_site_symmetry_multiplicity
 _atom_site_fract_x
 _atom_site_fract_y
 _atom_site_fract_z
 _atom_site_occupancy
  Tm  Tm0  1  0.602634  0.602634  0.598620  1
  Tm  Tm1  1  0.602634  0.602634  0.196113  1
  Tm  Tm2  1  0.608134  0.185788  0.603039  1
  Tm  Tm3  1  0.185788  0.608134  0.603039  1
  Tm  Tm4  1  0.052698  0.445873  0.442618  1
  Tm  Tm5  1  0.445873  0.052698  0.058811  1
  Tm  Tm6  1  0.445873  0.052698  0.442618  1
  Tm  Tm7  1  0.052698  0.445873  0.058811  1
  Tm  Tm8  1  0.444989  0.444989  0.055011  1
  Tm  Tm9  1  0.057015  0.057015  0.442985  1
  Tm  Tm10  1  0.187877  0.815025  0.809987  1
  Tm  Tm11  1  0.815025  0.187877  0.187109  1
  Tm  Tm12  1  0.815025  0.187877  0.809987  1
  Tm  Tm13  1  0.187877  0.815025  0.187109  1
  Tm  Tm14  1  0.813644  0.813644  0.186356  1
  Tm  Tm15  1  0.188370  0.188370  0.811630  1
  Al  Al16  1  0.828017  0.828017  0.828331  1
  Al  Al17  1  0.828017  0.828017  0.515634  1
  Al  Al18  1  0.826897  0.516777  0.828162  1
  Al  Al19  1  0.516777  0.826897  0.828162  1
  Ir  Ir20  1  0.389011  0.823628  0.393680  1
  Ir  Ir21  1  0.823628  0.389011  0.393680  1
  Pt  Pt22  1  0.390748  0.390748  0.396483  1
  Pt  Pt23  1  0.390748  0.390748  0.822021  1
