# generated using pymatgen
data_Y2FeSi5IrRh
_symmetry_space_group_name_H-M   'P 1'
_cell_length_a   8.03649292
_cell_length_b   8.03649305
_cell_length_c   5.65025363
_cell_angle_alpha   71.15394380
_cell_angle_beta   71.15394284
_cell_angle_gamma   93.43396957
_symmetry_Int_Tables_number   1
_chemical_formula_structural   Y2FeSi5IrRh
_chemical_formula_sum   'Y4 Fe2 Si10 Ir2 Rh2'
_cell_volume   321.30202237
_cell_formula_units_Z   2
loop_
 _symmetry_equiv_pos_site_id
 _symmetry_equiv_pos_as_xyz
  1  'x, y, z'
loop_
 _atom_site_type_symbol
 _atom_site_label
 _atom_site_symmetry_multiplicity
 _atom_site_fract_x
 _atom_site_fract_y
 _atom_site_fract_z
 _atom_site_occupancy
  Y  Y0  1  0.863258  0.596024  0.767661  1
  Y  Y1  1  0.129590  0.401477  0.244285  1
  Y  Y2  1  0.403976  0.136742  0.732339  1
  Y  Y3  1  0.598523  0.870410  0.255715  1
  Fe  Fe4  1  0.544225  0.260358  0.129106  1
  Fe  Fe5  1  0.739642  0.455775  0.370894  1
  Si  Si6  1  0.762315  0.237685  0.750000  1
  Si  Si7  1  0.222869  0.777131  0.250000  1
  Si  Si8  1  0.522871  0.477129  0.750000  1
  Si  Si9  1  0.496656  0.503344  0.250000  1
  Si  Si10  1  0.207910  0.792090  0.750000  1
  Si  Si11  1  0.783944  0.216056  0.250000  1
  Si  Si12  1  0.278472  0.070623  0.324891  1
  Si  Si13  1  0.735541  0.942549  0.661481  1
  Si  Si14  1  0.929377  0.721528  0.175109  1
  Si  Si15  1  0.057451  0.264459  0.838519  1
  Ir  Ir16  1  0.460222  0.739470  0.871928  1
  Ir  Ir17  1  0.260530  0.539778  0.628072  1
  Rh  Rh18  1  0.999418  0.000582  0.250000  1
  Rh  Rh19  1  0.003212  0.996788  0.750000  1
