# generated using pymatgen
data_PaCo3As3Rh2
_symmetry_space_group_name_H-M   'P 1'
_cell_length_a   3.83713600
_cell_length_b   10.89065400
_cell_length_c   12.51508400
_cell_angle_alpha   90.00000000
_cell_angle_beta   90.00000000
_cell_angle_gamma   90.00000000
_symmetry_Int_Tables_number   1
_chemical_formula_structural   PaCo3As3Rh2
_chemical_formula_sum   'Pa4 Co12 As12 Rh8'
_cell_volume   522.99185066
_cell_formula_units_Z   4
loop_
 _symmetry_equiv_pos_site_id
 _symmetry_equiv_pos_as_xyz
  1  'x, y, z'
loop_
 _atom_site_type_symbol
 _atom_site_label
 _atom_site_symmetry_multiplicity
 _atom_site_fract_x
 _atom_site_fract_y
 _atom_site_fract_z
 _atom_site_occupancy
  Pa  Pa0  1  0.250000  0.581641  0.707572  1
  Pa  Pa1  1  0.250000  0.918359  0.207572  1
  Pa  Pa2  1  0.750000  0.418359  0.292428  1
  Pa  Pa3  1  0.750000  0.081641  0.792428  1
  Co  Co4  1  0.250000  0.219114  0.180664  1
  Co  Co5  1  0.250000  0.280886  0.680664  1
  Co  Co6  1  0.750000  0.780886  0.819336  1
  Co  Co7  1  0.750000  0.719114  0.319336  1
  Co  Co8  1  0.250000  0.886839  0.697388  1
  Co  Co9  1  0.250000  0.613161  0.197388  1
  Co  Co10  1  0.750000  0.113161  0.302612  1
  Co  Co11  1  0.750000  0.386839  0.802612  1
  Co  Co12  1  0.250000  0.471025  0.928106  1
  Co  Co13  1  0.250000  0.028975  0.428106  1
  Co  Co14  1  0.750000  0.528975  0.071894  1
  Co  Co15  1  0.750000  0.971025  0.571894  1
  As  As16  1  0.250000  0.415658  0.110814  1
  As  As17  1  0.250000  0.084342  0.610814  1
  As  As18  1  0.750000  0.584342  0.889186  1
  As  As19  1  0.750000  0.915658  0.389186  1
  As  As20  1  0.250000  0.278239  0.863988  1
  As  As21  1  0.250000  0.221761  0.363988  1
  As  As22  1  0.750000  0.721761  0.136012  1
  As  As23  1  0.750000  0.778239  0.636012  1
  As  As24  1  0.250000  0.609407  0.379747  1
  As  As25  1  0.250000  0.890593  0.879747  1
  As  As26  1  0.750000  0.390593  0.620253  1
  As  As27  1  0.750000  0.109407  0.120253  1
  Rh  Rh28  1  0.250000  0.709438  0.990648  1
  Rh  Rh29  1  0.250000  0.790562  0.490648  1
  Rh  Rh30  1  0.750000  0.290562  0.009352  1
  Rh  Rh31  1  0.750000  0.209438  0.509352  1
  Rh  Rh32  1  0.250000  0.408791  0.473076  1
  Rh  Rh33  1  0.250000  0.091209  0.973076  1
  Rh  Rh34  1  0.750000  0.591209  0.526924  1
  Rh  Rh35  1  0.750000  0.908791  0.026924  1
