# generated using pymatgen
data_Zr6Al2Zn4N
_symmetry_space_group_name_H-M   'P 1'
_cell_length_a   8.58741701
_cell_length_b   8.58415767
_cell_length_c   8.58741600
_cell_angle_alpha   59.98743526
_cell_angle_beta   59.99999619
_cell_angle_gamma   59.98743430
_symmetry_Int_Tables_number   1
_chemical_formula_structural   Zr6Al2Zn4N
_chemical_formula_sum   'Zr12 Al4 Zn8 N2'
_cell_volume   447.53316206
_cell_formula_units_Z   2
loop_
 _symmetry_equiv_pos_site_id
 _symmetry_equiv_pos_as_xyz
  1  'x, y, z'
loop_
 _atom_site_type_symbol
 _atom_site_label
 _atom_site_symmetry_multiplicity
 _atom_site_fract_x
 _atom_site_fract_y
 _atom_site_fract_z
 _atom_site_occupancy
  Zr  Zr0  1  0.189939  0.809916  0.189939  1
  Zr  Zr1  1  0.439685  0.061116  0.439685  1
  Zr  Zr2  1  0.439685  0.061116  0.059513  1
  Zr  Zr3  1  0.439040  0.438722  0.061119  1
  Zr  Zr4  1  0.189939  0.809916  0.810205  1
  Zr  Zr5  1  0.061119  0.438722  0.061119  1
  Zr  Zr6  1  0.810205  0.809916  0.189939  1
  Zr  Zr7  1  0.061119  0.438722  0.439040  1
  Zr  Zr8  1  0.188556  0.190085  0.810679  1
  Zr  Zr9  1  0.810679  0.190085  0.188556  1
  Zr  Zr10  1  0.810679  0.190085  0.810679  1
  Zr  Zr11  1  0.059513  0.061116  0.439685  1
  Al  Al12  1  0.830997  0.507011  0.830997  1
  Al  Al13  1  0.417491  0.418572  0.746445  1
  Al  Al14  1  0.746445  0.418572  0.417491  1
  Al  Al15  1  0.417491  0.418572  0.417491  1
  Zn  Zn16  1  0.831416  0.831610  0.505560  1
  Zn  Zn17  1  0.418251  0.745246  0.418251  1
  Zn  Zn18  1  0.831416  0.831610  0.831416  1
  Zn  Zn19  1  0.505560  0.831610  0.831416  1
  Zn  Zn20  1  0.625347  0.123958  0.625347  1
  Zn  Zn21  1  0.625004  0.626057  0.123935  1
  Zn  Zn22  1  0.123935  0.626057  0.625004  1
  Zn  Zn23  1  0.625004  0.626057  0.625004  1
  N  N24  1  0.000727  0.997820  0.000727  1
  N  N25  1  0.250756  0.247731  0.250756  1
