# generated using pymatgen
data_Ac6Hf5Se16
_symmetry_space_group_name_H-M   'P 1'
_cell_length_a   9.83189704
_cell_length_b   9.83178512
_cell_length_c   12.34073751
_cell_angle_alpha   88.43761096
_cell_angle_beta   88.42212435
_cell_angle_gamma   142.37065408
_symmetry_Int_Tables_number   1
_chemical_formula_structural   Ac6Hf5Se16
_chemical_formula_sum   'Ac6 Hf5 Se16'
_cell_volume   725.70404927
_cell_formula_units_Z   1
loop_
 _symmetry_equiv_pos_site_id
 _symmetry_equiv_pos_as_xyz
  1  'x, y, z'
loop_
 _atom_site_type_symbol
 _atom_site_label
 _atom_site_symmetry_multiplicity
 _atom_site_fract_x
 _atom_site_fract_y
 _atom_site_fract_z
 _atom_site_occupancy
  Ac  Ac0  1  0.066997  0.401718  0.831036  1
  Ac  Ac1  1  0.401738  0.066953  0.831053  1
  Ac  Ac2  1  0.762025  0.762002  0.826655  1
  Ac  Ac3  1  0.855337  0.522204  0.144122  1
  Ac  Ac4  1  0.522099  0.855235  0.144169  1
  Ac  Ac5  1  0.217023  0.217020  0.140262  1
  Hf  Hf6  1  0.619598  0.809402  0.486223  1
  Hf  Hf7  1  0.809417  0.619459  0.486243  1
  Hf  Hf8  1  0.023809  0.397315  0.488262  1
  Hf  Hf9  1  0.397153  0.023972  0.488231  1
  Hf  Hf10  1  0.214535  0.214431  0.484364  1
  Se  Se11  1  0.922934  0.113802  0.629011  1
  Se  Se12  1  0.113676  0.922885  0.629115  1
  Se  Se13  1  0.514959  0.514993  0.620776  1
  Se  Se14  1  0.329380  0.733344  0.614152  1
  Se  Se15  1  0.733162  0.329305  0.614240  1
  Se  Se16  1  0.244880  0.244868  0.884819  1
  Se  Se17  1  0.030442  0.364393  0.088731  1
  Se  Se18  1  0.364506  0.030511  0.088688  1
  Se  Se19  1  0.692936  0.100871  0.361375  1
  Se  Se20  1  0.101014  0.693062  0.361264  1
  Se  Se21  1  0.902577  0.902511  0.349757  1
  Se  Se22  1  0.307626  0.503114  0.344663  1
  Se  Se23  1  0.503279  0.307792  0.344527  1
  Se  Se24  1  0.894928  0.560712  0.886266  1
  Se  Se25  1  0.560729  0.894875  0.886230  1
  Se  Se26  1  0.715844  0.715850  0.083769  1
