# generated using pymatgen
data_YbV2F12
_symmetry_space_group_name_H-M   'P 1'
_cell_length_a   9.56453877
_cell_length_b   9.56453867
_cell_length_c   9.56453800
_cell_angle_alpha   131.52485515
_cell_angle_beta   131.52484662
_cell_angle_gamma   70.98051774
_symmetry_Int_Tables_number   1
_chemical_formula_structural   YbV2F12
_chemical_formula_sum   'Yb2 V4 F24'
_cell_volume   480.24376561
_cell_formula_units_Z   2
loop_
 _symmetry_equiv_pos_site_id
 _symmetry_equiv_pos_as_xyz
  1  'x, y, z'
loop_
 _atom_site_type_symbol
 _atom_site_label
 _atom_site_symmetry_multiplicity
 _atom_site_fract_x
 _atom_site_fract_y
 _atom_site_fract_z
 _atom_site_occupancy
  Yb  Yb0  1  0.750000  0.250000  0.500000  1
  Yb  Yb1  1  0.000000  0.000000  0.000000  1
  V  V2  1  0.779723  0.779723  0.000000  1
  V  V3  1  0.220277  0.220277  0.000000  1
  V  V4  1  0.970277  0.470277  0.500000  1
  V  V5  1  0.529723  0.029723  0.500000  1
  F  F6  1  0.868660  0.746730  0.204762  1
  F  F7  1  0.541968  0.663898  0.795238  1
  F  F8  1  0.413898  0.791968  0.295238  1
  F  F9  1  0.336102  0.131340  0.878072  1
  F  F10  1  0.253270  0.458032  0.121928  1
  F  F11  1  0.208032  0.503270  0.621928  1
  F  F12  1  0.656370  0.269684  0.686011  1
  F  F13  1  0.730316  0.416327  0.386685  1
  F  F14  1  0.029643  0.343630  0.613315  1
  F  F15  1  0.093630  0.279643  0.113315  1
  F  F16  1  0.166327  0.980316  0.886685  1
  F  F17  1  0.583673  0.970357  0.313989  1
  F  F18  1  0.720357  0.833673  0.813989  1
  F  F19  1  0.019684  0.906370  0.186011  1
  F  F20  1  0.305635  0.089519  0.330337  1
  F  F21  1  0.910481  0.240818  0.216114  1
  F  F22  1  0.024703  0.694365  0.783886  1
  F  F23  1  0.444365  0.274703  0.283886  1
  F  F24  1  0.990818  0.160481  0.716114  1
  F  F25  1  0.759182  0.975297  0.669663  1
  F  F26  1  0.725297  0.009182  0.169663  1
  F  F27  1  0.839519  0.555635  0.830337  1
  F  F28  1  0.496730  0.118660  0.704762  1
  F  F29  1  0.881340  0.586102  0.378072  1
