# generated using pymatgen
data_SrYb3Pt8
_symmetry_space_group_name_H-M   'P 1'
_cell_length_a   9.38476808
_cell_length_b   9.38476864
_cell_length_c   9.38476900
_cell_angle_alpha   33.60588129
_cell_angle_beta   33.60587619
_cell_angle_gamma   33.60587727
_symmetry_Int_Tables_number   1
_chemical_formula_structural   SrYb3Pt8
_chemical_formula_sum   'Sr1 Yb3 Pt8'
_cell_volume   225.55242465
_cell_formula_units_Z   1
loop_
 _symmetry_equiv_pos_site_id
 _symmetry_equiv_pos_as_xyz
  1  'x, y, z'
loop_
 _atom_site_type_symbol
 _atom_site_label
 _atom_site_symmetry_multiplicity
 _atom_site_fract_x
 _atom_site_fract_y
 _atom_site_fract_z
 _atom_site_occupancy
  Sr  Sr0  1  0.687927  0.687927  0.687927  1
  Yb  Yb1  1  0.187219  0.187219  0.187219  1
  Yb  Yb2  1  0.813814  0.813814  0.813814  1
  Yb  Yb3  1  0.310702  0.310702  0.310702  1
  Pt  Pt4  1  0.999767  0.999767  0.999767  1
  Pt  Pt5  1  0.500114  0.500114  0.500114  1
  Pt  Pt6  1  0.753255  0.250926  0.250926  1
  Pt  Pt7  1  0.246430  0.749460  0.749460  1
  Pt  Pt8  1  0.250926  0.753255  0.250926  1
  Pt  Pt9  1  0.749460  0.246430  0.749460  1
  Pt  Pt10  1  0.250926  0.250926  0.753255  1
  Pt  Pt11  1  0.749460  0.749460  0.246430  1
