# generated using pymatgen
data_Ti5Os2
_symmetry_space_group_name_H-M   'P 1'
_cell_length_a   6.92865531
_cell_length_b   6.92865469
_cell_length_c   6.92865609
_cell_angle_alpha   37.30927725
_cell_angle_beta   37.30928122
_cell_angle_gamma   37.30928105
_symmetry_Int_Tables_number   1
_chemical_formula_structural   Ti5Os2
_chemical_formula_sum   'Ti5 Os2'
_cell_volume   109.55134039
_cell_formula_units_Z   1
loop_
 _symmetry_equiv_pos_site_id
 _symmetry_equiv_pos_as_xyz
  1  'x, y, z'
loop_
 _atom_site_type_symbol
 _atom_site_label
 _atom_site_symmetry_multiplicity
 _atom_site_fract_x
 _atom_site_fract_y
 _atom_site_fract_z
 _atom_site_occupancy
  Ti  Ti0  1  0.193011  0.193011  0.193011  1
  Ti  Ti1  1  0.342708  0.342708  0.342708  1
  Ti  Ti2  1  0.614682  0.614682  0.614682  1
  Ti  Ti3  1  0.767873  0.767873  0.767873  1
  Ti  Ti4  1  0.921016  0.921016  0.921016  1
  Os  Os5  1  0.053671  0.053671  0.053671  1
  Os  Os6  1  0.482038  0.482038  0.482038  1
