# generated using pymatgen
data_Tm8URu9
_symmetry_space_group_name_H-M   'P 1'
_cell_length_a   8.17396002
_cell_length_b   8.17396082
_cell_length_c   5.88881603
_cell_angle_alpha   90.00645242
_cell_angle_beta   90.00644666
_cell_angle_gamma   120.00304456
_symmetry_Int_Tables_number   1
_chemical_formula_structural   Tm8URu9
_chemical_formula_sum   'Tm8 U1 Ru9'
_cell_volume   340.72997684
_cell_formula_units_Z   1
loop_
 _symmetry_equiv_pos_site_id
 _symmetry_equiv_pos_as_xyz
  1  'x, y, z'
loop_
 _atom_site_type_symbol
 _atom_site_label
 _atom_site_symmetry_multiplicity
 _atom_site_fract_x
 _atom_site_fract_y
 _atom_site_fract_z
 _atom_site_occupancy
  Tm  Tm0  1  0.666656  0.004974  0.230973  1
  Tm  Tm1  1  0.328266  0.328265  0.231250  1
  Tm  Tm2  1  0.004974  0.666657  0.230973  1
  Tm  Tm3  1  0.666896  0.327987  0.552950  1
  Tm  Tm4  1  0.327988  0.666897  0.552950  1
  Tm  Tm5  1  0.005234  0.005234  0.553424  1
  Tm  Tm6  1  0.333345  0.000130  0.892165  1
  Tm  Tm7  1  0.000130  0.333344  0.892165  1
  U  U8  1  0.666489  0.666489  0.891777  1
  Ru  Ru9  1  0.666683  0.354362  0.049262  1
  Ru  Ru10  1  0.354363  0.666684  0.049262  1
  Ru  Ru11  1  0.978525  0.978525  0.049597  1
  Ru  Ru12  1  0.333353  0.000133  0.391959  1
  Ru  Ru13  1  0.000133  0.333352  0.391959  1
  Ru  Ru14  1  0.666577  0.666577  0.392695  1
  Ru  Ru15  1  0.666571  0.978987  0.734820  1
  Ru  Ru16  1  0.354832  0.354832  0.734841  1
  Ru  Ru17  1  0.978987  0.666571  0.734820  1
