# generated using pymatgen
data_Tb2Dy2BI5
_symmetry_space_group_name_H-M   'P 1'
_cell_length_a   9.68003765
_cell_length_b   9.68003776
_cell_length_c   8.61453952
_cell_angle_alpha   102.38145552
_cell_angle_beta   102.38145660
_cell_angle_gamma   24.53990637
_symmetry_Int_Tables_number   1
_chemical_formula_structural   Tb2Dy2BI5
_chemical_formula_sum   'Tb2 Dy2 B1 I5'
_cell_volume   327.08486954
_cell_formula_units_Z   1
loop_
 _symmetry_equiv_pos_site_id
 _symmetry_equiv_pos_as_xyz
  1  'x, y, z'
loop_
 _atom_site_type_symbol
 _atom_site_label
 _atom_site_symmetry_multiplicity
 _atom_site_fract_x
 _atom_site_fract_y
 _atom_site_fract_z
 _atom_site_occupancy
  Tb  Tb0  1  0.636315  0.636315  0.069665  1
  Tb  Tb1  1  0.999215  0.999215  0.193869  1
  Dy  Dy2  1  0.000564  0.000564  0.806873  1
  Dy  Dy3  1  0.364160  0.364160  0.930054  1
  B  B4  1  0.499575  0.499575  0.998944  1
  I  I5  1  0.828140  0.828140  0.173622  1
  I  I6  1  0.166007  0.166007  0.343512  1
  I  I7  1  0.499994  0.499994  0.500697  1
  I  I8  1  0.834244  0.834244  0.657652  1
  I  I9  1  0.171786  0.171786  0.825112  1
