# generated using pymatgen
data_Sm3Ho3NiI10
_symmetry_space_group_name_H-M   'P 1'
_cell_length_a   7.73728955
_cell_length_b   9.75543920
_cell_length_c   9.80260223
_cell_angle_alpha   107.00371805
_cell_angle_beta   96.44405077
_cell_angle_gamma   104.38120050
_symmetry_Int_Tables_number   1
_chemical_formula_structural   Sm3Ho3NiI10
_chemical_formula_sum   'Sm3 Ho3 Ni1 I10'
_cell_volume   671.60318978
_cell_formula_units_Z   1
loop_
 _symmetry_equiv_pos_site_id
 _symmetry_equiv_pos_as_xyz
  1  'x, y, z'
loop_
 _atom_site_type_symbol
 _atom_site_label
 _atom_site_symmetry_multiplicity
 _atom_site_fract_x
 _atom_site_fract_y
 _atom_site_fract_z
 _atom_site_occupancy
  Sm  Sm0  1  0.034610  0.718030  0.916211  1
  Sm  Sm1  1  0.884004  0.957817  0.238881  1
  Sm  Sm2  1  0.116772  0.042899  0.761797  1
  Ho  Ho3  1  0.335536  0.119418  0.158835  1
  Ho  Ho4  1  0.664034  0.882587  0.841468  1
  Ho  Ho5  1  0.965972  0.276084  0.082668  1
  Ni  Ni6  1  0.000552  0.000561  0.000398  1
  I  I7  1  0.341979  0.444807  0.269655  1
  I  I8  1  0.649655  0.555225  0.727195  1
  I  I9  1  0.765273  0.256170  0.338539  1
  I  I10  1  0.238439  0.747504  0.657431  1
  I  I11  1  0.548799  0.185011  0.910627  1
  I  I12  1  0.455296  0.817460  0.091929  1
  I  I13  1  0.739305  0.913173  0.542176  1
  I  I14  1  0.261424  0.087471  0.457704  1
  I  I15  1  0.913563  0.622873  0.181331  1
  I  I16  1  0.084789  0.372908  0.823154  1
