# generated using pymatgen
data_Tb5Er10Tm(InRh)4
_symmetry_space_group_name_H-M   'P 1'
_cell_length_a   9.62471878
_cell_length_b   9.61572368
_cell_length_c   9.61572394
_cell_angle_alpha   59.98570625
_cell_angle_beta   59.88453299
_cell_angle_gamma   59.88453047
_symmetry_Int_Tables_number   1
_chemical_formula_structural   Tb5Er10Tm(InRh)4
_chemical_formula_sum   'Tb5 Er10 Tm1 In4 Rh4'
_cell_volume   628.10182644
_cell_formula_units_Z   1
loop_
 _symmetry_equiv_pos_site_id
 _symmetry_equiv_pos_as_xyz
  1  'x, y, z'
loop_
 _atom_site_type_symbol
 _atom_site_label
 _atom_site_symmetry_multiplicity
 _atom_site_fract_x
 _atom_site_fract_y
 _atom_site_fract_z
 _atom_site_occupancy
  Tb  Tb0  1  0.062243  0.062569  0.436789  1
  Tb  Tb1  1  0.437587  0.062364  0.437103  1
  Tb  Tb2  1  0.062243  0.436789  0.062569  1
  Tb  Tb3  1  0.049716  0.649584  0.649584  1
  Tb  Tb4  1  0.437587  0.437103  0.062364  1
  Er  Er5  1  0.649711  0.049160  0.648217  1
  Er  Er6  1  0.188921  0.812282  0.188378  1
  Er  Er7  1  0.188921  0.188378  0.812282  1
  Er  Er8  1  0.810533  0.810760  0.190539  1
  Er  Er9  1  0.440348  0.058696  0.058696  1
  Er  Er10  1  0.812281  0.188685  0.188685  1
  Er  Er11  1  0.059606  0.439931  0.439931  1
  Er  Er12  1  0.810533  0.190539  0.810760  1
  Er  Er13  1  0.189976  0.811722  0.811722  1
  Er  Er14  1  0.649711  0.648217  0.049160  1
  Tm  Tm15  1  0.650777  0.652376  0.652376  1
  In  In16  1  0.417333  0.417376  0.417376  1
  In  In17  1  0.748203  0.417911  0.417911  1
  In  In18  1  0.418857  0.747713  0.416501  1
  In  In19  1  0.418857  0.416501  0.747713  1
  Rh  Rh20  1  0.856850  0.857556  0.426090  1
  Rh  Rh21  1  0.854716  0.859506  0.859506  1
  Rh  Rh22  1  0.427639  0.858194  0.858194  1
  Rh  Rh23  1  0.856850  0.426090  0.857556  1
