# generated using pymatgen
data_CrAg3F7
_symmetry_space_group_name_H-M   'P 1'
_cell_length_a   7.76792558
_cell_length_b   7.77086491
_cell_length_c   7.77096646
_cell_angle_alpha   119.39233942
_cell_angle_beta   121.65533622
_cell_angle_gamma   89.11817083
_symmetry_Int_Tables_number   1
_chemical_formula_structural   CrAg3F7
_chemical_formula_sum   'Cr2 Ag6 F14'
_cell_volume   328.82511916
_cell_formula_units_Z   2
loop_
 _symmetry_equiv_pos_site_id
 _symmetry_equiv_pos_as_xyz
  1  'x, y, z'
loop_
 _atom_site_type_symbol
 _atom_site_label
 _atom_site_symmetry_multiplicity
 _atom_site_fract_x
 _atom_site_fract_y
 _atom_site_fract_z
 _atom_site_occupancy
  Cr  Cr0  1  0.500000  0.500000  0.500000  1
  Cr  Cr1  1  0.500000  0.000000  0.000000  1
  Ag  Ag2  1  0.000000  0.500000  0.500000  1
  Ag  Ag3  1  0.500000  0.000000  0.500000  1
  Ag  Ag4  1  0.500000  0.500000  0.000000  1
  Ag  Ag5  1  0.000000  0.000000  0.000000  1
  Ag  Ag6  1  0.000000  0.500000  0.000000  1
  Ag  Ag7  1  0.000000  0.000000  0.500000  1
  F  F8  1  0.855723  0.604626  0.251106  1
  F  F9  1  0.145839  0.895493  0.250367  1
  F  F10  1  0.195205  0.869445  0.807536  1
  F  F11  1  0.437732  0.630681  0.325426  1
  F  F12  1  0.437747  0.112295  0.807048  1
  F  F13  1  0.195206  0.387657  0.325753  1
  F  F14  1  0.804794  0.612343  0.674247  1
  F  F15  1  0.562253  0.887705  0.192952  1
  F  F16  1  0.562268  0.369319  0.674574  1
  F  F17  1  0.804795  0.130555  0.192464  1
  F  F18  1  0.474607  0.249983  0.224624  1
  F  F19  1  0.144277  0.395374  0.748894  1
  F  F20  1  0.854161  0.104507  0.749633  1
  F  F21  1  0.525393  0.750017  0.775376  1
