# generated using pymatgen
data_Tb6ErCd(Co3Sn11)2
_symmetry_space_group_name_H-M   'P 1'
_cell_length_a   9.67526280
_cell_length_b   9.69281610
_cell_length_c   10.03190680
_cell_angle_alpha   89.99999917
_cell_angle_beta   90.09711888
_cell_angle_gamma   120.06002974
_symmetry_Int_Tables_number   1
_chemical_formula_structural   Tb6ErCd(Co3Sn11)2
_chemical_formula_sum   'Tb6 Er1 Cd1 Co6 Sn22'
_cell_volume   814.25982550
_cell_formula_units_Z   1
loop_
 _symmetry_equiv_pos_site_id
 _symmetry_equiv_pos_as_xyz
  1  'x, y, z'
loop_
 _atom_site_type_symbol
 _atom_site_label
 _atom_site_symmetry_multiplicity
 _atom_site_fract_x
 _atom_site_fract_y
 _atom_site_fract_z
 _atom_site_occupancy
  Tb  Tb0  1  0.478934  0.521155  0.306377  1
  Tb  Tb1  1  0.520789  0.478561  0.694029  1
  Tb  Tb2  1  0.478934  0.957781  0.306377  1
  Tb  Tb3  1  0.520789  0.042226  0.694029  1
  Tb  Tb4  1  0.042560  0.521281  0.306070  1
  Tb  Tb5  1  0.999440  0.999720  0.999816  1
  Er  Er6  1  0.959247  0.479622  0.694499  1
  Cd  Cd7  1  0.999424  0.999712  0.500032  1
  Co  Co8  1  0.831987  0.168118  0.196539  1
  Co  Co9  1  0.167558  0.830940  0.803221  1
  Co  Co10  1  0.831987  0.663871  0.196539  1
  Co  Co11  1  0.167558  0.336616  0.803221  1
  Co  Co12  1  0.336147  0.168075  0.196291  1
  Co  Co13  1  0.664430  0.832214  0.803286  1
  Sn  Sn14  1  0.116085  0.883897  0.269928  1
  Sn  Sn15  1  0.883871  0.117058  0.729868  1
  Sn  Sn16  1  0.116085  0.232189  0.269928  1
  Sn  Sn17  1  0.883871  0.766812  0.729868  1
  Sn  Sn18  1  0.767717  0.883859  0.269828  1
  Sn  Sn19  1  0.231351  0.115675  0.730061  1
  Sn  Sn20  1  0.783973  0.217728  0.454033  1
  Sn  Sn21  1  0.215599  0.782121  0.547151  1
  Sn  Sn22  1  0.783973  0.566244  0.454033  1
  Sn  Sn23  1  0.215599  0.433479  0.547151  1
  Sn  Sn24  1  0.433436  0.216718  0.453332  1
  Sn  Sn25  1  0.566170  0.783085  0.546998  1
  Sn  Sn26  1  0.346059  0.999801  0.999689  1
  Sn  Sn27  1  0.653644  0.999888  0.999878  1
  Sn  Sn28  1  0.000147  0.346278  0.999862  1
  Sn  Sn29  1  0.000147  0.653869  0.999862  1
  Sn  Sn30  1  0.653644  0.653756  0.999878  1
  Sn  Sn31  1  0.346059  0.346258  0.999689  1
  Sn  Sn32  1  0.333644  0.666822  0.117038  1
  Sn  Sn33  1  0.669530  0.334764  0.881760  1
  Sn  Sn34  1  0.333076  0.666538  0.817838  1
  Sn  Sn35  1  0.666536  0.333267  0.182005  1
