# generated using pymatgen
data_YCuHgPt3
_symmetry_space_group_name_H-M   'P 1'
_cell_length_a   5.20949472
_cell_length_b   5.20949404
_cell_length_c   5.20949420
_cell_angle_alpha   63.26111776
_cell_angle_beta   63.26112317
_cell_angle_gamma   63.26112759
_symmetry_Int_Tables_number   1
_chemical_formula_structural   YCuHgPt3
_chemical_formula_sum   'Y1 Cu1 Hg1 Pt3'
_cell_volume   107.19344446
_cell_formula_units_Z   1
loop_
 _symmetry_equiv_pos_site_id
 _symmetry_equiv_pos_as_xyz
  1  'x, y, z'
loop_
 _atom_site_type_symbol
 _atom_site_label
 _atom_site_symmetry_multiplicity
 _atom_site_fract_x
 _atom_site_fract_y
 _atom_site_fract_z
 _atom_site_occupancy
  Y  Y0  1  0.751603  0.751603  0.751603  1
  Cu  Cu1  1  0.373636  0.373636  0.373636  1
  Hg  Hg2  1  0.002341  0.002341  0.002341  1
  Pt  Pt3  1  0.373770  0.874880  0.373770  1
  Pt  Pt4  1  0.373770  0.373770  0.874880  1
  Pt  Pt5  1  0.874880  0.373770  0.373770  1
