# generated using pymatgen
data_TbYb3Mn3B16Ru
_symmetry_space_group_name_H-M   'P 1'
_cell_length_a   3.41859400
_cell_length_b   5.92784207
_cell_length_c   11.46702581
_cell_angle_alpha   89.93888537
_cell_angle_beta   90.00000000
_cell_angle_gamma   90.00000000
_symmetry_Int_Tables_number   1
_chemical_formula_structural   TbYb3Mn3B16Ru
_chemical_formula_sum   'Tb1 Yb3 Mn3 B16 Ru1'
_cell_volume   232.37783081
_cell_formula_units_Z   1
loop_
 _symmetry_equiv_pos_site_id
 _symmetry_equiv_pos_as_xyz
  1  'x, y, z'
loop_
 _atom_site_type_symbol
 _atom_site_label
 _atom_site_symmetry_multiplicity
 _atom_site_fract_x
 _atom_site_fract_y
 _atom_site_fract_z
 _atom_site_occupancy
  Tb  Tb0  1  0.000000  0.872811  0.847679  1
  Yb  Yb1  1  0.000000  0.625189  0.350312  1
  Yb  Yb2  1  0.000000  0.375351  0.649226  1
  Yb  Yb3  1  0.000000  0.126869  0.152264  1
  Mn  Mn4  1  0.000000  0.367985  0.912930  1
  Mn  Mn5  1  0.000000  0.124013  0.419796  1
  Mn  Mn6  1  0.000000  0.876902  0.580185  1
  B  B7  1  0.500000  0.783411  0.186800  1
  B  B8  1  0.500000  0.218949  0.814657  1
  B  B9  1  0.500000  0.280435  0.317917  1
  B  B10  1  0.500000  0.719393  0.681443  1
  B  B11  1  0.500000  0.864447  0.031917  1
  B  B12  1  0.500000  0.137652  0.967960  1
  B  B13  1  0.500000  0.361989  0.467790  1
  B  B14  1  0.500000  0.638204  0.532419  1
  B  B15  1  0.500000  0.886519  0.454261  1
  B  B16  1  0.500000  0.113451  0.546875  1
  B  B17  1  0.500000  0.385075  0.047067  1
  B  B18  1  0.500000  0.611281  0.952610  1
  B  B19  1  0.500000  0.977214  0.310291  1
  B  B20  1  0.500000  0.024049  0.689503  1
  B  B21  1  0.500000  0.472578  0.192985  1
  B  B22  1  0.500000  0.525095  0.807442  1
  Ru  Ru23  1  0.000000  0.631136  0.085672  1
