# generated using pymatgen
data_Tb2Tm(GaCu4)3
_symmetry_space_group_name_H-M   'P 1'
_cell_length_a   8.74761500
_cell_length_b   8.74761541
_cell_length_c   4.14494500
_cell_angle_alpha   90.00000000
_cell_angle_beta   90.00000000
_cell_angle_gamma   120.00000222
_symmetry_Int_Tables_number   1
_chemical_formula_structural   Tb2Tm(GaCu4)3
_chemical_formula_sum   'Tb2 Tm1 Ga3 Cu12'
_cell_volume   274.68107341
_cell_formula_units_Z   1
loop_
 _symmetry_equiv_pos_site_id
 _symmetry_equiv_pos_as_xyz
  1  'x, y, z'
loop_
 _atom_site_type_symbol
 _atom_site_label
 _atom_site_symmetry_multiplicity
 _atom_site_fract_x
 _atom_site_fract_y
 _atom_site_fract_z
 _atom_site_occupancy
  Tb  Tb0  1  0.333333  0.666667  0.000000  1
  Tb  Tb1  1  0.666667  0.333333  0.000000  1
  Tm  Tm2  1  0.000000  0.000000  0.000000  1
  Ga  Ga3  1  0.500000  0.000000  0.500000  1
  Ga  Ga4  1  0.000000  0.500000  0.500000  1
  Ga  Ga5  1  0.500000  0.500000  0.500000  1
  Cu  Cu6  1  0.327474  0.000000  0.000000  1
  Cu  Cu7  1  0.672526  0.000000  0.000000  1
  Cu  Cu8  1  0.000000  0.327474  0.000000  1
  Cu  Cu9  1  0.000000  0.672526  0.000000  1
  Cu  Cu10  1  0.672526  0.672526  0.000000  1
  Cu  Cu11  1  0.327474  0.327474  0.000000  1
  Cu  Cu12  1  0.165467  0.330934  0.500000  1
  Cu  Cu13  1  0.834533  0.669066  0.500000  1
  Cu  Cu14  1  0.669066  0.834533  0.500000  1
  Cu  Cu15  1  0.330934  0.165467  0.500000  1
  Cu  Cu16  1  0.165467  0.834533  0.500000  1
  Cu  Cu17  1  0.834533  0.165467  0.500000  1
