# generated using pymatgen
data_NdLuFe3Co9P7
_symmetry_space_group_name_H-M   'P 1'
_cell_length_a   9.01964700
_cell_length_b   9.01964724
_cell_length_c   3.62151700
_cell_angle_alpha   90.00000000
_cell_angle_beta   90.00000000
_cell_angle_gamma   119.99999546
_symmetry_Int_Tables_number   1
_chemical_formula_structural   NdLuFe3Co9P7
_chemical_formula_sum   'Nd1 Lu1 Fe3 Co9 P7'
_cell_volume   255.15276163
_cell_formula_units_Z   1
loop_
 _symmetry_equiv_pos_site_id
 _symmetry_equiv_pos_as_xyz
  1  'x, y, z'
loop_
 _atom_site_type_symbol
 _atom_site_label
 _atom_site_symmetry_multiplicity
 _atom_site_fract_x
 _atom_site_fract_y
 _atom_site_fract_z
 _atom_site_occupancy
  Nd  Nd0  1  0.666667  0.333333  0.000000  1
  Lu  Lu1  1  0.333333  0.666667  0.500000  1
  Fe  Fe2  1  0.094511  0.878781  0.500000  1
  Fe  Fe3  1  0.784270  0.905489  0.500000  1
  Fe  Fe4  1  0.121219  0.215730  0.500000  1
  Co  Co5  1  0.063643  0.631689  0.000000  1
  Co  Co6  1  0.568046  0.936357  0.000000  1
  Co  Co7  1  0.368311  0.431954  0.000000  1
  Co  Co8  1  0.273208  0.116534  0.000000  1
  Co  Co9  1  0.843326  0.726792  0.000000  1
  Co  Co10  1  0.883466  0.156674  0.000000  1
  Co  Co11  1  0.430878  0.044306  0.500000  1
  Co  Co12  1  0.613429  0.569122  0.500000  1
  Co  Co13  1  0.955694  0.386571  0.500000  1
  P  P14  1  0.298043  0.886202  0.000000  1
  P  P15  1  0.588159  0.701957  0.000000  1
  P  P16  1  0.113798  0.411841  0.000000  1
  P  P17  1  0.396909  0.289510  0.500000  1
  P  P18  1  0.892601  0.603091  0.500000  1
  P  P19  1  0.710490  0.107399  0.500000  1
  P  P20  1  0.000000  0.000000  0.000000  1
