# generated using pymatgen
data_Lu12Zn(Si4Ir)3
_symmetry_space_group_name_H-M   'P 1'
_cell_length_a   4.16693000
_cell_length_b   10.57416776
_cell_length_c   12.06400900
_cell_angle_alpha   90.10201895
_cell_angle_beta   90.00000000
_cell_angle_gamma   90.00000000
_symmetry_Int_Tables_number   1
_chemical_formula_structural   Lu12Zn(Si4Ir)3
_chemical_formula_sum   'Lu12 Zn1 Si12 Ir3'
_cell_volume   531.56131268
_cell_formula_units_Z   1
loop_
 _symmetry_equiv_pos_site_id
 _symmetry_equiv_pos_as_xyz
  1  'x, y, z'
loop_
 _atom_site_type_symbol
 _atom_site_label
 _atom_site_symmetry_multiplicity
 _atom_site_fract_x
 _atom_site_fract_y
 _atom_site_fract_z
 _atom_site_occupancy
  Lu  Lu0  1  0.250000  0.879373  0.021631  1
  Lu  Lu1  1  0.250000  0.624703  0.518825  1
  Lu  Lu2  1  0.750000  0.120579  0.981421  1
  Lu  Lu3  1  0.750000  0.378427  0.477694  1
  Lu  Lu4  1  0.250000  0.920585  0.599512  1
  Lu  Lu5  1  0.250000  0.580168  0.102320  1
  Lu  Lu6  1  0.750000  0.079625  0.396581  1
  Lu  Lu7  1  0.750000  0.419835  0.897906  1
  Lu  Lu8  1  0.250000  0.668522  0.802876  1
  Lu  Lu9  1  0.250000  0.841457  0.300377  1
  Lu  Lu10  1  0.750000  0.342177  0.199162  1
  Lu  Lu11  1  0.750000  0.153887  0.699792  1
  Zn  Zn12  1  0.250000  0.387484  0.680270  1
  Si  Si13  1  0.250000  0.010513  0.822707  1
  Si  Si14  1  0.250000  0.487748  0.325112  1
  Si  Si15  1  0.750000  0.987183  0.179106  1
  Si  Si16  1  0.750000  0.523959  0.676079  1
  Si  Si17  1  0.250000  0.241510  0.848025  1
  Si  Si18  1  0.250000  0.252000  0.339709  1
  Si  Si19  1  0.750000  0.752749  0.159257  1
  Si  Si20  1  0.750000  0.752937  0.658917  1
  Si  Si21  1  0.250000  0.182675  0.536032  1
  Si  Si22  1  0.250000  0.301965  0.045293  1
  Si  Si23  1  0.750000  0.802433  0.455066  1
  Si  Si24  1  0.750000  0.698225  0.958238  1
  Ir  Ir25  1  0.250000  0.109042  0.177826  1
  Ir  Ir26  1  0.750000  0.610244  0.318651  1
  Ir  Ir27  1  0.750000  0.889995  0.821614  1
