# generated using pymatgen
data_CeNd9Co4
_symmetry_space_group_name_H-M   'P 1'
_cell_length_a   9.05614757
_cell_length_b   8.97141938
_cell_length_c   7.05887870
_cell_angle_alpha   85.71848147
_cell_angle_beta   83.64400689
_cell_angle_gamma   41.98129086
_symmetry_Int_Tables_number   1
_chemical_formula_structural   CeNd9Co4
_chemical_formula_sum   'Ce1 Nd9 Co4'
_cell_volume   381.23020950
_cell_formula_units_Z   1
loop_
 _symmetry_equiv_pos_site_id
 _symmetry_equiv_pos_as_xyz
  1  'x, y, z'
loop_
 _atom_site_type_symbol
 _atom_site_label
 _atom_site_symmetry_multiplicity
 _atom_site_fract_x
 _atom_site_fract_y
 _atom_site_fract_z
 _atom_site_occupancy
  Ce  Ce0  1  0.990426  0.814770  0.894153  1
  Nd  Nd1  1  0.201258  0.990975  0.580471  1
  Nd  Nd2  1  0.992214  0.194997  0.085678  1
  Nd  Nd3  1  0.797058  0.017112  0.413298  1
  Nd  Nd4  1  0.352186  0.217352  0.825889  1
  Nd  Nd5  1  0.779973  0.644697  0.677626  1
  Nd  Nd6  1  0.651645  0.774538  0.180216  1
  Nd  Nd7  1  0.214892  0.358692  0.326735  1
  Nd  Nd8  1  0.564694  0.440924  0.749969  1
  Nd  Nd9  1  0.426817  0.565857  0.245936  1
  Co  Co10  1  0.159889  0.626267  0.613726  1
  Co  Co11  1  0.407140  0.814144  0.929093  1
  Co  Co12  1  0.806519  0.407415  0.424308  1
  Co  Co13  1  0.655288  0.132261  0.052904  1
