# generated using pymatgen
data_Li3Tb5Pt4
_symmetry_space_group_name_H-M   'P 1'
_cell_length_a   4.06924100
_cell_length_b   7.21654416
_cell_length_c   8.77234058
_cell_angle_alpha   88.94727940
_cell_angle_beta   90.00000000
_cell_angle_gamma   90.00000000
_symmetry_Int_Tables_number   1
_chemical_formula_structural   Li3Tb5Pt4
_chemical_formula_sum   'Li3 Tb5 Pt4'
_cell_volume   257.56382143
_cell_formula_units_Z   1
loop_
 _symmetry_equiv_pos_site_id
 _symmetry_equiv_pos_as_xyz
  1  'x, y, z'
loop_
 _atom_site_type_symbol
 _atom_site_label
 _atom_site_symmetry_multiplicity
 _atom_site_fract_x
 _atom_site_fract_y
 _atom_site_fract_z
 _atom_site_occupancy
  Li  Li0  1  0.750000  0.625922  0.444659  1
  Li  Li1  1  0.250000  0.374783  0.552338  1
  Li  Li2  1  0.750000  0.150890  0.072629  1
  Tb  Tb3  1  0.750000  0.519548  0.805774  1
  Tb  Tb4  1  0.250000  0.958663  0.328508  1
  Tb  Tb5  1  0.250000  0.445838  0.183765  1
  Tb  Tb6  1  0.750000  0.054396  0.660953  1
  Tb  Tb7  1  0.250000  0.872091  0.942962  1
  Pt  Pt8  1  0.250000  0.759421  0.625629  1
  Pt  Pt9  1  0.250000  0.252323  0.873885  1
  Pt  Pt10  1  0.750000  0.734379  0.133364  1
  Pt  Pt11  1  0.750000  0.251746  0.375533  1
