# generated using pymatgen
data_Th4CdSnH8
_symmetry_space_group_name_H-M   'P 1'
_cell_length_a   6.38830381
_cell_length_b   6.38830477
_cell_length_c   6.38830264
_cell_angle_alpha   105.42119497
_cell_angle_beta   105.42120181
_cell_angle_gamma   117.91585718
_symmetry_Int_Tables_number   1
_chemical_formula_structural   Th4CdSnH8
_chemical_formula_sum   'Th4 Cd1 Sn1 H8'
_cell_volume   197.38036466
_cell_formula_units_Z   1
loop_
 _symmetry_equiv_pos_site_id
 _symmetry_equiv_pos_as_xyz
  1  'x, y, z'
loop_
 _atom_site_type_symbol
 _atom_site_label
 _atom_site_symmetry_multiplicity
 _atom_site_fract_x
 _atom_site_fract_y
 _atom_site_fract_z
 _atom_site_occupancy
  Th  Th0  1  0.839996  0.660004  0.500000  1
  Th  Th1  1  0.660004  0.160004  0.820008  1
  Th  Th2  1  0.160004  0.339996  0.500000  1
  Th  Th3  1  0.339996  0.839996  0.179992  1
  Cd  Cd4  1  0.750000  0.750000  0.000000  1
  Sn  Sn5  1  0.250000  0.250000  0.000000  1
  H  H6  1  0.220670  0.977051  0.498058  1
  H  H7  1  0.478993  0.722612  0.501942  1
  H  H8  1  0.722612  0.220670  0.243620  1
  H  H9  1  0.977051  0.478993  0.756380  1
  H  H10  1  0.279330  0.777388  0.756380  1
  H  H11  1  0.522949  0.279330  0.501942  1
  H  H12  1  0.021007  0.522949  0.243620  1
  H  H13  1  0.777388  0.021007  0.498058  1
