# generated using pymatgen
data_Y9Lu3Co4SnRh
_symmetry_space_group_name_H-M   'P 1'
_cell_length_a   8.28960800
_cell_length_b   8.30714091
_cell_length_c   8.28960752
_cell_angle_alpha   110.98334417
_cell_angle_beta   110.42275037
_cell_angle_gamma   106.95288653
_symmetry_Int_Tables_number   1
_chemical_formula_structural   Y9Lu3Co4SnRh
_chemical_formula_sum   'Y9 Lu3 Co4 Sn1 Rh1'
_cell_volume   439.25995350
_cell_formula_units_Z   1
loop_
 _symmetry_equiv_pos_site_id
 _symmetry_equiv_pos_as_xyz
  1  'x, y, z'
loop_
 _atom_site_type_symbol
 _atom_site_label
 _atom_site_symmetry_multiplicity
 _atom_site_fract_x
 _atom_site_fract_y
 _atom_site_fract_z
 _atom_site_occupancy
  Y  Y0  1  0.411229  0.213317  0.195494  1
  Y  Y1  1  0.591329  0.786815  0.805886  1
  Y  Y2  1  0.017823  0.213317  0.802089  1
  Y  Y3  1  0.980930  0.786815  0.195486  1
  Y  Y4  1  0.186777  0.288841  0.477942  1
  Y  Y5  1  0.815026  0.710314  0.523258  1
  Y  Y6  1  0.187054  0.710314  0.895287  1
  Y  Y7  1  0.810900  0.288841  0.102065  1
  Y  Y8  1  0.313244  0.619611  0.306368  1
  Lu  Lu9  1  0.685634  0.376601  0.690967  1
  Lu  Lu10  1  0.314697  0.004974  0.690278  1
  Lu  Lu11  1  0.685563  0.995376  0.309813  1
  Co  Co12  1  0.381919  0.004132  0.383228  1
  Co  Co13  1  0.620904  0.004132  0.622213  1
  Co  Co14  1  0.109636  0.610777  0.501141  1
  Co  Co15  1  0.886014  0.385016  0.499002  1
  Sn  Sn16  1  0.500457  0.499981  0.999523  1
  Rh  Rh17  1  0.000865  0.000827  0.999962  1
