# generated using pymatgen
data_DyCd(OsO4)2
_symmetry_space_group_name_H-M   'P 1'
_cell_length_a   5.32439108
_cell_length_b   7.50537264
_cell_length_c   7.94701848
_cell_angle_alpha   76.78142414
_cell_angle_beta   86.75202445
_cell_angle_gamma   89.60819879
_symmetry_Int_Tables_number   1
_chemical_formula_structural   DyCd(OsO4)2
_chemical_formula_sum   'Dy2 Cd2 Os4 O16'
_cell_volume   308.65815327
_cell_formula_units_Z   2
loop_
 _symmetry_equiv_pos_site_id
 _symmetry_equiv_pos_as_xyz
  1  'x, y, z'
loop_
 _atom_site_type_symbol
 _atom_site_label
 _atom_site_symmetry_multiplicity
 _atom_site_fract_x
 _atom_site_fract_y
 _atom_site_fract_z
 _atom_site_occupancy
  Dy  Dy0  1  0.773724  0.394003  0.391745  1
  Dy  Dy1  1  0.226276  0.605997  0.608255  1
  Cd  Cd2  1  0.699831  0.901611  0.364058  1
  Cd  Cd3  1  0.300169  0.098389  0.635942  1
  Os  Os4  1  0.768667  0.294322  0.833906  1
  Os  Os5  1  0.231333  0.705678  0.166094  1
  Os  Os6  1  0.238841  0.204948  0.167632  1
  Os  Os7  1  0.761159  0.795052  0.832368  1
  O  O8  1  0.977538  0.790345  0.013614  1
  O  O9  1  0.022462  0.209655  0.986386  1
  O  O10  1  0.346735  0.947820  0.194880  1
  O  O11  1  0.653265  0.052180  0.805120  1
  O  O12  1  0.108230  0.454633  0.174171  1
  O  O13  1  0.891770  0.545367  0.825829  1
  O  O14  1  0.517746  0.279426  0.011190  1
  O  O15  1  0.482254  0.720574  0.988810  1
  O  O16  1  0.011704  0.321688  0.628433  1
  O  O17  1  0.988296  0.678312  0.371567  1
  O  O18  1  0.454172  0.207545  0.357547  1
  O  O19  1  0.545828  0.792455  0.642453  1
  O  O20  1  0.466392  0.610561  0.341142  1
  O  O21  1  0.533608  0.389439  0.658858  1
  O  O22  1  0.963473  0.133218  0.332894  1
  O  O23  1  0.036527  0.866782  0.667106  1
