# generated using pymatgen
data_Lu4Al18NiRh5
_symmetry_space_group_name_H-M   'P 1'
_cell_length_a   7.51917925
_cell_length_b   7.51916893
_cell_length_c   9.37628659
_cell_angle_alpha   90.17702268
_cell_angle_beta   90.17747726
_cell_angle_gamma   119.76263525
_symmetry_Int_Tables_number   1
_chemical_formula_structural   Lu4Al18NiRh5
_chemical_formula_sum   'Lu4 Al18 Ni1 Rh5'
_cell_volume   460.17957115
_cell_formula_units_Z   1
loop_
 _symmetry_equiv_pos_site_id
 _symmetry_equiv_pos_as_xyz
  1  'x, y, z'
loop_
 _atom_site_type_symbol
 _atom_site_label
 _atom_site_symmetry_multiplicity
 _atom_site_fract_x
 _atom_site_fract_y
 _atom_site_fract_z
 _atom_site_occupancy
  Lu  Lu0  1  0.995130  0.669667  0.249627  1
  Lu  Lu1  1  0.004870  0.330333  0.750373  1
  Lu  Lu2  1  0.669673  0.995130  0.249628  1
  Lu  Lu3  1  0.330327  0.004870  0.750372  1
  Al  Al4  1  0.123350  0.123350  0.246835  1
  Al  Al5  1  0.876650  0.876650  0.753165  1
  Al  Al6  1  0.999362  0.332161  0.075297  1
  Al  Al7  1  0.000638  0.667839  0.924703  1
  Al  Al8  1  0.000173  0.665773  0.575874  1
  Al  Al9  1  0.334227  0.999827  0.424126  1
  Al  Al10  1  0.999827  0.334227  0.424126  1
  Al  Al11  1  0.665773  0.000173  0.575874  1
  Al  Al12  1  0.667836  0.000641  0.924705  1
  Al  Al13  1  0.332164  0.999359  0.075295  1
  Al  Al14  1  0.332872  0.332873  0.553592  1
  Al  Al15  1  0.667128  0.667127  0.446408  1
  Al  Al16  1  0.669866  0.669867  0.052690  1
  Al  Al17  1  0.330134  0.330133  0.947310  1
  Al  Al18  1  0.338680  0.548975  0.249562  1
  Al  Al19  1  0.661320  0.451025  0.750438  1
  Al  Al20  1  0.548975  0.338680  0.249567  1
  Al  Al21  1  0.451025  0.661320  0.750433  1
  Ni  Ni22  1  0.000000  0.000000  0.000000  1
  Rh  Rh23  1  0.672660  0.327414  0.000032  1
  Rh  Rh24  1  0.327340  0.672586  0.999968  1
  Rh  Rh25  1  0.327893  0.672125  0.499979  1
  Rh  Rh26  1  0.672107  0.327875  0.500021  1
  Rh  Rh27  1  0.000000  0.000000  0.500000  1
