# generated using pymatgen
data_Sm8Er11ScSi15As
_symmetry_space_group_name_H-M   'P 1'
_cell_length_a   7.47083231
_cell_length_b   7.66169350
_cell_length_c   14.56383849
_cell_angle_alpha   90.01474334
_cell_angle_beta   87.24890728
_cell_angle_gamma   90.25224638
_symmetry_Int_Tables_number   1
_chemical_formula_structural   Sm8Er11ScSi15As
_chemical_formula_sum   'Sm8 Er11 Sc1 Si15 As1'
_cell_volume   832.65401767
_cell_formula_units_Z   1
loop_
 _symmetry_equiv_pos_site_id
 _symmetry_equiv_pos_as_xyz
  1  'x, y, z'
loop_
 _atom_site_type_symbol
 _atom_site_label
 _atom_site_symmetry_multiplicity
 _atom_site_fract_x
 _atom_site_fract_y
 _atom_site_fract_z
 _atom_site_occupancy
  Sm  Sm0  1  0.021249  0.181150  0.100080  1
  Sm  Sm1  1  0.981588  0.820919  0.902608  1
  Sm  Sm2  1  0.479246  0.681936  0.900207  1
  Sm  Sm3  1  0.996935  0.820562  0.597459  1
  Sm  Sm4  1  0.518381  0.320539  0.098889  1
  Sm  Sm5  1  0.001266  0.178538  0.400041  1
  Sm  Sm6  1  0.501280  0.317146  0.399880  1
  Sm  Sm7  1  0.502504  0.681666  0.598842  1
  Er  Er8  1  0.168399  0.506221  0.749356  1
  Er  Er9  1  0.831890  0.495333  0.253123  1
  Er  Er10  1  0.329703  0.003415  0.251777  1
  Er  Er11  1  0.670854  0.994960  0.746713  1
  Er  Er12  1  0.350448  0.166062  0.622000  1
  Er  Er13  1  0.650427  0.831960  0.376631  1
  Er  Er14  1  0.149641  0.666597  0.379407  1
  Er  Er15  1  0.672054  0.821841  0.122731  1
  Er  Er16  1  0.847741  0.333443  0.619173  1
  Er  Er17  1  0.327114  0.178589  0.877638  1
  Er  Er18  1  0.827979  0.323621  0.878758  1
  Sc  Sc19  1  0.171935  0.676195  0.125559  1
  Si  Si20  1  0.042853  0.114873  0.751743  1
  Si  Si21  1  0.960031  0.882466  0.246250  1
  Si  Si22  1  0.452483  0.613221  0.245785  1
  Si  Si23  1  0.543893  0.388284  0.751354  1
  Si  Si24  1  0.285559  0.874142  0.751928  1
  Si  Si25  1  0.714092  0.125397  0.247013  1
  Si  Si26  1  0.213369  0.377078  0.246775  1
  Si  Si27  1  0.787553  0.625506  0.751697  1
  Si  Si28  1  0.798398  0.537458  0.455609  1
  Si  Si29  1  0.308748  0.961871  0.457504  1
  Si  Si30  1  0.860054  0.532769  0.043175  1
  Si  Si31  1  0.690834  0.037472  0.541878  1
  Si  Si32  1  0.151543  0.472822  0.963534  1
  Si  Si33  1  0.644179  0.030159  0.959523  1
  Si  Si34  1  0.346975  0.963554  0.041492  1
  As  As35  1  0.198801  0.462237  0.543866  1
