# generated using pymatgen
data_Lu3Zn3Ge2Au
_symmetry_space_group_name_H-M   'P 1'
_cell_length_a   6.86071400
_cell_length_b   6.86071347
_cell_length_c   4.25337800
_cell_angle_alpha   90.00000000
_cell_angle_beta   90.00000000
_cell_angle_gamma   120.00000256
_symmetry_Int_Tables_number   1
_chemical_formula_structural   Lu3Zn3Ge2Au
_chemical_formula_sum   'Lu3 Zn3 Ge2 Au1'
_cell_volume   173.38167659
_cell_formula_units_Z   1
loop_
 _symmetry_equiv_pos_site_id
 _symmetry_equiv_pos_as_xyz
  1  'x, y, z'
loop_
 _atom_site_type_symbol
 _atom_site_label
 _atom_site_symmetry_multiplicity
 _atom_site_fract_x
 _atom_site_fract_y
 _atom_site_fract_z
 _atom_site_occupancy
  Lu  Lu0  1  0.422125  0.000000  0.000000  1
  Lu  Lu1  1  0.000000  0.422124  0.000000  1
  Lu  Lu2  1  0.577875  0.577876  0.000000  1
  Zn  Zn3  1  0.757427  0.000000  0.500001  1
  Zn  Zn4  1  0.242573  0.242573  0.500001  1
  Zn  Zn5  1  0.000000  0.757427  0.500001  1
  Ge  Ge6  1  0.666666  0.333333  0.500001  1
  Ge  Ge7  1  0.333334  0.666667  0.500001  1
  Au  Au8  1  0.000000  0.000000  0.000000  1
