# generated using pymatgen
data_Rb2Y2ZnS5
_symmetry_space_group_name_H-M   'P 1'
_cell_length_a   15.55028600
_cell_length_b   4.03679900
_cell_length_c   17.89653500
_cell_angle_alpha   90.00000000
_cell_angle_beta   90.00000000
_cell_angle_gamma   90.00000000
_symmetry_Int_Tables_number   1
_chemical_formula_structural   Rb2Y2ZnS5
_chemical_formula_sum   'Rb8 Y8 Zn4 S20'
_cell_volume   1123.42597389
_cell_formula_units_Z   4
loop_
 _symmetry_equiv_pos_site_id
 _symmetry_equiv_pos_as_xyz
  1  'x, y, z'
loop_
 _atom_site_type_symbol
 _atom_site_label
 _atom_site_symmetry_multiplicity
 _atom_site_fract_x
 _atom_site_fract_y
 _atom_site_fract_z
 _atom_site_occupancy
  Rb  Rb0  1  0.971155  0.250001  0.115517  1
  Rb  Rb1  1  0.489752  0.750000  0.123942  1
  Rb  Rb2  1  0.989752  0.750000  0.376058  1
  Rb  Rb3  1  0.471155  0.250001  0.384483  1
  Rb  Rb4  1  0.528845  0.750000  0.615517  1
  Rb  Rb5  1  0.010248  0.250001  0.623942  1
  Rb  Rb6  1  0.510248  0.250001  0.876058  1
  Rb  Rb7  1  0.028845  0.750000  0.884483  1
  Y  Y8  1  0.254820  0.250001  0.011893  1
  Y  Y9  1  0.213894  0.750000  0.200053  1
  Y  Y10  1  0.713895  0.750000  0.299947  1
  Y  Y11  1  0.754820  0.250001  0.488107  1
  Y  Y12  1  0.245180  0.750000  0.511893  1
  Y  Y13  1  0.286105  0.250001  0.700053  1
  Y  Y14  1  0.786106  0.250001  0.799947  1
  Y  Y15  1  0.745180  0.750000  0.988107  1
  Zn  Zn16  1  0.704547  0.250001  0.142271  1
  Zn  Zn17  1  0.204547  0.250001  0.357729  1
  Zn  Zn18  1  0.795453  0.750000  0.642271  1
  Zn  Zn19  1  0.295453  0.750000  0.857729  1
  S  S20  1  0.634068  0.250001  0.027893  1
  S  S21  1  0.141725  0.750000  0.056877  1
  S  S22  1  0.318473  0.250001  0.153354  1
  S  S23  1  0.791518  0.750000  0.147503  1
  S  S24  1  0.609829  0.250001  0.244425  1
  S  S25  1  0.109829  0.250001  0.255575  1
  S  S26  1  0.291518  0.750000  0.352497  1
  S  S27  1  0.818473  0.250001  0.346646  1
  S  S28  1  0.641724  0.750000  0.443123  1
  S  S29  1  0.134068  0.250001  0.472107  1
  S  S30  1  0.865932  0.750000  0.527893  1
  S  S31  1  0.358276  0.250001  0.556877  1
  S  S32  1  0.181527  0.750000  0.653354  1
  S  S33  1  0.708482  0.250001  0.647503  1
  S  S34  1  0.890171  0.750000  0.744425  1
  S  S35  1  0.390171  0.750000  0.755575  1
  S  S36  1  0.208482  0.250001  0.852497  1
  S  S37  1  0.681526  0.750000  0.846646  1
  S  S38  1  0.858275  0.250001  0.943123  1
  S  S39  1  0.365932  0.750000  0.972107  1
