# generated using pymatgen
data_Dy4TmLu3(B6Os)4
_symmetry_space_group_name_H-M   'P 1'
_cell_length_a   3.62287300
_cell_length_b   9.08499603
_cell_length_c   11.47338004
_cell_angle_alpha   90.00970378
_cell_angle_beta   90.00000000
_cell_angle_gamma   90.00000000
_symmetry_Int_Tables_number   1
_chemical_formula_structural   Dy4TmLu3(B6Os)4
_chemical_formula_sum   'Dy4 Tm1 Lu3 B24 Os4'
_cell_volume   377.63237950
_cell_formula_units_Z   1
loop_
 _symmetry_equiv_pos_site_id
 _symmetry_equiv_pos_as_xyz
  1  'x, y, z'
loop_
 _atom_site_type_symbol
 _atom_site_label
 _atom_site_symmetry_multiplicity
 _atom_site_fract_x
 _atom_site_fract_y
 _atom_site_fract_z
 _atom_site_occupancy
  Dy  Dy0  1  0.000000  0.321536  0.414150  1
  Dy  Dy1  1  0.000000  0.678496  0.586030  1
  Dy  Dy2  1  0.000000  0.821356  0.085807  1
  Dy  Dy3  1  0.000000  0.178642  0.914059  1
  Tm  Tm4  1  0.000000  0.944322  0.373194  1
  Lu  Lu5  1  0.000000  0.055733  0.627084  1
  Lu  Lu6  1  0.000000  0.444366  0.126744  1
  Lu  Lu7  1  0.000000  0.555644  0.873164  1
  B  B8  1  0.500000  0.554232  0.432876  1
  B  B9  1  0.500000  0.445521  0.567201  1
  B  B10  1  0.500000  0.054517  0.067006  1
  B  B11  1  0.500000  0.945552  0.932835  1
  B  B12  1  0.500000  0.749350  0.419535  1
  B  B13  1  0.500000  0.250188  0.580588  1
  B  B14  1  0.500000  0.249998  0.080444  1
  B  B15  1  0.500000  0.750082  0.919486  1
  B  B16  1  0.500000  0.791633  0.265917  1
  B  B17  1  0.500000  0.207930  0.733952  1
  B  B18  1  0.500000  0.292296  0.233814  1
  B  B19  1  0.500000  0.707881  0.766120  1
  B  B20  1  0.500000  0.630719  0.184275  1
  B  B21  1  0.500000  0.369153  0.815641  1
  B  B22  1  0.500000  0.131344  0.315419  1
  B  B23  1  0.500000  0.869083  0.684471  1
  B  B24  1  0.500000  0.983059  0.213344  1
  B  B25  1  0.500000  0.017181  0.786311  1
  B  B26  1  0.500000  0.482701  0.286229  1
  B  B27  1  0.500000  0.517205  0.713740  1
  B  B28  1  0.500000  0.603933  0.028543  1
  B  B29  1  0.500000  0.396049  0.971379  1
  B  B30  1  0.500000  0.104720  0.471701  1
  B  B31  1  0.500000  0.895686  0.529152  1
  Os  Os32  1  0.000000  0.638175  0.320250  1
  Os  Os33  1  0.000000  0.361456  0.679727  1
  Os  Os34  1  0.000000  0.138835  0.179452  1
  Os  Os35  1  0.000000  0.861427  0.820356  1
