# generated using pymatgen
data_YEr3Fe2(AuO7)2
_symmetry_space_group_name_H-M   'P 1'
_cell_length_a   7.25605832
_cell_length_b   7.30127995
_cell_length_c   7.25337909
_cell_angle_alpha   59.78016971
_cell_angle_beta   59.57509743
_cell_angle_gamma   59.79290223
_symmetry_Int_Tables_number   1
_chemical_formula_structural   YEr3Fe2(AuO7)2
_chemical_formula_sum   'Y1 Er3 Fe2 Au2 O14'
_cell_volume   269.96737166
_cell_formula_units_Z   1
loop_
 _symmetry_equiv_pos_site_id
 _symmetry_equiv_pos_as_xyz
  1  'x, y, z'
loop_
 _atom_site_type_symbol
 _atom_site_label
 _atom_site_symmetry_multiplicity
 _atom_site_fract_x
 _atom_site_fract_y
 _atom_site_fract_z
 _atom_site_occupancy
  Y  Y0  1  0.000005  0.499996  0.500000  1
  Er  Er1  1  0.500004  0.999998  0.499999  1
  Er  Er2  1  0.499997  0.500007  0.000001  1
  Er  Er3  1  0.500003  0.500007  0.499990  1
  Fe  Fe4  1  0.000002  0.500000  0.999998  1
  Fe  Fe5  1  0.999999  0.000001  0.000001  1
  Au  Au6  1  0.500001  0.000002  0.000000  1
  Au  Au7  1  0.999998  0.999999  0.500001  1
  O  O8  1  0.618744  0.628990  0.623245  1
  O  O9  1  0.381246  0.371008  0.376758  1
  O  O10  1  0.342176  0.911218  0.906085  1
  O  O11  1  0.094602  0.659884  0.658504  1
  O  O12  1  0.912256  0.336554  0.914654  1
  O  O13  1  0.905391  0.912997  0.341503  1
  O  O14  1  0.342181  0.340524  0.906086  1
  O  O15  1  0.342109  0.907911  0.342092  1
  O  O16  1  0.905396  0.340117  0.341497  1
  O  O17  1  0.657824  0.659475  0.093914  1
  O  O18  1  0.094607  0.087004  0.658501  1
  O  O19  1  0.657827  0.088779  0.093916  1
  O  O20  1  0.657892  0.092083  0.657911  1
  O  O21  1  0.087742  0.663451  0.085344  1
