# generated using pymatgen
data_Hf7Zr3ZnGePb6
_symmetry_space_group_name_H-M   'P 1'
_cell_length_a   8.77908800
_cell_length_b   8.77908643
_cell_length_c   5.92802000
_cell_angle_alpha   90.00000000
_cell_angle_beta   90.00000000
_cell_angle_gamma   119.99999836
_symmetry_Int_Tables_number   1
_chemical_formula_structural   Hf7Zr3ZnGePb6
_chemical_formula_sum   'Hf7 Zr3 Zn1 Ge1 Pb6'
_cell_volume   395.67537835
_cell_formula_units_Z   1
loop_
 _symmetry_equiv_pos_site_id
 _symmetry_equiv_pos_as_xyz
  1  'x, y, z'
loop_
 _atom_site_type_symbol
 _atom_site_label
 _atom_site_symmetry_multiplicity
 _atom_site_fract_x
 _atom_site_fract_y
 _atom_site_fract_z
 _atom_site_occupancy
  Hf  Hf0  1  0.666667  0.333333  0.998397  1
  Hf  Hf1  1  0.333333  0.666667  0.998397  1
  Hf  Hf2  1  0.333333  0.666667  0.501384  1
  Hf  Hf3  1  0.666667  0.333333  0.501384  1
  Hf  Hf4  1  0.733259  0.733259  0.751222  1
  Hf  Hf5  1  0.266741  0.000000  0.751222  1
  Hf  Hf6  1  0.000000  0.266741  0.751222  1
  Zr  Zr7  1  0.258175  0.258175  0.248469  1
  Zr  Zr8  1  0.741825  0.000000  0.248469  1
  Zr  Zr9  1  0.000000  0.741825  0.248469  1
  Zn  Zn10  1  0.000000  0.000000  0.511971  1
  Ge  Ge11  1  0.000000  0.000000  0.989142  1
  Pb  Pb12  1  0.387106  0.387106  0.747941  1
  Pb  Pb13  1  0.612894  0.000000  0.747941  1
  Pb  Pb14  1  0.000000  0.612894  0.747941  1
  Pb  Pb15  1  0.608379  0.608379  0.252142  1
  Pb  Pb16  1  0.391621  0.000000  0.252142  1
  Pb  Pb17  1  0.000000  0.391621  0.252142  1
