# generated using pymatgen
data_Y4Sc6Sn7Sb
_symmetry_space_group_name_H-M   'P 1'
_cell_length_a   7.73527220
_cell_length_b   7.88666582
_cell_length_c   14.79563300
_cell_angle_alpha   90.06349517
_cell_angle_beta   89.09533574
_cell_angle_gamma   90.10084606
_symmetry_Int_Tables_number   1
_chemical_formula_structural   Y4Sc6Sn7Sb
_chemical_formula_sum   'Y8 Sc12 Sn14 Sb2'
_cell_volume   902.50065505
_cell_formula_units_Z   2
loop_
 _symmetry_equiv_pos_site_id
 _symmetry_equiv_pos_as_xyz
  1  'x, y, z'
loop_
 _atom_site_type_symbol
 _atom_site_label
 _atom_site_symmetry_multiplicity
 _atom_site_fract_x
 _atom_site_fract_y
 _atom_site_fract_z
 _atom_site_occupancy
  Y  Y0  1  0.989741  0.176319  0.093594  1
  Y  Y1  1  0.010259  0.823681  0.906406  1
  Y  Y2  1  0.509755  0.676471  0.906198  1
  Y  Y3  1  0.013375  0.821850  0.593954  1
  Y  Y4  1  0.490245  0.323529  0.093802  1
  Y  Y5  1  0.986625  0.178150  0.406046  1
  Y  Y6  1  0.484007  0.320013  0.403505  1
  Y  Y7  1  0.515993  0.679987  0.596495  1
  Sc  Sc8  1  0.174248  0.494532  0.749231  1
  Sc  Sc9  1  0.825752  0.505468  0.250769  1
  Sc  Sc10  1  0.326177  0.994939  0.250205  1
  Sc  Sc11  1  0.673823  0.005061  0.749795  1
  Sc  Sc12  1  0.350794  0.158683  0.627083  1
  Sc  Sc13  1  0.649206  0.841317  0.372917  1
  Sc  Sc14  1  0.149479  0.657922  0.375685  1
  Sc  Sc15  1  0.656021  0.838679  0.127933  1
  Sc  Sc16  1  0.850521  0.342078  0.624315  1
  Sc  Sc17  1  0.343979  0.161321  0.872067  1
  Sc  Sc18  1  0.844563  0.338463  0.872514  1
  Sc  Sc19  1  0.155437  0.661537  0.127486  1
  Sn  Sn20  1  0.038315  0.125507  0.748095  1
  Sn  Sn21  1  0.961685  0.874493  0.251905  1
  Sn  Sn22  1  0.459506  0.623974  0.250855  1
  Sn  Sn23  1  0.540494  0.376026  0.749145  1
  Sn  Sn24  1  0.315168  0.849487  0.751000  1
  Sn  Sn25  1  0.684832  0.150513  0.249000  1
  Sn  Sn26  1  0.182096  0.349350  0.249147  1
  Sn  Sn27  1  0.817904  0.650650  0.750853  1
  Sn  Sn28  1  0.308681  0.956059  0.457548  1
  Sn  Sn29  1  0.815759  0.543353  0.042504  1
  Sn  Sn30  1  0.691319  0.043941  0.542452  1
  Sn  Sn31  1  0.184241  0.456647  0.957496  1
  Sn  Sn32  1  0.683993  0.042828  0.957240  1
  Sn  Sn33  1  0.316007  0.957172  0.042760  1
  Sb  Sb34  1  0.201721  0.455987  0.543512  1
  Sb  Sb35  1  0.798279  0.544013  0.456488  1
