# generated using pymatgen
data_Dy2Al9Ru2Au
_symmetry_space_group_name_H-M   'P 1'
_cell_length_a   7.61831099
_cell_length_b   7.61831281
_cell_length_c   9.55084200
_cell_angle_alpha   90.00000000
_cell_angle_beta   90.00000000
_cell_angle_gamma   119.26894869
_symmetry_Int_Tables_number   1
_chemical_formula_structural   Dy2Al9Ru2Au
_chemical_formula_sum   'Dy4 Al18 Ru4 Au2'
_cell_volume   483.55083719
_cell_formula_units_Z   2
loop_
 _symmetry_equiv_pos_site_id
 _symmetry_equiv_pos_as_xyz
  1  'x, y, z'
loop_
 _atom_site_type_symbol
 _atom_site_label
 _atom_site_symmetry_multiplicity
 _atom_site_fract_x
 _atom_site_fract_y
 _atom_site_fract_z
 _atom_site_occupancy
  Dy  Dy0  1  0.997619  0.678533  0.750000  1
  Dy  Dy1  1  0.002381  0.321467  0.250000  1
  Dy  Dy2  1  0.678533  0.997619  0.750000  1
  Dy  Dy3  1  0.321467  0.002381  0.250000  1
  Al  Al4  1  0.145916  0.145916  0.750000  1
  Al  Al5  1  0.854084  0.854084  0.250000  1
  Al  Al6  1  0.003031  0.347994  0.576162  1
  Al  Al7  1  0.996969  0.652006  0.423838  1
  Al  Al8  1  0.996969  0.652006  0.076162  1
  Al  Al9  1  0.347994  0.003031  0.923838  1
  Al  Al10  1  0.003031  0.347994  0.923838  1
  Al  Al11  1  0.652006  0.996969  0.076162  1
  Al  Al12  1  0.652006  0.996969  0.423838  1
  Al  Al13  1  0.347994  0.003031  0.576162  1
  Al  Al14  1  0.344110  0.344110  0.052742  1
  Al  Al15  1  0.655890  0.655890  0.947258  1
  Al  Al16  1  0.655890  0.655890  0.552742  1
  Al  Al17  1  0.344110  0.344110  0.447258  1
  Al  Al18  1  0.338199  0.556359  0.750000  1
  Al  Al19  1  0.661801  0.443641  0.250000  1
  Al  Al20  1  0.556359  0.338199  0.750000  1
  Al  Al21  1  0.443641  0.661801  0.250000  1
  Ru  Ru22  1  0.672583  0.327417  0.500000  1
  Ru  Ru23  1  0.327417  0.672583  0.500000  1
  Ru  Ru24  1  0.327417  0.672583  0.000000  1
  Ru  Ru25  1  0.672583  0.327417  0.000000  1
  Au  Au26  1  0.000000  0.000000  0.500000  1
  Au  Au27  1  0.000000  0.000000  0.000000  1
