# generated using pymatgen
data_Nd2Y4CuRh17
_symmetry_space_group_name_H-M   'P 1'
_cell_length_a   5.31952015
_cell_length_b   5.31947008
_cell_length_c   17.39964900
_cell_angle_alpha   90.00000000
_cell_angle_beta   90.00000000
_cell_angle_gamma   120.00037917
_symmetry_Int_Tables_number   1
_chemical_formula_structural   Nd2Y4CuRh17
_chemical_formula_sum   'Nd2 Y4 Cu1 Rh17'
_cell_volume   426.39321798
_cell_formula_units_Z   1
loop_
 _symmetry_equiv_pos_site_id
 _symmetry_equiv_pos_as_xyz
  1  'x, y, z'
loop_
 _atom_site_type_symbol
 _atom_site_label
 _atom_site_symmetry_multiplicity
 _atom_site_fract_x
 _atom_site_fract_y
 _atom_site_fract_z
 _atom_site_occupancy
  Nd  Nd0  1  0.333334  0.666654  0.750000  1
  Nd  Nd1  1  0.666678  0.333331  0.250000  1
  Y  Y2  1  0.333334  0.666672  0.958319  1
  Y  Y3  1  0.666677  0.333336  0.041801  1
  Y  Y4  1  0.666677  0.333336  0.458199  1
  Y  Y5  1  0.333334  0.666672  0.541681  1
  Cu  Cu6  1  0.333360  0.666683  0.250000  1
  Rh  Rh7  1  0.168640  0.831356  0.373773  1
  Rh  Rh8  1  0.168634  0.337281  0.373760  1
  Rh  Rh9  1  0.662711  0.831361  0.373768  1
  Rh  Rh10  1  0.832971  0.167016  0.624408  1
  Rh  Rh11  1  0.832978  0.665971  0.624416  1
  Rh  Rh12  1  0.334016  0.167016  0.624417  1
  Rh  Rh13  1  0.832971  0.167016  0.875592  1
  Rh  Rh14  1  0.832978  0.665971  0.875584  1
  Rh  Rh15  1  0.334016  0.167016  0.875583  1
  Rh  Rh16  1  0.168640  0.831356  0.126227  1
  Rh  Rh17  1  0.168634  0.337281  0.126240  1
  Rh  Rh18  1  0.662711  0.831361  0.126232  1
  Rh  Rh19  1  0.666656  0.333315  0.750000  1
  Rh  Rh20  1  0.000008  0.999964  0.250000  1
  Rh  Rh21  1  0.000007  0.000018  0.750000  1
  Rh  Rh22  1  0.000016  0.000009  0.497706  1
  Rh  Rh23  1  0.000016  0.000009  0.002294  1
