# generated using pymatgen
data_Pa3Mn5(Fe2P3)2
_symmetry_space_group_name_H-M   'P 1'
_cell_length_a   3.78014300
_cell_length_b   10.38203600
_cell_length_c   12.27756600
_cell_angle_alpha   90.00000000
_cell_angle_beta   90.00000000
_cell_angle_gamma   90.00000000
_symmetry_Int_Tables_number   1
_chemical_formula_structural   Pa3Mn5(Fe2P3)2
_chemical_formula_sum   'Pa6 Mn10 Fe8 P12'
_cell_volume   481.84020739
_cell_formula_units_Z   2
loop_
 _symmetry_equiv_pos_site_id
 _symmetry_equiv_pos_as_xyz
  1  'x, y, z'
loop_
 _atom_site_type_symbol
 _atom_site_label
 _atom_site_symmetry_multiplicity
 _atom_site_fract_x
 _atom_site_fract_y
 _atom_site_fract_z
 _atom_site_occupancy
  Pa  Pa0  1  0.000000  0.500000  0.529789  1
  Pa  Pa1  1  0.500000  0.000000  0.470211  1
  Pa  Pa2  1  0.500000  0.821303  0.205680  1
  Pa  Pa3  1  0.500000  0.178697  0.205680  1
  Pa  Pa4  1  0.000000  0.678697  0.794320  1
  Pa  Pa5  1  0.000000  0.321303  0.794320  1
  Mn  Mn6  1  0.500000  0.300811  0.428002  1
  Mn  Mn7  1  0.500000  0.699189  0.428002  1
  Mn  Mn8  1  0.000000  0.199189  0.571998  1
  Mn  Mn9  1  0.000000  0.800811  0.571998  1
  Mn  Mn10  1  0.500000  0.884824  0.712250  1
  Mn  Mn11  1  0.500000  0.115176  0.712250  1
  Mn  Mn12  1  0.000000  0.615176  0.287750  1
  Mn  Mn13  1  0.000000  0.384824  0.287750  1
  Mn  Mn14  1  0.500000  0.500000  0.150669  1
  Mn  Mn15  1  0.000000  0.000000  0.849331  1
  Fe  Fe16  1  0.000000  0.500000  0.985738  1
  Fe  Fe17  1  0.500000  0.000000  0.014262  1
  Fe  Fe18  1  0.500000  0.333183  0.996855  1
  Fe  Fe19  1  0.500000  0.666817  0.996855  1
  Fe  Fe20  1  0.000000  0.166817  0.003145  1
  Fe  Fe21  1  0.000000  0.833183  0.003145  1
  Fe  Fe22  1  0.500000  0.500000  0.705227  1
  Fe  Fe23  1  0.000000  0.000000  0.294773  1
  P  P24  1  0.500000  0.308763  0.614346  1
  P  P25  1  0.500000  0.691237  0.614346  1
  P  P26  1  0.000000  0.191237  0.385654  1
  P  P27  1  0.000000  0.808763  0.385654  1
  P  P28  1  0.500000  0.500000  0.888202  1
  P  P29  1  0.000000  0.000000  0.111798  1
  P  P30  1  0.500000  0.844247  0.897620  1
  P  P31  1  0.500000  0.155753  0.897620  1
  P  P32  1  0.000000  0.655753  0.102380  1
  P  P33  1  0.000000  0.344247  0.102380  1
  P  P34  1  0.500000  0.500000  0.348772  1
  P  P35  1  0.000000  0.000000  0.651228  1
