# generated using pymatgen
data_RePN3
_symmetry_space_group_name_H-M   'P 1'
_cell_length_a   6.48707790
_cell_length_b   6.48707709
_cell_length_c   4.83192212
_cell_angle_alpha   82.25106467
_cell_angle_beta   82.25107063
_cell_angle_gamma   81.70399126
_symmetry_Int_Tables_number   1
_chemical_formula_structural   RePN3
_chemical_formula_sum   'Re4 P4 N12'
_cell_volume   197.98751352
_cell_formula_units_Z   4
loop_
 _symmetry_equiv_pos_site_id
 _symmetry_equiv_pos_as_xyz
  1  'x, y, z'
loop_
 _atom_site_type_symbol
 _atom_site_label
 _atom_site_symmetry_multiplicity
 _atom_site_fract_x
 _atom_site_fract_y
 _atom_site_fract_z
 _atom_site_occupancy
  Re  Re0  1  0.764321  0.235679  0.750000  1
  Re  Re1  1  0.907845  0.092155  0.250000  1
  Re  Re2  1  0.235679  0.764321  0.250000  1
  Re  Re3  1  0.092155  0.907845  0.750000  1
  P  P4  1  0.234196  0.397279  0.809029  1
  P  P5  1  0.397279  0.234196  0.309029  1
  P  P6  1  0.765804  0.602721  0.190971  1
  P  P7  1  0.602721  0.765804  0.690971  1
  N  N8  1  0.290375  0.444502  0.115936  1
  N  N9  1  0.063412  0.218601  0.865142  1
  N  N10  1  0.936588  0.781399  0.134858  1
  N  N11  1  0.444502  0.290375  0.615936  1
  N  N12  1  0.613615  0.143750  0.136878  1
  N  N13  1  0.386385  0.856250  0.863122  1
  N  N14  1  0.856250  0.386385  0.363122  1
  N  N15  1  0.709625  0.555498  0.884064  1
  N  N16  1  0.781399  0.936588  0.634858  1
  N  N17  1  0.143750  0.613615  0.636878  1
  N  N18  1  0.218601  0.063412  0.365142  1
  N  N19  1  0.555498  0.709625  0.384064  1
