# generated using pymatgen
data_Cs2KScBi2
_symmetry_space_group_name_H-M   'P 1'
_cell_length_a   10.49400523
_cell_length_b   10.49400528
_cell_length_c   10.49400485
_cell_angle_alpha   133.28793620
_cell_angle_beta   65.24032848
_cell_angle_gamma   137.15094901
_symmetry_Int_Tables_number   1
_chemical_formula_structural   Cs2KScBi2
_chemical_formula_sum   'Cs4 K2 Sc2 Bi4'
_cell_volume   563.81027662
_cell_formula_units_Z   2
loop_
 _symmetry_equiv_pos_site_id
 _symmetry_equiv_pos_as_xyz
  1  'x, y, z'
loop_
 _atom_site_type_symbol
 _atom_site_label
 _atom_site_symmetry_multiplicity
 _atom_site_fract_x
 _atom_site_fract_y
 _atom_site_fract_z
 _atom_site_occupancy
  Cs  Cs0  1  0.824940  0.259459  0.084399  1
  Cs  Cs1  1  0.675060  0.759459  0.434519  1
  Cs  Cs2  1  0.324940  0.240542  0.565481  1
  Cs  Cs3  1  0.175060  0.740541  0.915601  1
  K  K4  1  0.750000  0.250000  0.500000  1
  K  K5  1  0.250000  0.750000  0.500000  1
  Sc  Sc6  1  0.250000  0.250000  0.000000  1
  Sc  Sc7  1  0.750000  0.750000  0.000000  1
  Bi  Bi8  1  0.406299  0.693673  0.099972  1
  Bi  Bi9  1  0.093702  0.193672  0.287373  1
  Bi  Bi10  1  0.906299  0.806328  0.712627  1
  Bi  Bi11  1  0.593702  0.306328  0.900028  1
