# generated using pymatgen
data_Tb4Tl2Cu4Se9
_symmetry_space_group_name_H-M   'P 1'
_cell_length_a   7.54797995
_cell_length_b   7.54797914
_cell_length_c   16.64941000
_cell_angle_alpha   71.75872710
_cell_angle_beta   71.75872911
_cell_angle_gamma   31.94350663
_symmetry_Int_Tables_number   1
_chemical_formula_structural   Tb4Tl2Cu4Se9
_chemical_formula_sum   'Tb4 Tl2 Cu4 Se9'
_cell_volume   474.51607932
_cell_formula_units_Z   1
loop_
 _symmetry_equiv_pos_site_id
 _symmetry_equiv_pos_as_xyz
  1  'x, y, z'
loop_
 _atom_site_type_symbol
 _atom_site_label
 _atom_site_symmetry_multiplicity
 _atom_site_fract_x
 _atom_site_fract_y
 _atom_site_fract_z
 _atom_site_occupancy
  Tb  Tb0  1  0.231548  0.231548  0.896840  1
  Tb  Tb1  1  0.346236  0.346236  0.555662  1
  Tb  Tb2  1  0.653764  0.653764  0.444338  1
  Tb  Tb3  1  0.768452  0.768452  0.103160  1
  Tl  Tl4  1  0.032322  0.032322  0.730741  1
  Tl  Tl5  1  0.967678  0.967678  0.269259  1
  Cu  Cu6  1  0.424886  0.424886  0.970922  1
  Cu  Cu7  1  0.758755  0.758755  0.729132  1
  Cu  Cu8  1  0.241245  0.241245  0.270868  1
  Cu  Cu9  1  0.575114  0.575114  0.029078  1
  Se  Se10  1  0.864336  0.864336  0.922442  1
  Se  Se11  1  0.606424  0.606424  0.871810  1
  Se  Se12  1  0.353329  0.353329  0.723437  1
  Se  Se13  1  0.701817  0.701817  0.603252  1
  Se  Se14  1  0.000000  0.000000  0.500000  1
  Se  Se15  1  0.298183  0.298183  0.396748  1
  Se  Se16  1  0.646671  0.646671  0.276563  1
  Se  Se17  1  0.393576  0.393576  0.128190  1
  Se  Se18  1  0.135664  0.135664  0.077558  1
