# generated using pymatgen
data_KTbHo2F10
_symmetry_space_group_name_H-M   'P 1'
_cell_length_a   8.22326218
_cell_length_b   8.24979318
_cell_length_c   8.24979353
_cell_angle_alpha   59.78734451
_cell_angle_beta   60.10633295
_cell_angle_gamma   60.10632598
_symmetry_Int_Tables_number   1
_chemical_formula_structural   KTbHo2F10
_chemical_formula_sum   'K2 Tb2 Ho4 F20'
_cell_volume   395.73670703
_cell_formula_units_Z   2
loop_
 _symmetry_equiv_pos_site_id
 _symmetry_equiv_pos_as_xyz
  1  'x, y, z'
loop_
 _atom_site_type_symbol
 _atom_site_label
 _atom_site_symmetry_multiplicity
 _atom_site_fract_x
 _atom_site_fract_y
 _atom_site_fract_z
 _atom_site_occupancy
  K  K0  1  0.250000  0.250000  0.250000  1
  K  K1  1  0.750000  0.750000  0.750000  1
  Tb  Tb2  1  0.759305  0.240695  0.240695  1
  Tb  Tb3  1  0.240695  0.759305  0.759305  1
  Ho  Ho4  1  0.240579  0.759421  0.240579  1
  Ho  Ho5  1  0.759421  0.240579  0.759421  1
  Ho  Ho6  1  0.240579  0.240579  0.759421  1
  Ho  Ho7  1  0.759421  0.759421  0.240579  1
  F  F8  1  0.829163  0.500000  0.500000  1
  F  F9  1  0.170837  0.500000  0.500000  1
  F  F10  1  0.500000  0.829163  0.170837  1
  F  F11  1  0.500000  0.170837  0.829163  1
  F  F12  1  0.502047  0.830816  0.497953  1
  F  F13  1  0.169184  0.497953  0.830816  1
  F  F14  1  0.497953  0.169184  0.502047  1
  F  F15  1  0.830816  0.502047  0.169184  1
  F  F16  1  0.502047  0.497953  0.830816  1
  F  F17  1  0.497953  0.502047  0.169184  1
  F  F18  1  0.169184  0.830816  0.497953  1
  F  F19  1  0.830816  0.169184  0.502047  1
  F  F20  1  0.113507  0.110913  0.110913  1
  F  F21  1  0.886493  0.889087  0.889087  1
  F  F22  1  0.110913  0.113507  0.664669  1
  F  F23  1  0.110913  0.664669  0.113507  1
  F  F24  1  0.889087  0.886493  0.335331  1
  F  F25  1  0.889087  0.335331  0.886493  1
  F  F26  1  0.664669  0.110913  0.110913  1
  F  F27  1  0.335331  0.889087  0.889087  1
