# generated using pymatgen
data_DyY9(Bi2Rh)2
_symmetry_space_group_name_H-M   'P 1'
_cell_length_a   8.05148612
_cell_length_b   9.01571582
_cell_length_c   12.48686784
_cell_angle_alpha   90.00348889
_cell_angle_beta   89.99824525
_cell_angle_gamma   89.97644371
_symmetry_Int_Tables_number   1
_chemical_formula_structural   DyY9(Bi2Rh)2
_chemical_formula_sum   'Dy2 Y18 Bi8 Rh4'
_cell_volume   906.42054404
_cell_formula_units_Z   2
loop_
 _symmetry_equiv_pos_site_id
 _symmetry_equiv_pos_as_xyz
  1  'x, y, z'
loop_
 _atom_site_type_symbol
 _atom_site_label
 _atom_site_symmetry_multiplicity
 _atom_site_fract_x
 _atom_site_fract_y
 _atom_site_fract_z
 _atom_site_occupancy
  Dy  Dy0  1  0.822849  0.458895  0.066020  1
  Dy  Dy1  1  0.177151  0.541105  0.933980  1
  Y  Y2  1  0.840861  0.749634  0.793165  1
  Y  Y3  1  0.159139  0.250366  0.206835  1
  Y  Y4  1  0.340799  0.249964  0.706725  1
  Y  Y5  1  0.659201  0.750036  0.293275  1
  Y  Y6  1  0.374736  0.749985  0.694012  1
  Y  Y7  1  0.625264  0.250015  0.305988  1
  Y  Y8  1  0.874383  0.250193  0.805756  1
  Y  Y9  1  0.125617  0.749807  0.194244  1
  Y  Y10  1  0.954001  0.750085  0.501307  1
  Y  Y11  1  0.045999  0.249915  0.498693  1
  Y  Y12  1  0.454001  0.251585  0.998677  1
  Y  Y13  1  0.545999  0.748415  0.001323  1
  Y  Y14  1  0.678152  0.041140  0.566615  1
  Y  Y15  1  0.321848  0.958860  0.433385  1
  Y  Y16  1  0.178190  0.958796  0.933748  1
  Y  Y17  1  0.321860  0.541260  0.433523  1
  Y  Y18  1  0.821810  0.041204  0.066252  1
  Y  Y19  1  0.678140  0.458740  0.566477  1
  Bi  Bi20  1  0.568766  0.491660  0.826167  1
  Bi  Bi21  1  0.431234  0.508340  0.173833  1
  Bi  Bi22  1  0.069130  0.508290  0.673084  1
  Bi  Bi23  1  0.431042  0.991743  0.172596  1
  Bi  Bi24  1  0.930870  0.491710  0.326916  1
  Bi  Bi25  1  0.568958  0.008257  0.827404  1
  Bi  Bi26  1  0.931295  0.008393  0.326626  1
  Bi  Bi27  1  0.068705  0.991607  0.673374  1
  Rh  Rh28  1  0.570710  0.750088  0.510224  1
  Rh  Rh29  1  0.429290  0.249912  0.489776  1
  Rh  Rh30  1  0.069921  0.251944  0.989926  1
  Rh  Rh31  1  0.930079  0.748056  0.010074  1
