# generated using pymatgen
data_Cu(IrS4)2
_symmetry_space_group_name_H-M   'P 1'
_cell_length_a   5.78730496
_cell_length_b   5.70622922
_cell_length_c   5.70110380
_cell_angle_alpha   90.09534908
_cell_angle_beta   91.01788124
_cell_angle_gamma   91.89841720
_symmetry_Int_Tables_number   1
_chemical_formula_structural   Cu(IrS4)2
_chemical_formula_sum   'Cu1 Ir2 S8'
_cell_volume   188.13796936
_cell_formula_units_Z   1
loop_
 _symmetry_equiv_pos_site_id
 _symmetry_equiv_pos_as_xyz
  1  'x, y, z'
loop_
 _atom_site_type_symbol
 _atom_site_label
 _atom_site_symmetry_multiplicity
 _atom_site_fract_x
 _atom_site_fract_y
 _atom_site_fract_z
 _atom_site_occupancy
  Cu  Cu0  1  0.000000  0.500000  0.500000  1
  Ir  Ir1  1  0.500000  0.000000  0.500000  1
  Ir  Ir2  1  0.500000  0.500000  0.000000  1
  S  S3  1  0.394915  0.887813  0.106405  1
  S  S4  1  0.103476  0.396468  0.898527  1
  S  S5  1  0.892089  0.098528  0.396067  1
  S  S6  1  0.605085  0.112187  0.893595  1
  S  S7  1  0.896524  0.603532  0.101473  1
  S  S8  1  0.107911  0.901472  0.603933  1
  S  S9  1  0.600367  0.616115  0.614639  1
  S  S10  1  0.399633  0.383885  0.385361  1
