# generated using pymatgen
data_Dy2Ho(ErRu)2
_symmetry_space_group_name_H-M   'P 1'
_cell_length_a   6.31412160
_cell_length_b   7.25321500
_cell_length_c   8.43059540
_cell_angle_alpha   96.71561993
_cell_angle_beta   111.99196847
_cell_angle_gamma   89.99999753
_symmetry_Int_Tables_number   1
_chemical_formula_structural   Dy2Ho(ErRu)2
_chemical_formula_sum   'Dy4 Ho2 Er4 Ru4'
_cell_volume   355.14893946
_cell_formula_units_Z   2
loop_
 _symmetry_equiv_pos_site_id
 _symmetry_equiv_pos_as_xyz
  1  'x, y, z'
loop_
 _atom_site_type_symbol
 _atom_site_label
 _atom_site_symmetry_multiplicity
 _atom_site_fract_x
 _atom_site_fract_y
 _atom_site_fract_z
 _atom_site_occupancy
  Dy  Dy0  1  0.790600  0.583851  0.812951  1
  Dy  Dy1  1  0.977649  0.916149  0.187049  1
  Dy  Dy2  1  0.209429  0.415830  0.187047  1
  Dy  Dy3  1  0.022382  0.084170  0.812953  1
  Ho  Ho4  1  0.205644  0.684882  0.565526  1
  Ho  Ho5  1  0.640118  0.815118  0.434474  1
  Er  Er6  1  0.794451  0.315047  0.434503  1
  Er  Er7  1  0.359948  0.184953  0.565497  1
  Er  Er8  1  0.419876  0.750000  0.000000  1
  Er  Er9  1  0.580189  0.250000  0.000000  1
  Ru  Ru10  1  0.601775  0.924306  0.779463  1
  Ru  Ru11  1  0.822311  0.575694  0.220537  1
  Ru  Ru12  1  0.398209  0.076149  0.220789  1
  Ru  Ru13  1  0.177421  0.423851  0.779211  1
