# generated using pymatgen
data_Cr3Ag2AsSe8
_symmetry_space_group_name_H-M   'P 1'
_cell_length_a   7.72968825
_cell_length_b   7.72968754
_cell_length_c   7.72968784
_cell_angle_alpha   58.41821112
_cell_angle_beta   58.41821648
_cell_angle_gamma   58.41821943
_symmetry_Int_Tables_number   1
_chemical_formula_structural   Cr3Ag2AsSe8
_chemical_formula_sum   'Cr3 Ag2 As1 Se8'
_cell_volume   314.74384134
_cell_formula_units_Z   1
loop_
 _symmetry_equiv_pos_site_id
 _symmetry_equiv_pos_as_xyz
  1  'x, y, z'
loop_
 _atom_site_type_symbol
 _atom_site_label
 _atom_site_symmetry_multiplicity
 _atom_site_fract_x
 _atom_site_fract_y
 _atom_site_fract_z
 _atom_site_occupancy
  Cr  Cr0  1  0.500000  0.000000  0.500000  1
  Cr  Cr1  1  0.500000  0.500000  0.000000  1
  Cr  Cr2  1  0.000000  0.500000  0.500000  1
  Ag  Ag3  1  0.127770  0.127770  0.127770  1
  Ag  Ag4  1  0.872230  0.872230  0.872230  1
  As  As5  1  0.500000  0.500000  0.500000  1
  Se  Se6  1  0.255883  0.709048  0.255883  1
  Se  Se7  1  0.744117  0.744117  0.290952  1
  Se  Se8  1  0.290952  0.744117  0.744117  1
  Se  Se9  1  0.736360  0.736360  0.736360  1
  Se  Se10  1  0.709048  0.255883  0.255883  1
  Se  Se11  1  0.263640  0.263640  0.263640  1
  Se  Se12  1  0.744117  0.290952  0.744117  1
  Se  Se13  1  0.255883  0.255883  0.709048  1
