# generated using pymatgen
data_Yb2MnAl20Ir3
_symmetry_space_group_name_H-M   'P 1'
_cell_length_a   6.85238601
_cell_length_b   6.86140347
_cell_length_c   9.13050229
_cell_angle_alpha   90.07992576
_cell_angle_beta   90.09302609
_cell_angle_gamma   96.52798082
_symmetry_Int_Tables_number   1
_chemical_formula_structural   Yb2MnAl20Ir3
_chemical_formula_sum   'Yb2 Mn1 Al20 Ir3'
_cell_volume   426.50427662
_cell_formula_units_Z   1
loop_
 _symmetry_equiv_pos_site_id
 _symmetry_equiv_pos_as_xyz
  1  'x, y, z'
loop_
 _atom_site_type_symbol
 _atom_site_label
 _atom_site_symmetry_multiplicity
 _atom_site_fract_x
 _atom_site_fract_y
 _atom_site_fract_z
 _atom_site_occupancy
  Yb  Yb0  1  0.874070  0.124159  0.249014  1
  Yb  Yb1  1  0.125930  0.875841  0.750986  1
  Mn  Mn2  1  0.500000  0.000000  0.000000  1
  Al  Al3  1  0.222729  0.221497  0.498135  1
  Al  Al4  1  0.771852  0.781820  0.003760  1
  Al  Al5  1  0.777271  0.778503  0.501865  1
  Al  Al6  1  0.228148  0.218180  0.996240  1
  Al  Al7  1  0.379328  0.621904  0.552342  1
  Al  Al8  1  0.619246  0.371322  0.049182  1
  Al  Al9  1  0.583016  0.859846  0.755610  1
  Al  Al10  1  0.416984  0.140154  0.244390  1
  Al  Al11  1  0.856598  0.587289  0.249240  1
  Al  Al12  1  0.143402  0.412711  0.750760  1
  Al  Al13  1  0.479348  0.220214  0.755640  1
  Al  Al14  1  0.520652  0.779786  0.244360  1
  Al  Al15  1  0.223800  0.478912  0.249807  1
  Al  Al16  1  0.776200  0.521088  0.750193  1
  Al  Al17  1  0.158190  0.840222  0.396530  1
  Al  Al18  1  0.836238  0.154250  0.902091  1
  Al  Al19  1  0.841810  0.159778  0.603470  1
  Al  Al20  1  0.163762  0.845750  0.097909  1
  Al  Al21  1  0.380754  0.628678  0.950818  1
  Al  Al22  1  0.620672  0.378096  0.447658  1
  Ir  Ir23  1  0.000000  0.500000  0.500000  1
  Ir  Ir24  1  0.000000  0.500000  0.000000  1
  Ir  Ir25  1  0.500000  0.000000  0.500000  1
