# generated using pymatgen
data_CeTh2(InRh)3
_symmetry_space_group_name_H-M   'P 1'
_cell_length_a   7.63608332
_cell_length_b   7.63608390
_cell_length_c   4.05546600
_cell_angle_alpha   90.00000000
_cell_angle_beta   90.00000000
_cell_angle_gamma   120.22192874
_symmetry_Int_Tables_number   1
_chemical_formula_structural   CeTh2(InRh)3
_chemical_formula_sum   'Ce1 Th2 In3 Rh3'
_cell_volume   204.33237509
_cell_formula_units_Z   1
loop_
 _symmetry_equiv_pos_site_id
 _symmetry_equiv_pos_as_xyz
  1  'x, y, z'
loop_
 _atom_site_type_symbol
 _atom_site_label
 _atom_site_symmetry_multiplicity
 _atom_site_fract_x
 _atom_site_fract_y
 _atom_site_fract_z
 _atom_site_occupancy
  Ce  Ce0  1  0.589813  0.589813  0.500000  1
  Th  Th1  1  0.410800  0.999760  0.500000  1
  Th  Th2  1  0.999760  0.410800  0.500000  1
  In  In3  1  0.749866  0.992552  0.000000  1
  In  In4  1  0.992552  0.749866  0.000000  1
  In  In5  1  0.256689  0.256689  0.000000  1
  Rh  Rh6  1  0.325421  0.667038  0.000000  1
  Rh  Rh7  1  0.667038  0.325421  0.000000  1
  Rh  Rh8  1  0.008060  0.008060  0.500000  1
