# generated using pymatgen
data_AlSnSbO6
_symmetry_space_group_name_H-M   'P 1'
_cell_length_a   4.66095202
_cell_length_b   9.32175400
_cell_length_c   9.27057800
_cell_angle_alpha   89.99960788
_cell_angle_beta   90.00014787
_cell_angle_gamma   89.99400728
_symmetry_Int_Tables_number   1
_chemical_formula_structural   AlSnSbO6
_chemical_formula_sum   'Al4 Sn4 Sb4 O24'
_cell_volume   402.79037085
_cell_formula_units_Z   4
loop_
 _symmetry_equiv_pos_site_id
 _symmetry_equiv_pos_as_xyz
  1  'x, y, z'
loop_
 _atom_site_type_symbol
 _atom_site_label
 _atom_site_symmetry_multiplicity
 _atom_site_fract_x
 _atom_site_fract_y
 _atom_site_fract_z
 _atom_site_occupancy
  Al  Al0  1  0.499994  0.750027  0.167034  1
  Al  Al1  1  0.000012  0.499976  0.667011  1
  Al  Al2  1  0.500003  0.250006  0.167018  1
  Al  Al3  1  0.000013  0.999989  0.666989  1
  Sn  Sn4  1  0.499997  0.249996  0.499483  1
  Sn  Sn5  1  0.499999  0.749962  0.499486  1
  Sn  Sn6  1  0.999998  0.000003  0.999458  1
  Sn  Sn7  1  0.999976  0.500024  0.999459  1
  Sb  Sb8  1  0.500006  0.249995  0.833182  1
  Sb  Sb9  1  0.499997  0.750008  0.833180  1
  Sb  Sb10  1  0.999993  0.000014  0.333220  1
  Sb  Sb11  1  0.000005  0.499987  0.333213  1
  O  O12  1  0.203729  0.398222  0.171580  1
  O  O13  1  0.203745  0.898232  0.171597  1
  O  O14  1  0.796254  0.101787  0.171584  1
  O  O15  1  0.796229  0.601786  0.171606  1
  O  O16  1  0.296276  0.148216  0.671589  1
  O  O17  1  0.296275  0.648211  0.671592  1
  O  O18  1  0.703700  0.351788  0.671588  1
  O  O19  1  0.703711  0.851776  0.671577  1
  O  O20  1  0.185237  0.407471  0.504900  1
  O  O21  1  0.185254  0.907467  0.504889  1
  O  O22  1  0.814764  0.092534  0.504904  1
  O  O23  1  0.814802  0.592511  0.504895  1
  O  O24  1  0.314813  0.157443  0.004930  1
  O  O25  1  0.314804  0.657481  0.004934  1
  O  O26  1  0.685224  0.342542  0.004924  1
  O  O27  1  0.685204  0.842542  0.004931  1
  O  O28  1  0.194035  0.403045  0.823677  1
  O  O29  1  0.194061  0.903056  0.823655  1
  O  O30  1  0.805969  0.096947  0.823650  1
  O  O31  1  0.805925  0.596951  0.823652  1
  O  O32  1  0.305838  0.153126  0.323654  1
  O  O33  1  0.305827  0.653105  0.323648  1
  O  O34  1  0.694176  0.346876  0.323656  1
  O  O35  1  0.694158  0.846896  0.323662  1
