# generated using pymatgen
data_CsTb5Ho5(C2I9)2
_symmetry_space_group_name_H-M   'P 1'
_cell_length_a   11.43813374
_cell_length_b   11.47110937
_cell_length_c   11.51451944
_cell_angle_alpha   113.33638271
_cell_angle_beta   86.94329642
_cell_angle_gamma   119.76484245
_symmetry_Int_Tables_number   1
_chemical_formula_structural   CsTb5Ho5(C2I9)2
_chemical_formula_sum   'Cs1 Tb5 Ho5 C4 I18'
_cell_volume   1184.56343678
_cell_formula_units_Z   1
loop_
 _symmetry_equiv_pos_site_id
 _symmetry_equiv_pos_as_xyz
  1  'x, y, z'
loop_
 _atom_site_type_symbol
 _atom_site_label
 _atom_site_symmetry_multiplicity
 _atom_site_fract_x
 _atom_site_fract_y
 _atom_site_fract_z
 _atom_site_occupancy
  Cs  Cs0  1  0.500008  0.999840  0.499916  1
  Tb  Tb1  1  0.104911  0.945062  0.000821  1
  Tb  Tb2  1  0.035835  0.962414  0.675768  1
  Tb  Tb3  1  0.322361  0.275522  0.288903  1
  Tb  Tb4  1  0.722811  0.647139  0.984889  1
  Tb  Tb5  1  0.895100  0.055249  0.999365  1
  Ho  Ho6  1  0.679403  0.725316  0.712448  1
  Ho  Ho7  1  0.275443  0.351171  0.016053  1
  Ho  Ho8  1  0.093496  0.388973  0.290706  1
  Ho  Ho9  1  0.964957  0.038428  0.322522  1
  Ho  Ho10  1  0.906632  0.611088  0.709436  1
  C  C11  1  0.151562  0.220547  0.121279  1
  C  C12  1  0.847364  0.778919  0.878100  1
  C  C13  1  0.923244  0.855109  0.802092  1
  C  C14  1  0.075712  0.144339  0.197182  1
  I  I15  1  0.449055  0.530147  0.831083  1
  I  I16  1  0.384159  0.039085  0.157450  1
  I  I17  1  0.776642  0.855010  0.501007  1
  I  I18  1  0.839215  0.311377  0.154623  1
  I  I19  1  0.549070  0.469459  0.167375  1
  I  I20  1  0.220929  0.144229  0.498054  1
  I  I21  1  0.318569  0.098324  0.831279  1
  I  I22  1  0.683365  0.904817  0.171608  1
  I  I23  1  0.975680  0.757984  0.171526  1
  I  I24  1  0.934541  0.297641  0.499917  1
  I  I25  1  0.026562  0.245470  0.831417  1
  I  I26  1  0.065687  0.699823  0.498857  1
  I  I27  1  0.260168  0.619456  0.182199  1
  I  I28  1  0.740489  0.378425  0.815915  1
  I  I29  1  0.643760  0.437247  0.502377  1
  I  I30  1  0.160529  0.688507  0.845207  1
  I  I31  1  0.616327  0.958322  0.841115  1
  I  I32  1  0.356412  0.565564  0.499513  1
