# generated using pymatgen
data_Ba2TbPa3S10
_symmetry_space_group_name_H-M   'P 1'
_cell_length_a   7.49312700
_cell_length_b   8.43545581
_cell_length_c   11.78692500
_cell_angle_alpha   89.61160221
_cell_angle_beta   90.00000000
_cell_angle_gamma   90.00000000
_symmetry_Int_Tables_number   1
_chemical_formula_structural   Ba2TbPa3S10
_chemical_formula_sum   'Ba4 Tb2 Pa6 S20'
_cell_volume   745.01015059
_cell_formula_units_Z   2
loop_
 _symmetry_equiv_pos_site_id
 _symmetry_equiv_pos_as_xyz
  1  'x, y, z'
loop_
 _atom_site_type_symbol
 _atom_site_label
 _atom_site_symmetry_multiplicity
 _atom_site_fract_x
 _atom_site_fract_y
 _atom_site_fract_z
 _atom_site_occupancy
  Ba  Ba0  1  0.056659  0.491813  0.332266  1
  Ba  Ba1  1  0.556659  0.508187  0.167734  1
  Ba  Ba2  1  0.946088  0.509077  0.669350  1
  Ba  Ba3  1  0.446088  0.490923  0.830650  1
  Tb  Tb4  1  0.928590  0.245386  0.991510  1
  Tb  Tb5  1  0.428590  0.754614  0.508490  1
  Pa  Pa6  1  0.024334  0.998020  0.318508  1
  Pa  Pa7  1  0.524334  0.001980  0.181492  1
  Pa  Pa8  1  0.976057  0.000988  0.682984  1
  Pa  Pa9  1  0.476057  0.999012  0.817016  1
  Pa  Pa10  1  0.066772  0.754883  0.007919  1
  Pa  Pa11  1  0.566772  0.245117  0.492081  1
  S  S12  1  0.665392  0.960765  0.400092  1
  S  S13  1  0.165392  0.039235  0.099908  1
  S  S14  1  0.336348  0.046961  0.597598  1
  S  S15  1  0.836348  0.953039  0.902402  1
  S  S16  1  0.449969  0.794278  0.001066  1
  S  S17  1  0.949969  0.205722  0.498934  1
  S  S18  1  0.545435  0.205710  0.997397  1
  S  S19  1  0.045435  0.794290  0.502603  1
  S  S20  1  0.839204  0.784226  0.187040  1
  S  S21  1  0.339204  0.215774  0.312960  1
  S  S22  1  0.162327  0.212787  0.810872  1
  S  S23  1  0.662327  0.787213  0.689128  1
  S  S24  1  0.311085  0.777660  0.282905  1
  S  S25  1  0.811085  0.222340  0.217095  1
  S  S26  1  0.688834  0.223877  0.713849  1
  S  S27  1  0.188834  0.776123  0.786151  1
  S  S28  1  0.178878  0.470100  0.072345  1
  S  S29  1  0.678878  0.529900  0.427655  1
  S  S30  1  0.824027  0.543064  0.928500  1
  S  S31  1  0.324027  0.456936  0.571500  1
