# generated using pymatgen
data_HfAl2(VGa)2
_symmetry_space_group_name_H-M   'P 1'
_cell_length_a   5.29759058
_cell_length_b   5.29759119
_cell_length_c   5.25568815
_cell_angle_alpha   103.78684054
_cell_angle_beta   103.78684846
_cell_angle_gamma   121.81301885
_symmetry_Int_Tables_number   1
_chemical_formula_structural   HfAl2(VGa)2
_chemical_formula_sum   'Hf1 Al2 V2 Ga2'
_cell_volume   109.25365695
_cell_formula_units_Z   1
loop_
 _symmetry_equiv_pos_site_id
 _symmetry_equiv_pos_as_xyz
  1  'x, y, z'
loop_
 _atom_site_type_symbol
 _atom_site_label
 _atom_site_symmetry_multiplicity
 _atom_site_fract_x
 _atom_site_fract_y
 _atom_site_fract_z
 _atom_site_occupancy
  Hf  Hf0  1  0.000000  0.000000  0.000000  1
  Al  Al1  1  0.305230  0.305230  0.610459  1
  Al  Al2  1  0.694770  0.694770  0.389541  1
  V  V3  1  0.250000  0.750000  0.500000  1
  V  V4  1  0.750000  0.250000  0.500000  1
  Ga  Ga5  1  0.697966  0.302034  0.000000  1
  Ga  Ga6  1  0.302034  0.697966  0.000000  1
