# generated using pymatgen
data_Ho4Er8TcRu3
_symmetry_space_group_name_H-M   'P 1'
_cell_length_a   6.25704549
_cell_length_b   7.30290901
_cell_length_c   9.05542200
_cell_angle_alpha   90.00000000
_cell_angle_beta   90.00000000
_cell_angle_gamma   90.02028763
_symmetry_Int_Tables_number   1
_chemical_formula_structural   Ho4Er8TcRu3
_chemical_formula_sum   'Ho4 Er8 Tc1 Ru3'
_cell_volume   413.78416646
_cell_formula_units_Z   1
loop_
 _symmetry_equiv_pos_site_id
 _symmetry_equiv_pos_as_xyz
  1  'x, y, z'
loop_
 _atom_site_type_symbol
 _atom_site_label
 _atom_site_symmetry_multiplicity
 _atom_site_fract_x
 _atom_site_fract_y
 _atom_site_fract_z
 _atom_site_occupancy
  Ho  Ho0  1  0.867867  0.540096  0.250000  1
  Ho  Ho1  1  0.628163  0.041755  0.250000  1
  Ho  Ho2  1  0.134242  0.457715  0.750000  1
  Ho  Ho3  1  0.366008  0.958066  0.750000  1
  Er  Er4  1  0.332954  0.676058  0.064468  1
  Er  Er5  1  0.167563  0.175788  0.435887  1
  Er  Er6  1  0.667955  0.323861  0.564242  1
  Er  Er7  1  0.834471  0.824907  0.937081  1
  Er  Er8  1  0.667955  0.323861  0.935758  1
  Er  Er9  1  0.834471  0.824907  0.562919  1
  Er  Er10  1  0.332954  0.676058  0.435532  1
  Er  Er11  1  0.167563  0.175788  0.064113  1
  Tc  Tc12  1  0.037221  0.884370  0.250000  1
  Ru  Ru13  1  0.461386  0.383802  0.250000  1
  Ru  Ru14  1  0.960281  0.117363  0.750000  1
  Ru  Ru15  1  0.538948  0.615608  0.750000  1
