# generated using pymatgen
data_Ho12Ni4AgSn
_symmetry_space_group_name_H-M   'P 1'
_cell_length_a   8.33569004
_cell_length_b   8.33568952
_cell_length_c   8.33568972
_cell_angle_alpha   112.63350230
_cell_angle_beta   109.26814394
_cell_angle_gamma   106.56933453
_symmetry_Int_Tables_number   1
_chemical_formula_structural   Ho12Ni4AgSn
_chemical_formula_sum   'Ho12 Ni4 Ag1 Sn1'
_cell_volume   444.60661380
_cell_formula_units_Z   1
loop_
 _symmetry_equiv_pos_site_id
 _symmetry_equiv_pos_as_xyz
  1  'x, y, z'
loop_
 _atom_site_type_symbol
 _atom_site_label
 _atom_site_symmetry_multiplicity
 _atom_site_fract_x
 _atom_site_fract_y
 _atom_site_fract_z
 _atom_site_occupancy
  Ho  Ho0  1  0.422531  0.224058  0.198472  1
  Ho  Ho1  1  0.577469  0.775942  0.801528  1
  Ho  Ho2  1  0.025587  0.224058  0.801528  1
  Ho  Ho3  1  0.974413  0.775942  0.198472  1
  Ho  Ho4  1  0.179927  0.295156  0.475083  1
  Ho  Ho5  1  0.820073  0.704844  0.524917  1
  Ho  Ho6  1  0.179927  0.704844  0.884771  1
  Ho  Ho7  1  0.820073  0.295156  0.115229  1
  Ho  Ho8  1  0.324688  0.632344  0.307656  1
  Ho  Ho9  1  0.675312  0.367656  0.692344  1
  Ho  Ho10  1  0.324688  0.017033  0.692344  1
  Ho  Ho11  1  0.675312  0.982967  0.307656  1
  Ni  Ni12  1  0.356493  0.000000  0.356493  1
  Ni  Ni13  1  0.643507  0.000000  0.643507  1
  Ni  Ni14  1  0.126746  0.626746  0.500000  1
  Ni  Ni15  1  0.873254  0.373254  0.500000  1
  Ag  Ag16  1  0.000000  0.000000  0.000000  1
  Sn  Sn17  1  0.500000  0.500000  0.000000  1
