# generated using pymatgen
data_Pr5Y5(Pb3Se)2
_symmetry_space_group_name_H-M   'P 1'
_cell_length_a   9.40888800
_cell_length_b   9.40897768
_cell_length_c   6.96905300
_cell_angle_alpha   90.00000000
_cell_angle_beta   90.00000000
_cell_angle_gamma   119.98301442
_symmetry_Int_Tables_number   1
_chemical_formula_structural   Pr5Y5(Pb3Se)2
_chemical_formula_sum   'Pr5 Y5 Pb6 Se2'
_cell_volume   534.39137938
_cell_formula_units_Z   1
loop_
 _symmetry_equiv_pos_site_id
 _symmetry_equiv_pos_as_xyz
  1  'x, y, z'
loop_
 _atom_site_type_symbol
 _atom_site_label
 _atom_site_symmetry_multiplicity
 _atom_site_fract_x
 _atom_site_fract_y
 _atom_site_fract_z
 _atom_site_occupancy
  Pr  Pr0  1  0.253809  0.000306  0.750000  1
  Pr  Pr1  1  0.000339  0.253828  0.750000  1
  Pr  Pr2  1  0.251881  0.251892  0.250000  1
  Pr  Pr3  1  0.746663  0.999350  0.250000  1
  Pr  Pr4  1  0.999368  0.746667  0.250000  1
  Y  Y5  1  0.751045  0.751062  0.750000  1
  Y  Y6  1  0.666849  0.334001  0.999437  1
  Y  Y7  1  0.334010  0.666853  0.999436  1
  Y  Y8  1  0.334010  0.666853  0.500564  1
  Y  Y9  1  0.666849  0.334001  0.500563  1
  Pb  Pb10  1  0.402630  0.402626  0.750000  1
  Pb  Pb11  1  0.603034  0.997070  0.750000  1
  Pb  Pb12  1  0.997059  0.603029  0.750000  1
  Pb  Pb13  1  0.601233  0.601236  0.250000  1
  Pb  Pb14  1  0.397821  0.999864  0.250000  1
  Pb  Pb15  1  0.999865  0.397823  0.250000  1
  Se  Se16  1  0.996770  0.996770  0.997185  1
  Se  Se17  1  0.996770  0.996770  0.502815  1
