# generated using pymatgen
data_Hf3Zn3Cu2Rh
_symmetry_space_group_name_H-M   'P 1'
_cell_length_a   7.05474000
_cell_length_b   7.05473995
_cell_length_c   3.41719500
_cell_angle_alpha   90.00000000
_cell_angle_beta   90.00000000
_cell_angle_gamma   120.00000023
_symmetry_Int_Tables_number   1
_chemical_formula_structural   Hf3Zn3Cu2Rh
_chemical_formula_sum   'Hf3 Zn3 Cu2 Rh1'
_cell_volume   147.28632129
_cell_formula_units_Z   1
loop_
 _symmetry_equiv_pos_site_id
 _symmetry_equiv_pos_as_xyz
  1  'x, y, z'
loop_
 _atom_site_type_symbol
 _atom_site_label
 _atom_site_symmetry_multiplicity
 _atom_site_fract_x
 _atom_site_fract_y
 _atom_site_fract_z
 _atom_site_occupancy
  Hf  Hf0  1  0.588939  0.991998  0.500000  1
  Hf  Hf1  1  0.403058  0.411061  0.500000  1
  Hf  Hf2  1  0.008002  0.596942  0.500000  1
  Zn  Zn3  1  0.745830  0.737313  0.000000  1
  Zn  Zn4  1  0.991481  0.254170  0.000000  1
  Zn  Zn5  1  0.262687  0.008519  0.000000  1
  Cu  Cu6  1  0.000000  0.000000  0.500000  1
  Cu  Cu7  1  0.666667  0.333333  0.000000  1
  Rh  Rh8  1  0.333333  0.666667  0.000000  1
