# generated using pymatgen
data_Y2WCl12
_symmetry_space_group_name_H-M   'P 1'
_cell_length_a   6.99480216
_cell_length_b   6.99440485
_cell_length_c   12.57986104
_cell_angle_alpha   90.00405508
_cell_angle_beta   89.99188956
_cell_angle_gamma   119.99658032
_symmetry_Int_Tables_number   1
_chemical_formula_structural   Y2WCl12
_chemical_formula_sum   'Y2 W1 Cl12'
_cell_volume   533.02507193
_cell_formula_units_Z   1
loop_
 _symmetry_equiv_pos_site_id
 _symmetry_equiv_pos_as_xyz
  1  'x, y, z'
loop_
 _atom_site_type_symbol
 _atom_site_label
 _atom_site_symmetry_multiplicity
 _atom_site_fract_x
 _atom_site_fract_y
 _atom_site_fract_z
 _atom_site_occupancy
  Y  Y0  1  0.666609  0.333310  0.000007  1
  Y  Y1  1  0.333388  0.666694  0.999994  1
  W  W2  1  0.000001  0.999999  0.500001  1
  Cl  Cl3  1  0.627196  0.000030  0.118043  1
  Cl  Cl4  1  0.372741  0.372778  0.118044  1
  Cl  Cl5  1  0.999947  0.627225  0.118025  1
  Cl  Cl6  1  0.269382  0.269403  0.606206  1
  Cl  Cl7  1  0.999967  0.730534  0.606191  1
  Cl  Cl8  1  0.730552  0.000006  0.606202  1
  Cl  Cl9  1  0.000034  0.269466  0.393812  1
  Cl  Cl10  1  0.269446  0.999989  0.393798  1
  Cl  Cl11  1  0.730625  0.730598  0.393792  1
  Cl  Cl12  1  0.372795  0.999978  0.881952  1
  Cl  Cl13  1  0.627256  0.627226  0.881956  1
  Cl  Cl14  1  0.000057  0.372766  0.881975  1
