# generated using pymatgen
data_Tb8Dy2Si5P
_symmetry_space_group_name_H-M   'P 1'
_cell_length_a   8.45513900
_cell_length_b   8.46138825
_cell_length_c   6.34069900
_cell_angle_alpha   90.00379809
_cell_angle_beta   90.00000000
_cell_angle_gamma   119.97557551
_symmetry_Int_Tables_number   1
_chemical_formula_structural   Tb8Dy2Si5P
_chemical_formula_sum   'Tb8 Dy2 Si5 P1'
_cell_volume   392.94971458
_cell_formula_units_Z   1
loop_
 _symmetry_equiv_pos_site_id
 _symmetry_equiv_pos_as_xyz
  1  'x, y, z'
loop_
 _atom_site_type_symbol
 _atom_site_label
 _atom_site_symmetry_multiplicity
 _atom_site_fract_x
 _atom_site_fract_y
 _atom_site_fract_z
 _atom_site_occupancy
  Tb  Tb0  1  0.001076  0.756797  0.750005  1
  Tb  Tb1  1  0.000894  0.244376  0.250002  1
  Tb  Tb2  1  0.756519  0.755624  0.249998  1
  Tb  Tb3  1  0.754877  0.000000  0.750000  1
  Tb  Tb4  1  0.244278  0.243203  0.749995  1
  Tb  Tb5  1  0.243870  0.000000  0.250000  1
  Tb  Tb6  1  0.666263  0.332499  0.999537  1
  Tb  Tb7  1  0.333763  0.667501  0.500463  1
  Dy  Dy8  1  0.333759  0.667476  0.999564  1
  Dy  Dy9  1  0.666284  0.332524  0.500436  1
  Si  Si10  1  0.394228  0.393759  0.250007  1
  Si  Si11  1  0.000469  0.606241  0.249993  1
  Si  Si12  1  0.000121  0.393513  0.750002  1
  Si  Si13  1  0.606608  0.606487  0.749998  1
  Si  Si14  1  0.607112  0.000000  0.250000  1
  P  P15  1  0.389880  0.000000  0.750000  1
