# generated using pymatgen
data_Dy4Y2Co17P12Ru
_symmetry_space_group_name_H-M   'P 1'
_cell_length_a   3.69814900
_cell_length_b   10.51405500
_cell_length_c   12.21977800
_cell_angle_alpha   90.00000000
_cell_angle_beta   90.00000000
_cell_angle_gamma   90.00000000
_symmetry_Int_Tables_number   1
_chemical_formula_structural   Dy4Y2Co17P12Ru
_chemical_formula_sum   'Dy4 Y2 Co17 P12 Ru1'
_cell_volume   475.13603112
_cell_formula_units_Z   1
loop_
 _symmetry_equiv_pos_site_id
 _symmetry_equiv_pos_as_xyz
  1  'x, y, z'
loop_
 _atom_site_type_symbol
 _atom_site_label
 _atom_site_symmetry_multiplicity
 _atom_site_fract_x
 _atom_site_fract_y
 _atom_site_fract_z
 _atom_site_occupancy
  Dy  Dy0  1  0.500000  0.817299  0.206860  1
  Dy  Dy1  1  0.500000  0.182701  0.206860  1
  Dy  Dy2  1  0.000000  0.683165  0.793853  1
  Dy  Dy3  1  0.000000  0.316835  0.793853  1
  Y  Y4  1  0.000000  0.500000  0.524241  1
  Y  Y5  1  0.500000  0.000000  0.478687  1
  Co  Co6  1  0.000000  0.000000  0.840260  1
  Co  Co7  1  0.500000  0.500000  0.704380  1
  Co  Co8  1  0.000000  0.000000  0.295225  1
  Co  Co9  1  0.000000  0.500000  0.987174  1
  Co  Co10  1  0.500000  0.000000  0.014021  1
  Co  Co11  1  0.500000  0.332131  0.991399  1
  Co  Co12  1  0.500000  0.667869  0.991399  1
  Co  Co13  1  0.000000  0.166457  0.005348  1
  Co  Co14  1  0.000000  0.833543  0.005348  1
  Co  Co15  1  0.500000  0.297338  0.430235  1
  Co  Co16  1  0.500000  0.702662  0.430235  1
  Co  Co17  1  0.000000  0.203033  0.568962  1
  Co  Co18  1  0.000000  0.796967  0.568962  1
  Co  Co19  1  0.500000  0.879403  0.709370  1
  Co  Co20  1  0.500000  0.120597  0.709370  1
  Co  Co21  1  0.000000  0.620519  0.291588  1
  Co  Co22  1  0.000000  0.379481  0.291588  1
  P  P23  1  0.500000  0.500000  0.882264  1
  P  P24  1  0.000000  0.000000  0.116663  1
  P  P25  1  0.500000  0.500000  0.349719  1
  P  P26  1  0.000000  0.000000  0.656289  1
  P  P27  1  0.500000  0.310535  0.616387  1
  P  P28  1  0.500000  0.689465  0.616387  1
  P  P29  1  0.000000  0.188529  0.384158  1
  P  P30  1  0.000000  0.811471  0.384158  1
  P  P31  1  0.500000  0.849086  0.892242  1
  P  P32  1  0.500000  0.150914  0.892242  1
  P  P33  1  0.000000  0.655243  0.105516  1
  P  P34  1  0.000000  0.344757  0.105516  1
  Ru  Ru35  1  0.500000  0.500000  0.159245  1
