# generated using pymatgen
data_Yb2Ho2(Ga8Pt3)3
_symmetry_space_group_name_H-M   'P 1'
_cell_length_a   7.48917404
_cell_length_b   7.58426579
_cell_length_c   13.38674053
_cell_angle_alpha   84.68250869
_cell_angle_beta   79.39169280
_cell_angle_gamma   60.66883236
_symmetry_Int_Tables_number   1
_chemical_formula_structural   Yb2Ho2(Ga8Pt3)3
_chemical_formula_sum   'Yb2 Ho2 Ga24 Pt9'
_cell_volume   651.55632008
_cell_formula_units_Z   1
loop_
 _symmetry_equiv_pos_site_id
 _symmetry_equiv_pos_as_xyz
  1  'x, y, z'
loop_
 _atom_site_type_symbol
 _atom_site_label
 _atom_site_symmetry_multiplicity
 _atom_site_fract_x
 _atom_site_fract_y
 _atom_site_fract_z
 _atom_site_occupancy
  Yb  Yb0  1  0.398011  0.167441  0.807985  1
  Yb  Yb1  1  0.601989  0.832559  0.192015  1
  Ho  Ho2  1  0.733509  0.498027  0.810164  1
  Ho  Ho3  1  0.266491  0.501973  0.189836  1
  Ga  Ga4  1  0.686960  0.834187  0.939348  1
  Ga  Ga5  1  0.313040  0.165813  0.060652  1
  Ga  Ga6  1  0.146059  0.831350  0.559521  1
  Ga  Ga7  1  0.853941  0.168650  0.440479  1
  Ga  Ga8  1  0.478259  0.166608  0.556620  1
  Ga  Ga9  1  0.521741  0.833392  0.443380  1
  Ga  Ga10  1  0.221492  0.164182  0.322961  1
  Ga  Ga11  1  0.778508  0.835818  0.677039  1
  Ga  Ga12  1  0.437626  0.503004  0.674981  1
  Ga  Ga13  1  0.562374  0.496996  0.325019  1
  Ga  Ga14  1  0.108842  0.161361  0.673833  1
  Ga  Ga15  1  0.891158  0.838639  0.326167  1
  Ga  Ga16  1  0.361097  0.495148  0.938756  1
  Ga  Ga17  1  0.638903  0.504852  0.061244  1
  Ga  Ga18  1  0.022508  0.168641  0.945110  1
  Ga  Ga19  1  0.977492  0.831359  0.054890  1
  Ga  Ga20  1  0.187611  0.498222  0.442893  1
  Ga  Ga21  1  0.812389  0.501778  0.557107  1
  Ga  Ga22  1  0.732887  0.165950  0.181726  1
  Ga  Ga23  1  0.267113  0.834050  0.818274  1
  Ga  Ga24  1  0.060259  0.631170  0.817112  1
  Ga  Ga25  1  0.939741  0.368830  0.182888  1
  Ga  Ga26  1  0.858147  0.042081  0.816361  1
  Ga  Ga27  1  0.141853  0.957919  0.183639  1
  Pt  Pt28  1  0.115937  0.494539  0.639749  1
  Pt  Pt29  1  0.884063  0.505461  0.360251  1
  Pt  Pt30  1  0.661375  0.169541  0.998970  1
  Pt  Pt31  1  0.338625  0.830459  0.001030  1
  Pt  Pt32  1  0.541107  0.166597  0.360529  1
  Pt  Pt33  1  0.458893  0.833403  0.639471  1
  Pt  Pt34  1  0.778789  0.173458  0.636809  1
  Pt  Pt35  1  0.221211  0.826542  0.363191  1
  Pt  Pt36  1  0.000000  0.500000  0.000000  1
