# generated using pymatgen
data_Zr2Be(NbSi)3
_symmetry_space_group_name_H-M   'P 1'
_cell_length_a   6.87483364
_cell_length_b   6.87180343
_cell_length_c   12.60581306
_cell_angle_alpha   89.83704805
_cell_angle_beta   90.02119979
_cell_angle_gamma   89.84206503
_symmetry_Int_Tables_number   1
_chemical_formula_structural   Zr2Be(NbSi)3
_chemical_formula_sum   'Zr8 Be4 Nb12 Si12'
_cell_volume   595.52547841
_cell_formula_units_Z   4
loop_
 _symmetry_equiv_pos_site_id
 _symmetry_equiv_pos_as_xyz
  1  'x, y, z'
loop_
 _atom_site_type_symbol
 _atom_site_label
 _atom_site_symmetry_multiplicity
 _atom_site_fract_x
 _atom_site_fract_y
 _atom_site_fract_z
 _atom_site_occupancy
  Zr  Zr0  1  0.002923  0.652692  0.033404  1
  Zr  Zr1  1  0.999375  0.343280  0.531555  1
  Zr  Zr2  1  0.658551  0.999856  0.968084  1
  Zr  Zr3  1  0.154656  0.496809  0.783905  1
  Zr  Zr4  1  0.845997  0.501894  0.284047  1
  Zr  Zr5  1  0.500745  0.159587  0.216625  1
  Zr  Zr6  1  0.500992  0.843716  0.715309  1
  Zr  Zr7  1  0.342047  0.001509  0.467428  1
  Be  Be8  1  0.050522  0.701910  0.438933  1
  Be  Be9  1  0.948868  0.296993  0.938938  1
  Be  Be10  1  0.701989  0.050988  0.560929  1
  Be  Be11  1  0.202016  0.449718  0.189220  1
  Nb  Nb12  1  0.348220  0.505396  0.375110  1
  Nb  Nb13  1  0.853136  0.990636  0.376559  1
  Nb  Nb14  1  0.006914  0.153450  0.126249  1
  Nb  Nb15  1  0.988919  0.851387  0.623063  1
  Nb  Nb16  1  0.651469  0.494703  0.876347  1
  Nb  Nb17  1  0.503705  0.349782  0.623158  1
  Nb  Nb18  1  0.492655  0.646459  0.125481  1
  Nb  Nb19  1  0.148200  0.009722  0.874641  1
  Nb  Nb20  1  0.674017  0.675206  0.499997  1
  Nb  Nb21  1  0.827526  0.171713  0.749933  1
  Nb  Nb22  1  0.171528  0.824062  0.251641  1
  Nb  Nb23  1  0.324832  0.328530  0.001614  1
  Si  Si24  1  0.798760  0.546400  0.686025  1
  Si  Si25  1  0.453208  0.201992  0.813283  1
  Si  Si26  1  0.547230  0.798933  0.313883  1
  Si  Si27  1  0.296968  0.952279  0.064269  1
  Si  Si28  1  0.864343  0.792546  0.823646  1
  Si  Si29  1  0.136818  0.213035  0.319552  1
  Si  Si30  1  0.794495  0.862213  0.176901  1
  Si  Si31  1  0.286666  0.639501  0.567812  1
  Si  Si32  1  0.714246  0.363001  0.069350  1
  Si  Si33  1  0.639151  0.287567  0.430846  1
  Si  Si34  1  0.361884  0.706945  0.927013  1
  Si  Si35  1  0.206428  0.135589  0.675250  1
