# generated using pymatgen
data_Dy2Cr2Ni10As7
_symmetry_space_group_name_H-M   'P 1'
_cell_length_a   9.46084258
_cell_length_b   9.42285707
_cell_length_c   3.82801700
_cell_angle_alpha   90.00000000
_cell_angle_beta   90.00000000
_cell_angle_gamma   119.80388987
_symmetry_Int_Tables_number   1
_chemical_formula_structural   Dy2Cr2Ni10As7
_chemical_formula_sum   'Dy2 Cr2 Ni10 As7'
_cell_volume   296.12273163
_cell_formula_units_Z   1
loop_
 _symmetry_equiv_pos_site_id
 _symmetry_equiv_pos_as_xyz
  1  'x, y, z'
loop_
 _atom_site_type_symbol
 _atom_site_label
 _atom_site_symmetry_multiplicity
 _atom_site_fract_x
 _atom_site_fract_y
 _atom_site_fract_z
 _atom_site_occupancy
  Dy  Dy0  1  0.337248  0.666594  0.000000  1
  Dy  Dy1  1  0.665978  0.334165  0.500000  1
  Cr  Cr2  1  0.214407  0.096978  0.500000  1
  Cr  Cr3  1  0.899406  0.114925  0.500000  1
  Ni  Ni4  1  0.434045  0.060609  0.000000  1
  Ni  Ni5  1  0.153482  0.282604  0.000000  1
  Ni  Ni6  1  0.939817  0.376771  0.000000  1
  Ni  Ni7  1  0.622760  0.563817  0.000000  1
  Ni  Ni8  1  0.127993  0.843559  0.000000  1
  Ni  Ni9  1  0.719913  0.872606  0.000000  1
  Ni  Ni10  1  0.380865  0.433270  0.500000  1
  Ni  Ni11  1  0.048627  0.620656  0.500000  1
  Ni  Ni12  1  0.881167  0.780695  0.500000  1
  Ni  Ni13  1  0.568717  0.947797  0.500000  1
  As  As14  1  0.000572  0.998448  0.000000  1
  As  As15  1  0.706309  0.115460  0.000000  1
  As  As16  1  0.407012  0.293916  0.000000  1
  As  As17  1  0.883336  0.594857  0.000000  1
  As  As18  1  0.113900  0.409820  0.500000  1
  As  As19  1  0.597516  0.706994  0.500000  1
  As  As20  1  0.296927  0.885460  0.500000  1
