# generated using pymatgen
data_Tb8Lu10Sc2Si15Sn
_symmetry_space_group_name_H-M   'P 1'
_cell_length_a   7.29900909
_cell_length_b   7.60655952
_cell_length_c   14.40488887
_cell_angle_alpha   90.28339313
_cell_angle_beta   89.49571041
_cell_angle_gamma   90.20774053
_symmetry_Int_Tables_number   1
_chemical_formula_structural   Tb8Lu10Sc2Si15Sn
_chemical_formula_sum   'Tb8 Lu10 Sc2 Si15 Sn1'
_cell_volume   799.71853777
_cell_formula_units_Z   1
loop_
 _symmetry_equiv_pos_site_id
 _symmetry_equiv_pos_as_xyz
  1  'x, y, z'
loop_
 _atom_site_type_symbol
 _atom_site_label
 _atom_site_symmetry_multiplicity
 _atom_site_fract_x
 _atom_site_fract_y
 _atom_site_fract_z
 _atom_site_occupancy
  Tb  Tb0  1  0.013225  0.176600  0.096265  1
  Tb  Tb1  1  0.986086  0.823864  0.904500  1
  Tb  Tb2  1  0.486816  0.678673  0.904256  1
  Tb  Tb3  1  0.987772  0.827417  0.600105  1
  Tb  Tb4  1  0.513619  0.321416  0.096962  1
  Tb  Tb5  1  0.007537  0.171207  0.398068  1
  Tb  Tb6  1  0.514517  0.319544  0.398842  1
  Tb  Tb7  1  0.499488  0.685252  0.601046  1
  Lu  Lu8  1  0.161881  0.505889  0.754900  1
  Lu  Lu9  1  0.836565  0.492427  0.248550  1
  Lu  Lu10  1  0.335656  0.007521  0.247753  1
  Lu  Lu11  1  0.667151  0.992992  0.753158  1
  Lu  Lu12  1  0.341085  0.163662  0.630274  1
  Lu  Lu13  1  0.664300  0.823868  0.373511  1
  Lu  Lu14  1  0.163298  0.684410  0.369871  1
  Lu  Lu15  1  0.668204  0.822023  0.120873  1
  Lu  Lu16  1  0.823403  0.324436  0.625765  1
  Lu  Lu17  1  0.330316  0.176274  0.879011  1
  Sc  Sc18  1  0.829850  0.323315  0.876123  1
  Sc  Sc19  1  0.170101  0.676855  0.124459  1
  Si  Si20  1  0.034299  0.118465  0.753218  1
  Si  Si21  1  0.963443  0.887030  0.244992  1
  Si  Si22  1  0.462644  0.610140  0.245049  1
  Si  Si23  1  0.535427  0.390181  0.756086  1
  Si  Si24  1  0.283943  0.869624  0.753612  1
  Si  Si25  1  0.716054  0.126527  0.246531  1
  Si  Si26  1  0.215174  0.373858  0.247020  1
  Si  Si27  1  0.785937  0.627573  0.753412  1
  Si  Si28  1  0.828208  0.536736  0.459007  1
  Si  Si29  1  0.336745  0.967541  0.459804  1
  Si  Si30  1  0.848662  0.530983  0.037802  1
  Si  Si31  1  0.663947  0.033916  0.538605  1
  Si  Si32  1  0.150360  0.468599  0.962983  1
  Si  Si33  1  0.663553  0.038386  0.960354  1
  Si  Si34  1  0.335284  0.962404  0.040523  1
  Sn  Sn35  1  0.175452  0.460391  0.536712  1
