# generated using pymatgen
data_La3SmGeI6
_symmetry_space_group_name_H-M   'P 1'
_cell_length_a   4.44322700
_cell_length_b   14.52099975
_cell_length_c   15.34409800
_cell_angle_alpha   90.45044788
_cell_angle_beta   90.00000000
_cell_angle_gamma   90.00000000
_symmetry_Int_Tables_number   1
_chemical_formula_structural   La3SmGeI6
_chemical_formula_sum   'La6 Sm2 Ge2 I12'
_cell_volume   989.97211451
_cell_formula_units_Z   2
loop_
 _symmetry_equiv_pos_site_id
 _symmetry_equiv_pos_as_xyz
  1  'x, y, z'
loop_
 _atom_site_type_symbol
 _atom_site_label
 _atom_site_symmetry_multiplicity
 _atom_site_fract_x
 _atom_site_fract_y
 _atom_site_fract_z
 _atom_site_occupancy
  La  La0  1  0.500000  0.117080  0.343100  1
  La  La1  1  0.500000  0.882920  0.656900  1
  La  La2  1  0.000000  0.117424  0.578324  1
  La  La3  1  0.000000  0.882576  0.421676  1
  La  La4  1  0.000000  0.615664  0.923264  1
  La  La5  1  0.000000  0.384336  0.076736  1
  Sm  Sm6  1  0.500000  0.614210  0.153059  1
  Sm  Sm7  1  0.500000  0.385790  0.846941  1
  Ge  Ge8  1  0.500000  0.000000  0.500000  1
  Ge  Ge9  1  0.500000  0.500000  0.000000  1
  I  I10  1  0.500000  0.241810  0.160756  1
  I  I11  1  0.500000  0.758190  0.839244  1
  I  I12  1  0.500000  0.739657  0.334587  1
  I  I13  1  0.500000  0.260343  0.665413  1
  I  I14  1  0.000000  0.261351  0.413386  1
  I  I15  1  0.000000  0.738649  0.586614  1
  I  I16  1  0.000000  0.754868  0.092291  1
  I  I17  1  0.000000  0.245132  0.907709  1
  I  I18  1  0.000000  0.997986  0.238429  1
  I  I19  1  0.000000  0.002014  0.761571  1
  I  I20  1  0.000000  0.505346  0.257521  1
  I  I21  1  0.000000  0.494654  0.742479  1
