# generated using pymatgen
data_SmYFe3Co9P7
_symmetry_space_group_name_H-M   'P 1'
_cell_length_a   9.01885400
_cell_length_b   9.01885528
_cell_length_c   3.62799800
_cell_angle_alpha   90.00000000
_cell_angle_beta   90.00000000
_cell_angle_gamma   120.00000998
_symmetry_Int_Tables_number   1
_chemical_formula_structural   SmYFe3Co9P7
_chemical_formula_sum   'Sm1 Y1 Fe3 Co9 P7'
_cell_volume   255.56442644
_cell_formula_units_Z   1
loop_
 _symmetry_equiv_pos_site_id
 _symmetry_equiv_pos_as_xyz
  1  'x, y, z'
loop_
 _atom_site_type_symbol
 _atom_site_label
 _atom_site_symmetry_multiplicity
 _atom_site_fract_x
 _atom_site_fract_y
 _atom_site_fract_z
 _atom_site_occupancy
  Sm  Sm0  1  0.333333  0.666667  0.000000  1
  Y  Y1  1  0.666667  0.333333  0.500000  1
  Fe  Fe2  1  0.216449  0.122139  0.500000  1
  Fe  Fe3  1  0.877861  0.094311  0.500000  1
  Fe  Fe4  1  0.905689  0.783551  0.500000  1
  Co  Co5  1  0.431140  0.370293  0.000000  1
  Co  Co6  1  0.629707  0.060848  0.000000  1
  Co  Co7  1  0.939152  0.568860  0.000000  1
  Co  Co8  1  0.155986  0.882825  0.000000  1
  Co  Co9  1  0.117175  0.273161  0.000000  1
  Co  Co10  1  0.726839  0.844014  0.000000  1
  Co  Co11  1  0.384377  0.952437  0.500000  1
  Co  Co12  1  0.047563  0.431940  0.500000  1
  Co  Co13  1  0.568060  0.615623  0.500000  1
  P  P14  1  0.409190  0.112063  0.000000  1
  P  P15  1  0.887937  0.297127  0.000000  1
  P  P16  1  0.702873  0.590810  0.000000  1
  P  P17  1  0.108870  0.709839  0.500000  1
  P  P18  1  0.290161  0.399030  0.500000  1
  P  P19  1  0.600970  0.891130  0.500000  1
  P  P20  1  0.000000  0.000000  0.000000  1
