# generated using pymatgen
data_Sr3CdHg2Pd2Au
_symmetry_space_group_name_H-M   'P 1'
_cell_length_a   7.91874747
_cell_length_b   7.93950842
_cell_length_c   4.29729300
_cell_angle_alpha   90.00000000
_cell_angle_beta   90.00000000
_cell_angle_gamma   119.87410169
_symmetry_Int_Tables_number   1
_chemical_formula_structural   Sr3CdHg2Pd2Au
_chemical_formula_sum   'Sr3 Cd1 Hg2 Pd2 Au1'
_cell_volume   234.27463448
_cell_formula_units_Z   1
loop_
 _symmetry_equiv_pos_site_id
 _symmetry_equiv_pos_as_xyz
  1  'x, y, z'
loop_
 _atom_site_type_symbol
 _atom_site_label
 _atom_site_symmetry_multiplicity
 _atom_site_fract_x
 _atom_site_fract_y
 _atom_site_fract_z
 _atom_site_occupancy
  Sr  Sr0  1  0.606383  0.006297  0.500000  1
  Sr  Sr1  1  0.405816  0.405347  0.500000  1
  Sr  Sr2  1  0.989585  0.588471  0.500000  1
  Cd  Cd3  1  0.250490  0.009213  0.000000  1
  Hg  Hg4  1  0.754971  0.739405  0.000000  1
  Hg  Hg5  1  0.992134  0.247671  0.000000  1
  Pd  Pd6  1  0.008511  0.000161  0.500000  1
  Pd  Pd7  1  0.658363  0.324434  0.000000  1
  Au  Au8  1  0.333747  0.679001  0.000000  1
