# generated using pymatgen
data_Tm4ZnCo6Ni7B6
_symmetry_space_group_name_H-M   'P 1'
_cell_length_a   4.99298100
_cell_length_b   4.99298178
_cell_length_c   12.90431900
_cell_angle_alpha   90.00000000
_cell_angle_beta   90.00000000
_cell_angle_gamma   120.00000145
_symmetry_Int_Tables_number   1
_chemical_formula_structural   Tm4ZnCo6Ni7B6
_chemical_formula_sum   'Tm4 Zn1 Co6 Ni7 B6'
_cell_volume   278.60288581
_cell_formula_units_Z   1
loop_
 _symmetry_equiv_pos_site_id
 _symmetry_equiv_pos_as_xyz
  1  'x, y, z'
loop_
 _atom_site_type_symbol
 _atom_site_label
 _atom_site_symmetry_multiplicity
 _atom_site_fract_x
 _atom_site_fract_y
 _atom_site_fract_z
 _atom_site_occupancy
  Tm  Tm0  1  0.000000  0.000000  0.000000  1
  Tm  Tm1  1  0.000000  0.000000  0.500000  1
  Tm  Tm2  1  0.000000  0.000000  0.736793  1
  Tm  Tm3  1  0.000000  0.000000  0.263207  1
  Zn  Zn4  1  0.666667  0.333333  0.000000  1
  Co  Co5  1  0.500165  0.499835  0.616586  1
  Co  Co6  1  0.500165  0.000331  0.616586  1
  Co  Co7  1  0.999669  0.499835  0.616586  1
  Co  Co8  1  0.500165  0.499835  0.383414  1
  Co  Co9  1  0.500165  0.000331  0.383414  1
  Co  Co10  1  0.999669  0.499835  0.383414  1
  Ni  Ni11  1  0.333333  0.666667  0.000000  1
  Ni  Ni12  1  0.498801  0.501199  0.842314  1
  Ni  Ni13  1  0.498801  0.997601  0.842314  1
  Ni  Ni14  1  0.002399  0.501199  0.842314  1
  Ni  Ni15  1  0.498801  0.501199  0.157686  1
  Ni  Ni16  1  0.498801  0.997601  0.157686  1
  Ni  Ni17  1  0.002399  0.501199  0.157686  1
  B  B18  1  0.666667  0.333333  0.500000  1
  B  B19  1  0.333333  0.666667  0.500000  1
  B  B20  1  0.666667  0.333333  0.729476  1
  B  B21  1  0.333333  0.666667  0.729590  1
  B  B22  1  0.333333  0.666667  0.270410  1
  B  B23  1  0.666667  0.333333  0.270524  1
