# generated using pymatgen
data_Ca2InAg6
_symmetry_space_group_name_H-M   'P 1'
_cell_length_a   5.64254902
_cell_length_b   5.68019778
_cell_length_c   14.11317900
_cell_angle_alpha   90.00000000
_cell_angle_beta   90.00000000
_cell_angle_gamma   119.30101270
_symmetry_Int_Tables_number   1
_chemical_formula_structural   Ca2InAg6
_chemical_formula_sum   'Ca4 In2 Ag12'
_cell_volume   394.46668005
_cell_formula_units_Z   2
loop_
 _symmetry_equiv_pos_site_id
 _symmetry_equiv_pos_as_xyz
  1  'x, y, z'
loop_
 _atom_site_type_symbol
 _atom_site_label
 _atom_site_symmetry_multiplicity
 _atom_site_fract_x
 _atom_site_fract_y
 _atom_site_fract_z
 _atom_site_occupancy
  Ca  Ca0  1  0.323865  0.321190  0.115206  1
  Ca  Ca1  1  0.676135  0.678810  0.615206  1
  Ca  Ca2  1  0.323873  0.318580  0.382836  1
  Ca  Ca3  1  0.676127  0.681420  0.882836  1
  In  In4  1  0.995892  0.665632  0.076186  1
  In  In5  1  0.004108  0.334368  0.576186  1
  Ag  Ag6  1  0.829847  0.831428  0.252161  1
  Ag  Ag7  1  0.170153  0.168572  0.752161  1
  Ag  Ag8  1  0.827468  0.327447  0.249824  1
  Ag  Ag9  1  0.172532  0.672553  0.749824  1
  Ag  Ag10  1  0.329741  0.827686  0.250485  1
  Ag  Ag11  1  0.670259  0.172314  0.750485  1
  Ag  Ag12  1  0.663246  0.991472  0.423216  1
  Ag  Ag13  1  0.336754  0.008528  0.923216  1
  Ag  Ag14  1  0.004257  0.334238  0.923780  1
  Ag  Ag15  1  0.995743  0.665762  0.423780  1
  Ag  Ag16  1  0.335945  0.010469  0.576306  1
  Ag  Ag17  1  0.664055  0.989531  0.076306  1
