# generated using pymatgen
data_Nd4CuNiRh2
_symmetry_space_group_name_H-M   'P 1'
_cell_length_a   4.41540800
_cell_length_b   5.68592213
_cell_length_c   7.35505780
_cell_angle_alpha   90.11504218
_cell_angle_beta   90.00000000
_cell_angle_gamma   90.00000000
_symmetry_Int_Tables_number   1
_chemical_formula_structural   Nd4CuNiRh2
_chemical_formula_sum   'Nd4 Cu1 Ni1 Rh2'
_cell_volume   184.65325280
_cell_formula_units_Z   1
loop_
 _symmetry_equiv_pos_site_id
 _symmetry_equiv_pos_as_xyz
  1  'x, y, z'
loop_
 _atom_site_type_symbol
 _atom_site_label
 _atom_site_symmetry_multiplicity
 _atom_site_fract_x
 _atom_site_fract_y
 _atom_site_fract_z
 _atom_site_occupancy
  Nd  Nd0  1  0.000000  0.631683  0.328412  1
  Nd  Nd1  1  0.000000  0.873684  0.813389  1
  Nd  Nd2  1  0.500000  0.364620  0.677100  1
  Nd  Nd3  1  0.500000  0.134817  0.183562  1
  Cu  Cu4  1  0.500000  0.629061  0.038222  1
  Ni  Ni5  1  0.000000  0.138793  0.455414  1
  Rh  Rh6  1  0.000000  0.369208  0.963400  1
  Rh  Rh7  1  0.500000  0.858134  0.540500  1
