# generated using pymatgen
data_Tb9ErSe10
_symmetry_space_group_name_H-M   'P 1'
_cell_length_a   7.04207246
_cell_length_b   8.16824137
_cell_length_c   9.17160200
_cell_angle_alpha   103.40758720
_cell_angle_beta   97.04803260
_cell_angle_gamma   106.64478864
_symmetry_Int_Tables_number   1
_chemical_formula_structural   Tb9ErSe10
_chemical_formula_sum   'Tb9 Er1 Se10'
_cell_volume   481.45194536
_cell_formula_units_Z   1
loop_
 _symmetry_equiv_pos_site_id
 _symmetry_equiv_pos_as_xyz
  1  'x, y, z'
loop_
 _atom_site_type_symbol
 _atom_site_label
 _atom_site_symmetry_multiplicity
 _atom_site_fract_x
 _atom_site_fract_y
 _atom_site_fract_z
 _atom_site_occupancy
  Tb  Tb0  1  0.798921  0.599589  0.598570  1
  Tb  Tb1  1  0.596525  0.197847  0.199055  1
  Tb  Tb2  1  0.403475  0.802153  0.800945  1
  Tb  Tb3  1  0.600114  0.701567  0.200791  1
  Tb  Tb4  1  0.201079  0.400411  0.401430  1
  Tb  Tb5  1  0.399886  0.298433  0.799209  1
  Tb  Tb6  1  0.000000  0.000000  0.000000  1
  Tb  Tb7  1  0.202382  0.901219  0.400537  1
  Tb  Tb8  1  0.797618  0.098781  0.599463  1
  Er  Er9  1  0.000000  0.500000  0.000000  1
  Se  Se10  1  0.702415  0.648257  0.900742  1
  Se  Se11  1  0.500314  0.250701  0.500127  1
  Se  Se12  1  0.703469  0.153623  0.901069  1
  Se  Se13  1  0.296531  0.846377  0.098931  1
  Se  Se14  1  0.499686  0.749299  0.499873  1
  Se  Se15  1  0.099264  0.450612  0.702855  1
  Se  Se16  1  0.297585  0.351743  0.099258  1
  Se  Se17  1  0.900757  0.050540  0.299879  1
  Se  Se18  1  0.099243  0.949460  0.700121  1
  Se  Se19  1  0.900736  0.549388  0.297145  1
