# generated using pymatgen
data_ZrNp(TaN2)3
_symmetry_space_group_name_H-M   'P 1'
_cell_length_a   5.34614500
_cell_length_b   5.34614492
_cell_length_c   10.89833700
_cell_angle_alpha   90.00000000
_cell_angle_beta   90.00000000
_cell_angle_gamma   120.00000669
_symmetry_Int_Tables_number   1
_chemical_formula_structural   ZrNp(TaN2)3
_chemical_formula_sum   'Zr2 Np2 Ta6 N12'
_cell_volume   269.75673485
_cell_formula_units_Z   2
loop_
 _symmetry_equiv_pos_site_id
 _symmetry_equiv_pos_as_xyz
  1  'x, y, z'
loop_
 _atom_site_type_symbol
 _atom_site_label
 _atom_site_symmetry_multiplicity
 _atom_site_fract_x
 _atom_site_fract_y
 _atom_site_fract_z
 _atom_site_occupancy
  Zr  Zr0  1  0.333333  0.666667  0.500000  1
  Zr  Zr1  1  0.666667  0.333333  0.500000  1
  Np  Np2  1  0.666667  0.333333  0.000000  1
  Np  Np3  1  0.333333  0.666667  0.000000  1
  Ta  Ta4  1  0.678243  0.678243  0.745353  1
  Ta  Ta5  1  0.321757  0.000000  0.745353  1
  Ta  Ta6  1  0.000000  0.321757  0.745353  1
  Ta  Ta7  1  0.321757  0.321757  0.254647  1
  Ta  Ta8  1  0.678243  0.000000  0.254647  1
  Ta  Ta9  1  0.000000  0.678243  0.254647  1
  N  N10  1  0.656315  0.656315  0.373613  1
  N  N11  1  0.343685  0.000000  0.373613  1
  N  N12  1  0.000000  0.343685  0.373613  1
  N  N13  1  0.343685  0.343685  0.626387  1
  N  N14  1  0.656315  0.000000  0.626387  1
  N  N15  1  0.000000  0.656315  0.626387  1
  N  N16  1  0.339081  0.339081  0.863043  1
  N  N17  1  0.660919  0.000000  0.863043  1
  N  N18  1  0.000000  0.660919  0.863043  1
  N  N19  1  0.660919  0.660919  0.136957  1
  N  N20  1  0.339081  0.000000  0.136957  1
  N  N21  1  0.000000  0.339081  0.136957  1
