# generated using pymatgen
data_Ca4Si4GeRh9
_symmetry_space_group_name_H-M   'P 1'
_cell_length_a   11.58950027
_cell_length_b   11.58949946
_cell_length_c   11.58950065
_cell_angle_alpha   28.27281139
_cell_angle_beta   28.27281673
_cell_angle_gamma   28.27281760
_symmetry_Int_Tables_number   1
_chemical_formula_structural   Ca4Si4GeRh9
_chemical_formula_sum   'Ca4 Si4 Ge1 Rh9'
_cell_volume   308.59691689
_cell_formula_units_Z   1
loop_
 _symmetry_equiv_pos_site_id
 _symmetry_equiv_pos_as_xyz
  1  'x, y, z'
loop_
 _atom_site_type_symbol
 _atom_site_label
 _atom_site_symmetry_multiplicity
 _atom_site_fract_x
 _atom_site_fract_y
 _atom_site_fract_z
 _atom_site_occupancy
  Ca  Ca0  1  0.949694  0.949694  0.949694  1
  Ca  Ca1  1  0.852206  0.852206  0.852206  1
  Ca  Ca2  1  0.147794  0.147794  0.147794  1
  Ca  Ca3  1  0.050306  0.050306  0.050306  1
  Si  Si4  1  0.278819  0.278819  0.278819  1
  Si  Si5  1  0.387346  0.387346  0.387346  1
  Si  Si6  1  0.721181  0.721181  0.721181  1
  Si  Si7  1  0.612654  0.612654  0.612654  1
  Ge  Ge8  1  0.500000  0.500000  0.500000  1
  Rh  Rh9  1  0.605365  0.605365  0.107086  1
  Rh  Rh10  1  0.892914  0.394635  0.394635  1
  Rh  Rh11  1  0.500000  0.000000  0.500000  1
  Rh  Rh12  1  0.394635  0.892914  0.394635  1
  Rh  Rh13  1  0.500000  0.500000  0.000000  1
  Rh  Rh14  1  0.107086  0.605365  0.605365  1
  Rh  Rh15  1  0.000000  0.500000  0.500000  1
  Rh  Rh16  1  0.394635  0.394635  0.892914  1
  Rh  Rh17  1  0.605365  0.107086  0.605365  1
