# generated using pymatgen
data_AlPPdPt4
_symmetry_space_group_name_H-M   'P 1'
_cell_length_a   3.92852300
_cell_length_b   3.96137700
_cell_length_c   6.87998400
_cell_angle_alpha   90.00000000
_cell_angle_beta   90.00000000
_cell_angle_gamma   90.00000000
_symmetry_Int_Tables_number   1
_chemical_formula_structural   AlPPdPt4
_chemical_formula_sum   'Al1 P1 Pd1 Pt4'
_cell_volume   107.06879232
_cell_formula_units_Z   1
loop_
 _symmetry_equiv_pos_site_id
 _symmetry_equiv_pos_as_xyz
  1  'x, y, z'
loop_
 _atom_site_type_symbol
 _atom_site_label
 _atom_site_symmetry_multiplicity
 _atom_site_fract_x
 _atom_site_fract_y
 _atom_site_fract_z
 _atom_site_occupancy
  Al  Al0  1  0.500000  0.500000  0.999661  1
  P  P1  1  0.000000  0.000000  0.499626  1
  Pd  Pd2  1  0.000000  0.500000  0.289026  1
  Pt  Pt3  1  0.000000  0.500000  0.710580  1
  Pt  Pt4  1  0.500000  0.000000  0.287348  1
  Pt  Pt5  1  0.500000  0.000000  0.712699  1
  Pt  Pt6  1  0.000000  0.000000  0.001060  1
