# generated using pymatgen
data_Li8Y8Sn3Bi5
_symmetry_space_group_name_H-M   'P 1'
_cell_length_a   9.57998527
_cell_length_b   9.57998548
_cell_length_c   7.22003228
_cell_angle_alpha   90.12980315
_cell_angle_beta   89.87019511
_cell_angle_gamma   119.92199412
_symmetry_Int_Tables_number   1
_chemical_formula_structural   Li8Y8Sn3Bi5
_chemical_formula_sum   'Li8 Y8 Sn3 Bi5'
_cell_volume   574.29999394
_cell_formula_units_Z   1
loop_
 _symmetry_equiv_pos_site_id
 _symmetry_equiv_pos_as_xyz
  1  'x, y, z'
loop_
 _atom_site_type_symbol
 _atom_site_label
 _atom_site_symmetry_multiplicity
 _atom_site_fract_x
 _atom_site_fract_y
 _atom_site_fract_z
 _atom_site_occupancy
  Li  Li0  1  0.169602  0.830398  0.200868  1
  Li  Li1  1  0.337369  0.167984  0.704906  1
  Li  Li2  1  0.832016  0.662631  0.704906  1
  Li  Li3  1  0.165448  0.335964  0.209108  1
  Li  Li4  1  0.664036  0.834552  0.209108  1
  Li  Li5  1  0.830706  0.169294  0.699925  1
  Li  Li6  1  0.332542  0.667458  0.810456  1
  Li  Li7  1  0.668589  0.331411  0.307413  1
  Y  Y8  1  0.510231  0.489769  0.990977  1
  Y  Y9  1  0.019912  0.507029  0.487476  1
  Y  Y10  1  0.492971  0.980088  0.487476  1
  Y  Y11  1  0.517172  0.024950  0.992105  1
  Y  Y12  1  0.975050  0.482828  0.992105  1
  Y  Y13  1  0.489933  0.510067  0.490500  1
  Y  Y14  1  0.997065  0.002935  0.984175  1
  Y  Y15  1  0.997690  0.002310  0.479578  1
  Sn  Sn16  1  0.833516  0.166484  0.248794  1
  Sn  Sn17  1  0.333949  0.666051  0.225570  1
  Sn  Sn18  1  0.665863  0.334137  0.725304  1
  Bi  Bi19  1  0.166275  0.833725  0.748822  1
  Bi  Bi20  1  0.332962  0.166560  0.247604  1
  Bi  Bi21  1  0.833440  0.667038  0.247604  1
  Bi  Bi22  1  0.166908  0.333245  0.747612  1
  Bi  Bi23  1  0.666755  0.833092  0.747612  1
