# generated using pymatgen
data_TbY4TaRuO12
_symmetry_space_group_name_H-M   'P 1'
_cell_length_a   6.86011637
_cell_length_b   6.86208353
_cell_length_c   7.48688303
_cell_angle_alpha   74.02188588
_cell_angle_beta   74.02469183
_cell_angle_gamma   50.57907755
_symmetry_Int_Tables_number   1
_chemical_formula_structural   TbY4TaRuO12
_chemical_formula_sum   'Tb1 Y4 Ta1 Ru1 O12'
_cell_volume   259.34025470
_cell_formula_units_Z   1
loop_
 _symmetry_equiv_pos_site_id
 _symmetry_equiv_pos_as_xyz
  1  'x, y, z'
loop_
 _atom_site_type_symbol
 _atom_site_label
 _atom_site_symmetry_multiplicity
 _atom_site_fract_x
 _atom_site_fract_y
 _atom_site_fract_z
 _atom_site_occupancy
  Tb  Tb0  1  0.316869  0.305250  0.325816  1
  Y  Y1  1  0.694689  0.682907  0.674562  1
  Y  Y2  1  0.701207  0.692202  0.138513  1
  Y  Y3  1  0.000245  0.999708  0.999860  1
  Y  Y4  1  0.307835  0.298775  0.861034  1
  Ta  Ta5  1  0.215431  0.784672  0.500080  1
  Ru  Ru6  1  0.752427  0.247551  0.500162  1
  O  O7  1  0.408209  0.898924  0.924834  1
  O  O8  1  0.579539  0.092136  0.584539  1
  O  O9  1  0.907253  0.421110  0.415917  1
  O  O10  1  0.100833  0.591884  0.074460  1
  O  O11  1  0.997630  0.001521  0.302239  1
  O  O12  1  0.492389  0.507234  0.683914  1
  O  O13  1  0.906265  0.402120  0.925906  1
  O  O14  1  0.099696  0.570490  0.583803  1
  O  O15  1  0.430350  0.899667  0.416647  1
  O  O16  1  0.597900  0.093415  0.073529  1
  O  O17  1  0.492655  0.507826  0.316425  1
  O  O18  1  0.998579  0.002607  0.697761  1
