# generated using pymatgen
data_KGa2Au3
_symmetry_space_group_name_H-M   'P 1'
_cell_length_a   5.63170500
_cell_length_b   7.14480300
_cell_length_c   13.60728700
_cell_angle_alpha   90.00000000
_cell_angle_beta   90.00000000
_cell_angle_gamma   90.00000000
_symmetry_Int_Tables_number   1
_chemical_formula_structural   KGa2Au3
_chemical_formula_sum   'K4 Ga8 Au12'
_cell_volume   547.52215990
_cell_formula_units_Z   4
loop_
 _symmetry_equiv_pos_site_id
 _symmetry_equiv_pos_as_xyz
  1  'x, y, z'
loop_
 _atom_site_type_symbol
 _atom_site_label
 _atom_site_symmetry_multiplicity
 _atom_site_fract_x
 _atom_site_fract_y
 _atom_site_fract_z
 _atom_site_occupancy
  K  K0  1  0.250000  0.106186  0.079545  1
  K  K1  1  0.250000  0.393814  0.579545  1
  K  K2  1  0.750000  0.893814  0.920455  1
  K  K3  1  0.750000  0.606186  0.420455  1
  Ga  Ga4  1  0.000363  0.904874  0.656078  1
  Ga  Ga5  1  0.499637  0.595126  0.156078  1
  Ga  Ga6  1  0.500363  0.095126  0.343922  1
  Ga  Ga7  1  0.999637  0.404874  0.843922  1
  Ga  Ga8  1  0.999637  0.095126  0.343922  1
  Ga  Ga9  1  0.500363  0.404874  0.843922  1
  Ga  Ga10  1  0.499637  0.904874  0.656078  1
  Ga  Ga11  1  0.000363  0.595126  0.156078  1
  Au  Au12  1  0.250000  0.113910  0.793620  1
  Au  Au13  1  0.250000  0.386090  0.293620  1
  Au  Au14  1  0.750000  0.886090  0.206380  1
  Au  Au15  1  0.750000  0.613910  0.706380  1
  Au  Au16  1  0.250000  0.713571  0.796074  1
  Au  Au17  1  0.250000  0.786429  0.296074  1
  Au  Au18  1  0.750000  0.286429  0.203926  1
  Au  Au19  1  0.750000  0.213571  0.703926  1
  Au  Au20  1  0.250000  0.596404  0.994500  1
  Au  Au21  1  0.250000  0.903596  0.494500  1
  Au  Au22  1  0.750000  0.403596  0.005500  1
  Au  Au23  1  0.750000  0.096404  0.505500  1
