# generated using pymatgen
data_Dy12ZnCo3SiBi
_symmetry_space_group_name_H-M   'P 1'
_cell_length_a   8.41735128
_cell_length_b   8.41735104
_cell_length_c   8.41735048
_cell_angle_alpha   112.98103908
_cell_angle_beta   110.34540127
_cell_angle_gamma   105.18251635
_symmetry_Int_Tables_number   1
_chemical_formula_structural   Dy12ZnCo3SiBi
_chemical_formula_sum   'Dy12 Zn1 Co3 Si1 Bi1'
_cell_volume   456.92432554
_cell_formula_units_Z   1
loop_
 _symmetry_equiv_pos_site_id
 _symmetry_equiv_pos_as_xyz
  1  'x, y, z'
loop_
 _atom_site_type_symbol
 _atom_site_label
 _atom_site_symmetry_multiplicity
 _atom_site_fract_x
 _atom_site_fract_y
 _atom_site_fract_z
 _atom_site_occupancy
  Dy  Dy0  1  0.817159  0.714345  0.531504  1
  Dy  Dy1  1  0.184348  0.282967  0.467315  1
  Dy  Dy2  1  0.184348  0.717033  0.901381  1
  Dy  Dy3  1  0.817159  0.285655  0.102814  1
  Dy  Dy4  1  0.690230  0.378640  0.684752  1
  Dy  Dy5  1  0.306112  0.621360  0.311590  1
  Dy  Dy6  1  0.690230  0.005478  0.311590  1
  Dy  Dy7  1  0.306112  0.994522  0.684752  1
  Dy  Dy8  1  0.575298  0.771903  0.803395  1
  Dy  Dy9  1  0.423426  0.221751  0.201675  1
  Dy  Dy10  1  0.979924  0.778249  0.201675  1
  Dy  Dy11  1  0.031492  0.228097  0.803395  1
  Zn  Zn12  1  0.001610  0.000000  0.001610  1
  Co  Co13  1  0.358906  0.000000  0.358906  1
  Co  Co14  1  0.109465  0.609470  0.499994  1
  Co  Co15  1  0.890524  0.390530  0.499994  1
  Si  Si16  1  0.628710  0.000000  0.628710  1
  Bi  Bi17  1  0.504948  0.500000  0.004948  1
