# generated using pymatgen
data_Li8Si3Sn2Pd3
_symmetry_space_group_name_H-M   'P 1'
_cell_length_a   6.11266737
_cell_length_b   6.30329100
_cell_length_c   6.11266737
_cell_angle_alpha   90.00000000
_cell_angle_beta   89.78889473
_cell_angle_gamma   90.00000000
_symmetry_Int_Tables_number   1
_chemical_formula_structural   Li8Si3Sn2Pd3
_chemical_formula_sum   'Li8 Si3 Sn2 Pd3'
_cell_volume   235.51899377
_cell_formula_units_Z   1
loop_
 _symmetry_equiv_pos_site_id
 _symmetry_equiv_pos_as_xyz
  1  'x, y, z'
loop_
 _atom_site_type_symbol
 _atom_site_label
 _atom_site_symmetry_multiplicity
 _atom_site_fract_x
 _atom_site_fract_y
 _atom_site_fract_z
 _atom_site_occupancy
  Li  Li0  1  0.249100  0.751354  0.249100  1
  Li  Li1  1  0.751884  0.248761  0.248116  1
  Li  Li2  1  0.248116  0.248761  0.751884  1
  Li  Li3  1  0.000000  0.976564  0.000000  1
  Li  Li4  1  0.000000  0.526097  0.500000  1
  Li  Li5  1  0.750900  0.751354  0.750900  1
  Li  Li6  1  0.500000  0.973153  0.500000  1
  Li  Li7  1  0.500000  0.526097  0.000000  1
  Si  Si8  1  0.500000  0.526687  0.500000  1
  Si  Si9  1  0.752065  0.751825  0.247935  1
  Si  Si10  1  0.247935  0.751825  0.752065  1
  Sn  Sn11  1  0.247522  0.248341  0.247522  1
  Sn  Sn12  1  0.752478  0.248341  0.752478  1
  Pd  Pd13  1  0.000000  0.970117  0.500000  1
  Pd  Pd14  1  0.000000  0.530604  0.000000  1
  Pd  Pd15  1  0.500000  0.970117  0.000000  1
