# generated using pymatgen
data_Lu8B24MoRuRh2
_symmetry_space_group_name_H-M   'P 1'
_cell_length_a   3.60139000
_cell_length_b   9.05684177
_cell_length_c   11.43308337
_cell_angle_alpha   90.32581100
_cell_angle_beta   90.00000000
_cell_angle_gamma   90.00000000
_symmetry_Int_Tables_number   1
_chemical_formula_structural   Lu8B24MoRuRh2
_chemical_formula_sum   'Lu8 B24 Mo1 Ru1 Rh2'
_cell_volume   372.90935944
_cell_formula_units_Z   1
loop_
 _symmetry_equiv_pos_site_id
 _symmetry_equiv_pos_as_xyz
  1  'x, y, z'
loop_
 _atom_site_type_symbol
 _atom_site_label
 _atom_site_symmetry_multiplicity
 _atom_site_fract_x
 _atom_site_fract_y
 _atom_site_fract_z
 _atom_site_occupancy
  Lu  Lu0  1  0.500000  0.319637  0.413789  1
  Lu  Lu1  1  0.500000  0.682702  0.589436  1
  Lu  Lu2  1  0.500000  0.176062  0.915474  1
  Lu  Lu3  1  0.500000  0.823187  0.082678  1
  Lu  Lu4  1  0.500000  0.441655  0.127571  1
  Lu  Lu5  1  0.500000  0.555994  0.873944  1
  Lu  Lu6  1  0.500000  0.054865  0.626369  1
  Lu  Lu7  1  0.500000  0.944897  0.371195  1
  B  B8  1  0.000000  0.105964  0.470547  1
  B  B9  1  0.000000  0.894727  0.526948  1
  B  B10  1  0.000000  0.394468  0.971562  1
  B  B11  1  0.000000  0.602860  0.030066  1
  B  B12  1  0.000000  0.131825  0.316095  1
  B  B13  1  0.000000  0.868630  0.682108  1
  B  B14  1  0.000000  0.367579  0.816895  1
  B  B15  1  0.000000  0.631835  0.182684  1
  B  B16  1  0.000000  0.054108  0.067589  1
  B  B17  1  0.000000  0.949002  0.935952  1
  B  B18  1  0.000000  0.446452  0.565034  1
  B  B19  1  0.000000  0.553936  0.435038  1
  B  B20  1  0.000000  0.481510  0.288479  1
  B  B21  1  0.000000  0.517906  0.711646  1
  B  B22  1  0.000000  0.021726  0.786344  1
  B  B23  1  0.000000  0.982469  0.213230  1
  B  B24  1  0.000000  0.248663  0.080756  1
  B  B25  1  0.000000  0.748587  0.921935  1
  B  B26  1  0.000000  0.250523  0.578056  1
  B  B27  1  0.000000  0.749852  0.421310  1
  B  B28  1  0.000000  0.293086  0.235830  1
  B  B29  1  0.000000  0.703923  0.763005  1
  B  B30  1  0.000000  0.208080  0.734898  1
  B  B31  1  0.000000  0.792236  0.263250  1
  Mo  Mo32  1  0.500000  0.861916  0.820305  1
  Ru  Ru33  1  0.500000  0.139712  0.180697  1
  Rh  Rh34  1  0.500000  0.361660  0.678390  1
  Rh  Rh35  1  0.500000  0.637765  0.320894  1
