# generated using pymatgen
data_Y2Sb5
_symmetry_space_group_name_H-M   'P 1'
_cell_length_a   4.23813000
_cell_length_b   13.19624302
_cell_length_c   14.70903483
_cell_angle_alpha   77.64544906
_cell_angle_beta   90.00000000
_cell_angle_gamma   90.00000000
_symmetry_Int_Tables_number   1
_chemical_formula_structural   Y2Sb5
_chemical_formula_sum   'Y8 Sb20'
_cell_volume   803.58757967
_cell_formula_units_Z   4
loop_
 _symmetry_equiv_pos_site_id
 _symmetry_equiv_pos_as_xyz
  1  'x, y, z'
loop_
 _atom_site_type_symbol
 _atom_site_label
 _atom_site_symmetry_multiplicity
 _atom_site_fract_x
 _atom_site_fract_y
 _atom_site_fract_z
 _atom_site_occupancy
  Y  Y0  1  0.250000  0.393785  0.771208  1
  Y  Y1  1  0.750000  0.606215  0.228792  1
  Y  Y2  1  0.250000  0.663016  0.855894  1
  Y  Y3  1  0.750000  0.336984  0.144106  1
  Y  Y4  1  0.250000  0.669754  0.577316  1
  Y  Y5  1  0.750000  0.330246  0.422684  1
  Y  Y6  1  0.250000  0.952932  0.360363  1
  Y  Y7  1  0.750000  0.047068  0.639637  1
  Sb  Sb8  1  0.250000  0.142507  0.780130  1
  Sb  Sb9  1  0.750000  0.857493  0.219870  1
  Sb  Sb10  1  0.250000  0.142920  0.482376  1
  Sb  Sb11  1  0.750000  0.857080  0.517624  1
  Sb  Sb12  1  0.250000  0.151080  0.172459  1
  Sb  Sb13  1  0.750000  0.848920  0.827541  1
  Sb  Sb14  1  0.250000  0.419833  0.975744  1
  Sb  Sb15  1  0.750000  0.580167  0.024256  1
  Sb  Sb16  1  0.750000  0.030233  0.907189  1
  Sb  Sb17  1  0.250000  0.969767  0.092811  1
  Sb  Sb18  1  0.750000  0.138861  0.321623  1
  Sb  Sb19  1  0.250000  0.861139  0.678377  1
  Sb  Sb20  1  0.750000  0.279633  0.938567  1
  Sb  Sb21  1  0.250000  0.720367  0.061433  1
  Sb  Sb22  1  0.750000  0.286327  0.653186  1
  Sb  Sb23  1  0.250000  0.713673  0.346814  1
  Sb  Sb24  1  0.750000  0.576076  0.734742  1
  Sb  Sb25  1  0.250000  0.423924  0.265258  1
  Sb  Sb26  1  0.750000  0.575139  0.447015  1
  Sb  Sb27  1  0.250000  0.424861  0.552985  1
