# generated using pymatgen
data_Dy4Er6BiPb7
_symmetry_space_group_name_H-M   'P 1'
_cell_length_a   8.23630300
_cell_length_b   8.28196955
_cell_length_c   15.54460100
_cell_angle_alpha   90.26643908
_cell_angle_beta   90.00000000
_cell_angle_gamma   90.00000000
_symmetry_Int_Tables_number   1
_chemical_formula_structural   Dy4Er6BiPb7
_chemical_formula_sum   'Dy8 Er12 Bi2 Pb14'
_cell_volume   1060.32945956
_cell_formula_units_Z   2
loop_
 _symmetry_equiv_pos_site_id
 _symmetry_equiv_pos_as_xyz
  1  'x, y, z'
loop_
 _atom_site_type_symbol
 _atom_site_label
 _atom_site_symmetry_multiplicity
 _atom_site_fract_x
 _atom_site_fract_y
 _atom_site_fract_z
 _atom_site_occupancy
  Dy  Dy0  1  0.544906  0.330815  0.896588  1
  Dy  Dy1  1  0.044906  0.169185  0.603412  1
  Dy  Dy2  1  0.454507  0.675291  0.397096  1
  Dy  Dy3  1  0.954507  0.824709  0.102904  1
  Dy  Dy4  1  0.458833  0.669408  0.101843  1
  Dy  Dy5  1  0.958833  0.830592  0.398157  1
  Dy  Dy6  1  0.537618  0.323240  0.602537  1
  Dy  Dy7  1  0.037618  0.176760  0.897463  1
  Er  Er8  1  0.379628  0.839774  0.878049  1
  Er  Er9  1  0.879628  0.660226  0.621951  1
  Er  Er10  1  0.621180  0.155285  0.377921  1
  Er  Er11  1  0.121180  0.344715  0.122079  1
  Er  Er12  1  0.625778  0.158568  0.121554  1
  Er  Er13  1  0.125778  0.341432  0.378446  1
  Er  Er14  1  0.377017  0.842261  0.621629  1
  Er  Er15  1  0.877017  0.657739  0.878371  1
  Er  Er16  1  0.209353  0.502601  0.749583  1
  Er  Er17  1  0.709353  0.997399  0.750417  1
  Er  Er18  1  0.790316  0.497596  0.248271  1
  Er  Er19  1  0.290316  0.002404  0.251729  1
  Bi  Bi20  1  0.278641  0.029650  0.044897  1
  Bi  Bi21  1  0.778641  0.470350  0.455103  1
  Pb  Pb22  1  0.720558  0.969454  0.543687  1
  Pb  Pb23  1  0.220558  0.530546  0.956313  1
  Pb  Pb24  1  0.720714  0.968591  0.956519  1
  Pb  Pb25  1  0.220714  0.531409  0.543481  1
  Pb  Pb26  1  0.281203  0.031785  0.456752  1
  Pb  Pb27  1  0.781203  0.468215  0.043248  1
  Pb  Pb28  1  0.572563  0.629307  0.748248  1
  Pb  Pb29  1  0.072563  0.870693  0.751752  1
  Pb  Pb30  1  0.428835  0.369842  0.249794  1
  Pb  Pb31  1  0.928835  0.130158  0.250206  1
  Pb  Pb32  1  0.352078  0.153063  0.751438  1
  Pb  Pb33  1  0.852078  0.346937  0.748562  1
  Pb  Pb34  1  0.646273  0.846064  0.249515  1
  Pb  Pb35  1  0.146273  0.653936  0.250485  1
