# generated using pymatgen
data_Y8Tm2(TlBi)3
_symmetry_space_group_name_H-M   'P 1'
_cell_length_a   9.13355000
_cell_length_b   9.13354972
_cell_length_c   6.48713700
_cell_angle_alpha   90.00000000
_cell_angle_beta   90.00000000
_cell_angle_gamma   120.00000102
_symmetry_Int_Tables_number   1
_chemical_formula_structural   Y8Tm2(TlBi)3
_chemical_formula_sum   'Y8 Tm2 Tl3 Bi3'
_cell_volume   468.66541349
_cell_formula_units_Z   1
loop_
 _symmetry_equiv_pos_site_id
 _symmetry_equiv_pos_as_xyz
  1  'x, y, z'
loop_
 _atom_site_type_symbol
 _atom_site_label
 _atom_site_symmetry_multiplicity
 _atom_site_fract_x
 _atom_site_fract_y
 _atom_site_fract_z
 _atom_site_occupancy
  Y  Y0  1  0.333333  0.666667  0.494810  1
  Y  Y1  1  0.666667  0.333333  0.494810  1
  Y  Y2  1  0.761341  0.761341  0.750522  1
  Y  Y3  1  0.238659  0.000000  0.750522  1
  Y  Y4  1  0.000000  0.238659  0.750522  1
  Y  Y5  1  0.238923  0.238923  0.249544  1
  Y  Y6  1  0.761077  0.000000  0.249544  1
  Y  Y7  1  0.000000  0.761077  0.249544  1
  Tm  Tm8  1  0.666667  0.333333  0.006004  1
  Tm  Tm9  1  0.333333  0.666667  0.006004  1
  Tl  Tl10  1  0.607323  0.607323  0.247892  1
  Tl  Tl11  1  0.392677  0.000000  0.247892  1
  Tl  Tl12  1  0.000000  0.392677  0.247892  1
  Bi  Bi13  1  0.394144  0.394144  0.751499  1
  Bi  Bi14  1  0.605856  0.000000  0.751499  1
  Bi  Bi15  1  0.000000  0.605856  0.751499  1
