# generated using pymatgen
data_Dy13Ho7CoBi8Rh3
_symmetry_space_group_name_H-M   'P 1'
_cell_length_a   8.01908280
_cell_length_b   8.98515901
_cell_length_c   12.45283622
_cell_angle_alpha   90.00399954
_cell_angle_beta   89.83057070
_cell_angle_gamma   90.00437273
_symmetry_Int_Tables_number   1
_chemical_formula_structural   Dy13Ho7CoBi8Rh3
_chemical_formula_sum   'Dy13 Ho7 Co1 Bi8 Rh3'
_cell_volume   897.25696963
_cell_formula_units_Z   1
loop_
 _symmetry_equiv_pos_site_id
 _symmetry_equiv_pos_as_xyz
  1  'x, y, z'
loop_
 _atom_site_type_symbol
 _atom_site_label
 _atom_site_symmetry_multiplicity
 _atom_site_fract_x
 _atom_site_fract_y
 _atom_site_fract_z
 _atom_site_occupancy
  Dy  Dy0  1  0.345617  0.750027  0.699663  1
  Dy  Dy1  1  0.657604  0.249993  0.294106  1
  Dy  Dy2  1  0.842806  0.249988  0.794010  1
  Dy  Dy3  1  0.157270  0.750002  0.205592  1
  Dy  Dy4  1  0.879697  0.750004  0.806207  1
  Dy  Dy5  1  0.120821  0.249997  0.193339  1
  Dy  Dy6  1  0.379106  0.249981  0.693522  1
  Dy  Dy7  1  0.614730  0.750045  0.311645  1
  Dy  Dy8  1  0.676727  0.545195  0.564090  1
  Dy  Dy9  1  0.051655  0.750032  0.498870  1
  Dy  Dy10  1  0.950076  0.249971  0.501322  1
  Dy  Dy11  1  0.547710  0.250006  0.000788  1
  Dy  Dy12  1  0.451022  0.750002  0.998317  1
  Ho  Ho13  1  0.324093  0.465386  0.436482  1
  Ho  Ho14  1  0.177714  0.457491  0.934358  1
  Ho  Ho15  1  0.324182  0.034615  0.436522  1
  Ho  Ho16  1  0.821856  0.541756  0.065562  1
  Ho  Ho17  1  0.676469  0.954814  0.564046  1
  Ho  Ho18  1  0.821855  0.958252  0.065570  1
  Ho  Ho19  1  0.177712  0.042510  0.934364  1
  Co  Co20  1  0.432345  0.750094  0.491667  1
  Bi  Bi21  1  0.571042  0.509884  0.826161  1
  Bi  Bi22  1  0.428983  0.490959  0.173781  1
  Bi  Bi23  1  0.071880  0.490532  0.672834  1
  Bi  Bi24  1  0.428976  0.009031  0.173776  1
  Bi  Bi25  1  0.928411  0.510106  0.327378  1
  Bi  Bi26  1  0.571063  0.990111  0.826117  1
  Bi  Bi27  1  0.928424  0.989889  0.327385  1
  Bi  Bi28  1  0.071801  0.009455  0.672804  1
  Rh  Rh29  1  0.070135  0.749992  0.990575  1
  Rh  Rh30  1  0.928726  0.250007  0.009993  1
  Rh  Rh31  1  0.569490  0.249874  0.509153  1
