# generated using pymatgen
data_Y4Ho(SiHg)2
_symmetry_space_group_name_H-M   'P 1'
_cell_length_a   8.79372918
_cell_length_b   8.79372916
_cell_length_c   7.57771300
_cell_angle_alpha   90.00000000
_cell_angle_beta   90.00000000
_cell_angle_gamma   129.14967367
_symmetry_Int_Tables_number   1
_chemical_formula_structural   Y4Ho(SiHg)2
_chemical_formula_sum   'Y8 Ho2 Si4 Hg4'
_cell_volume   454.42870506
_cell_formula_units_Z   2
loop_
 _symmetry_equiv_pos_site_id
 _symmetry_equiv_pos_as_xyz
  1  'x, y, z'
loop_
 _atom_site_type_symbol
 _atom_site_label
 _atom_site_symmetry_multiplicity
 _atom_site_fract_x
 _atom_site_fract_y
 _atom_site_fract_z
 _atom_site_occupancy
  Y  Y0  1  0.053654  0.308358  0.324495  1
  Y  Y1  1  0.946346  0.691642  0.675505  1
  Y  Y2  1  0.446346  0.191642  0.824495  1
  Y  Y3  1  0.808358  0.553654  0.175505  1
  Y  Y4  1  0.553654  0.808358  0.175505  1
  Y  Y5  1  0.191642  0.446346  0.824495  1
  Y  Y6  1  0.691642  0.946346  0.675505  1
  Y  Y7  1  0.308358  0.053654  0.324495  1
  Ho  Ho8  1  0.000000  0.000000  0.000000  1
  Ho  Ho9  1  0.500000  0.500000  0.500000  1
  Si  Si10  1  0.379961  0.379961  0.122201  1
  Si  Si11  1  0.620039  0.620039  0.877799  1
  Si  Si12  1  0.120039  0.120039  0.622201  1
  Si  Si13  1  0.879961  0.879961  0.377799  1
  Hg  Hg14  1  0.782761  0.217239  0.000000  1
  Hg  Hg15  1  0.217239  0.782761  0.000000  1
  Hg  Hg16  1  0.717239  0.282761  0.500000  1
  Hg  Hg17  1  0.282761  0.717239  0.500000  1
