# generated using pymatgen
data_CeNbB6Os
_symmetry_space_group_name_H-M   'P 1'
_cell_length_a   3.53699000
_cell_length_b   9.06422700
_cell_length_c   11.41221400
_cell_angle_alpha   90.00000000
_cell_angle_beta   90.00000000
_cell_angle_gamma   90.00000000
_symmetry_Int_Tables_number   1
_chemical_formula_structural   CeNbB6Os
_chemical_formula_sum   'Ce4 Nb4 B24 Os4'
_cell_volume   365.87649675
_cell_formula_units_Z   4
loop_
 _symmetry_equiv_pos_site_id
 _symmetry_equiv_pos_as_xyz
  1  'x, y, z'
loop_
 _atom_site_type_symbol
 _atom_site_label
 _atom_site_symmetry_multiplicity
 _atom_site_fract_x
 _atom_site_fract_y
 _atom_site_fract_z
 _atom_site_occupancy
  Ce  Ce0  1  0.000000  0.322604  0.413244  1
  Ce  Ce1  1  0.000000  0.677396  0.586756  1
  Ce  Ce2  1  0.000000  0.822604  0.086756  1
  Ce  Ce3  1  0.000000  0.177396  0.913244  1
  Nb  Nb4  1  0.000000  0.946751  0.376100  1
  Nb  Nb5  1  0.000000  0.053249  0.623901  1
  Nb  Nb6  1  0.000000  0.446751  0.123900  1
  Nb  Nb7  1  0.000000  0.553249  0.876099  1
  B  B8  1  0.500000  0.554830  0.433212  1
  B  B9  1  0.500000  0.445170  0.566788  1
  B  B10  1  0.500000  0.054830  0.066788  1
  B  B11  1  0.500000  0.945170  0.933212  1
  B  B12  1  0.500000  0.754447  0.419052  1
  B  B13  1  0.500000  0.245553  0.580948  1
  B  B14  1  0.500000  0.254447  0.080948  1
  B  B15  1  0.500000  0.745553  0.919052  1
  B  B16  1  0.500000  0.797824  0.264634  1
  B  B17  1  0.500000  0.202176  0.735366  1
  B  B18  1  0.500000  0.297823  0.235366  1
  B  B19  1  0.500000  0.702176  0.764634  1
  B  B20  1  0.500000  0.629537  0.181120  1
  B  B21  1  0.500000  0.370463  0.818880  1
  B  B22  1  0.500000  0.129537  0.318880  1
  B  B23  1  0.500000  0.870463  0.681120  1
  B  B24  1  0.500000  0.981122  0.215305  1
  B  B25  1  0.500000  0.018878  0.784695  1
  B  B26  1  0.500000  0.481122  0.284695  1
  B  B27  1  0.500000  0.518878  0.715305  1
  B  B28  1  0.500000  0.600022  0.026799  1
  B  B29  1  0.500000  0.399978  0.973201  1
  B  B30  1  0.500000  0.100022  0.473201  1
  B  B31  1  0.500000  0.899978  0.526799  1
  Os  Os32  1  0.000000  0.642803  0.317688  1
  Os  Os33  1  0.000000  0.357197  0.682312  1
  Os  Os34  1  0.000000  0.142803  0.182312  1
  Os  Os35  1  0.000000  0.857197  0.817688  1
