# generated using pymatgen
data_DyMn(TeBr2)4
_symmetry_space_group_name_H-M   'P 1'
_cell_length_a   7.22978242
_cell_length_b   7.78901100
_cell_length_c   9.62829237
_cell_angle_alpha   95.64505695
_cell_angle_beta   97.82214492
_cell_angle_gamma   101.42599445
_symmetry_Int_Tables_number   1
_chemical_formula_structural   DyMn(TeBr2)4
_chemical_formula_sum   'Dy1 Mn1 Te4 Br8'
_cell_volume   522.10265913
_cell_formula_units_Z   1
loop_
 _symmetry_equiv_pos_site_id
 _symmetry_equiv_pos_as_xyz
  1  'x, y, z'
loop_
 _atom_site_type_symbol
 _atom_site_label
 _atom_site_symmetry_multiplicity
 _atom_site_fract_x
 _atom_site_fract_y
 _atom_site_fract_z
 _atom_site_occupancy
  Dy  Dy0  1  0.720015  0.936627  0.414916  1
  Mn  Mn1  1  0.280058  0.067632  0.602943  1
  Te  Te2  1  0.924115  0.621417  0.839328  1
  Te  Te3  1  0.086326  0.377575  0.150773  1
  Te  Te4  1  0.769219  0.325205  0.948452  1
  Te  Te5  1  0.245374  0.669062  0.038639  1
  Br  Br6  1  0.546438  0.593303  0.293936  1
  Br  Br7  1  0.463445  0.366333  0.689453  1
  Br  Br8  1  0.765914  0.995504  0.137815  1
  Br  Br9  1  0.195250  0.030300  0.835853  1
  Br  Br10  1  0.585724  0.900325  0.670866  1
  Br  Br11  1  0.387389  0.084233  0.365692  1
  Br  Br12  1  0.046012  0.785379  0.499341  1
  Br  Br13  1  0.984721  0.247105  0.511993  1
