# generated using pymatgen
data_Nd2Bi2Te3WO16
_symmetry_space_group_name_H-M   'P 1'
_cell_length_a   7.10174230
_cell_length_b   7.16413549
_cell_length_c   10.35847533
_cell_angle_alpha   66.54761712
_cell_angle_beta   66.88652096
_cell_angle_gamma   47.23656854
_symmetry_Int_Tables_number   1
_chemical_formula_structural   Nd2Bi2Te3WO16
_chemical_formula_sum   'Nd2 Bi2 Te3 W1 O16'
_cell_volume   349.04972764
_cell_formula_units_Z   1
loop_
 _symmetry_equiv_pos_site_id
 _symmetry_equiv_pos_as_xyz
  1  'x, y, z'
loop_
 _atom_site_type_symbol
 _atom_site_label
 _atom_site_symmetry_multiplicity
 _atom_site_fract_x
 _atom_site_fract_y
 _atom_site_fract_z
 _atom_site_occupancy
  Nd  Nd0  1  0.063283  0.938013  0.498915  1
  Nd  Nd1  1  0.945973  0.054463  0.998771  1
  Bi  Bi2  1  0.668122  0.788312  0.901834  1
  Bi  Bi3  1  0.223618  0.338108  0.091031  1
  Te  Te4  1  0.502026  0.494117  0.249122  1
  Te  Te5  1  0.367034  0.200680  0.621138  1
  Te  Te6  1  0.819568  0.626187  0.372588  1
  W  W7  1  0.512424  0.499218  0.749176  1
  O  O8  1  0.792143  0.331054  0.601613  1
  O  O9  1  0.648013  0.208081  0.408802  1
  O  O10  1  0.190670  0.655919  0.901703  1
  O  O11  1  0.347710  0.802951  0.097303  1
  O  O12  1  0.708728  0.491153  0.835727  1
  O  O13  1  0.515078  0.288757  0.161790  1
  O  O14  1  0.293804  0.490375  0.662066  1
  O  O15  1  0.511887  0.696578  0.338735  1
  O  O16  1  0.906515  0.723809  0.165403  1
  O  O17  1  0.280085  0.090462  0.834193  1
  O  O18  1  0.083672  0.278209  0.344768  1
  O  O19  1  0.718145  0.926414  0.655272  1
  O  O20  1  0.156908  0.642214  0.368971  1
  O  O21  1  0.362218  0.829684  0.629791  1
  O  O22  1  0.842040  0.363366  0.125094  1
  O  O23  1  0.620134  0.162076  0.886192  1
