# generated using pymatgen
data_La4B4Ir9Pt
_symmetry_space_group_name_H-M   'P 1'
_cell_length_a   11.10578489
_cell_length_b   11.10578492
_cell_length_c   11.10578661
_cell_angle_alpha   29.26076391
_cell_angle_beta   29.26076418
_cell_angle_gamma   29.26076648
_symmetry_Int_Tables_number   1
_chemical_formula_structural   La4B4Ir9Pt
_chemical_formula_sum   'La4 B4 Ir9 Pt1'
_cell_volume   289.56113744
_cell_formula_units_Z   1
loop_
 _symmetry_equiv_pos_site_id
 _symmetry_equiv_pos_as_xyz
  1  'x, y, z'
loop_
 _atom_site_type_symbol
 _atom_site_label
 _atom_site_symmetry_multiplicity
 _atom_site_fract_x
 _atom_site_fract_y
 _atom_site_fract_z
 _atom_site_occupancy
  La  La0  1  0.151233  0.151233  0.151233  1
  La  La1  1  0.950280  0.950280  0.950280  1
  La  La2  1  0.848767  0.848767  0.848767  1
  La  La3  1  0.049720  0.049720  0.049720  1
  B  B4  1  0.618107  0.618107  0.618107  1
  B  B5  1  0.716881  0.716881  0.716881  1
  B  B6  1  0.381893  0.381893  0.381893  1
  B  B7  1  0.283119  0.283119  0.283119  1
  Ir  Ir8  1  0.409206  0.899410  0.409206  1
  Ir  Ir9  1  0.899410  0.409206  0.409206  1
  Ir  Ir10  1  0.500000  0.500000  0.000000  1
  Ir  Ir11  1  0.500000  0.000000  0.500000  1
  Ir  Ir12  1  0.000000  0.500000  0.500000  1
  Ir  Ir13  1  0.590794  0.100590  0.590794  1
  Ir  Ir14  1  0.590794  0.590794  0.100590  1
  Ir  Ir15  1  0.100590  0.590794  0.590794  1
  Ir  Ir16  1  0.409206  0.409206  0.899410  1
  Pt  Pt17  1  0.500000  0.500000  0.500000  1
