# generated using pymatgen
data_YbHf2(USb2)5
_symmetry_space_group_name_H-M   'P 1'
_cell_length_a   9.24032600
_cell_length_b   9.22975467
_cell_length_c   6.22607700
_cell_angle_alpha   90.00000000
_cell_angle_beta   90.00000000
_cell_angle_gamma   120.03789523
_symmetry_Int_Tables_number   1
_chemical_formula_structural   YbHf2(USb2)5
_chemical_formula_sum   'Yb1 Hf2 U5 Sb10'
_cell_volume   459.68105422
_cell_formula_units_Z   1
loop_
 _symmetry_equiv_pos_site_id
 _symmetry_equiv_pos_as_xyz
  1  'x, y, z'
loop_
 _atom_site_type_symbol
 _atom_site_label
 _atom_site_symmetry_multiplicity
 _atom_site_fract_x
 _atom_site_fract_y
 _atom_site_fract_z
 _atom_site_occupancy
  Yb  Yb0  1  0.381132  0.000000  0.750000  1
  Hf  Hf1  1  0.999192  0.000000  0.501448  1
  Hf  Hf2  1  0.999192  0.000000  0.998552  1
  U  U3  1  0.386930  0.382739  0.250000  1
  U  U4  1  0.004191  0.617261  0.250000  1
  U  U5  1  0.000333  0.389603  0.750000  1
  U  U6  1  0.610730  0.610397  0.750000  1
  U  U7  1  0.616545  0.000000  0.250000  1
  Sb  Sb8  1  0.334622  0.663718  0.498563  1
  Sb  Sb9  1  0.670905  0.336282  0.001437  1
  Sb  Sb10  1  0.670905  0.336282  0.498563  1
  Sb  Sb11  1  0.334622  0.663718  0.001437  1
  Sb  Sb12  1  0.728674  0.000000  0.750000  1
  Sb  Sb13  1  0.730136  0.729503  0.250000  1
  Sb  Sb14  1  0.000634  0.270497  0.250000  1
  Sb  Sb15  1  0.996184  0.728593  0.750000  1
  Sb  Sb16  1  0.267481  0.000000  0.250000  1
  Sb  Sb17  1  0.267592  0.271407  0.750000  1
