# generated using pymatgen
data_NdThZnSi3
_symmetry_space_group_name_H-M   'P 1'
_cell_length_a   4.22200848
_cell_length_b   4.22239143
_cell_length_c   7.62914767
_cell_angle_alpha   73.93500866
_cell_angle_beta   73.93649057
_cell_angle_gamma   89.99999434
_symmetry_Int_Tables_number   1
_chemical_formula_structural   NdThZnSi3
_chemical_formula_sum   'Nd1 Th1 Zn1 Si3'
_cell_volume   125.15804825
_cell_formula_units_Z   1
loop_
 _symmetry_equiv_pos_site_id
 _symmetry_equiv_pos_as_xyz
  1  'x, y, z'
loop_
 _atom_site_type_symbol
 _atom_site_label
 _atom_site_symmetry_multiplicity
 _atom_site_fract_x
 _atom_site_fract_y
 _atom_site_fract_z
 _atom_site_occupancy
  Nd  Nd0  1  0.131250  0.381250  0.737500  1
  Th  Th1  1  0.869224  0.619224  0.261552  1
  Zn  Zn2  1  0.540780  0.790780  0.918442  1
  Si  Si3  1  0.290768  0.040768  0.418466  1
  Si  Si4  1  0.457596  0.207596  0.084808  1
  Si  Si5  1  0.710382  0.960382  0.579234  1
