# generated using pymatgen
data_HoEr2In3IrRh2
_symmetry_space_group_name_H-M   'P 1'
_cell_length_a   7.55113117
_cell_length_b   7.54884023
_cell_length_c   3.86923200
_cell_angle_alpha   90.00000000
_cell_angle_beta   90.00000000
_cell_angle_gamma   119.98542942
_symmetry_Int_Tables_number   1
_chemical_formula_structural   HoEr2In3IrRh2
_chemical_formula_sum   'Ho1 Er2 In3 Ir1 Rh2'
_cell_volume   191.03431984
_cell_formula_units_Z   1
loop_
 _symmetry_equiv_pos_site_id
 _symmetry_equiv_pos_as_xyz
  1  'x, y, z'
loop_
 _atom_site_type_symbol
 _atom_site_label
 _atom_site_symmetry_multiplicity
 _atom_site_fract_x
 _atom_site_fract_y
 _atom_site_fract_z
 _atom_site_occupancy
  Ho  Ho0  1  0.996234  0.589674  0.500000  1
  Er  Er1  1  0.410111  0.406427  0.500000  1
  Er  Er2  1  0.593619  0.003726  0.500000  1
  In  In3  1  0.258169  0.999137  0.000000  1
  In  In4  1  0.740768  0.742069  0.000000  1
  In  In5  1  0.001114  0.258935  0.000000  1
  Ir  Ir6  1  0.666258  0.333023  0.000000  1
  Rh  Rh7  1  0.333711  0.666797  0.000000  1
  Rh  Rh8  1  0.000015  0.000213  0.500000  1
