# generated using pymatgen
data_Hf12Fe5MoIr6
_symmetry_space_group_name_H-M   'P 1'
_cell_length_a   4.57287600
_cell_length_b   6.50082800
_cell_length_c   13.76699700
_cell_angle_alpha   90.00000000
_cell_angle_beta   89.99989587
_cell_angle_gamma   90.00000000
_symmetry_Int_Tables_number   1
_chemical_formula_structural   Hf12Fe5MoIr6
_chemical_formula_sum   'Hf12 Fe5 Mo1 Ir6'
_cell_volume   409.25813268
_cell_formula_units_Z   1
loop_
 _symmetry_equiv_pos_site_id
 _symmetry_equiv_pos_as_xyz
  1  'x, y, z'
loop_
 _atom_site_type_symbol
 _atom_site_label
 _atom_site_symmetry_multiplicity
 _atom_site_fract_x
 _atom_site_fract_y
 _atom_site_fract_z
 _atom_site_occupancy
  Hf  Hf0  1  0.500000  0.248478  0.001427  1
  Hf  Hf1  1  0.500000  0.751523  0.001427  1
  Hf  Hf2  1  0.000004  0.250049  0.166727  1
  Hf  Hf3  1  0.000004  0.749951  0.166727  1
  Hf  Hf4  1  0.500001  0.250021  0.333303  1
  Hf  Hf5  1  0.500001  0.749980  0.333303  1
  Hf  Hf6  1  0.000001  0.249986  0.499971  1
  Hf  Hf7  1  0.000001  0.750013  0.499971  1
  Hf  Hf8  1  0.500000  0.248381  0.665267  1
  Hf  Hf9  1  0.500000  0.751620  0.665267  1
  Hf  Hf10  1  0.999998  0.246720  0.833298  1
  Hf  Hf11  1  0.999998  0.753280  0.833298  1
  Fe  Fe12  1  0.999999  0.000000  0.001371  1
  Fe  Fe13  1  0.499996  0.500000  0.166754  1
  Fe  Fe14  1  0.999995  0.000000  0.333291  1
  Fe  Fe15  1  0.500000  0.500000  0.499864  1
  Fe  Fe16  1  0.999999  0.000000  0.665422  1
  Mo  Mo17  1  0.499998  0.500000  0.833327  1
  Ir  Ir18  1  0.999997  0.500000  0.002284  1
  Ir  Ir19  1  0.500007  0.000000  0.168162  1
  Ir  Ir20  1  0.000000  0.500000  0.333341  1
  Ir  Ir21  1  0.500001  0.000000  0.498481  1
  Ir  Ir22  1  0.000001  0.500000  0.664369  1
  Ir  Ir23  1  0.499998  0.000000  0.833347  1
