# generated using pymatgen
data_La5Y(OsBr3)2
_symmetry_space_group_name_H-M   'P 1'
_cell_length_a   4.31843000
_cell_length_b   9.14160591
_cell_length_c   12.16493003
_cell_angle_alpha   87.06120673
_cell_angle_beta   90.00000000
_cell_angle_gamma   90.00000000
_symmetry_Int_Tables_number   1
_chemical_formula_structural   La5Y(OsBr3)2
_chemical_formula_sum   'La5 Y1 Os2 Br6'
_cell_volume   479.60805321
_cell_formula_units_Z   1
loop_
 _symmetry_equiv_pos_site_id
 _symmetry_equiv_pos_as_xyz
  1  'x, y, z'
loop_
 _atom_site_type_symbol
 _atom_site_label
 _atom_site_symmetry_multiplicity
 _atom_site_fract_x
 _atom_site_fract_y
 _atom_site_fract_z
 _atom_site_occupancy
  La  La0  1  0.750000  0.675339  0.123377  1
  La  La1  1  0.250000  0.884652  0.339449  1
  La  La2  1  0.250000  0.323431  0.881135  1
  La  La3  1  0.250000  0.897107  0.890004  1
  La  La4  1  0.750000  0.121112  0.659433  1
  Y  Y5  1  0.750000  0.092971  0.108495  1
  Os  Os6  1  0.250000  0.885713  0.127141  1
  Os  Os7  1  0.750000  0.114428  0.873636  1
  Br  Br8  1  0.250000  0.390164  0.131433  1
  Br  Br9  1  0.750000  0.125563  0.376675  1
  Br  Br10  1  0.750000  0.604165  0.870792  1
  Br  Br11  1  0.250000  0.357485  0.626952  1
  Br  Br12  1  0.750000  0.646827  0.375138  1
  Br  Br13  1  0.250000  0.881045  0.616341  1
