# generated using pymatgen
data_CaTb3(B4Ir)4
_symmetry_space_group_name_H-M   'P 1'
_cell_length_a   7.03827617
_cell_length_b   7.03827603
_cell_length_c   7.03827700
_cell_angle_alpha   111.59451731
_cell_angle_beta   111.59450812
_cell_angle_gamma   105.30331067
_symmetry_Int_Tables_number   1
_chemical_formula_structural   CaTb3(B4Ir)4
_chemical_formula_sum   'Ca1 Tb3 B16 Ir4'
_cell_volume   267.34160361
_cell_formula_units_Z   1
loop_
 _symmetry_equiv_pos_site_id
 _symmetry_equiv_pos_as_xyz
  1  'x, y, z'
loop_
 _atom_site_type_symbol
 _atom_site_label
 _atom_site_symmetry_multiplicity
 _atom_site_fract_x
 _atom_site_fract_y
 _atom_site_fract_z
 _atom_site_occupancy
  Ca  Ca0  1  0.785138  0.785138  0.000000  1
  Tb  Tb1  1  0.215290  0.215290  0.000000  1
  Tb  Tb2  1  0.749964  0.249964  0.500000  1
  Tb  Tb3  1  0.249964  0.749964  0.500000  1
  B  B4  1  0.264964  0.108949  0.370969  1
  B  B5  1  0.737979  0.893994  0.629031  1
  B  B6  1  0.264964  0.893994  0.156015  1
  B  B7  1  0.737979  0.108949  0.843985  1
  B  B8  1  0.108949  0.737979  0.843985  1
  B  B9  1  0.893994  0.264964  0.156015  1
  B  B10  1  0.108949  0.264964  0.370969  1
  B  B11  1  0.893994  0.737979  0.629031  1
  B  B12  1  0.110101  0.110101  0.522890  1
  B  B13  1  0.587213  0.587213  0.477110  1
  B  B14  1  0.110101  0.587213  0.000000  1
  B  B15  1  0.587213  0.110101  0.000000  1
  B  B16  1  0.887371  0.887371  0.472346  1
  B  B17  1  0.415025  0.415025  0.527654  1
  B  B18  1  0.887371  0.415025  0.000000  1
  B  B19  1  0.415025  0.887371  0.000000  1
  Ir  Ir20  1  0.255845  0.497113  0.758732  1
  Ir  Ir21  1  0.738381  0.497113  0.241268  1
  Ir  Ir22  1  0.497113  0.738381  0.241268  1
  Ir  Ir23  1  0.497113  0.255845  0.758732  1
