# generated using pymatgen
data_Nd4HoOs2
_symmetry_space_group_name_H-M   'P 1'
_cell_length_a   8.71832029
_cell_length_b   8.71831915
_cell_length_c   7.43676118
_cell_angle_alpha   83.57022586
_cell_angle_beta   83.57022664
_cell_angle_gamma   44.47096948
_symmetry_Int_Tables_number   1
_chemical_formula_structural   Nd4HoOs2
_chemical_formula_sum   'Nd8 Ho2 Os4'
_cell_volume   393.08401901
_cell_formula_units_Z   2
loop_
 _symmetry_equiv_pos_site_id
 _symmetry_equiv_pos_as_xyz
  1  'x, y, z'
loop_
 _atom_site_type_symbol
 _atom_site_label
 _atom_site_symmetry_multiplicity
 _atom_site_fract_x
 _atom_site_fract_y
 _atom_site_fract_z
 _atom_site_occupancy
  Nd  Nd0  1  0.205376  0.975201  0.583251  1
  Nd  Nd1  1  0.024799  0.794624  0.916749  1
  Nd  Nd2  1  0.207774  0.360617  0.314591  1
  Nd  Nd3  1  0.639383  0.792226  0.185409  1
  Nd  Nd4  1  0.792226  0.639383  0.685409  1
  Nd  Nd5  1  0.360617  0.207774  0.814591  1
  Nd  Nd6  1  0.975201  0.205376  0.083251  1
  Nd  Nd7  1  0.794624  0.024799  0.416749  1
  Ho  Ho8  1  0.569454  0.430546  0.750000  1
  Ho  Ho9  1  0.430546  0.569454  0.250000  1
  Os  Os10  1  0.184145  0.603125  0.571979  1
  Os  Os11  1  0.396875  0.815855  0.928021  1
  Os  Os12  1  0.815855  0.396875  0.428021  1
  Os  Os13  1  0.603125  0.184145  0.071979  1
