# generated using pymatgen
data_Cs4NiAs4Pd
_symmetry_space_group_name_H-M   'P 1'
_cell_length_a   8.35937122
_cell_length_b   8.35937228
_cell_length_c   6.35598529
_cell_angle_alpha   91.73958720
_cell_angle_beta   88.26041152
_cell_angle_gamma   128.75317054
_symmetry_Int_Tables_number   1
_chemical_formula_structural   Cs4NiAs4Pd
_chemical_formula_sum   'Cs4 Ni1 As4 Pd1'
_cell_volume   346.17433797
_cell_formula_units_Z   1
loop_
 _symmetry_equiv_pos_site_id
 _symmetry_equiv_pos_as_xyz
  1  'x, y, z'
loop_
 _atom_site_type_symbol
 _atom_site_label
 _atom_site_symmetry_multiplicity
 _atom_site_fract_x
 _atom_site_fract_y
 _atom_site_fract_z
 _atom_site_occupancy
  Cs  Cs0  1  0.792300  0.207700  0.250006  1
  Cs  Cs1  1  0.207700  0.792300  0.749994  1
  Cs  Cs2  1  0.411112  0.588888  0.250269  1
  Cs  Cs3  1  0.588888  0.411112  0.749731  1
  Ni  Ni4  1  0.000000  0.000000  0.500000  1
  As  As5  1  0.925729  0.737096  0.263556  1
  As  As6  1  0.074271  0.262904  0.736444  1
  As  As7  1  0.262904  0.074271  0.263556  1
  As  As8  1  0.737096  0.925729  0.736444  1
  Pd  Pd9  1  0.000000  0.000000  0.000000  1
