# generated using pymatgen
data_Ti6GaTc3Os2
_symmetry_space_group_name_H-M   'P 1'
_cell_length_a   4.38349800
_cell_length_b   6.25761100
_cell_length_c   13.17330100
_cell_angle_alpha   90.00000000
_cell_angle_beta   89.99828050
_cell_angle_gamma   90.00000000
_symmetry_Int_Tables_number   1
_chemical_formula_structural   Ti6GaTc3Os2
_chemical_formula_sum   'Ti12 Ga2 Tc6 Os4'
_cell_volume   361.34661434
_cell_formula_units_Z   2
loop_
 _symmetry_equiv_pos_site_id
 _symmetry_equiv_pos_as_xyz
  1  'x, y, z'
loop_
 _atom_site_type_symbol
 _atom_site_label
 _atom_site_symmetry_multiplicity
 _atom_site_fract_x
 _atom_site_fract_y
 _atom_site_fract_z
 _atom_site_occupancy
  Ti  Ti0  1  0.499984  0.243161  0.995394  1
  Ti  Ti1  1  0.499984  0.756840  0.995394  1
  Ti  Ti2  1  0.000059  0.256804  0.171292  1
  Ti  Ti3  1  0.000059  0.743195  0.171292  1
  Ti  Ti4  1  0.500027  0.254198  0.338016  1
  Ti  Ti5  1  0.500027  0.745802  0.338016  1
  Ti  Ti6  1  0.999996  0.249240  0.500914  1
  Ti  Ti7  1  0.999996  0.750760  0.500914  1
  Ti  Ti8  1  0.499972  0.250675  0.665730  1
  Ti  Ti9  1  0.499972  0.749325  0.665730  1
  Ti  Ti10  1  0.999963  0.245756  0.828644  1
  Ti  Ti11  1  0.999963  0.754243  0.828644  1
  Ga  Ga12  1  0.999984  0.499999  0.998455  1
  Ga  Ga13  1  0.500079  0.000000  0.168232  1
  Tc  Tc14  1  0.999982  0.000000  0.003073  1
  Tc  Tc15  1  0.500053  0.499999  0.163600  1
  Tc  Tc16  1  0.000029  0.000000  0.329947  1
  Tc  Tc17  1  0.499995  0.499999  0.500976  1
  Tc  Tc18  1  0.999972  0.000000  0.665690  1
  Tc  Tc19  1  0.499951  0.499999  0.836726  1
  Os  Os20  1  0.000029  0.499999  0.333910  1
  Os  Os21  1  0.499998  0.000000  0.499274  1
  Os  Os22  1  0.999970  0.499999  0.667369  1
  Os  Os23  1  0.499963  0.000000  0.832772  1
