# generated using pymatgen
data_Zr3(Zn2Pd)2
_symmetry_space_group_name_H-M   'P 1'
_cell_length_a   7.32451600
_cell_length_b   7.32451643
_cell_length_c   3.42051000
_cell_angle_alpha   90.00000000
_cell_angle_beta   90.00000000
_cell_angle_gamma   119.99998903
_symmetry_Int_Tables_number   1
_chemical_formula_structural   Zr3(Zn2Pd)2
_chemical_formula_sum   'Zr3 Zn4 Pd2'
_cell_volume   158.92032104
_cell_formula_units_Z   1
loop_
 _symmetry_equiv_pos_site_id
 _symmetry_equiv_pos_as_xyz
  1  'x, y, z'
loop_
 _atom_site_type_symbol
 _atom_site_label
 _atom_site_symmetry_multiplicity
 _atom_site_fract_x
 _atom_site_fract_y
 _atom_site_fract_z
 _atom_site_occupancy
  Zr  Zr0  1  0.000000  0.402028  0.000000  1
  Zr  Zr1  1  0.597972  0.597972  0.000000  1
  Zr  Zr2  1  0.402028  0.000000  0.000000  1
  Zn  Zn3  1  0.000000  0.735043  0.500000  1
  Zn  Zn4  1  0.264957  0.264957  0.500000  1
  Zn  Zn5  1  0.735043  0.000000  0.500000  1
  Zn  Zn6  1  0.000000  0.000000  0.000000  1
  Pd  Pd7  1  0.333333  0.666667  0.500000  1
  Pd  Pd8  1  0.666667  0.333333  0.500000  1
