# generated using pymatgen
data_Sr2Ho2MgAl17Pd6
_symmetry_space_group_name_H-M   'P 1'
_cell_length_a   7.71698604
_cell_length_b   7.73919875
_cell_length_c   9.57853152
_cell_angle_alpha   90.19681450
_cell_angle_beta   89.87263417
_cell_angle_gamma   119.46154521
_symmetry_Int_Tables_number   1
_chemical_formula_structural   Sr2Ho2MgAl17Pd6
_chemical_formula_sum   'Sr2 Ho2 Mg1 Al17 Pd6'
_cell_volume   498.08282087
_cell_formula_units_Z   1
loop_
 _symmetry_equiv_pos_site_id
 _symmetry_equiv_pos_as_xyz
  1  'x, y, z'
loop_
 _atom_site_type_symbol
 _atom_site_label
 _atom_site_symmetry_multiplicity
 _atom_site_fract_x
 _atom_site_fract_y
 _atom_site_fract_z
 _atom_site_occupancy
  Sr  Sr0  1  0.996430  0.672651  0.251054  1
  Sr  Sr1  1  0.004083  0.330370  0.749116  1
  Ho  Ho2  1  0.667496  0.989953  0.252509  1
  Ho  Ho3  1  0.328580  0.003466  0.749662  1
  Mg  Mg4  1  0.996259  0.333554  0.077361  1
  Al  Al5  1  0.131434  0.133807  0.250254  1
  Al  Al6  1  0.869756  0.866234  0.751540  1
  Al  Al7  1  0.999617  0.666845  0.922829  1
  Al  Al8  1  0.999104  0.668140  0.578033  1
  Al  Al9  1  0.338702  0.004057  0.424974  1
  Al  Al10  1  0.000829  0.330239  0.420664  1
  Al  Al11  1  0.663046  0.997390  0.574621  1
  Al  Al12  1  0.664056  0.999309  0.927683  1
  Al  Al13  1  0.338637  0.003852  0.074081  1
  Al  Al14  1  0.335102  0.332997  0.552272  1
  Al  Al15  1  0.664034  0.666186  0.447329  1
  Al  Al16  1  0.665083  0.667100  0.050460  1
  Al  Al17  1  0.332668  0.332381  0.947220  1
  Al  Al18  1  0.349704  0.548600  0.250266  1
  Al  Al19  1  0.651916  0.451662  0.749273  1
  Al  Al20  1  0.542861  0.332037  0.249202  1
  Al  Al21  1  0.460587  0.668979  0.751012  1
  Pd  Pd22  1  0.658927  0.325799  0.995687  1
  Pd  Pd23  1  0.337499  0.681090  0.999720  1
  Pd  Pd24  1  0.330625  0.673819  0.501614  1
  Pd  Pd25  1  0.670257  0.327224  0.500080  1
  Pd  Pd26  1  0.001767  0.993555  0.999736  1
  Pd  Pd27  1  0.000941  0.998707  0.501746  1
