# generated using pymatgen
data_Mn2Nb3PN
_symmetry_space_group_name_H-M   'P 1'
_cell_length_a   7.98640897
_cell_length_b   7.98569532
_cell_length_c   7.98479409
_cell_angle_alpha   59.99854594
_cell_angle_beta   59.99606052
_cell_angle_gamma   60.01526276
_symmetry_Int_Tables_number   1
_chemical_formula_structural   Mn2Nb3PN
_chemical_formula_sum   'Mn8 Nb12 P4 N4'
_cell_volume   360.11844569
_cell_formula_units_Z   4
loop_
 _symmetry_equiv_pos_site_id
 _symmetry_equiv_pos_as_xyz
  1  'x, y, z'
loop_
 _atom_site_type_symbol
 _atom_site_label
 _atom_site_symmetry_multiplicity
 _atom_site_fract_x
 _atom_site_fract_y
 _atom_site_fract_z
 _atom_site_occupancy
  Mn  Mn0  1  0.735542  0.421536  0.421442  1
  Mn  Mn1  1  0.421524  0.735618  0.421406  1
  Mn  Mn2  1  0.421520  0.421550  0.735464  1
  Mn  Mn3  1  0.421508  0.421513  0.421402  1
  Mn  Mn4  1  0.514185  0.828498  0.828714  1
  Mn  Mn5  1  0.828559  0.514176  0.828640  1
  Mn  Mn6  1  0.828539  0.828478  0.514410  1
  Mn  Mn7  1  0.828555  0.828481  0.828583  1
  Nb  Nb8  1  0.799636  0.799503  0.200426  1
  Nb  Nb9  1  0.200384  0.200389  0.799571  1
  Nb  Nb10  1  0.799641  0.200475  0.799469  1
  Nb  Nb11  1  0.200458  0.799568  0.200368  1
  Nb  Nb12  1  0.200386  0.799668  0.799629  1
  Nb  Nb13  1  0.799551  0.200534  0.200455  1
  Nb  Nb14  1  0.450423  0.450468  0.049592  1
  Nb  Nb15  1  0.049556  0.049657  0.450398  1
  Nb  Nb16  1  0.450435  0.049524  0.450495  1
  Nb  Nb17  1  0.049479  0.450446  0.049658  1
  Nb  Nb18  1  0.049484  0.450452  0.450459  1
  Nb  Nb19  1  0.450410  0.049536  0.049616  1
  P  P20  1  0.124828  0.625009  0.625020  1
  P  P21  1  0.625053  0.124936  0.624946  1
  P  P22  1  0.625083  0.624954  0.124904  1
  P  P23  1  0.625177  0.625060  0.625033  1
  N  N24  1  0.624925  0.125022  0.125034  1
  N  N25  1  0.125051  0.624857  0.125050  1
  N  N26  1  0.125076  0.125067  0.624798  1
  N  N27  1  0.125030  0.125025  0.125017  1
