# generated using pymatgen
data_Sc12Si12Ru3Pt
_symmetry_space_group_name_H-M   'P 1'
_cell_length_a   4.02824700
_cell_length_b   10.27527408
_cell_length_c   11.69808870
_cell_angle_alpha   90.10239973
_cell_angle_beta   90.00000000
_cell_angle_gamma   90.00000000
_symmetry_Int_Tables_number   1
_chemical_formula_structural   Sc12Si12Ru3Pt
_chemical_formula_sum   'Sc12 Si12 Ru3 Pt1'
_cell_volume   484.19881653
_cell_formula_units_Z   1
loop_
 _symmetry_equiv_pos_site_id
 _symmetry_equiv_pos_as_xyz
  1  'x, y, z'
loop_
 _atom_site_type_symbol
 _atom_site_label
 _atom_site_symmetry_multiplicity
 _atom_site_fract_x
 _atom_site_fract_y
 _atom_site_fract_z
 _atom_site_occupancy
  Sc  Sc0  1  0.250000  0.877996  0.021877  1
  Sc  Sc1  1  0.250000  0.623491  0.519783  1
  Sc  Sc2  1  0.750000  0.124904  0.982674  1
  Sc  Sc3  1  0.750000  0.378292  0.479406  1
  Sc  Sc4  1  0.250000  0.920955  0.602800  1
  Sc  Sc5  1  0.250000  0.580189  0.103322  1
  Sc  Sc6  1  0.750000  0.078936  0.397147  1
  Sc  Sc7  1  0.750000  0.420613  0.896428  1
  Sc  Sc8  1  0.250000  0.657832  0.798418  1
  Sc  Sc9  1  0.250000  0.840242  0.297875  1
  Sc  Sc10  1  0.750000  0.341258  0.201898  1
  Sc  Sc11  1  0.750000  0.159565  0.699509  1
  Si  Si12  1  0.250000  0.019225  0.824723  1
  Si  Si13  1  0.250000  0.485528  0.322227  1
  Si  Si14  1  0.750000  0.985529  0.178226  1
  Si  Si15  1  0.750000  0.513146  0.678285  1
  Si  Si16  1  0.250000  0.252143  0.840943  1
  Si  Si17  1  0.250000  0.247444  0.341121  1
  Si  Si18  1  0.750000  0.748300  0.158430  1
  Si  Si19  1  0.750000  0.749007  0.654858  1
  Si  Si20  1  0.250000  0.196261  0.544658  1
  Si  Si21  1  0.250000  0.305804  0.045764  1
  Si  Si22  1  0.750000  0.806588  0.453739  1
  Si  Si23  1  0.750000  0.689819  0.956353  1
  Ru  Ru24  1  0.250000  0.390590  0.676906  1
  Ru  Ru25  1  0.250000  0.108595  0.176137  1
  Ru  Ru26  1  0.750000  0.609747  0.323073  1
  Pt  Pt27  1  0.750000  0.887999  0.823421  1
