# generated using pymatgen
data_Pr3DyZr4F28
_symmetry_space_group_name_H-M   'P 1'
_cell_length_a   5.87925990
_cell_length_b   9.34005271
_cell_length_c   12.54444876
_cell_angle_alpha   62.11272475
_cell_angle_beta   90.04394036
_cell_angle_gamma   89.96659217
_symmetry_Int_Tables_number   1
_chemical_formula_structural   Pr3DyZr4F28
_chemical_formula_sum   'Pr3 Dy1 Zr4 F28'
_cell_volume   608.85146728
_cell_formula_units_Z   1
loop_
 _symmetry_equiv_pos_site_id
 _symmetry_equiv_pos_as_xyz
  1  'x, y, z'
loop_
 _atom_site_type_symbol
 _atom_site_label
 _atom_site_symmetry_multiplicity
 _atom_site_fract_x
 _atom_site_fract_y
 _atom_site_fract_z
 _atom_site_occupancy
  Pr  Pr0  1  0.743309  0.810417  0.266711  1
  Pr  Pr1  1  0.243095  0.186612  0.233263  1
  Pr  Pr2  1  0.256900  0.182724  0.733565  1
  Dy  Dy3  1  0.757590  0.811779  0.766437  1
  Zr  Zr4  1  0.746050  0.269341  0.457869  1
  Zr  Zr5  1  0.244925  0.726275  0.039629  1
  Zr  Zr6  1  0.255972  0.726302  0.549803  1
  Zr  Zr7  1  0.755236  0.279262  0.952844  1
  F  F8  1  0.468110  0.714027  0.919388  1
  F  F9  1  0.962158  0.288296  0.577608  1
  F  F10  1  0.539729  0.291209  0.075449  1
  F  F11  1  0.040352  0.712573  0.427420  1
  F  F12  1  0.460397  0.282396  0.546759  1
  F  F13  1  0.958999  0.719951  0.946097  1
  F  F14  1  0.536671  0.716745  0.456007  1
  F  F15  1  0.040265  0.286658  0.044178  1
  F  F16  1  0.764081  0.527085  0.857691  1
  F  F17  1  0.265537  0.480339  0.642612  1
  F  F18  1  0.231966  0.481234  0.137667  1
  F  F19  1  0.734129  0.516164  0.362046  1
  F  F20  1  0.760857  0.033533  0.054529  1
  F  F21  1  0.261173  0.971347  0.446240  1
  F  F22  1  0.239746  0.972403  0.943312  1
  F  F23  1  0.740242  0.023888  0.561014  1
  F  F24  1  0.988355  0.735680  0.651395  1
  F  F25  1  0.488510  0.267999  0.853027  1
  F  F26  1  0.014172  0.266961  0.356170  1
  F  F27  1  0.510443  0.732123  0.142426  1
  F  F28  1  0.039463  0.744197  0.165621  1
  F  F29  1  0.541878  0.254037  0.331211  1
  F  F30  1  0.960309  0.257956  0.828838  1
  F  F31  1  0.470341  0.748382  0.672160  1
  F  F32  1  0.419600  0.967557  0.233089  1
  F  F33  1  0.917986  0.030570  0.266986  1
  F  F34  1  0.579320  0.018266  0.765358  1
  F  F35  1  0.062131  0.965709  0.735578  1
