# generated using pymatgen
data_PrSmEr4(RuI3)2
_symmetry_space_group_name_H-M   'P 1'
_cell_length_a   4.24764200
_cell_length_b   8.99802990
_cell_length_c   12.36982304
_cell_angle_alpha   94.31218879
_cell_angle_beta   90.00000000
_cell_angle_gamma   90.00000000
_symmetry_Int_Tables_number   1
_chemical_formula_structural   PrSmEr4(RuI3)2
_chemical_formula_sum   'Pr1 Sm1 Er4 Ru2 I6'
_cell_volume   471.44134138
_cell_formula_units_Z   1
loop_
 _symmetry_equiv_pos_site_id
 _symmetry_equiv_pos_as_xyz
  1  'x, y, z'
loop_
 _atom_site_type_symbol
 _atom_site_label
 _atom_site_symmetry_multiplicity
 _atom_site_fract_x
 _atom_site_fract_y
 _atom_site_fract_z
 _atom_site_occupancy
  Pr  Pr0  1  0.750000  0.273622  0.603662  1
  Sm  Sm1  1  0.250000  0.733881  0.396796  1
  Er  Er2  1  0.750000  0.878684  0.624793  1
  Er  Er3  1  0.250000  0.121685  0.373011  1
  Er  Er4  1  0.750000  0.898238  0.186334  1
  Er  Er5  1  0.250000  0.096730  0.814448  1
  Ru  Ru6  1  0.750000  0.944688  0.405533  1
  Ru  Ru7  1  0.250000  0.055779  0.593570  1
  I  I8  1  0.750000  0.421718  0.361274  1
  I  I9  1  0.250000  0.586347  0.637719  1
  I  I10  1  0.750000  0.861502  0.889812  1
  I  I11  1  0.250000  0.132283  0.108444  1
  I  I12  1  0.750000  0.344827  0.871201  1
  I  I13  1  0.250000  0.650017  0.133402  1
