# generated using pymatgen
data_Y4B8Os3Ru
_symmetry_space_group_name_H-M   'P 1'
_cell_length_a   5.32690500
_cell_length_b   5.92514933
_cell_length_c   6.38075327
_cell_angle_alpha   89.74863686
_cell_angle_beta   90.00000000
_cell_angle_gamma   90.00000000
_symmetry_Int_Tables_number   1
_chemical_formula_structural   Y4B8Os3Ru
_chemical_formula_sum   'Y4 B8 Os3 Ru1'
_cell_volume   201.39191161
_cell_formula_units_Z   1
loop_
 _symmetry_equiv_pos_site_id
 _symmetry_equiv_pos_as_xyz
  1  'x, y, z'
loop_
 _atom_site_type_symbol
 _atom_site_label
 _atom_site_symmetry_multiplicity
 _atom_site_fract_x
 _atom_site_fract_y
 _atom_site_fract_z
 _atom_site_occupancy
  Y  Y0  1  0.750000  0.488413  0.164123  1
  Y  Y1  1  0.750000  0.987724  0.334482  1
  Y  Y2  1  0.250000  0.511272  0.836812  1
  Y  Y3  1  0.250000  0.011779  0.663704  1
  B  B4  1  0.916898  0.133289  0.960084  1
  B  B5  1  0.582128  0.634358  0.539752  1
  B  B6  1  0.417687  0.865478  0.039978  1
  B  B7  1  0.083871  0.367584  0.462660  1
  B  B8  1  0.082313  0.865478  0.039978  1
  B  B9  1  0.416129  0.367584  0.462660  1
  B  B10  1  0.583102  0.133289  0.960084  1
  B  B11  1  0.917872  0.634358  0.539752  1
  Os  Os12  1  0.750000  0.321037  0.680713  1
  Os  Os13  1  0.750000  0.821327  0.817100  1
  Os  Os14  1  0.250000  0.678798  0.317828  1
  Ru  Ru15  1  0.250000  0.178233  0.180291  1
