# generated using pymatgen
data_Hg(Sb3Pd10)2
_symmetry_space_group_name_H-M   'P 1'
_cell_length_a   7.84136640
_cell_length_b   7.84136662
_cell_length_c   7.84136640
_cell_angle_alpha   99.12485421
_cell_angle_beta   99.12485954
_cell_angle_gamma   99.12485686
_symmetry_Int_Tables_number   1
_chemical_formula_structural   Hg(Sb3Pd10)2
_chemical_formula_sum   'Hg1 Sb6 Pd20'
_cell_volume   461.59285757
_cell_formula_units_Z   1
loop_
 _symmetry_equiv_pos_site_id
 _symmetry_equiv_pos_as_xyz
  1  'x, y, z'
loop_
 _atom_site_type_symbol
 _atom_site_label
 _atom_site_symmetry_multiplicity
 _atom_site_fract_x
 _atom_site_fract_y
 _atom_site_fract_z
 _atom_site_occupancy
  Hg  Hg0  1  0.000000  0.000000  0.000000  1
  Sb  Sb1  1  0.455971  0.878147  0.726365  1
  Sb  Sb2  1  0.878147  0.726365  0.455971  1
  Sb  Sb3  1  0.726365  0.455971  0.878147  1
  Sb  Sb4  1  0.544029  0.121853  0.273635  1
  Sb  Sb5  1  0.121853  0.273635  0.544029  1
  Sb  Sb6  1  0.273635  0.544029  0.121853  1
  Pd  Pd7  1  0.377315  0.377315  0.377315  1
  Pd  Pd8  1  0.622685  0.622685  0.622685  1
  Pd  Pd9  1  0.997400  0.342645  0.227663  1
  Pd  Pd10  1  0.342645  0.227663  0.997400  1
  Pd  Pd11  1  0.227663  0.997399  0.342645  1
  Pd  Pd12  1  0.002600  0.657355  0.772337  1
  Pd  Pd13  1  0.657355  0.772337  0.002601  1
  Pd  Pd14  1  0.772337  0.002601  0.657355  1
  Pd  Pd15  1  0.685537  0.144645  0.987358  1
  Pd  Pd16  1  0.144645  0.987358  0.685537  1
  Pd  Pd17  1  0.987358  0.685537  0.144645  1
  Pd  Pd18  1  0.314463  0.855355  0.012642  1
  Pd  Pd19  1  0.855355  0.012642  0.314463  1
  Pd  Pd20  1  0.012642  0.314463  0.855355  1
  Pd  Pd21  1  0.208408  0.663502  0.477749  1
  Pd  Pd22  1  0.663502  0.477749  0.208408  1
  Pd  Pd23  1  0.477749  0.208408  0.663502  1
  Pd  Pd24  1  0.791592  0.336498  0.522251  1
  Pd  Pd25  1  0.336498  0.522251  0.791592  1
  Pd  Pd26  1  0.522251  0.791592  0.336498  1
