# generated using pymatgen
data_Dy3Nb3(Si2Ru5)2
_symmetry_space_group_name_H-M   'P 1'
_cell_length_a   9.98076364
_cell_length_b   9.98076353
_cell_length_c   3.25331900
_cell_angle_alpha   90.00000000
_cell_angle_beta   90.00000000
_cell_angle_gamma   89.93744996
_symmetry_Int_Tables_number   1
_chemical_formula_structural   Dy3Nb3(Si2Ru5)2
_chemical_formula_sum   'Dy3 Nb3 Si4 Ru10'
_cell_volume   324.08126683
_cell_formula_units_Z   1
loop_
 _symmetry_equiv_pos_site_id
 _symmetry_equiv_pos_as_xyz
  1  'x, y, z'
loop_
 _atom_site_type_symbol
 _atom_site_label
 _atom_site_symmetry_multiplicity
 _atom_site_fract_x
 _atom_site_fract_y
 _atom_site_fract_z
 _atom_site_occupancy
  Dy  Dy0  1  0.172169  0.827831  0.000000  1
  Dy  Dy1  1  0.326715  0.326759  0.000000  1
  Dy  Dy2  1  0.673241  0.673285  0.000000  1
  Nb  Nb3  1  0.499371  0.999305  0.000000  1
  Nb  Nb4  1  0.000695  0.500629  0.000000  1
  Nb  Nb5  1  0.826524  0.173476  0.000000  1
  Si  Si6  1  0.628880  0.371120  0.000000  1
  Si  Si7  1  0.374881  0.625119  0.000000  1
  Si  Si8  1  0.122980  0.126417  0.000000  1
  Si  Si9  1  0.873583  0.877020  0.000000  1
  Ru  Ru10  1  0.502604  0.497396  0.500000  1
  Ru  Ru11  1  0.990502  0.009498  0.500000  1
  Ru  Ru12  1  0.581101  0.204655  0.500000  1
  Ru  Ru13  1  0.434239  0.791557  0.500000  1
  Ru  Ru14  1  0.057193  0.288667  0.500000  1
  Ru  Ru15  1  0.930207  0.710008  0.500000  1
  Ru  Ru16  1  0.289992  0.069793  0.500000  1
  Ru  Ru17  1  0.711333  0.942807  0.500000  1
  Ru  Ru18  1  0.208443  0.565761  0.500000  1
  Ru  Ru19  1  0.795345  0.418899  0.500000  1
