# generated using pymatgen
data_SmDy7(LuBi)12
_symmetry_space_group_name_H-M   'P 1'
_cell_length_a   8.16702926
_cell_length_b   9.38760600
_cell_length_c   11.96311300
_cell_angle_alpha   90.00000000
_cell_angle_beta   89.98561823
_cell_angle_gamma   90.00000000
_symmetry_Int_Tables_number   1
_chemical_formula_structural   SmDy7(LuBi)12
_chemical_formula_sum   'Sm1 Dy7 Lu12 Bi12'
_cell_volume   917.19812142
_cell_formula_units_Z   1
loop_
 _symmetry_equiv_pos_site_id
 _symmetry_equiv_pos_as_xyz
  1  'x, y, z'
loop_
 _atom_site_type_symbol
 _atom_site_label
 _atom_site_symmetry_multiplicity
 _atom_site_fract_x
 _atom_site_fract_y
 _atom_site_fract_z
 _atom_site_occupancy
  Sm  Sm0  1  0.146878  0.250000  0.716064  1
  Dy  Dy1  1  0.185985  0.750000  0.718545  1
  Dy  Dy2  1  0.685809  0.750000  0.781652  1
  Dy  Dy3  1  0.813417  0.250000  0.281237  1
  Dy  Dy4  1  0.314069  0.250000  0.218268  1
  Dy  Dy5  1  0.353360  0.750000  0.216869  1
  Dy  Dy6  1  0.853136  0.750000  0.283273  1
  Dy  Dy7  1  0.647245  0.250000  0.783378  1
  Lu  Lu8  1  0.022946  0.750000  0.989689  1
  Lu  Lu9  1  0.523234  0.750000  0.510599  1
  Lu  Lu10  1  0.976598  0.250000  0.010988  1
  Lu  Lu11  1  0.476897  0.250000  0.489329  1
  Lu  Lu12  1  0.307996  0.433726  0.941400  1
  Lu  Lu13  1  0.807928  0.066532  0.558747  1
  Lu  Lu14  1  0.692015  0.933344  0.059072  1
  Lu  Lu15  1  0.192144  0.566508  0.441155  1
  Lu  Lu16  1  0.692015  0.566656  0.059072  1
  Lu  Lu17  1  0.192144  0.933492  0.441155  1
  Lu  Lu18  1  0.307996  0.066274  0.941400  1
  Lu  Lu19  1  0.807928  0.433468  0.558747  1
  Bi  Bi20  1  0.435395  0.003065  0.671857  1
  Bi  Bi21  1  0.932415  0.497303  0.829206  1
  Bi  Bi22  1  0.566189  0.504066  0.328060  1
  Bi  Bi23  1  0.066179  0.995948  0.171928  1
  Bi  Bi24  1  0.566189  0.995934  0.328060  1
  Bi  Bi25  1  0.066179  0.504052  0.171928  1
  Bi  Bi26  1  0.435395  0.496935  0.671857  1
  Bi  Bi27  1  0.932415  0.002697  0.829206  1
  Bi  Bi28  1  0.403464  0.750000  0.957191  1
  Bi  Bi29  1  0.903584  0.750000  0.542990  1
  Bi  Bi30  1  0.596570  0.250000  0.042799  1
  Bi  Bi31  1  0.096294  0.250000  0.454282  1
