# generated using pymatgen
data_Sm2Er(TmSn2)2
_symmetry_space_group_name_H-M   'P 1'
_cell_length_a   8.03642600
_cell_length_b   8.18579100
_cell_length_c   15.44978500
_cell_angle_alpha   90.00000000
_cell_angle_beta   90.00000000
_cell_angle_gamma   90.00000000
_symmetry_Int_Tables_number   1
_chemical_formula_structural   Sm2Er(TmSn2)2
_chemical_formula_sum   'Sm8 Er4 Tm8 Sn16'
_cell_volume   1016.35643731
_cell_formula_units_Z   4
loop_
 _symmetry_equiv_pos_site_id
 _symmetry_equiv_pos_as_xyz
  1  'x, y, z'
loop_
 _atom_site_type_symbol
 _atom_site_label
 _atom_site_symmetry_multiplicity
 _atom_site_fract_x
 _atom_site_fract_y
 _atom_site_fract_z
 _atom_site_occupancy
  Sm  Sm0  1  0.519268  0.320926  0.902565  1
  Sm  Sm1  1  0.019268  0.179074  0.597435  1
  Sm  Sm2  1  0.480732  0.679074  0.402565  1
  Sm  Sm3  1  0.980732  0.820926  0.097435  1
  Sm  Sm4  1  0.480763  0.679141  0.097500  1
  Sm  Sm5  1  0.980763  0.820859  0.402500  1
  Sm  Sm6  1  0.519237  0.320859  0.597500  1
  Sm  Sm7  1  0.019237  0.179141  0.902500  1
  Er  Er8  1  0.365705  0.835718  0.877420  1
  Er  Er9  1  0.865705  0.664282  0.622580  1
  Er  Er10  1  0.634295  0.164282  0.377420  1
  Er  Er11  1  0.134295  0.335718  0.122580  1
  Tm  Tm12  1  0.634376  0.164206  0.122559  1
  Tm  Tm13  1  0.134376  0.335794  0.377441  1
  Tm  Tm14  1  0.365624  0.835794  0.622559  1
  Tm  Tm15  1  0.865624  0.664206  0.877441  1
  Tm  Tm16  1  0.197305  0.504165  0.749967  1
  Tm  Tm17  1  0.697305  0.995835  0.750033  1
  Tm  Tm18  1  0.802695  0.495835  0.249967  1
  Tm  Tm19  1  0.302695  0.004165  0.250033  1
  Sn  Sn20  1  0.297448  0.038068  0.042045  1
  Sn  Sn21  1  0.797448  0.461932  0.457955  1
  Sn  Sn22  1  0.702552  0.961932  0.542045  1
  Sn  Sn23  1  0.202552  0.538068  0.957955  1
  Sn  Sn24  1  0.702935  0.961929  0.958126  1
  Sn  Sn25  1  0.202935  0.538071  0.541874  1
  Sn  Sn26  1  0.297065  0.038071  0.458126  1
  Sn  Sn27  1  0.797065  0.461929  0.041874  1
  Sn  Sn28  1  0.563799  0.622737  0.749995  1
  Sn  Sn29  1  0.063799  0.877263  0.750005  1
  Sn  Sn30  1  0.436201  0.377263  0.249995  1
  Sn  Sn31  1  0.936201  0.122737  0.250005  1
  Sn  Sn32  1  0.327683  0.144391  0.749972  1
  Sn  Sn33  1  0.827683  0.355609  0.750028  1
  Sn  Sn34  1  0.672317  0.855609  0.249972  1
  Sn  Sn35  1  0.172317  0.644391  0.250028  1
