# generated using pymatgen
data_Dy9Y(InSi2)2
_symmetry_space_group_name_H-M   'P 1'
_cell_length_a   7.56206504
_cell_length_b   7.56206524
_cell_length_c   14.00388100
_cell_angle_alpha   89.99430987
_cell_angle_beta   89.99430987
_cell_angle_gamma   89.98659619
_symmetry_Int_Tables_number   1
_chemical_formula_structural   Dy9Y(InSi2)2
_chemical_formula_sum   'Dy18 Y2 In4 Si8'
_cell_volume   800.80951321
_cell_formula_units_Z   2
loop_
 _symmetry_equiv_pos_site_id
 _symmetry_equiv_pos_as_xyz
  1  'x, y, z'
loop_
 _atom_site_type_symbol
 _atom_site_label
 _atom_site_symmetry_multiplicity
 _atom_site_fract_x
 _atom_site_fract_y
 _atom_site_fract_z
 _atom_site_occupancy
  Dy  Dy0  1  0.831620  0.829542  0.889899  1
  Dy  Dy1  1  0.170458  0.168380  0.610101  1
  Dy  Dy2  1  0.831236  0.170578  0.389823  1
  Dy  Dy3  1  0.168525  0.829195  0.389825  1
  Dy  Dy4  1  0.328859  0.330969  0.389680  1
  Dy  Dy5  1  0.829422  0.168764  0.110177  1
  Dy  Dy6  1  0.329151  0.668484  0.889918  1
  Dy  Dy7  1  0.170805  0.831475  0.110175  1
  Dy  Dy8  1  0.499996  0.999993  0.752350  1
  Dy  Dy9  1  0.999986  0.500005  0.247697  1
  Dy  Dy10  1  0.331516  0.670849  0.610082  1
  Dy  Dy11  1  0.669031  0.671141  0.110320  1
  Dy  Dy12  1  0.668695  0.329342  0.610085  1
  Dy  Dy13  1  0.000007  0.500004  0.747650  1
  Dy  Dy14  1  0.829660  0.831748  0.610302  1
  Dy  Dy15  1  0.670658  0.331305  0.889915  1
  Dy  Dy16  1  0.168252  0.170340  0.889698  1
  Dy  Dy17  1  0.499995  0.000014  0.252303  1
  Y  Y18  1  0.670321  0.668207  0.389864  1
  Y  Y19  1  0.331793  0.329679  0.110136  1
  In  In20  1  0.999995  0.499943  0.000900  1
  In  In21  1  0.499942  0.999987  0.999219  1
  In  In22  1  0.500057  0.000005  0.499100  1
  In  In23  1  0.000013  0.500058  0.500781  1
  Si  Si24  1  0.625059  0.374941  0.250000  1
  Si  Si25  1  0.374958  0.625042  0.250000  1
  Si  Si26  1  0.124739  0.124743  0.250105  1
  Si  Si27  1  0.375365  0.375362  0.749971  1
  Si  Si28  1  0.125088  0.874912  0.750000  1
  Si  Si29  1  0.875257  0.875261  0.249895  1
  Si  Si30  1  0.624638  0.624635  0.750029  1
  Si  Si31  1  0.874904  0.125096  0.750000  1
