# generated using pymatgen
data_Pr5AlBi2Cl
_symmetry_space_group_name_H-M   'P 1'
_cell_length_a   9.69381200
_cell_length_b   9.52914020
_cell_length_c   6.72589000
_cell_angle_alpha   90.00000000
_cell_angle_beta   90.00000000
_cell_angle_gamma   120.57331203
_symmetry_Int_Tables_number   1
_chemical_formula_structural   Pr5AlBi2Cl
_chemical_formula_sum   'Pr10 Al2 Bi4 Cl2'
_cell_volume   534.92223404
_cell_formula_units_Z   2
loop_
 _symmetry_equiv_pos_site_id
 _symmetry_equiv_pos_as_xyz
  1  'x, y, z'
loop_
 _atom_site_type_symbol
 _atom_site_label
 _atom_site_symmetry_multiplicity
 _atom_site_fract_x
 _atom_site_fract_y
 _atom_site_fract_z
 _atom_site_occupancy
  Pr  Pr0  1  0.728742  0.000000  0.750000  1
  Pr  Pr1  1  0.992024  0.254276  0.250000  1
  Pr  Pr2  1  0.737748  0.745724  0.250000  1
  Pr  Pr3  1  0.339754  0.679510  0.500000  1
  Pr  Pr4  1  0.339754  0.679510  0.000000  1
  Pr  Pr5  1  0.660246  0.320490  0.500000  1
  Pr  Pr6  1  0.660246  0.320490  0.000000  1
  Pr  Pr7  1  0.271258  0.000000  0.250000  1
  Pr  Pr8  1  0.262252  0.254276  0.750000  1
  Pr  Pr9  1  0.007976  0.745724  0.750000  1
  Al  Al10  1  0.391829  0.000000  0.750000  1
  Al  Al11  1  0.608171  0.000000  0.250000  1
  Bi  Bi12  1  0.997489  0.613115  0.250000  1
  Bi  Bi13  1  0.615626  0.613115  0.750000  1
  Bi  Bi14  1  0.002511  0.386885  0.750000  1
  Bi  Bi15  1  0.384374  0.386885  0.250000  1
  Cl  Cl16  1  0.000000  0.000000  0.500000  1
  Cl  Cl17  1  0.000000  0.000000  0.000000  1
