# generated using pymatgen
data_Er8Be4Si11Ge
_symmetry_space_group_name_H-M   'P 1'
_cell_length_a   7.84092321
_cell_length_b   7.84088913
_cell_length_c   7.97823300
_cell_angle_alpha   89.99867610
_cell_angle_beta   90.00130390
_cell_angle_gamma   119.97372292
_symmetry_Int_Tables_number   1
_chemical_formula_structural   Er8Be4Si11Ge
_chemical_formula_sum   'Er8 Be4 Si11 Ge1'
_cell_volume   424.89810518
_cell_formula_units_Z   1
loop_
 _symmetry_equiv_pos_site_id
 _symmetry_equiv_pos_as_xyz
  1  'x, y, z'
loop_
 _atom_site_type_symbol
 _atom_site_label
 _atom_site_symmetry_multiplicity
 _atom_site_fract_x
 _atom_site_fract_y
 _atom_site_fract_z
 _atom_site_occupancy
  Er  Er0  1  0.998450  0.497958  0.248767  1
  Er  Er1  1  0.499943  0.500059  0.249378  1
  Er  Er2  1  0.501893  0.001350  0.751166  1
  Er  Er3  1  0.998652  0.498106  0.751168  1
  Er  Er4  1  0.499838  0.500163  0.750704  1
  Er  Er5  1  0.502039  0.001548  0.248769  1
  Er  Er6  1  0.999185  0.000816  0.750966  1
  Er  Er7  1  0.999123  0.000878  0.249032  1
  Be  Be8  1  0.333279  0.666724  0.000896  1
  Be  Be9  1  0.666513  0.333488  0.998979  1
  Be  Be10  1  0.667247  0.332756  0.499582  1
  Be  Be11  1  0.335902  0.664099  0.500267  1
  Si  Si12  1  0.171857  0.344732  0.499569  1
  Si  Si13  1  0.655269  0.828146  0.499569  1
  Si  Si14  1  0.344976  0.172323  0.000460  1
  Si  Si15  1  0.821640  0.651691  0.500569  1
  Si  Si16  1  0.827230  0.172774  0.000325  1
  Si  Si17  1  0.827680  0.655027  0.000460  1
  Si  Si18  1  0.172138  0.344796  0.999637  1
  Si  Si19  1  0.655205  0.827863  0.999638  1
  Si  Si20  1  0.348303  0.178347  0.500570  1
  Si  Si21  1  0.827476  0.172528  0.500367  1
  Si  Si22  1  0.172678  0.827324  0.999601  1
  Ge  Ge23  1  0.173484  0.826504  0.499561  1
