# generated using pymatgen
data_Y5LuCuRh17
_symmetry_space_group_name_H-M   'P 1'
_cell_length_a   5.28504016
_cell_length_b   5.28496356
_cell_length_c   17.37178200
_cell_angle_alpha   90.00015353
_cell_angle_beta   90.00062766
_cell_angle_gamma   120.00210509
_symmetry_Int_Tables_number   1
_chemical_formula_structural   Y5LuCuRh17
_chemical_formula_sum   'Y5 Lu1 Cu1 Rh17'
_cell_volume   420.20002935
_cell_formula_units_Z   1
loop_
 _symmetry_equiv_pos_site_id
 _symmetry_equiv_pos_as_xyz
  1  'x, y, z'
loop_
 _atom_site_type_symbol
 _atom_site_label
 _atom_site_symmetry_multiplicity
 _atom_site_fract_x
 _atom_site_fract_y
 _atom_site_fract_z
 _atom_site_occupancy
  Y  Y0  1  0.666666  0.333319  0.041379  1
  Y  Y1  1  0.666668  0.333324  0.457894  1
  Y  Y2  1  0.333336  0.666693  0.541974  1
  Y  Y3  1  0.333330  0.666662  0.750533  1
  Y  Y4  1  0.666677  0.333333  0.249961  1
  Lu  Lu5  1  0.333333  0.666687  0.957504  1
  Cu  Cu6  1  0.333339  0.666661  0.249969  1
  Rh  Rh7  1  0.168635  0.831377  0.373249  1
  Rh  Rh8  1  0.168612  0.337216  0.373231  1
  Rh  Rh9  1  0.662742  0.831368  0.373250  1
  Rh  Rh10  1  0.832946  0.167028  0.625017  1
  Rh  Rh11  1  0.832958  0.665938  0.625035  1
  Rh  Rh12  1  0.334075  0.167035  0.625023  1
  Rh  Rh13  1  0.832811  0.167163  0.875729  1
  Rh  Rh14  1  0.832819  0.665657  0.875710  1
  Rh  Rh15  1  0.334336  0.167175  0.875725  1
  Rh  Rh16  1  0.168857  0.831185  0.126345  1
  Rh  Rh17  1  0.168819  0.337606  0.126361  1
  Rh  Rh18  1  0.662331  0.831172  0.126343  1
  Rh  Rh19  1  0.666685  0.333309  0.750106  1
  Rh  Rh20  1  0.000009  0.999988  0.249757  1
  Rh  Rh21  1  0.999996  0.000056  0.750141  1
  Rh  Rh22  1  0.000011  0.000027  0.497721  1
  Rh  Rh23  1  0.000007  0.000019  0.002043  1
