# generated using pymatgen
data_UFe5O8
_symmetry_space_group_name_H-M   'P 1'
_cell_length_a   6.23690844
_cell_length_b   6.38552788
_cell_length_c   6.28677432
_cell_angle_alpha   59.51366424
_cell_angle_beta   60.46034479
_cell_angle_gamma   60.41447493
_symmetry_Int_Tables_number   1
_chemical_formula_structural   UFe5O8
_chemical_formula_sum   'U1 Fe5 O8'
_cell_volume   177.53196457
_cell_formula_units_Z   1
loop_
 _symmetry_equiv_pos_site_id
 _symmetry_equiv_pos_as_xyz
  1  'x, y, z'
loop_
 _atom_site_type_symbol
 _atom_site_label
 _atom_site_symmetry_multiplicity
 _atom_site_fract_x
 _atom_site_fract_y
 _atom_site_fract_z
 _atom_site_occupancy
  U  U0  1  0.500152  0.000057  0.499947  1
  Fe  Fe1  1  0.861778  0.914066  0.856947  1
  Fe  Fe2  1  0.999662  0.499999  0.499932  1
  Fe  Fe3  1  0.499761  0.500010  0.500006  1
  Fe  Fe4  1  0.139603  0.085664  0.142578  1
  Fe  Fe5  1  0.499878  0.500067  0.000206  1
  O  O6  1  0.730042  0.772178  0.263668  1
  O  O7  1  0.736926  0.237395  0.267424  1
  O  O8  1  0.256966  0.244937  0.262341  1
  O  O9  1  0.263620  0.762371  0.732483  1
  O  O10  1  0.268663  0.695985  0.263235  1
  O  O11  1  0.742723  0.755303  0.737925  1
  O  O12  1  0.269635  0.228047  0.736051  1
  O  O13  1  0.730592  0.303920  0.737256  1
