# generated using pymatgen
data_Nd6TiFe(Co4P3)4
_symmetry_space_group_name_H-M   'P 1'
_cell_length_a   3.76843900
_cell_length_b   10.70679900
_cell_length_c   12.44253000
_cell_angle_alpha   90.00000000
_cell_angle_beta   90.00000000
_cell_angle_gamma   90.00000000
_symmetry_Int_Tables_number   1
_chemical_formula_structural   Nd6TiFe(Co4P3)4
_chemical_formula_sum   'Nd6 Ti1 Fe1 Co16 P12'
_cell_volume   502.03019156
_cell_formula_units_Z   1
loop_
 _symmetry_equiv_pos_site_id
 _symmetry_equiv_pos_as_xyz
  1  'x, y, z'
loop_
 _atom_site_type_symbol
 _atom_site_label
 _atom_site_symmetry_multiplicity
 _atom_site_fract_x
 _atom_site_fract_y
 _atom_site_fract_z
 _atom_site_occupancy
  Nd  Nd0  1  0.000000  0.500000  0.524139  1
  Nd  Nd1  1  0.500000  0.000000  0.479375  1
  Nd  Nd2  1  0.500000  0.819419  0.206274  1
  Nd  Nd3  1  0.500000  0.180581  0.206274  1
  Nd  Nd4  1  0.000000  0.681922  0.795639  1
  Nd  Nd5  1  0.000000  0.318078  0.795639  1
  Ti  Ti6  1  0.500000  0.500000  0.149448  1
  Fe  Fe7  1  0.000000  0.000000  0.844169  1
  Co  Co8  1  0.500000  0.500000  0.703893  1
  Co  Co9  1  0.000000  0.000000  0.295826  1
  Co  Co10  1  0.000000  0.500000  0.987405  1
  Co  Co11  1  0.500000  0.000000  0.011253  1
  Co  Co12  1  0.500000  0.330583  0.993213  1
  Co  Co13  1  0.500000  0.669417  0.993213  1
  Co  Co14  1  0.000000  0.165023  0.003312  1
  Co  Co15  1  0.000000  0.834977  0.003312  1
  Co  Co16  1  0.500000  0.296020  0.431367  1
  Co  Co17  1  0.500000  0.703980  0.431367  1
  Co  Co18  1  0.000000  0.203601  0.569567  1
  Co  Co19  1  0.000000  0.796399  0.569567  1
  Co  Co20  1  0.500000  0.881189  0.709581  1
  Co  Co21  1  0.500000  0.118811  0.709581  1
  Co  Co22  1  0.000000  0.619576  0.292198  1
  Co  Co23  1  0.000000  0.380424  0.292198  1
  P  P24  1  0.500000  0.500000  0.886135  1
  P  P25  1  0.000000  0.000000  0.112884  1
  P  P26  1  0.500000  0.500000  0.347763  1
  P  P27  1  0.000000  0.000000  0.661934  1
  P  P28  1  0.500000  0.305263  0.614986  1
  P  P29  1  0.500000  0.694737  0.614986  1
  P  P30  1  0.000000  0.193484  0.386951  1
  P  P31  1  0.000000  0.806516  0.386951  1
  P  P32  1  0.500000  0.850444  0.892475  1
  P  P33  1  0.500000  0.149556  0.892475  1
  P  P34  1  0.000000  0.657017  0.102326  1
  P  P35  1  0.000000  0.342983  0.102326  1
