# generated using pymatgen
data_Tb8PrDy3Fe2I17
_symmetry_space_group_name_H-M   'P 1'
_cell_length_a   9.80240713
_cell_length_b   11.80543277
_cell_length_c   11.78452209
_cell_angle_alpha   93.51176908
_cell_angle_beta   104.76093314
_cell_angle_gamma   114.33027944
_symmetry_Int_Tables_number   1
_chemical_formula_structural   Tb8PrDy3Fe2I17
_chemical_formula_sum   'Tb8 Pr1 Dy3 Fe2 I17'
_cell_volume   1180.02082817
_cell_formula_units_Z   1
loop_
 _symmetry_equiv_pos_site_id
 _symmetry_equiv_pos_as_xyz
  1  'x, y, z'
loop_
 _atom_site_type_symbol
 _atom_site_label
 _atom_site_symmetry_multiplicity
 _atom_site_fract_x
 _atom_site_fract_y
 _atom_site_fract_z
 _atom_site_occupancy
  Tb  Tb0  1  0.051092  0.499983  0.319786  1
  Tb  Tb1  1  0.990555  0.809640  0.584575  1
  Tb  Tb2  1  0.654554  0.241517  0.281252  1
  Tb  Tb3  1  0.007723  0.192886  0.409261  1
  Tb  Tb4  1  0.219838  0.670875  0.985562  1
  Tb  Tb5  1  0.256611  0.980576  0.889257  1
  Tb  Tb6  1  0.337198  0.757713  0.720738  1
  Tb  Tb7  1  0.946280  0.493394  0.678441  1
  Pr  Pr8  1  0.854476  0.712926  0.846307  1
  Dy  Dy9  1  0.749210  0.026799  0.113000  1
  Dy  Dy10  1  0.142836  0.287692  0.154674  1
  Dy  Dy11  1  0.783725  0.326455  0.020610  1
  Fe  Fe12  1  0.100843  0.737325  0.785678  1
  Fe  Fe13  1  0.896719  0.262308  0.214784  1
  I  I14  1  0.784400  0.528362  0.418765  1
  I  I15  1  0.645456  0.411014  0.760352  1
  I  I16  1  0.845516  0.898053  0.325673  1
  I  I17  1  0.327765  0.214564  0.367958  1
  I  I18  1  0.156354  0.102276  0.673179  1
  I  I19  1  0.584410  0.050413  0.843646  1
  I  I20  1  0.759520  0.188282  0.538444  1
  I  I21  1  0.546131  0.712562  0.954244  1
  I  I22  1  0.355468  0.580468  0.237947  1
  I  I23  1  0.216369  0.473117  0.583918  1
  I  I24  1  0.058387  0.369753  0.897532  1
  I  I25  1  0.450430  0.288943  0.045486  1
  I  I26  1  0.004091  0.004278  0.001270  1
  I  I27  1  0.241226  0.810907  0.463514  1
  I  I28  1  0.413317  0.946572  0.155114  1
  I  I29  1  0.672411  0.789778  0.623215  1
  I  I30  1  0.947084  0.630569  0.105816  1
