# generated using pymatgen
data_LiTm19Rh12
_symmetry_space_group_name_H-M   'P 1'
_cell_length_a   10.73011600
_cell_length_b   10.73011600
_cell_length_c   6.25688600
_cell_angle_alpha   90.00000000
_cell_angle_beta   90.00000000
_cell_angle_gamma   90.00000000
_symmetry_Int_Tables_number   1
_chemical_formula_structural   LiTm19Rh12
_chemical_formula_sum   'Li1 Tm19 Rh12'
_cell_volume   720.38900588
_cell_formula_units_Z   1
loop_
 _symmetry_equiv_pos_site_id
 _symmetry_equiv_pos_as_xyz
  1  'x, y, z'
loop_
 _atom_site_type_symbol
 _atom_site_label
 _atom_site_symmetry_multiplicity
 _atom_site_fract_x
 _atom_site_fract_y
 _atom_site_fract_z
 _atom_site_occupancy
  Li  Li0  1  0.000000  0.000000  0.500000  1
  Tm  Tm1  1  0.280064  0.083098  0.379800  1
  Tm  Tm2  1  0.292249  0.911428  0.880662  1
  Tm  Tm3  1  0.707751  0.088572  0.880662  1
  Tm  Tm4  1  0.719936  0.916902  0.379800  1
  Tm  Tm5  1  0.590142  0.792251  0.878422  1
  Tm  Tm6  1  0.586262  0.207590  0.377080  1
  Tm  Tm7  1  0.413738  0.792410  0.377080  1
  Tm  Tm8  1  0.409858  0.207749  0.878422  1
  Tm  Tm9  1  0.207590  0.413738  0.622920  1
  Tm  Tm10  1  0.207749  0.590142  0.121578  1
  Tm  Tm11  1  0.792251  0.409858  0.121578  1
  Tm  Tm12  1  0.792410  0.586262  0.622920  1
  Tm  Tm13  1  0.911428  0.707751  0.119338  1
  Tm  Tm14  1  0.916902  0.280064  0.620200  1
  Tm  Tm15  1  0.083098  0.719936  0.620200  1
  Tm  Tm16  1  0.088572  0.292249  0.119338  1
  Tm  Tm17  1  0.000000  0.000000  0.000000  1
  Tm  Tm18  1  0.500000  0.500000  0.000000  1
  Tm  Tm19  1  0.500000  0.500000  0.500000  1
  Rh  Rh20  1  0.845021  0.155836  0.243173  1
  Rh  Rh21  1  0.844164  0.845021  0.756827  1
  Rh  Rh22  1  0.155836  0.154979  0.756827  1
  Rh  Rh23  1  0.154979  0.844164  0.243173  1
  Rh  Rh24  1  0.654478  0.346139  0.748389  1
  Rh  Rh25  1  0.653861  0.654478  0.251611  1
  Rh  Rh26  1  0.346139  0.345522  0.251611  1
  Rh  Rh27  1  0.345522  0.653861  0.748389  1
  Rh  Rh28  1  0.500000  0.000000  0.125762  1
  Rh  Rh29  1  0.500000  0.000000  0.620678  1
  Rh  Rh30  1  0.000000  0.500000  0.874238  1
  Rh  Rh31  1  0.000000  0.500000  0.379322  1
