# generated using pymatgen
data_HoEr3(P3Rh4)2
_symmetry_space_group_name_H-M   'P 1'
_cell_length_a   3.95500100
_cell_length_b   11.30942600
_cell_length_c   12.96293700
_cell_angle_alpha   90.00000000
_cell_angle_beta   90.00000000
_cell_angle_gamma   90.00000000
_symmetry_Int_Tables_number   1
_chemical_formula_structural   HoEr3(P3Rh4)2
_chemical_formula_sum   'Ho2 Er6 P12 Rh16'
_cell_volume   579.81650163
_cell_formula_units_Z   2
loop_
 _symmetry_equiv_pos_site_id
 _symmetry_equiv_pos_as_xyz
  1  'x, y, z'
loop_
 _atom_site_type_symbol
 _atom_site_label
 _atom_site_symmetry_multiplicity
 _atom_site_fract_x
 _atom_site_fract_y
 _atom_site_fract_z
 _atom_site_occupancy
  Ho  Ho0  1  0.250000  0.250000  0.840249  1
  Ho  Ho1  1  0.750000  0.750000  0.159751  1
  Er  Er2  1  0.750000  0.250000  0.477086  1
  Er  Er3  1  0.250000  0.750000  0.522914  1
  Er  Er4  1  0.250000  0.929458  0.795908  1
  Er  Er5  1  0.250000  0.570542  0.795908  1
  Er  Er6  1  0.750000  0.070542  0.204092  1
  Er  Er7  1  0.750000  0.429458  0.204092  1
  P  P8  1  0.250000  0.250000  0.121344  1
  P  P9  1  0.750000  0.750000  0.878656  1
  P  P10  1  0.250000  0.250000  0.633581  1
  P  P11  1  0.750000  0.750000  0.366419  1
  P  P12  1  0.250000  0.436883  0.383191  1
  P  P13  1  0.250000  0.063117  0.383191  1
  P  P14  1  0.750000  0.563117  0.616809  1
  P  P15  1  0.750000  0.936883  0.616809  1
  P  P16  1  0.250000  0.912020  0.110521  1
  P  P17  1  0.250000  0.587980  0.110521  1
  P  P18  1  0.750000  0.087980  0.889479  1
  P  P19  1  0.750000  0.412020  0.889479  1
  Rh  Rh20  1  0.250000  0.250000  0.299368  1
  Rh  Rh21  1  0.750000  0.750000  0.700632  1
  Rh  Rh22  1  0.750000  0.250000  0.019955  1
  Rh  Rh23  1  0.250000  0.750000  0.980045  1
  Rh  Rh24  1  0.250000  0.418617  0.010071  1
  Rh  Rh25  1  0.250000  0.081383  0.010071  1
  Rh  Rh26  1  0.750000  0.581383  0.989929  1
  Rh  Rh27  1  0.750000  0.918617  0.989929  1
  Rh  Rh28  1  0.250000  0.459162  0.567207  1
  Rh  Rh29  1  0.250000  0.040838  0.567207  1
  Rh  Rh30  1  0.750000  0.540838  0.432793  1
  Rh  Rh31  1  0.750000  0.959162  0.432793  1
  Rh  Rh32  1  0.250000  0.878076  0.294969  1
  Rh  Rh33  1  0.250000  0.621924  0.294969  1
  Rh  Rh34  1  0.750000  0.121924  0.705031  1
  Rh  Rh35  1  0.750000  0.378076  0.705031  1
