# generated using pymatgen
data_La4Tm5LuSi8
_symmetry_space_group_name_H-M   'P 1'
_cell_length_a   7.77795501
_cell_length_b   7.77881400
_cell_length_c   14.30843602
_cell_angle_alpha   90.00000000
_cell_angle_beta   89.99474334
_cell_angle_gamma   90.00000000
_symmetry_Int_Tables_number   1
_chemical_formula_structural   La4Tm5LuSi8
_chemical_formula_sum   'La8 Tm10 Lu2 Si16'
_cell_volume   865.70709673
_cell_formula_units_Z   2
loop_
 _symmetry_equiv_pos_site_id
 _symmetry_equiv_pos_as_xyz
  1  'x, y, z'
loop_
 _atom_site_type_symbol
 _atom_site_label
 _atom_site_symmetry_multiplicity
 _atom_site_fract_x
 _atom_site_fract_y
 _atom_site_fract_z
 _atom_site_occupancy
  La  La0  1  0.991484  0.644207  0.039756  1
  La  La1  1  0.008698  0.355758  0.539586  1
  La  La2  1  0.644078  0.991411  0.960379  1
  La  La3  1  0.144191  0.508497  0.789691  1
  La  La4  1  0.855922  0.491411  0.289621  1
  La  La5  1  0.508516  0.144207  0.210244  1
  La  La6  1  0.491302  0.855758  0.710414  1
  La  La7  1  0.355809  0.008497  0.460309  1
  Tm  Tm8  1  0.359592  0.493827  0.374961  1
  Tm  Tm9  1  0.859664  0.006171  0.374910  1
  Tm  Tm10  1  0.993952  0.140340  0.125038  1
  Tm  Tm11  1  0.006262  0.859619  0.625023  1
  Tm  Tm12  1  0.640336  0.506171  0.875090  1
  Tm  Tm13  1  0.493738  0.359619  0.624977  1
  Tm  Tm14  1  0.506048  0.640340  0.124962  1
  Tm  Tm15  1  0.140408  0.993827  0.875039  1
  Tm  Tm16  1  0.681763  0.681897  0.500000  1
  Tm  Tm17  1  0.818237  0.181897  0.750000  1
  Lu  Lu18  1  0.181837  0.818241  0.250018  1
  Lu  Lu19  1  0.318163  0.318241  0.999982  1
  Si  Si20  1  0.063445  0.712407  0.436801  1
  Si  Si21  1  0.936858  0.287726  0.937069  1
  Si  Si22  1  0.712322  0.063341  0.562918  1
  Si  Si23  1  0.212371  0.436762  0.186788  1
  Si  Si24  1  0.787678  0.563341  0.687082  1
  Si  Si25  1  0.436555  0.212408  0.813199  1
  Si  Si26  1  0.563142  0.787726  0.312931  1
  Si  Si27  1  0.287630  0.936762  0.063212  1
  Si  Si28  1  0.850088  0.796124  0.810535  1
  Si  Si29  1  0.149987  0.203594  0.310484  1
  Si  Si30  1  0.796357  0.850078  0.189472  1
  Si  Si31  1  0.296228  0.650001  0.560490  1
  Si  Si32  1  0.703643  0.350078  0.060528  1
  Si  Si33  1  0.649912  0.296124  0.439465  1
  Si  Si34  1  0.350013  0.703594  0.939516  1
  Si  Si35  1  0.203772  0.150001  0.689510  1
