# generated using pymatgen
data_PrNdSm2GeI5
_symmetry_space_group_name_H-M   'P 1'
_cell_length_a   10.02595533
_cell_length_b   10.02595471
_cell_length_c   9.07087409
_cell_angle_alpha   77.79398506
_cell_angle_beta   77.79398614
_cell_angle_gamma   25.04883748
_symmetry_Int_Tables_number   1
_chemical_formula_structural   PrNdSm2GeI5
_chemical_formula_sum   'Pr1 Nd1 Sm2 Ge1 I5'
_cell_volume   376.88549096
_cell_formula_units_Z   1
loop_
 _symmetry_equiv_pos_site_id
 _symmetry_equiv_pos_as_xyz
  1  'x, y, z'
loop_
 _atom_site_type_symbol
 _atom_site_label
 _atom_site_symmetry_multiplicity
 _atom_site_fract_x
 _atom_site_fract_y
 _atom_site_fract_z
 _atom_site_occupancy
  Pr  Pr0  1  0.499019  0.499019  0.783334  1
  Nd  Nd1  1  0.500888  0.500888  0.216121  1
  Sm  Sm2  1  0.853577  0.853577  0.075184  1
  Sm  Sm3  1  0.146439  0.146439  0.924974  1
  Ge  Ge4  1  0.000007  0.000007  0.001027  1
  I  I5  1  0.673618  0.673618  0.164228  1
  I  I6  1  0.326148  0.326148  0.835945  1
  I  I7  1  0.667611  0.667611  0.667316  1
  I  I8  1  0.332683  0.332683  0.332601  1
  I  I9  1  0.000011  0.000011  0.499269  1
