# generated using pymatgen
data_LiHo2MgPt2
_symmetry_space_group_name_H-M   'P 1'
_cell_length_a   4.06628300
_cell_length_b   6.98877100
_cell_length_c   8.65555600
_cell_angle_alpha   90.00000000
_cell_angle_beta   90.00000000
_cell_angle_gamma   90.00000000
_symmetry_Int_Tables_number   1
_chemical_formula_structural   LiHo2MgPt2
_chemical_formula_sum   'Li2 Ho4 Mg2 Pt4'
_cell_volume   245.97636632
_cell_formula_units_Z   2
loop_
 _symmetry_equiv_pos_site_id
 _symmetry_equiv_pos_as_xyz
  1  'x, y, z'
loop_
 _atom_site_type_symbol
 _atom_site_label
 _atom_site_symmetry_multiplicity
 _atom_site_fract_x
 _atom_site_fract_y
 _atom_site_fract_z
 _atom_site_occupancy
  Li  Li0  1  0.250000  0.133056  0.438555  1
  Li  Li1  1  0.250000  0.633056  0.061445  1
  Ho  Ho2  1  0.250000  0.042144  0.824109  1
  Ho  Ho3  1  0.250000  0.542144  0.675891  1
  Ho  Ho4  1  0.750000  0.952665  0.178548  1
  Ho  Ho5  1  0.750000  0.452665  0.321452  1
  Mg  Mg6  1  0.750000  0.873420  0.558064  1
  Mg  Mg7  1  0.750000  0.373420  0.941936  1
  Pt  Pt8  1  0.250000  0.743523  0.376842  1
  Pt  Pt9  1  0.250000  0.243523  0.123158  1
  Pt  Pt10  1  0.750000  0.255193  0.626181  1
  Pt  Pt11  1  0.750000  0.755193  0.873819  1
