# generated using pymatgen
data_Rb3LiIrO4
_symmetry_space_group_name_H-M   'P 1'
_cell_length_a   7.55636001
_cell_length_b   7.55635995
_cell_length_c   6.21368412
_cell_angle_alpha   78.92867812
_cell_angle_beta   78.92867525
_cell_angle_gamma   85.68021639
_symmetry_Int_Tables_number   1
_chemical_formula_structural   Rb3LiIrO4
_chemical_formula_sum   'Rb6 Li2 Ir2 O8'
_cell_volume   341.43687401
_cell_formula_units_Z   2
loop_
 _symmetry_equiv_pos_site_id
 _symmetry_equiv_pos_as_xyz
  1  'x, y, z'
loop_
 _atom_site_type_symbol
 _atom_site_label
 _atom_site_symmetry_multiplicity
 _atom_site_fract_x
 _atom_site_fract_y
 _atom_site_fract_z
 _atom_site_occupancy
  Rb  Rb0  1  0.066950  0.244881  0.023360  1
  Rb  Rb1  1  0.594550  0.405450  0.250000  1
  Rb  Rb2  1  0.244881  0.066950  0.523360  1
  Rb  Rb3  1  0.755119  0.933050  0.476640  1
  Rb  Rb4  1  0.933050  0.755119  0.976640  1
  Rb  Rb5  1  0.405450  0.594550  0.750000  1
  Li  Li6  1  0.731778  0.268222  0.750000  1
  Li  Li7  1  0.268222  0.731778  0.250000  1
  Ir  Ir8  1  0.500000  0.000000  0.000000  1
  Ir  Ir9  1  0.000000  0.500000  0.500000  1
  O  O10  1  0.199693  0.484845  0.253722  1
  O  O11  1  0.911902  0.271637  0.476048  1
  O  O12  1  0.484845  0.199693  0.753722  1
  O  O13  1  0.271637  0.911902  0.976048  1
  O  O14  1  0.088098  0.728363  0.523952  1
  O  O15  1  0.728363  0.088098  0.023952  1
  O  O16  1  0.515155  0.800307  0.246278  1
  O  O17  1  0.800307  0.515155  0.746278  1
