# generated using pymatgen
data_Nb2ReP6WO24
_symmetry_space_group_name_H-M   'P 1'
_cell_length_a   8.75883526
_cell_length_b   8.74929269
_cell_length_c   9.07659725
_cell_angle_alpha   90.10767377
_cell_angle_beta   118.68287607
_cell_angle_gamma   119.77776564
_symmetry_Int_Tables_number   1
_chemical_formula_structural   Nb2ReP6WO24
_chemical_formula_sum   'Nb2 Re1 P6 W1 O24'
_cell_volume   502.59102056
_cell_formula_units_Z   1
loop_
 _symmetry_equiv_pos_site_id
 _symmetry_equiv_pos_as_xyz
  1  'x, y, z'
loop_
 _atom_site_type_symbol
 _atom_site_label
 _atom_site_symmetry_multiplicity
 _atom_site_fract_x
 _atom_site_fract_y
 _atom_site_fract_z
 _atom_site_occupancy
  Nb  Nb0  1  0.211278  0.356577  0.568367  1
  Nb  Nb1  1  0.785813  0.142632  0.929500  1
  Re  Re2  1  0.789514  0.642922  0.433480  1
  P  P3  1  0.993761  0.960135  0.249128  1
  P  P4  1  0.288012  0.533296  0.251175  1
  P  P5  1  0.281119  0.752625  0.746373  1
  P  P6  1  0.715846  0.253671  0.253768  1
  P  P7  1  0.718995  0.468146  0.747325  1
  P  P8  1  0.999652  0.030040  0.750841  1
  W  W9  1  0.212781  0.857566  0.072370  1
  O  O10  1  0.298765  0.710155  0.225108  1
  O  O11  1  0.861777  0.992073  0.078970  1
  O  O12  1  0.847441  0.852986  0.592876  1
  O  O13  1  0.840035  0.795912  0.276180  1
  O  O14  1  0.144223  0.930500  0.233644  1
  O  O15  1  0.480384  0.544639  0.279145  1
  O  O16  1  0.099972  0.741999  0.580843  1
  O  O17  1  0.895877  0.635265  0.912268  1
  O  O18  1  0.279949  0.777695  0.911930  1
  O  O19  1  0.490568  0.920141  0.778294  1
  O  O20  1  0.734746  0.483398  0.586099  1
  O  O21  1  0.728002  0.434455  0.271169  1
  O  O22  1  0.278680  0.576240  0.717481  1
  O  O23  1  0.271756  0.505163  0.412948  1
  O  O24  1  0.522851  0.089144  0.236737  1
  O  O25  1  0.721816  0.216657  0.088732  1
  O  O26  1  0.087000  0.362736  0.086449  1
  O  O27  1  0.914289  0.279770  0.418681  1
  O  O28  1  0.507445  0.433089  0.704191  1
  O  O29  1  0.863012  0.073555  0.779986  1
  O  O30  1  0.139558  0.197803  0.711884  1
  O  O31  1  0.132950  0.139027  0.406875  1
  O  O32  1  0.150368  0.018302  0.922859  1
  O  O33  1  0.711765  0.291688  0.784324  1
