# generated using pymatgen
data_Tb3Dy2IrRu
_symmetry_space_group_name_H-M   'P 1'
_cell_length_a   6.43913020
_cell_length_b   7.25271711
_cell_length_c   8.54756549
_cell_angle_alpha   96.71843765
_cell_angle_beta   112.12724004
_cell_angle_gamma   89.99999990
_symmetry_Int_Tables_number   1
_chemical_formula_structural   Tb3Dy2IrRu
_chemical_formula_sum   'Tb6 Dy4 Ir2 Ru2'
_cell_volume   366.82083619
_cell_formula_units_Z   2
loop_
 _symmetry_equiv_pos_site_id
 _symmetry_equiv_pos_as_xyz
  1  'x, y, z'
loop_
 _atom_site_type_symbol
 _atom_site_label
 _atom_site_symmetry_multiplicity
 _atom_site_fract_x
 _atom_site_fract_y
 _atom_site_fract_z
 _atom_site_occupancy
  Tb  Tb0  1  0.791453  0.084364  0.814977  1
  Tb  Tb1  1  0.976476  0.415636  0.185023  1
  Tb  Tb2  1  0.207062  0.917168  0.186038  1
  Tb  Tb3  1  0.021024  0.582832  0.813962  1
  Tb  Tb4  1  0.211309  0.185472  0.562547  1
  Tb  Tb5  1  0.648761  0.314528  0.437453  1
  Dy  Dy6  1  0.788528  0.815875  0.435323  1
  Dy  Dy7  1  0.353205  0.684125  0.564677  1
  Dy  Dy8  1  0.426901  0.250000  0.000000  1
  Dy  Dy9  1  0.573722  0.750000  0.000000  1
  Ir  Ir10  1  0.398502  0.575479  0.222130  1
  Ir  Ir11  1  0.176373  0.924521  0.777870  1
  Ru  Ru12  1  0.602871  0.427147  0.779060  1
  Ru  Ru13  1  0.823811  0.072853  0.220940  1
