# generated using pymatgen
data_Nd8ZnInIr2
_symmetry_space_group_name_H-M   'P 1'
_cell_length_a   9.91983993
_cell_length_b   9.91983943
_cell_length_c   9.91996400
_cell_angle_alpha   59.99959127
_cell_angle_beta   59.99959292
_cell_angle_gamma   60.12031416
_symmetry_Int_Tables_number   1
_chemical_formula_structural   Nd8ZnInIr2
_chemical_formula_sum   'Nd16 Zn2 In2 Ir4'
_cell_volume   690.86797193
_cell_formula_units_Z   2
loop_
 _symmetry_equiv_pos_site_id
 _symmetry_equiv_pos_as_xyz
  1  'x, y, z'
loop_
 _atom_site_type_symbol
 _atom_site_label
 _atom_site_symmetry_multiplicity
 _atom_site_fract_x
 _atom_site_fract_y
 _atom_site_fract_z
 _atom_site_occupancy
  Nd  Nd0  1  0.349817  0.349817  0.349557  1
  Nd  Nd1  1  0.349817  0.349817  0.950808  1
  Nd  Nd2  1  0.350731  0.950476  0.349396  1
  Nd  Nd3  1  0.950476  0.350731  0.349396  1
  Nd  Nd4  1  0.807609  0.190819  0.193570  1
  Nd  Nd5  1  0.190819  0.807609  0.808002  1
  Nd  Nd6  1  0.190819  0.807609  0.193570  1
  Nd  Nd7  1  0.807609  0.190819  0.808002  1
  Nd  Nd8  1  0.190575  0.190575  0.809425  1
  Nd  Nd9  1  0.806783  0.806783  0.193217  1
  Nd  Nd10  1  0.945089  0.561194  0.561190  1
  Nd  Nd11  1  0.561194  0.945089  0.932527  1
  Nd  Nd12  1  0.561194  0.945089  0.561190  1
  Nd  Nd13  1  0.945089  0.561194  0.932527  1
  Nd  Nd14  1  0.561298  0.561298  0.938702  1
  Nd  Nd15  1  0.939174  0.939174  0.560826  1
  Zn  Zn16  1  0.577783  0.258494  0.581860  1
  Zn  Zn17  1  0.258494  0.577783  0.581860  1
  In  In18  1  0.577250  0.577250  0.582026  1
  In  In19  1  0.577250  0.577250  0.263473  1
  Ir  Ir20  1  0.141946  0.141946  0.141088  1
  Ir  Ir21  1  0.141946  0.141946  0.575020  1
  Ir  Ir22  1  0.142745  0.574491  0.141382  1
  Ir  Ir23  1  0.574491  0.142745  0.141382  1
