# generated using pymatgen
data_Zr10HgBi3Pb3Au
_symmetry_space_group_name_H-M   'P 1'
_cell_length_a   8.92227500
_cell_length_b   8.92227405
_cell_length_c   6.03275500
_cell_angle_alpha   90.00000000
_cell_angle_beta   90.00000000
_cell_angle_gamma   119.99999982
_symmetry_Int_Tables_number   1
_chemical_formula_structural   Zr10HgBi3Pb3Au
_chemical_formula_sum   'Zr10 Hg1 Bi3 Pb3 Au1'
_cell_volume   415.90820111
_cell_formula_units_Z   1
loop_
 _symmetry_equiv_pos_site_id
 _symmetry_equiv_pos_as_xyz
  1  'x, y, z'
loop_
 _atom_site_type_symbol
 _atom_site_label
 _atom_site_symmetry_multiplicity
 _atom_site_fract_x
 _atom_site_fract_y
 _atom_site_fract_z
 _atom_site_occupancy
  Zr  Zr0  1  0.666667  0.333333  0.001711  1
  Zr  Zr1  1  0.333333  0.666667  0.001711  1
  Zr  Zr2  1  0.333333  0.666667  0.498164  1
  Zr  Zr3  1  0.666667  0.333333  0.498164  1
  Zr  Zr4  1  0.723694  0.723694  0.746203  1
  Zr  Zr5  1  0.276306  0.000000  0.746203  1
  Zr  Zr6  1  0.000000  0.276306  0.746203  1
  Zr  Zr7  1  0.276521  0.276521  0.253699  1
  Zr  Zr8  1  0.723479  0.000000  0.253699  1
  Zr  Zr9  1  0.000000  0.723479  0.253699  1
  Hg  Hg10  1  0.000000  0.000000  0.000733  1
  Bi  Bi11  1  0.383026  0.383026  0.751202  1
  Bi  Bi12  1  0.616974  0.000000  0.751202  1
  Bi  Bi13  1  0.000000  0.616974  0.751202  1
  Pb  Pb14  1  0.618825  0.618825  0.249143  1
  Pb  Pb15  1  0.381175  0.000000  0.249143  1
  Pb  Pb16  1  0.000000  0.381175  0.249143  1
  Au  Au17  1  0.000000  0.000000  0.498779  1
