# generated using pymatgen
data_Li8Dy5Th3Sn8
_symmetry_space_group_name_H-M   'P 1'
_cell_length_a   9.55311053
_cell_length_b   9.51702139
_cell_length_c   7.28027500
_cell_angle_alpha   89.97376332
_cell_angle_beta   90.10658349
_cell_angle_gamma   119.91505318
_symmetry_Int_Tables_number   1
_chemical_formula_structural   Li8Dy5Th3Sn8
_chemical_formula_sum   'Li8 Dy5 Th3 Sn8'
_cell_volume   573.71282790
_cell_formula_units_Z   1
loop_
 _symmetry_equiv_pos_site_id
 _symmetry_equiv_pos_as_xyz
  1  'x, y, z'
loop_
 _atom_site_type_symbol
 _atom_site_label
 _atom_site_symmetry_multiplicity
 _atom_site_fract_x
 _atom_site_fract_y
 _atom_site_fract_z
 _atom_site_occupancy
  Li  Li0  1  0.166083  0.333973  0.289100  1
  Li  Li1  1  0.166071  0.832048  0.288921  1
  Li  Li2  1  0.666942  0.833376  0.287539  1
  Li  Li3  1  0.668124  0.334044  0.293306  1
  Li  Li4  1  0.833996  0.665728  0.714404  1
  Li  Li5  1  0.333181  0.166599  0.711755  1
  Li  Li6  1  0.834042  0.168288  0.713923  1
  Li  Li7  1  0.331630  0.665823  0.723724  1
  Dy  Dy8  1  0.998571  0.499204  0.002340  1
  Dy  Dy9  1  0.999622  0.999873  0.502033  1
  Dy  Dy10  1  0.499532  0.998326  0.502318  1
  Dy  Dy11  1  0.001420  0.500725  0.502338  1
  Dy  Dy12  1  0.499597  0.501318  0.502294  1
  Th  Th13  1  0.000519  0.000340  0.002232  1
  Th  Th14  1  0.500538  0.001660  0.002473  1
  Th  Th15  1  0.500494  0.498876  0.002538  1
  Sn  Sn16  1  0.331293  0.665602  0.254484  1
  Sn  Sn17  1  0.834086  0.665863  0.256595  1
  Sn  Sn18  1  0.333546  0.166567  0.262137  1
  Sn  Sn19  1  0.833915  0.168288  0.256770  1
  Sn  Sn20  1  0.668306  0.334140  0.746362  1
  Sn  Sn21  1  0.165670  0.334341  0.747870  1
  Sn  Sn22  1  0.165993  0.831657  0.748176  1
  Sn  Sn23  1  0.666833  0.833345  0.744352  1
