# generated using pymatgen
data_La4Ho6Ru3Rh
_symmetry_space_group_name_H-M   'P 1'
_cell_length_a   6.51085472
_cell_length_b   7.22314943
_cell_length_c   8.85306217
_cell_angle_alpha   96.28695507
_cell_angle_beta   112.02723688
_cell_angle_gamma   89.85287284
_symmetry_Int_Tables_number   1
_chemical_formula_structural   La4Ho6Ru3Rh
_chemical_formula_sum   'La4 Ho6 Ru3 Rh1'
_cell_volume   383.30214998
_cell_formula_units_Z   1
loop_
 _symmetry_equiv_pos_site_id
 _symmetry_equiv_pos_as_xyz
  1  'x, y, z'
loop_
 _atom_site_type_symbol
 _atom_site_label
 _atom_site_symmetry_multiplicity
 _atom_site_fract_x
 _atom_site_fract_y
 _atom_site_fract_z
 _atom_site_occupancy
  La  La0  1  0.986102  0.916269  0.193675  1
  La  La1  1  0.786227  0.589456  0.801397  1
  La  La2  1  0.016144  0.089551  0.805146  1
  La  La3  1  0.218170  0.409837  0.197333  1
  Ho  Ho4  1  0.633126  0.815504  0.430406  1
  Ho  Ho5  1  0.208539  0.686407  0.572028  1
  Ho  Ho6  1  0.365763  0.186295  0.570545  1
  Ho  Ho7  1  0.796450  0.313942  0.432065  1
  Ho  Ho8  1  0.426899  0.749171  0.999411  1
  Ho  Ho9  1  0.571041  0.248361  0.997438  1
  Ru  Ru10  1  0.600860  0.918351  0.778765  1
  Ru  Ru11  1  0.171315  0.418541  0.770436  1
  Ru  Ru12  1  0.401279  0.080337  0.222362  1
  Rh  Rh13  1  0.818083  0.577979  0.228993  1
