# generated using pymatgen
data_Y6Sc4AlSb5
_symmetry_space_group_name_H-M   'P 1'
_cell_length_a   6.13658000
_cell_length_b   8.75046274
_cell_length_c   8.75028605
_cell_angle_alpha   120.01440459
_cell_angle_beta   90.00023921
_cell_angle_gamma   90.00029202
_symmetry_Int_Tables_number   1
_chemical_formula_structural   Y6Sc4AlSb5
_chemical_formula_sum   'Y6 Sc4 Al1 Sb5'
_cell_volume   406.86210952
_cell_formula_units_Z   1
loop_
 _symmetry_equiv_pos_site_id
 _symmetry_equiv_pos_as_xyz
  1  'x, y, z'
loop_
 _atom_site_type_symbol
 _atom_site_label
 _atom_site_symmetry_multiplicity
 _atom_site_fract_x
 _atom_site_fract_y
 _atom_site_fract_z
 _atom_site_occupancy
  Y  Y0  1  0.749995  0.248873  0.000002  1
  Y  Y1  1  0.750005  0.752636  0.761367  1
  Y  Y2  1  0.750006  0.991277  0.238658  1
  Y  Y3  1  0.250004  0.757480  0.000019  1
  Y  Y4  1  0.250002  0.246058  0.244298  1
  Y  Y5  1  0.249999  0.001757  0.755695  1
  Sc  Sc6  1  0.502540  0.336749  0.671389  1
  Sc  Sc7  1  0.502611  0.665319  0.328570  1
  Sc  Sc8  1  0.997386  0.665334  0.328554  1
  Sc  Sc9  1  0.997459  0.336732  0.671379  1
  Al  Al10  1  0.749998  0.598822  0.000094  1
  Sb  Sb11  1  0.749998  0.393297  0.395201  1
  Sb  Sb12  1  0.749997  0.998024  0.604766  1
  Sb  Sb13  1  0.249999  0.400893  0.000049  1
  Sb  Sb14  1  0.249999  0.605136  0.603422  1
  Sb  Sb15  1  0.250007  0.001614  0.396541  1
