# generated using pymatgen
data_Y2Pa(ZnPd)3
_symmetry_space_group_name_H-M   'P 1'
_cell_length_a   7.39583052
_cell_length_b   7.39582968
_cell_length_c   3.78853300
_cell_angle_alpha   90.00000000
_cell_angle_beta   90.00000000
_cell_angle_gamma   119.71100441
_symmetry_Int_Tables_number   1
_chemical_formula_structural   Y2Pa(ZnPd)3
_chemical_formula_sum   'Y2 Pa1 Zn3 Pd3'
_cell_volume   179.98359404
_cell_formula_units_Z   1
loop_
 _symmetry_equiv_pos_site_id
 _symmetry_equiv_pos_as_xyz
  1  'x, y, z'
loop_
 _atom_site_type_symbol
 _atom_site_label
 _atom_site_symmetry_multiplicity
 _atom_site_fract_x
 _atom_site_fract_y
 _atom_site_fract_z
 _atom_site_occupancy
  Y  Y0  1  0.405250  0.004524  0.000000  1
  Y  Y1  1  0.004524  0.405250  0.000000  1
  Pa  Pa2  1  0.593016  0.593016  0.000000  1
  Zn  Zn3  1  0.243517  0.243517  0.500000  1
  Zn  Zn4  1  0.745199  0.007965  0.500000  1
  Zn  Zn5  1  0.007965  0.745199  0.500000  1
  Pd  Pd6  1  0.987104  0.987104  0.000000  1
  Pd  Pd7  1  0.348833  0.664593  0.500000  1
  Pd  Pd8  1  0.664593  0.348833  0.500000  1
