# generated using pymatgen
data_Sc2MnAl3
_symmetry_space_group_name_H-M   'P 1'
_cell_length_a   5.37389000
_cell_length_b   5.37388718
_cell_length_c   8.41608700
_cell_angle_alpha   90.00004084
_cell_angle_beta   89.99995144
_cell_angle_gamma   120.00001736
_symmetry_Int_Tables_number   1
_chemical_formula_structural   Sc2MnAl3
_chemical_formula_sum   'Sc4 Mn2 Al6'
_cell_volume   210.48351561
_cell_formula_units_Z   2
loop_
 _symmetry_equiv_pos_site_id
 _symmetry_equiv_pos_as_xyz
  1  'x, y, z'
loop_
 _atom_site_type_symbol
 _atom_site_label
 _atom_site_symmetry_multiplicity
 _atom_site_fract_x
 _atom_site_fract_y
 _atom_site_fract_z
 _atom_site_occupancy
  Sc  Sc0  1  0.666666  0.333334  0.053557  1
  Sc  Sc1  1  0.666665  0.333334  0.446445  1
  Sc  Sc2  1  0.333335  0.666667  0.553554  1
  Sc  Sc3  1  0.333334  0.666667  0.946443  1
  Mn  Mn4  1  0.000000  0.000000  0.000000  1
  Mn  Mn5  1  0.000000  0.000000  0.500000  1
  Al  Al6  1  0.166716  0.333433  0.250000  1
  Al  Al7  1  0.166716  0.833284  0.250000  1
  Al  Al8  1  0.666567  0.833284  0.250000  1
  Al  Al9  1  0.333432  0.166716  0.750001  1
  Al  Al10  1  0.833285  0.166716  0.750001  1
  Al  Al11  1  0.833283  0.666567  0.750001  1
