# generated using pymatgen
data_CePu2Ni7B2
_symmetry_space_group_name_H-M   'P 1'
_cell_length_a   5.04975400
_cell_length_b   5.04975479
_cell_length_c   14.40332000
_cell_angle_alpha   90.00000000
_cell_angle_beta   90.00000000
_cell_angle_gamma   119.95303699
_symmetry_Int_Tables_number   1
_chemical_formula_structural   CePu2Ni7B2
_chemical_formula_sum   'Ce2 Pu4 Ni14 B4'
_cell_volume   318.22850591
_cell_formula_units_Z   2
loop_
 _symmetry_equiv_pos_site_id
 _symmetry_equiv_pos_as_xyz
  1  'x, y, z'
loop_
 _atom_site_type_symbol
 _atom_site_label
 _atom_site_symmetry_multiplicity
 _atom_site_fract_x
 _atom_site_fract_y
 _atom_site_fract_z
 _atom_site_occupancy
  Ce  Ce0  1  0.666662  0.333338  0.250000  1
  Ce  Ce1  1  0.333338  0.666662  0.750000  1
  Pu  Pu2  1  0.666666  0.333334  0.033100  1
  Pu  Pu3  1  0.333334  0.666666  0.966900  1
  Pu  Pu4  1  0.333334  0.666666  0.533100  1
  Pu  Pu5  1  0.666666  0.333334  0.466900  1
  Ni  Ni6  1  0.833839  0.667667  0.649359  1
  Ni  Ni7  1  0.833825  0.166175  0.649311  1
  Ni  Ni8  1  0.332333  0.166161  0.649359  1
  Ni  Ni9  1  0.166161  0.332333  0.350641  1
  Ni  Ni10  1  0.166175  0.833825  0.350689  1
  Ni  Ni11  1  0.667667  0.833839  0.350641  1
  Ni  Ni12  1  0.166161  0.332333  0.149359  1
  Ni  Ni13  1  0.166175  0.833825  0.149311  1
  Ni  Ni14  1  0.667667  0.833839  0.149359  1
  Ni  Ni15  1  0.833839  0.667667  0.850641  1
  Ni  Ni16  1  0.833825  0.166175  0.850689  1
  Ni  Ni17  1  0.332333  0.166161  0.850641  1
  Ni  Ni18  1  0.000000  0.000000  0.500000  1
  Ni  Ni19  1  0.000000  0.000000  0.000000  1
  B  B20  1  0.666679  0.333321  0.750000  1
  B  B21  1  0.333321  0.666679  0.250000  1
  B  B22  1  0.999965  0.000035  0.750000  1
  B  B23  1  0.000035  0.999965  0.250000  1
