# generated using pymatgen
data_DyY4(In2Rh)2
_symmetry_space_group_name_H-M   'P 1'
_cell_length_a   3.64375300
_cell_length_b   8.05160357
_cell_length_c   18.36236968
_cell_angle_alpha   90.16749956
_cell_angle_beta   90.00000000
_cell_angle_gamma   90.00000000
_symmetry_Int_Tables_number   1
_chemical_formula_structural   DyY4(In2Rh)2
_chemical_formula_sum   'Dy2 Y8 In8 Rh4'
_cell_volume   538.71390363
_cell_formula_units_Z   2
loop_
 _symmetry_equiv_pos_site_id
 _symmetry_equiv_pos_as_xyz
  1  'x, y, z'
loop_
 _atom_site_type_symbol
 _atom_site_label
 _atom_site_symmetry_multiplicity
 _atom_site_fract_x
 _atom_site_fract_y
 _atom_site_fract_z
 _atom_site_occupancy
  Dy  Dy0  1  0.500000  0.246922  0.278308  1
  Dy  Dy1  1  0.500000  0.616689  0.410953  1
  Y  Y2  1  0.500000  0.382947  0.587985  1
  Y  Y3  1  0.500000  0.882718  0.911897  1
  Y  Y4  1  0.500000  0.117435  0.088101  1
  Y  Y5  1  0.500000  0.753475  0.721367  1
  Y  Y6  1  0.500000  0.253544  0.778841  1
  Y  Y7  1  0.500000  0.500012  0.000022  1
  Y  Y8  1  0.500000  0.746720  0.221224  1
  Y  Y9  1  0.500000  0.999376  0.499738  1
  In  In10  1  0.000000  0.793024  0.068927  1
  In  In11  1  0.000000  0.928563  0.349139  1
  In  In12  1  0.000000  0.071591  0.650837  1
  In  In13  1  0.000000  0.571646  0.849166  1
  In  In14  1  0.000000  0.707009  0.568771  1
  In  In15  1  0.000000  0.207129  0.931132  1
  In  In16  1  0.000000  0.292890  0.431219  1
  In  In17  1  0.000000  0.428205  0.150806  1
  Rh  Rh18  1  0.000000  0.976790  0.805025  1
  Rh  Rh19  1  0.000000  0.521566  0.306021  1
  Rh  Rh20  1  0.000000  0.476702  0.694934  1
  Rh  Rh21  1  0.000000  0.025046  0.195588  1
