# generated using pymatgen
data_Ho16Sc4(Ir3Pt)3
_symmetry_space_group_name_H-M   'P 1'
_cell_length_a   10.79905186
_cell_length_b   10.79905186
_cell_length_c   6.24633500
_cell_angle_alpha   90.00180312
_cell_angle_beta   90.00180312
_cell_angle_gamma   90.08335145
_symmetry_Int_Tables_number   1
_chemical_formula_structural   Ho16Sc4(Ir3Pt)3
_chemical_formula_sum   'Ho16 Sc4 Ir9 Pt3'
_cell_volume   728.44382457
_cell_formula_units_Z   1
loop_
 _symmetry_equiv_pos_site_id
 _symmetry_equiv_pos_as_xyz
  1  'x, y, z'
loop_
 _atom_site_type_symbol
 _atom_site_label
 _atom_site_symmetry_multiplicity
 _atom_site_fract_x
 _atom_site_fract_y
 _atom_site_fract_z
 _atom_site_occupancy
  Ho  Ho0  1  0.290431  0.085532  0.373669  1
  Ho  Ho1  1  0.289710  0.911184  0.877675  1
  Ho  Ho2  1  0.708649  0.087822  0.875245  1
  Ho  Ho3  1  0.707997  0.912043  0.374885  1
  Ho  Ho4  1  0.584008  0.787639  0.878309  1
  Ho  Ho5  1  0.584201  0.212388  0.378473  1
  Ho  Ho6  1  0.413442  0.787956  0.377947  1
  Ho  Ho7  1  0.415567  0.212419  0.878270  1
  Ho  Ho8  1  0.212361  0.415992  0.621691  1
  Ho  Ho9  1  0.212044  0.586558  0.122053  1
  Ho  Ho10  1  0.787612  0.415799  0.121527  1
  Ho  Ho11  1  0.787581  0.584433  0.621730  1
  Ho  Ho12  1  0.914468  0.709569  0.126331  1
  Ho  Ho13  1  0.912178  0.291351  0.624755  1
  Ho  Ho14  1  0.088816  0.710290  0.622325  1
  Ho  Ho15  1  0.087957  0.292003  0.125115  1
  Sc  Sc16  1  0.001753  0.997773  0.497920  1
  Sc  Sc17  1  0.002227  0.998247  0.002080  1
  Sc  Sc18  1  0.499848  0.500047  0.000224  1
  Sc  Sc19  1  0.499953  0.500152  0.499776  1
  Ir  Ir20  1  0.146283  0.853717  0.250000  1
  Ir  Ir21  1  0.648967  0.351033  0.750000  1
  Ir  Ir22  1  0.648918  0.648945  0.250028  1
  Ir  Ir23  1  0.351055  0.351082  0.249972  1
  Ir  Ir24  1  0.351734  0.648266  0.750000  1
  Ir  Ir25  1  0.500555  0.000125  0.122347  1
  Ir  Ir26  1  0.500444  0.000232  0.623350  1
  Ir  Ir27  1  0.999768  0.499556  0.876650  1
  Ir  Ir28  1  0.999875  0.499445  0.377653  1
  Pt  Pt29  1  0.852278  0.147722  0.250000  1
  Pt  Pt30  1  0.851640  0.852320  0.749985  1
  Pt  Pt31  1  0.147680  0.148360  0.750015  1
