# generated using pymatgen
data_Tb2Dy2ReRu7
_symmetry_space_group_name_H-M   'P 1'
_cell_length_a   5.21097475
_cell_length_b   5.45673566
_cell_length_c   9.00156602
_cell_angle_alpha   90.00000059
_cell_angle_beta   89.99373430
_cell_angle_gamma   121.57278048
_symmetry_Int_Tables_number   1
_chemical_formula_structural   Tb2Dy2ReRu7
_chemical_formula_sum   'Tb2 Dy2 Re1 Ru7'
_cell_volume   218.07063807
_cell_formula_units_Z   1
loop_
 _symmetry_equiv_pos_site_id
 _symmetry_equiv_pos_as_xyz
  1  'x, y, z'
loop_
 _atom_site_type_symbol
 _atom_site_label
 _atom_site_symmetry_multiplicity
 _atom_site_fract_x
 _atom_site_fract_y
 _atom_site_fract_z
 _atom_site_occupancy
  Tb  Tb0  1  0.655051  0.327525  0.935012  1
  Tb  Tb1  1  0.327352  0.663676  0.066870  1
  Dy  Dy2  1  0.327710  0.663855  0.433260  1
  Dy  Dy3  1  0.654652  0.327325  0.565017  1
  Re  Re4  1  0.686948  0.843474  0.749424  1
  Ru  Ru5  1  0.974728  0.987363  0.499873  1
  Ru  Ru6  1  0.974795  0.987397  0.000010  1
  Ru  Ru7  1  0.837172  0.166901  0.250650  1
  Ru  Ru8  1  0.837172  0.670271  0.250650  1
  Ru  Ru9  1  0.356643  0.178321  0.250824  1
  Ru  Ru10  1  0.183889  0.828990  0.749205  1
  Ru  Ru11  1  0.183889  0.354900  0.749205  1
