# generated using pymatgen
data_NdHfZrTcF15
_symmetry_space_group_name_H-M   'P 1'
_cell_length_a   8.31637846
_cell_length_b   8.31637697
_cell_length_c   8.24845889
_cell_angle_alpha   78.69355512
_cell_angle_beta   78.69356049
_cell_angle_gamma   98.41153283
_symmetry_Int_Tables_number   1
_chemical_formula_structural   NdHfZrTcF15
_chemical_formula_sum   'Nd2 Hf2 Zr2 Tc2 F30'
_cell_volume   538.33576678
_cell_formula_units_Z   2
loop_
 _symmetry_equiv_pos_site_id
 _symmetry_equiv_pos_as_xyz
  1  'x, y, z'
loop_
 _atom_site_type_symbol
 _atom_site_label
 _atom_site_symmetry_multiplicity
 _atom_site_fract_x
 _atom_site_fract_y
 _atom_site_fract_z
 _atom_site_occupancy
  Nd  Nd0  1  0.177448  0.822552  0.250000  1
  Nd  Nd1  1  0.820928  0.179072  0.750000  1
  Hf  Hf2  1  0.729350  0.679917  0.666018  1
  Hf  Hf3  1  0.320083  0.270650  0.833982  1
  Zr  Zr4  1  0.267625  0.320028  0.333811  1
  Zr  Zr5  1  0.679972  0.732375  0.166189  1
  Tc  Tc6  1  0.751625  0.248375  0.250000  1
  Tc  Tc7  1  0.250073  0.749927  0.750000  1
  F  F8  1  0.317821  0.349998  0.060967  1
  F  F9  1  0.928210  0.803053  0.154631  1
  F  F10  1  0.830387  0.472377  0.690774  1
  F  F11  1  0.470035  0.835200  0.190676  1
  F  F12  1  0.802016  0.924212  0.658655  1
  F  F13  1  0.348984  0.315575  0.566627  1
  F  F14  1  0.684425  0.651016  0.933372  1
  F  F15  1  0.075788  0.197984  0.841345  1
  F  F16  1  0.164800  0.529965  0.309324  1
  F  F17  1  0.527623  0.169613  0.809226  1
  F  F18  1  0.196947  0.071790  0.345369  1
  F  F19  1  0.650002  0.682179  0.439033  1
  F  F20  1  0.763349  0.274180  0.006772  1
  F  F21  1  0.991431  0.272389  0.210047  1
  F  F22  1  0.779777  0.499762  0.212230  1
  F  F23  1  0.502822  0.779217  0.709840  1
  F  F24  1  0.274887  0.988696  0.707567  1
  F  F25  1  0.272704  0.758737  0.507238  1
  F  F26  1  0.241263  0.727296  0.992762  1
  F  F27  1  0.011304  0.725113  0.792433  1
  F  F28  1  0.220783  0.497178  0.790160  1
  F  F29  1  0.500238  0.220223  0.287770  1
  F  F30  1  0.727611  0.008569  0.289953  1
  F  F31  1  0.725820  0.236651  0.493228  1
  F  F32  1  0.474201  0.525799  0.250000  1
  F  F33  1  0.747777  0.947094  0.977885  1
  F  F34  1  0.052906  0.252223  0.522115  1
  F  F35  1  0.251908  0.057017  0.020011  1
  F  F36  1  0.942983  0.748092  0.479989  1
  F  F37  1  0.524097  0.475903  0.750000  1
