# generated using pymatgen
data_Ho7Er9Cd4(PdRu)2
_symmetry_space_group_name_H-M   'P 1'
_cell_length_a   9.57310751
_cell_length_b   9.57274637
_cell_length_c   9.62943700
_cell_angle_alpha   59.80524145
_cell_angle_beta   59.80486274
_cell_angle_gamma   59.61674745
_symmetry_Int_Tables_number   1
_chemical_formula_structural   Ho7Er9Cd4(PdRu)2
_chemical_formula_sum   'Ho7 Er9 Cd4 Pd2 Ru2'
_cell_volume   620.33041899
_cell_formula_units_Z   1
loop_
 _symmetry_equiv_pos_site_id
 _symmetry_equiv_pos_as_xyz
  1  'x, y, z'
loop_
 _atom_site_type_symbol
 _atom_site_label
 _atom_site_symmetry_multiplicity
 _atom_site_fract_x
 _atom_site_fract_y
 _atom_site_fract_z
 _atom_site_occupancy
  Ho  Ho0  1  0.810110  0.810092  0.189901  1
  Ho  Ho1  1  0.936410  0.559935  0.567442  1
  Ho  Ho2  1  0.559874  0.936440  0.936249  1
  Ho  Ho3  1  0.559941  0.936434  0.567436  1
  Ho  Ho4  1  0.936456  0.559879  0.936234  1
  Ho  Ho5  1  0.564852  0.564844  0.935146  1
  Ho  Ho6  1  0.938228  0.938218  0.561766  1
  Er  Er7  1  0.349290  0.349298  0.354897  1
  Er  Er8  1  0.349366  0.349326  0.946429  1
  Er  Er9  1  0.346076  0.952238  0.350856  1
  Er  Er10  1  0.952218  0.346090  0.350874  1
  Er  Er11  1  0.817266  0.187472  0.188748  1
  Er  Er12  1  0.187490  0.817286  0.806488  1
  Er  Er13  1  0.187472  0.817247  0.188771  1
  Er  Er14  1  0.817254  0.187509  0.806481  1
  Er  Er15  1  0.187159  0.187142  0.812861  1
  Cd  Cd16  1  0.580076  0.580068  0.581765  1
  Cd  Cd17  1  0.580057  0.580059  0.258102  1
  Cd  Cd18  1  0.580837  0.255197  0.581967  1
  Cd  Cd19  1  0.255193  0.580839  0.581972  1
  Pd  Pd20  1  0.145421  0.570466  0.142044  1
  Pd  Pd21  1  0.570466  0.145424  0.142045  1
  Ru  Ru22  1  0.144245  0.144247  0.139979  1
  Ru  Ru23  1  0.144244  0.144249  0.571548  1
