# generated using pymatgen
data_Tb4VRe2B16Mo
_symmetry_space_group_name_H-M   'P 1'
_cell_length_a   3.59733700
_cell_length_b   6.00148046
_cell_length_c   11.61783018
_cell_angle_alpha   90.12418612
_cell_angle_beta   90.00000000
_cell_angle_gamma   90.00000000
_symmetry_Int_Tables_number   1
_chemical_formula_structural   Tb4VRe2B16Mo
_chemical_formula_sum   'Tb4 V1 Re2 B16 Mo1'
_cell_volume   250.82078601
_cell_formula_units_Z   1
loop_
 _symmetry_equiv_pos_site_id
 _symmetry_equiv_pos_as_xyz
  1  'x, y, z'
loop_
 _atom_site_type_symbol
 _atom_site_label
 _atom_site_symmetry_multiplicity
 _atom_site_fract_x
 _atom_site_fract_y
 _atom_site_fract_z
 _atom_site_occupancy
  Tb  Tb0  1  0.000000  0.125793  0.148220  1
  Tb  Tb1  1  0.000000  0.875284  0.851191  1
  Tb  Tb2  1  0.000000  0.626827  0.348431  1
  Tb  Tb3  1  0.000000  0.373520  0.653011  1
  V  V4  1  0.000000  0.372359  0.917094  1
  Re  Re5  1  0.000000  0.869275  0.584773  1
  Re  Re6  1  0.000000  0.626613  0.083026  1
  B  B7  1  0.500000  0.476525  0.191217  1
  B  B8  1  0.500000  0.523804  0.808205  1
  B  B9  1  0.500000  0.974073  0.306575  1
  B  B10  1  0.500000  0.024137  0.693018  1
  B  B11  1  0.500000  0.286757  0.313204  1
  B  B12  1  0.500000  0.715317  0.685533  1
  B  B13  1  0.500000  0.784039  0.183878  1
  B  B14  1  0.500000  0.215366  0.815547  1
  B  B15  1  0.500000  0.366345  0.468390  1
  B  B16  1  0.500000  0.635796  0.532860  1
  B  B17  1  0.500000  0.863741  0.031934  1
  B  B18  1  0.500000  0.135807  0.967467  1
  B  B19  1  0.500000  0.386390  0.046400  1
  B  B20  1  0.500000  0.613449  0.952970  1
  B  B21  1  0.500000  0.884659  0.453623  1
  B  B22  1  0.500000  0.113212  0.548334  1
  Mo  Mo23  1  0.000000  0.130915  0.415099  1
