# generated using pymatgen
data_Dy3ScAu5
_symmetry_space_group_name_H-M   'P 1'
_cell_length_a   7.92200227
_cell_length_b   7.92200339
_cell_length_c   7.92200281
_cell_angle_alpha   66.18639687
_cell_angle_beta   66.18639778
_cell_angle_gamma   66.18638954
_symmetry_Int_Tables_number   1
_chemical_formula_structural   Dy3ScAu5
_chemical_formula_sum   'Dy6 Sc2 Au10'
_cell_volume   398.53493607
_cell_formula_units_Z   2
loop_
 _symmetry_equiv_pos_site_id
 _symmetry_equiv_pos_as_xyz
  1  'x, y, z'
loop_
 _atom_site_type_symbol
 _atom_site_label
 _atom_site_symmetry_multiplicity
 _atom_site_fract_x
 _atom_site_fract_y
 _atom_site_fract_z
 _atom_site_occupancy
  Dy  Dy0  1  0.891361  0.188786  0.618398  1
  Dy  Dy1  1  0.618398  0.891361  0.188786  1
  Dy  Dy2  1  0.188786  0.618398  0.891361  1
  Dy  Dy3  1  0.108639  0.811214  0.381602  1
  Dy  Dy4  1  0.381602  0.108639  0.811214  1
  Dy  Dy5  1  0.811214  0.381602  0.108639  1
  Sc  Sc6  1  0.658406  0.658406  0.658406  1
  Sc  Sc7  1  0.341594  0.341594  0.341594  1
  Au  Au8  1  0.000000  0.000000  0.000000  1
  Au  Au9  1  0.500000  0.500000  0.500000  1
  Au  Au10  1  0.806600  0.806600  0.806600  1
  Au  Au11  1  0.193400  0.193400  0.193400  1
  Au  Au12  1  0.937809  0.551553  0.317542  1
  Au  Au13  1  0.317542  0.937809  0.551553  1
  Au  Au14  1  0.551553  0.317542  0.937809  1
  Au  Au15  1  0.062191  0.448447  0.682458  1
  Au  Au16  1  0.682458  0.062191  0.448447  1
  Au  Au17  1  0.448447  0.682458  0.062191  1
