# generated using pymatgen
data_Y2Pu(Ga2Ni3)3
_symmetry_space_group_name_H-M   'P 1'
_cell_length_a   8.95386500
_cell_length_b   8.95386514
_cell_length_c   3.90089600
_cell_angle_alpha   90.00000000
_cell_angle_beta   90.00000000
_cell_angle_gamma   119.99999580
_symmetry_Int_Tables_number   1
_chemical_formula_structural   Y2Pu(Ga2Ni3)3
_chemical_formula_sum   'Y2 Pu1 Ga6 Ni9'
_cell_volume   270.84206287
_cell_formula_units_Z   1
loop_
 _symmetry_equiv_pos_site_id
 _symmetry_equiv_pos_as_xyz
  1  'x, y, z'
loop_
 _atom_site_type_symbol
 _atom_site_label
 _atom_site_symmetry_multiplicity
 _atom_site_fract_x
 _atom_site_fract_y
 _atom_site_fract_z
 _atom_site_occupancy
  Y  Y0  1  0.333333  0.666667  0.500000  1
  Y  Y1  1  0.666667  0.333333  0.500000  1
  Pu  Pu2  1  0.000000  0.000000  0.000000  1
  Ga  Ga3  1  0.319907  0.319907  0.500000  1
  Ga  Ga4  1  0.680093  0.000000  0.500000  1
  Ga  Ga5  1  0.680093  0.680093  0.500000  1
  Ga  Ga6  1  0.000000  0.319907  0.500000  1
  Ga  Ga7  1  0.000000  0.680093  0.500000  1
  Ga  Ga8  1  0.319907  0.000000  0.500000  1
  Ni  Ni9  1  0.179647  0.359294  0.000000  1
  Ni  Ni10  1  0.820353  0.640706  0.000000  1
  Ni  Ni11  1  0.179647  0.820353  0.000000  1
  Ni  Ni12  1  0.640706  0.820353  0.000000  1
  Ni  Ni13  1  0.359294  0.179647  0.000000  1
  Ni  Ni14  1  0.820353  0.179647  0.000000  1
  Ni  Ni15  1  0.500000  0.000000  0.000000  1
  Ni  Ni16  1  0.000000  0.500000  0.000000  1
  Ni  Ni17  1  0.500000  0.500000  0.000000  1
