# generated using pymatgen
data_HoLuCo7Tc5P7
_symmetry_space_group_name_H-M   'P 1'
_cell_length_a   9.19963544
_cell_length_b   9.09185022
_cell_length_c   3.74000100
_cell_angle_alpha   90.00000000
_cell_angle_beta   90.00000000
_cell_angle_gamma   119.54811145
_symmetry_Int_Tables_number   1
_chemical_formula_structural   HoLuCo7Tc5P7
_chemical_formula_sum   'Ho1 Lu1 Co7 Tc5 P7'
_cell_volume   272.13528567
_cell_formula_units_Z   1
loop_
 _symmetry_equiv_pos_site_id
 _symmetry_equiv_pos_as_xyz
  1  'x, y, z'
loop_
 _atom_site_type_symbol
 _atom_site_label
 _atom_site_symmetry_multiplicity
 _atom_site_fract_x
 _atom_site_fract_y
 _atom_site_fract_z
 _atom_site_occupancy
  Ho  Ho0  1  0.670571  0.337204  0.500000  1
  Lu  Lu1  1  0.330323  0.666466  0.000000  1
  Co  Co2  1  0.115888  0.835919  0.000000  1
  Co  Co3  1  0.731978  0.883571  0.000000  1
  Co  Co4  1  0.937515  0.369974  0.000000  1
  Co  Co5  1  0.639350  0.571317  0.000000  1
  Co  Co6  1  0.423225  0.062607  0.000000  1
  Co  Co7  1  0.047051  0.610434  0.500000  1
  Co  Co8  1  0.153395  0.274736  0.000000  1
  Tc  Tc9  1  0.388350  0.438899  0.500000  1
  Tc  Tc10  1  0.563697  0.954598  0.500000  1
  Tc  Tc11  1  0.207693  0.086564  0.500000  1
  Tc  Tc12  1  0.879570  0.780975  0.500000  1
  Tc  Tc13  1  0.910012  0.122870  0.500000  1
  P  P14  1  0.001618  0.999960  0.000000  1
  P  P15  1  0.599632  0.716954  0.500000  1
  P  P16  1  0.701477  0.116911  0.000000  1
  P  P17  1  0.888755  0.587322  0.000000  1
  P  P18  1  0.412658  0.298592  0.000000  1
  P  P19  1  0.280778  0.875128  0.500000  1
  P  P20  1  0.116466  0.408998  0.500000  1
