# generated using pymatgen
data_Eu4MgZn3Fe3H22
_symmetry_space_group_name_H-M   'P 1'
_cell_length_a   6.66704999
_cell_length_b   6.66704999
_cell_length_c   6.66704999
_cell_angle_alpha   89.95588776
_cell_angle_beta   89.95588776
_cell_angle_gamma   89.95588776
_symmetry_Int_Tables_number   1
_chemical_formula_structural   Eu4MgZn3Fe3H22
_chemical_formula_sum   'Eu4 Mg1 Zn3 Fe3 H22'
_cell_volume   296.34714534
_cell_formula_units_Z   1
loop_
 _symmetry_equiv_pos_site_id
 _symmetry_equiv_pos_as_xyz
  1  'x, y, z'
loop_
 _atom_site_type_symbol
 _atom_site_label
 _atom_site_symmetry_multiplicity
 _atom_site_fract_x
 _atom_site_fract_y
 _atom_site_fract_z
 _atom_site_occupancy
  Eu  Eu0  1  0.288163  0.288163  0.711821  1
  Eu  Eu1  1  0.288163  0.711821  0.288163  1
  Eu  Eu2  1  0.711821  0.288163  0.288163  1
  Eu  Eu3  1  0.712658  0.712658  0.712658  1
  Mg  Mg4  1  0.212603  0.212603  0.212603  1
  Zn  Zn5  1  0.784837  0.784837  0.207579  1
  Zn  Zn6  1  0.784837  0.207579  0.784837  1
  Zn  Zn7  1  0.207579  0.784837  0.784837  1
  Fe  Fe8  1  0.999283  0.999283  0.500576  1
  Fe  Fe9  1  0.999283  0.500576  0.999283  1
  Fe  Fe10  1  0.500576  0.999283  0.999283  1
  H  H11  1  0.007401  0.486533  0.236978  1
  H  H12  1  0.503428  0.761930  0.000984  1
  H  H13  1  0.761930  0.000984  0.503428  1
  H  H14  1  0.000984  0.761930  0.503428  1
  H  H15  1  0.486533  0.007401  0.236978  1
  H  H16  1  0.761930  0.503428  0.000984  1
  H  H17  1  0.000984  0.503428  0.761930  1
  H  H18  1  0.486533  0.236978  0.007401  1
  H  H19  1  0.007401  0.236978  0.486533  1
  H  H20  1  0.503428  0.000984  0.761930  1
  H  H21  1  0.236978  0.007401  0.486533  1
  H  H22  1  0.236978  0.486533  0.007401  1
  H  H23  1  0.992769  0.992769  0.260825  1
  H  H24  1  0.005304  0.741326  0.005304  1
  H  H25  1  0.741326  0.005304  0.005304  1
  H  H26  1  0.005304  0.005304  0.741326  1
  H  H27  1  0.992769  0.260825  0.992769  1
  H  H28  1  0.260825  0.992769  0.992769  1
  H  H29  1  0.639672  0.639672  0.362353  1
  H  H30  1  0.639672  0.362353  0.639672  1
  H  H31  1  0.362353  0.639672  0.639672  1
  H  H32  1  0.375692  0.375692  0.375692  1
