# generated using pymatgen
data_LiHo4Mg3Ir4
_symmetry_space_group_name_H-M   'P 1'
_cell_length_a   4.05916600
_cell_length_b   7.05596427
_cell_length_c   8.44543757
_cell_angle_alpha   90.35422838
_cell_angle_beta   90.00000000
_cell_angle_gamma   90.00000000
_symmetry_Int_Tables_number   1
_chemical_formula_structural   LiHo4Mg3Ir4
_chemical_formula_sum   'Li1 Ho4 Mg3 Ir4'
_cell_volume   241.88394390
_cell_formula_units_Z   1
loop_
 _symmetry_equiv_pos_site_id
 _symmetry_equiv_pos_as_xyz
  1  'x, y, z'
loop_
 _atom_site_type_symbol
 _atom_site_label
 _atom_site_symmetry_multiplicity
 _atom_site_fract_x
 _atom_site_fract_y
 _atom_site_fract_z
 _atom_site_occupancy
  Li  Li0  1  0.750000  0.366868  0.441538  1
  Ho  Ho1  1  0.250000  0.536485  0.178432  1
  Ho  Ho2  1  0.750000  0.459106  0.823922  1
  Ho  Ho3  1  0.250000  0.045260  0.329375  1
  Ho  Ho4  1  0.750000  0.962471  0.671615  1
  Mg  Mg5  1  0.250000  0.135157  0.939394  1
  Mg  Mg6  1  0.750000  0.863912  0.060771  1
  Mg  Mg7  1  0.250000  0.630125  0.556411  1
  Ir  Ir8  1  0.750000  0.752074  0.369808  1
  Ir  Ir9  1  0.250000  0.250488  0.630453  1
  Ir  Ir10  1  0.750000  0.249338  0.129327  1
  Ir  Ir11  1  0.250000  0.748715  0.868956  1
