# generated using pymatgen
data_Dy16MgAl(CdPd2)2
_symmetry_space_group_name_H-M   'P 1'
_cell_length_a   9.66928331
_cell_length_b   9.66928196
_cell_length_c   9.67374236
_cell_angle_alpha   60.30053031
_cell_angle_beta   60.30053534
_cell_angle_gamma   60.25431566
_symmetry_Int_Tables_number   1
_chemical_formula_structural   Dy16MgAl(CdPd2)2
_chemical_formula_sum   'Dy16 Mg1 Al1 Cd2 Pd4'
_cell_volume   643.66702908
_cell_formula_units_Z   1
loop_
 _symmetry_equiv_pos_site_id
 _symmetry_equiv_pos_as_xyz
  1  'x, y, z'
loop_
 _atom_site_type_symbol
 _atom_site_label
 _atom_site_symmetry_multiplicity
 _atom_site_fract_x
 _atom_site_fract_y
 _atom_site_fract_z
 _atom_site_occupancy
  Dy  Dy0  1  0.349657  0.349657  0.350236  1
  Dy  Dy1  1  0.358211  0.358211  0.932995  1
  Dy  Dy2  1  0.356151  0.936943  0.357781  1
  Dy  Dy3  1  0.936943  0.356151  0.357781  1
  Dy  Dy4  1  0.811931  0.189408  0.188258  1
  Dy  Dy5  1  0.192947  0.807953  0.808026  1
  Dy  Dy6  1  0.189408  0.811931  0.188258  1
  Dy  Dy7  1  0.807953  0.192947  0.808026  1
  Dy  Dy8  1  0.190461  0.190461  0.809673  1
  Dy  Dy9  1  0.809039  0.809039  0.191317  1
  Dy  Dy10  1  0.932679  0.567740  0.567218  1
  Dy  Dy11  1  0.564574  0.936223  0.934570  1
  Dy  Dy12  1  0.567740  0.932679  0.567218  1
  Dy  Dy13  1  0.936223  0.564574  0.934570  1
  Dy  Dy14  1  0.568258  0.568258  0.929466  1
  Dy  Dy15  1  0.935519  0.935519  0.564497  1
  Mg  Mg16  1  0.575358  0.575358  0.270100  1
  Al  Al17  1  0.581458  0.581458  0.583019  1
  Cd  Cd18  1  0.581374  0.255107  0.580268  1
  Cd  Cd19  1  0.255107  0.581374  0.580268  1
  Pd  Pd20  1  0.146777  0.146777  0.144930  1
  Pd  Pd21  1  0.141853  0.141853  0.568847  1
  Pd  Pd22  1  0.142393  0.567982  0.141338  1
  Pd  Pd23  1  0.567982  0.142393  0.141338  1
