# generated using pymatgen
data_Tm20IrOs4Au7
_symmetry_space_group_name_H-M   'P 1'
_cell_length_a   11.10001551
_cell_length_b   11.10001551
_cell_length_c   6.31626034
_cell_angle_alpha   89.76465662
_cell_angle_beta   89.76465662
_cell_angle_gamma   90.68666238
_symmetry_Int_Tables_number   1
_chemical_formula_structural   Tm20IrOs4Au7
_chemical_formula_sum   'Tm20 Ir1 Os4 Au7'
_cell_volume   778.15943567
_cell_formula_units_Z   1
loop_
 _symmetry_equiv_pos_site_id
 _symmetry_equiv_pos_as_xyz
  1  'x, y, z'
loop_
 _atom_site_type_symbol
 _atom_site_label
 _atom_site_symmetry_multiplicity
 _atom_site_fract_x
 _atom_site_fract_y
 _atom_site_fract_z
 _atom_site_occupancy
  Tm  Tm0  1  0.301378  0.078330  0.356984  1
  Tm  Tm1  1  0.300353  0.907752  0.858400  1
  Tm  Tm2  1  0.696697  0.080927  0.855023  1
  Tm  Tm3  1  0.696607  0.915615  0.353769  1
  Tm  Tm4  1  0.573845  0.794953  0.854242  1
  Tm  Tm5  1  0.581550  0.198935  0.357672  1
  Tm  Tm6  1  0.412370  0.794419  0.366482  1
  Tm  Tm7  1  0.416225  0.194829  0.858017  1
  Tm  Tm8  1  0.205047  0.426155  0.645758  1
  Tm  Tm9  1  0.205581  0.587630  0.133518  1
  Tm  Tm10  1  0.801065  0.418450  0.142328  1
  Tm  Tm11  1  0.805171  0.583775  0.641983  1
  Tm  Tm12  1  0.921670  0.698622  0.143016  1
  Tm  Tm13  1  0.919073  0.303303  0.644977  1
  Tm  Tm14  1  0.092248  0.699647  0.641600  1
  Tm  Tm15  1  0.084385  0.303393  0.146231  1
  Tm  Tm16  1  0.997725  0.000713  0.500365  1
  Tm  Tm17  1  0.999287  0.002275  0.999635  1
  Tm  Tm18  1  0.492733  0.502798  0.998515  1
  Tm  Tm19  1  0.497202  0.507267  0.501485  1
  Ir  Ir20  1  0.348773  0.651227  0.750000  1
  Os  Os21  1  0.498660  0.997490  0.110666  1
  Os  Os22  1  0.498817  0.998245  0.608423  1
  Os  Os23  1  0.001755  0.501183  0.891577  1
  Os  Os24  1  0.002510  0.501340  0.389334  1
  Au  Au25  1  0.844280  0.155720  0.250000  1
  Au  Au26  1  0.842620  0.844677  0.752627  1
  Au  Au27  1  0.155323  0.157380  0.747373  1
  Au  Au28  1  0.153426  0.846574  0.250000  1
  Au  Au29  1  0.652339  0.347661  0.750000  1
  Au  Au30  1  0.656993  0.655706  0.244899  1
  Au  Au31  1  0.344294  0.343007  0.255101  1
