# generated using pymatgen
data_YbCdCu3Ir
_symmetry_space_group_name_H-M   'P 1'
_cell_length_a   5.04388341
_cell_length_b   5.21786011
_cell_length_c   5.04388400
_cell_angle_alpha   61.09696296
_cell_angle_beta   59.99999615
_cell_angle_gamma   61.09696056
_symmetry_Int_Tables_number   1
_chemical_formula_structural   YbCdCu3Ir
_chemical_formula_sum   'Yb1 Cd1 Cu3 Ir1'
_cell_volume   95.39219290
_cell_formula_units_Z   1
loop_
 _symmetry_equiv_pos_site_id
 _symmetry_equiv_pos_as_xyz
  1  'x, y, z'
loop_
 _atom_site_type_symbol
 _atom_site_label
 _atom_site_symmetry_multiplicity
 _atom_site_fract_x
 _atom_site_fract_y
 _atom_site_fract_z
 _atom_site_occupancy
  Yb  Yb0  1  0.749465  0.751604  0.749465  1
  Cd  Cd1  1  0.000520  0.998439  0.000520  1
  Cu  Cu2  1  0.375340  0.374586  0.375340  1
  Cu  Cu3  1  0.874735  0.374586  0.375340  1
  Cu  Cu4  1  0.375340  0.374586  0.874735  1
  Ir  Ir5  1  0.374601  0.876198  0.374601  1
