# generated using pymatgen
data_CeTh2Ni3Bi4
_symmetry_space_group_name_H-M   'P 1'
_cell_length_a   8.49746267
_cell_length_b   8.49746338
_cell_length_c   8.49432494
_cell_angle_alpha   109.42499469
_cell_angle_beta   109.42500076
_cell_angle_gamma   109.51544877
_symmetry_Int_Tables_number   1
_chemical_formula_structural   CeTh2Ni3Bi4
_chemical_formula_sum   'Ce2 Th4 Ni6 Bi8'
_cell_volume   472.43649963
_cell_formula_units_Z   2
loop_
 _symmetry_equiv_pos_site_id
 _symmetry_equiv_pos_as_xyz
  1  'x, y, z'
loop_
 _atom_site_type_symbol
 _atom_site_label
 _atom_site_symmetry_multiplicity
 _atom_site_fract_x
 _atom_site_fract_y
 _atom_site_fract_z
 _atom_site_occupancy
  Ce  Ce0  1  0.374679  0.249688  0.624718  1
  Ce  Ce1  1  0.749688  0.874679  0.124718  1
  Th  Th2  1  0.250051  0.625347  0.374958  1
  Th  Th3  1  0.624935  0.375364  0.250323  1
  Th  Th4  1  0.875364  0.124935  0.750323  1
  Th  Th5  1  0.125347  0.750051  0.874958  1
  Ni  Ni6  1  0.125153  0.874071  0.249205  1
  Ni  Ni7  1  0.624726  0.749830  0.375853  1
  Ni  Ni8  1  0.875321  0.251096  0.125144  1
  Ni  Ni9  1  0.249830  0.124726  0.875853  1
  Ni  Ni10  1  0.751096  0.375321  0.625144  1
  Ni  Ni11  1  0.374071  0.625153  0.749205  1
  Bi  Bi12  1  0.000592  0.332617  0.498856  1
  Bi  Bi13  1  0.832617  0.500592  0.998856  1
  Bi  Bi14  1  0.500694  0.000692  0.835489  1
  Bi  Bi15  1  0.663920  0.664259  0.666948  1
  Bi  Bi16  1  0.164259  0.163920  0.166948  1
  Bi  Bi17  1  0.336772  0.500193  0.998505  1
  Bi  Bi18  1  0.500692  0.000694  0.335489  1
  Bi  Bi19  1  0.000193  0.836772  0.498505  1
