# generated using pymatgen
data_Hf18MnVRe7Ge
_symmetry_space_group_name_H-M   'P 1'
_cell_length_a   8.58509100
_cell_length_b   8.58509220
_cell_length_c   8.56610600
_cell_angle_alpha   90.00000000
_cell_angle_beta   90.00000000
_cell_angle_gamma   119.99999922
_symmetry_Int_Tables_number   1
_chemical_formula_structural   Hf18MnVRe7Ge
_chemical_formula_sum   'Hf18 Mn1 V1 Re7 Ge1'
_cell_volume   546.76907872
_cell_formula_units_Z   1
loop_
 _symmetry_equiv_pos_site_id
 _symmetry_equiv_pos_as_xyz
  1  'x, y, z'
loop_
 _atom_site_type_symbol
 _atom_site_label
 _atom_site_symmetry_multiplicity
 _atom_site_fract_x
 _atom_site_fract_y
 _atom_site_fract_z
 _atom_site_occupancy
  Hf  Hf0  1  0.200985  0.799015  0.444084  1
  Hf  Hf1  1  0.200985  0.401969  0.444084  1
  Hf  Hf2  1  0.598031  0.799015  0.444084  1
  Hf  Hf3  1  0.807617  0.192383  0.547457  1
  Hf  Hf4  1  0.807617  0.615235  0.547457  1
  Hf  Hf5  1  0.384765  0.192383  0.547457  1
  Hf  Hf6  1  0.808970  0.191030  0.953195  1
  Hf  Hf7  1  0.808970  0.617941  0.953195  1
  Hf  Hf8  1  0.382059  0.191030  0.953195  1
  Hf  Hf9  1  0.202602  0.797398  0.057326  1
  Hf  Hf10  1  0.202602  0.405203  0.057326  1
  Hf  Hf11  1  0.594797  0.797398  0.057326  1
  Hf  Hf12  1  0.538999  0.461001  0.250380  1
  Hf  Hf13  1  0.538999  0.077998  0.250380  1
  Hf  Hf14  1  0.922002  0.461001  0.250380  1
  Hf  Hf15  1  0.460213  0.539787  0.750363  1
  Hf  Hf16  1  0.460213  0.920428  0.750363  1
  Hf  Hf17  1  0.079572  0.539787  0.750363  1
  Mn  Mn18  1  0.333333  0.666667  0.250705  1
  V  V19  1  0.000000  0.000000  0.497275  1
  Re  Re20  1  0.890255  0.109745  0.253149  1
  Re  Re21  1  0.890255  0.780510  0.253149  1
  Re  Re22  1  0.219490  0.109745  0.253149  1
  Re  Re23  1  0.110256  0.889744  0.744804  1
  Re  Re24  1  0.110256  0.220512  0.744804  1
  Re  Re25  1  0.779488  0.889744  0.744804  1
  Re  Re26  1  0.000000  0.000000  0.998290  1
  Ge  Ge27  1  0.666667  0.333333  0.751453  1
