# generated using pymatgen
data_TaMn(Be4Ru)2
_symmetry_space_group_name_H-M   'P 1'
_cell_length_a   4.38499200
_cell_length_b   4.38499210
_cell_length_c   7.18503500
_cell_angle_alpha   90.00000000
_cell_angle_beta   90.00000000
_cell_angle_gamma   120.00001437
_symmetry_Int_Tables_number   1
_chemical_formula_structural   TaMn(Be4Ru)2
_chemical_formula_sum   'Ta1 Mn1 Be8 Ru2'
_cell_volume   119.64569507
_cell_formula_units_Z   1
loop_
 _symmetry_equiv_pos_site_id
 _symmetry_equiv_pos_as_xyz
  1  'x, y, z'
loop_
 _atom_site_type_symbol
 _atom_site_label
 _atom_site_symmetry_multiplicity
 _atom_site_fract_x
 _atom_site_fract_y
 _atom_site_fract_z
 _atom_site_occupancy
  Ta  Ta0  1  0.666667  0.333333  0.938672  1
  Mn  Mn1  1  0.333333  0.666667  0.435721  1
  Be  Be2  1  0.000000  0.000000  0.005324  1
  Be  Be3  1  0.000000  0.000000  0.497443  1
  Be  Be4  1  0.831466  0.662931  0.257759  1
  Be  Be5  1  0.168709  0.831291  0.739821  1
  Be  Be6  1  0.662581  0.831291  0.739821  1
  Be  Be7  1  0.337069  0.168534  0.257759  1
  Be  Be8  1  0.831466  0.168534  0.257759  1
  Be  Be9  1  0.168709  0.337419  0.739821  1
  Ru  Ru10  1  0.333333  0.666667  0.061945  1
  Ru  Ru11  1  0.666667  0.333333  0.568152  1
