# generated using pymatgen
data_CeNd2(RhPb)3
_symmetry_space_group_name_H-M   'P 1'
_cell_length_a   7.77574756
_cell_length_b   7.87465041
_cell_length_c   3.98957900
_cell_angle_alpha   90.00000000
_cell_angle_beta   90.00000000
_cell_angle_gamma   120.42164270
_symmetry_Int_Tables_number   1
_chemical_formula_structural   CeNd2(RhPb)3
_chemical_formula_sum   'Ce1 Nd2 Rh3 Pb3'
_cell_volume   210.65423897
_cell_formula_units_Z   1
loop_
 _symmetry_equiv_pos_site_id
 _symmetry_equiv_pos_as_xyz
  1  'x, y, z'
loop_
 _atom_site_type_symbol
 _atom_site_label
 _atom_site_symmetry_multiplicity
 _atom_site_fract_x
 _atom_site_fract_y
 _atom_site_fract_z
 _atom_site_occupancy
  Ce  Ce0  1  0.000000  0.587343  0.500000  1
  Nd  Nd1  1  0.406865  0.407401  0.500000  1
  Nd  Nd2  1  0.593135  0.000537  0.500000  1
  Rh  Rh3  1  0.000000  0.991921  0.500000  1
  Rh  Rh4  1  0.689396  0.352036  0.000000  1
  Rh  Rh5  1  0.310604  0.662641  0.000000  1
  Pb  Pb6  1  0.735467  0.740091  0.000000  1
  Pb  Pb7  1  0.264533  0.004624  0.000000  1
  Pb  Pb8  1  0.000000  0.253406  0.000000  1
