# generated using pymatgen
data_Er8InHgPt2
_symmetry_space_group_name_H-M   'P 1'
_cell_length_a   9.59686352
_cell_length_b   9.59686234
_cell_length_c   9.56964700
_cell_angle_alpha   60.09376172
_cell_angle_beta   60.09376580
_cell_angle_gamma   60.17184062
_symmetry_Int_Tables_number   1
_chemical_formula_structural   Er8InHgPt2
_chemical_formula_sum   'Er16 In2 Hg2 Pt4'
_cell_volume   624.90786250
_cell_formula_units_Z   2
loop_
 _symmetry_equiv_pos_site_id
 _symmetry_equiv_pos_as_xyz
  1  'x, y, z'
loop_
 _atom_site_type_symbol
 _atom_site_label
 _atom_site_symmetry_multiplicity
 _atom_site_fract_x
 _atom_site_fract_y
 _atom_site_fract_z
 _atom_site_occupancy
  Er  Er0  1  0.352091  0.352091  0.350565  1
  Er  Er1  1  0.352091  0.352091  0.945254  1
  Er  Er2  1  0.356018  0.936711  0.353635  1
  Er  Er3  1  0.936711  0.356018  0.353635  1
  Er  Er4  1  0.809735  0.190667  0.190690  1
  Er  Er5  1  0.190667  0.809735  0.808907  1
  Er  Er6  1  0.190667  0.809735  0.190690  1
  Er  Er7  1  0.809735  0.190667  0.808907  1
  Er  Er8  1  0.190848  0.190848  0.809152  1
  Er  Er9  1  0.810180  0.810180  0.189820  1
  Er  Er10  1  0.934349  0.562574  0.564452  1
  Er  Er11  1  0.562574  0.934349  0.938625  1
  Er  Er12  1  0.562574  0.934349  0.564452  1
  Er  Er13  1  0.934349  0.562574  0.938625  1
  Er  Er14  1  0.564966  0.564966  0.935034  1
  Er  Er15  1  0.936733  0.936733  0.563267  1
  In  In16  1  0.582359  0.253031  0.582306  1
  In  In17  1  0.253031  0.582359  0.582306  1
  Hg  Hg18  1  0.586695  0.586695  0.588425  1
  Hg  Hg19  1  0.586695  0.586695  0.238186  1
  Pt  Pt20  1  0.142467  0.142467  0.146347  1
  Pt  Pt21  1  0.142467  0.142467  0.568718  1
  Pt  Pt22  1  0.140888  0.571109  0.144001  1
  Pt  Pt23  1  0.571109  0.140888  0.144001  1
