# generated using pymatgen
data_Y2HoTm(B6Os)2
_symmetry_space_group_name_H-M   'P 1'
_cell_length_a   3.64139000
_cell_length_b   9.12803452
_cell_length_c   11.51477306
_cell_angle_alpha   90.02526713
_cell_angle_beta   90.00000000
_cell_angle_gamma   90.00000000
_symmetry_Int_Tables_number   1
_chemical_formula_structural   Y2HoTm(B6Os)2
_chemical_formula_sum   'Y4 Ho2 Tm2 B24 Os4'
_cell_volume   382.73643737
_cell_formula_units_Z   2
loop_
 _symmetry_equiv_pos_site_id
 _symmetry_equiv_pos_as_xyz
  1  'x, y, z'
loop_
 _atom_site_type_symbol
 _atom_site_label
 _atom_site_symmetry_multiplicity
 _atom_site_fract_x
 _atom_site_fract_y
 _atom_site_fract_z
 _atom_site_occupancy
  Y  Y0  1  0.000000  0.321532  0.413884  1
  Y  Y1  1  0.000000  0.678468  0.586116  1
  Y  Y2  1  0.000000  0.820986  0.085940  1
  Y  Y3  1  0.000000  0.179014  0.914060  1
  Ho  Ho4  1  0.000000  0.943813  0.372687  1
  Ho  Ho5  1  0.000000  0.056187  0.627314  1
  Tm  Tm6  1  0.000000  0.443847  0.126886  1
  Tm  Tm7  1  0.000000  0.556153  0.873113  1
  B  B8  1  0.500000  0.553915  0.432668  1
  B  B9  1  0.500000  0.446085  0.567332  1
  B  B10  1  0.500000  0.054346  0.067049  1
  B  B11  1  0.500000  0.945654  0.932951  1
  B  B12  1  0.500000  0.747955  0.419330  1
  B  B13  1  0.500000  0.252045  0.580670  1
  B  B14  1  0.500000  0.249125  0.080382  1
  B  B15  1  0.500000  0.750875  0.919618  1
  B  B16  1  0.500000  0.790641  0.266129  1
  B  B17  1  0.500000  0.209359  0.733871  1
  B  B18  1  0.500000  0.291704  0.233315  1
  B  B19  1  0.500000  0.708295  0.766685  1
  B  B20  1  0.500000  0.630498  0.184735  1
  B  B21  1  0.500000  0.369502  0.815265  1
  B  B22  1  0.500000  0.131495  0.314625  1
  B  B23  1  0.500000  0.868505  0.685375  1
  B  B24  1  0.500000  0.983319  0.212996  1
  B  B25  1  0.500000  0.016681  0.787004  1
  B  B26  1  0.500000  0.482574  0.286255  1
  B  B27  1  0.500000  0.517426  0.713745  1
  B  B28  1  0.500000  0.605067  0.029058  1
  B  B29  1  0.500000  0.394933  0.970942  1
  B  B30  1  0.500000  0.107096  0.470478  1
  B  B31  1  0.500000  0.892904  0.529522  1
  Os  Os32  1  0.000000  0.636799  0.320584  1
  Os  Os33  1  0.000000  0.363201  0.679416  1
  Os  Os34  1  0.000000  0.138198  0.178784  1
  Os  Os35  1  0.000000  0.861802  0.821216  1
