# generated using pymatgen
data_Pa2AlC2
_symmetry_space_group_name_H-M   'P 1'
_cell_length_a   3.58084847
_cell_length_b   3.58085075
_cell_length_c   6.89694987
_cell_angle_alpha   105.04611059
_cell_angle_beta   105.04611747
_cell_angle_gamma   90.00000107
_symmetry_Int_Tables_number   1
_chemical_formula_structural   Pa2AlC2
_chemical_formula_sum   'Pa2 Al1 C2'
_cell_volume   82.26069340
_cell_formula_units_Z   1
loop_
 _symmetry_equiv_pos_site_id
 _symmetry_equiv_pos_as_xyz
  1  'x, y, z'
loop_
 _atom_site_type_symbol
 _atom_site_label
 _atom_site_symmetry_multiplicity
 _atom_site_fract_x
 _atom_site_fract_y
 _atom_site_fract_z
 _atom_site_occupancy
  Pa  Pa0  1  0.649335  0.649335  0.298670  1
  Pa  Pa1  1  0.350665  0.350665  0.701330  1
  Al  Al2  1  0.000000  0.000000  0.000000  1
  C  C3  1  0.166578  0.166577  0.333153  1
  C  C4  1  0.833422  0.833423  0.666847  1
