# generated using pymatgen
data_Cs2Nd10Tc2Br17
_symmetry_space_group_name_H-M   'P 1'
_cell_length_a   9.77773450
_cell_length_b   11.10823428
_cell_length_c   11.10823230
_cell_angle_alpha   106.21240323
_cell_angle_beta   93.57403445
_cell_angle_gamma   93.57423458
_symmetry_Int_Tables_number   1
_chemical_formula_structural   Cs2Nd10Tc2Br17
_chemical_formula_sum   'Cs2 Nd10 Tc2 Br17'
_cell_volume   1152.26060570
_cell_formula_units_Z   1
loop_
 _symmetry_equiv_pos_site_id
 _symmetry_equiv_pos_as_xyz
  1  'x, y, z'
loop_
 _atom_site_type_symbol
 _atom_site_label
 _atom_site_symmetry_multiplicity
 _atom_site_fract_x
 _atom_site_fract_y
 _atom_site_fract_z
 _atom_site_occupancy
  Cs  Cs0  1  0.000001  0.822980  0.177028  1
  Cs  Cs1  1  0.000001  0.177027  0.822981  1
  Nd  Nd2  1  0.439585  0.162935  0.162932  1
  Nd  Nd3  1  0.572776  0.505101  0.206790  1
  Nd  Nd4  1  0.828385  0.289252  0.289250  1
  Nd  Nd5  1  0.290004  0.426234  0.426233  1
  Nd  Nd6  1  0.427233  0.793200  0.494897  1
  Nd  Nd7  1  0.572775  0.206788  0.505097  1
  Nd  Nd8  1  0.709995  0.573769  0.573769  1
  Nd  Nd9  1  0.171582  0.710759  0.710759  1
  Nd  Nd10  1  0.427232  0.494896  0.793200  1
  Nd  Nd11  1  0.560407  0.837072  0.837072  1
  Tc  Tc12  1  0.567447  0.364292  0.364291  1
  Tc  Tc13  1  0.432555  0.635708  0.635709  1
  Br  Br14  1  0.576703  0.685606  0.019245  1
  Br  Br15  1  0.712784  0.068428  0.068429  1
  Br  Br16  1  0.852829  0.451348  0.120166  1
  Br  Br17  1  0.133147  0.203862  0.203862  1
  Br  Br18  1  0.288589  0.603282  0.258923  1
  Br  Br19  1  0.423304  0.980742  0.314384  1
  Br  Br20  1  0.711418  0.741075  0.396714  1
  Br  Br21  1  0.852830  0.120167  0.451347  1
  Br  Br22  1  0.000002  0.500003  0.500003  1
  Br  Br23  1  0.147186  0.879828  0.548658  1
  Br  Br24  1  0.288589  0.258922  0.603282  1
  Br  Br25  1  0.576702  0.019244  0.685607  1
  Br  Br26  1  0.711417  0.396712  0.741074  1
  Br  Br27  1  0.866826  0.796150  0.796151  1
  Br  Br28  1  0.147186  0.548657  0.879829  1
  Br  Br29  1  0.287208  0.931575  0.931576  1
  Br  Br30  1  0.423304  0.314386  0.980741  1
