# generated using pymatgen
data_Nd2RuN3
_symmetry_space_group_name_H-M   'P 1'
_cell_length_a   6.98377047
_cell_length_b   6.98376999
_cell_length_c   6.98377015
_cell_angle_alpha   150.41988062
_cell_angle_beta   148.13377362
_cell_angle_gamma   44.03219793
_symmetry_Int_Tables_number   1
_chemical_formula_structural   Nd2RuN3
_chemical_formula_sum   'Nd2 Ru1 N3'
_cell_volume   88.51682867
_cell_formula_units_Z   1
loop_
 _symmetry_equiv_pos_site_id
 _symmetry_equiv_pos_as_xyz
  1  'x, y, z'
loop_
 _atom_site_type_symbol
 _atom_site_label
 _atom_site_symmetry_multiplicity
 _atom_site_fract_x
 _atom_site_fract_y
 _atom_site_fract_z
 _atom_site_occupancy
  Nd  Nd0  1  0.649129  0.649129  0.000000  1
  Nd  Nd1  1  0.350871  0.350871  0.000000  1
  Ru  Ru2  1  0.000000  0.000000  0.000000  1
  N  N3  1  0.837296  0.837296  0.000000  1
  N  N4  1  0.162704  0.162704  0.000000  1
  N  N5  1  0.500000  0.000000  0.500000  1
