# generated using pymatgen
data_Ca2PrGa8Ag3
_symmetry_space_group_name_H-M   'P 1'
_cell_length_a   4.38922183
_cell_length_b   8.44884232
_cell_length_c   8.44884298
_cell_angle_alpha   71.26612290
_cell_angle_beta   74.94460896
_cell_angle_gamma   74.94461417
_symmetry_Int_Tables_number   1
_chemical_formula_structural   Ca2PrGa8Ag3
_chemical_formula_sum   'Ca2 Pr1 Ga8 Ag3'
_cell_volume   281.15511950
_cell_formula_units_Z   1
loop_
 _symmetry_equiv_pos_site_id
 _symmetry_equiv_pos_as_xyz
  1  'x, y, z'
loop_
 _atom_site_type_symbol
 _atom_site_label
 _atom_site_symmetry_multiplicity
 _atom_site_fract_x
 _atom_site_fract_y
 _atom_site_fract_z
 _atom_site_occupancy
  Ca  Ca0  1  0.302691  0.697309  0.697309  1
  Ca  Ca1  1  0.697309  0.302691  0.302691  1
  Pr  Pr2  1  0.000000  0.000000  0.000000  1
  Ga  Ga3  1  0.338403  0.292203  0.030989  1
  Ga  Ga4  1  0.661597  0.707797  0.969011  1
  Ga  Ga5  1  0.338403  0.030989  0.292203  1
  Ga  Ga6  1  0.661597  0.969011  0.707797  1
  Ga  Ga7  1  0.142384  0.577375  0.137856  1
  Ga  Ga8  1  0.857616  0.422625  0.862144  1
  Ga  Ga9  1  0.142384  0.137856  0.577375  1
  Ga  Ga10  1  0.857616  0.862144  0.422625  1
  Ag  Ag11  1  0.500000  0.301007  0.698993  1
  Ag  Ag12  1  0.500000  0.698993  0.301007  1
  Ag  Ag13  1  0.000000  0.500000  0.500000  1
