# generated using pymatgen
data_UCuF6
_symmetry_space_group_name_H-M   'P 1'
_cell_length_a   5.52451193
_cell_length_b   5.47060193
_cell_length_c   6.04900545
_cell_angle_alpha   61.99934018
_cell_angle_beta   62.78021350
_cell_angle_gamma   59.48703154
_symmetry_Int_Tables_number   1
_chemical_formula_structural   UCuF6
_chemical_formula_sum   'U1 Cu1 F6'
_cell_volume   133.17190298
_cell_formula_units_Z   1
loop_
 _symmetry_equiv_pos_site_id
 _symmetry_equiv_pos_as_xyz
  1  'x, y, z'
loop_
 _atom_site_type_symbol
 _atom_site_label
 _atom_site_symmetry_multiplicity
 _atom_site_fract_x
 _atom_site_fract_y
 _atom_site_fract_z
 _atom_site_occupancy
  U  U0  1  0.500000  0.500000  0.500000  1
  Cu  Cu1  1  0.000000  0.000000  0.000000  1
  F  F2  1  0.235799  0.866256  0.257912  1
  F  F3  1  0.764201  0.133744  0.742088  1
  F  F4  1  0.372906  0.752540  0.739935  1
  F  F5  1  0.627094  0.247460  0.260065  1
  F  F6  1  0.859836  0.638269  0.251086  1
  F  F7  1  0.140164  0.361731  0.748914  1
