# generated using pymatgen
data_Li2Ac2Si2Sb
_symmetry_space_group_name_H-M   'P 1'
_cell_length_a   10.15076500
_cell_length_b   10.15076503
_cell_length_c   7.14831700
_cell_angle_alpha   90.00000000
_cell_angle_beta   90.00000000
_cell_angle_gamma   153.06285610
_symmetry_Int_Tables_number   1
_chemical_formula_structural   Li2Ac2Si2Sb
_chemical_formula_sum   'Li4 Ac4 Si4 Sb2'
_cell_volume   333.66586482
_cell_formula_units_Z   2
loop_
 _symmetry_equiv_pos_site_id
 _symmetry_equiv_pos_as_xyz
  1  'x, y, z'
loop_
 _atom_site_type_symbol
 _atom_site_label
 _atom_site_symmetry_multiplicity
 _atom_site_fract_x
 _atom_site_fract_y
 _atom_site_fract_z
 _atom_site_occupancy
  Li  Li0  1  0.815122  0.184878  0.440453  1
  Li  Li1  1  0.184878  0.815122  0.559547  1
  Li  Li2  1  0.815122  0.184878  0.059547  1
  Li  Li3  1  0.184878  0.815122  0.940453  1
  Ac  Ac4  1  0.546578  0.453422  0.750000  1
  Ac  Ac5  1  0.453422  0.546578  0.250000  1
  Ac  Ac6  1  0.349398  0.650602  0.750000  1
  Ac  Ac7  1  0.650602  0.349398  0.250000  1
  Si  Si8  1  0.943463  0.056537  0.922642  1
  Si  Si9  1  0.056537  0.943463  0.077358  1
  Si  Si10  1  0.943463  0.056537  0.577358  1
  Si  Si11  1  0.056537  0.943463  0.422642  1
  Sb  Sb12  1  0.719476  0.280524  0.750000  1
  Sb  Sb13  1  0.280524  0.719476  0.250000  1
