# generated using pymatgen
data_Pr4NdMg2Ir3
_symmetry_space_group_name_H-M   'P 1'
_cell_length_a   8.80930932
_cell_length_b   8.73951430
_cell_length_c   8.71509500
_cell_angle_alpha   109.63943700
_cell_angle_beta   109.66083860
_cell_angle_gamma   109.79226289
_symmetry_Int_Tables_number   1
_chemical_formula_structural   Pr4NdMg2Ir3
_chemical_formula_sum   'Pr8 Nd2 Mg4 Ir6'
_cell_volume   512.13683033
_cell_formula_units_Z   2
loop_
 _symmetry_equiv_pos_site_id
 _symmetry_equiv_pos_as_xyz
  1  'x, y, z'
loop_
 _atom_site_type_symbol
 _atom_site_label
 _atom_site_symmetry_multiplicity
 _atom_site_fract_x
 _atom_site_fract_y
 _atom_site_fract_z
 _atom_site_occupancy
  Pr  Pr0  1  0.786928  0.999055  0.999948  1
  Pr  Pr1  1  0.248933  0.325054  0.075397  1
  Pr  Pr2  1  0.710997  0.711420  0.211811  1
  Pr  Pr3  1  0.173427  0.923850  0.249448  1
  Pr  Pr4  1  0.999334  0.500255  0.287945  1
  Pr  Pr5  1  0.749256  0.173701  0.423848  1
  Pr  Pr6  1  0.498536  0.787155  0.498541  1
  Pr  Pr7  1  0.923939  0.749696  0.674539  1
  Nd  Nd8  1  0.326256  0.576773  0.749552  1
  Nd  Nd9  1  0.576015  0.249464  0.826347  1
  Mg  Mg10  1  0.400440  0.000674  0.999409  1
  Mg  Mg11  1  0.499864  0.399931  0.501392  1
  Mg  Mg12  1  0.101404  0.102157  0.601055  1
  Mg  Mg13  1  0.999888  0.498090  0.898847  1
  Ir  Ir14  1  0.381051  0.750118  0.128671  1
  Ir  Ir15  1  0.631235  0.382025  0.251376  1
  Ir  Ir16  1  0.120771  0.252469  0.370430  1
  Ir  Ir17  1  0.251168  0.871626  0.619608  1
  Ir  Ir18  1  0.868636  0.117141  0.749023  1
  Ir  Ir19  1  0.751923  0.629351  0.882816  1
