# generated using pymatgen
data_Th4In4Ru3Au
_symmetry_space_group_name_H-M   'P 1'
_cell_length_a   4.48634200
_cell_length_b   7.23574240
_cell_length_c   8.61094290
_cell_angle_alpha   90.85890444
_cell_angle_beta   90.00000000
_cell_angle_gamma   90.00000000
_symmetry_Int_Tables_number   1
_chemical_formula_structural   Th4In4Ru3Au
_chemical_formula_sum   'Th4 In4 Ru3 Au1'
_cell_volume   279.49715041
_cell_formula_units_Z   1
loop_
 _symmetry_equiv_pos_site_id
 _symmetry_equiv_pos_as_xyz
  1  'x, y, z'
loop_
 _atom_site_type_symbol
 _atom_site_label
 _atom_site_symmetry_multiplicity
 _atom_site_fract_x
 _atom_site_fract_y
 _atom_site_fract_z
 _atom_site_occupancy
  Th  Th0  1  0.250000  0.028590  0.335432  1
  Th  Th1  1  0.250000  0.556342  0.177864  1
  Th  Th2  1  0.750000  0.961709  0.673800  1
  Th  Th3  1  0.750000  0.472470  0.814000  1
  In  In4  1  0.250000  0.130358  0.935519  1
  In  In5  1  0.250000  0.636058  0.561201  1
  In  In6  1  0.750000  0.857113  0.060367  1
  In  In7  1  0.750000  0.367266  0.442223  1
  Ru  Ru8  1  0.250000  0.231694  0.618167  1
  Ru  Ru9  1  0.250000  0.731380  0.880765  1
  Ru  Ru10  1  0.750000  0.767114  0.379496  1
  Au  Au11  1  0.750000  0.259908  0.121164  1
