# generated using pymatgen
data_Tb7CeCdHgIr2
_symmetry_space_group_name_H-M   'P 1'
_cell_length_a   9.68718621
_cell_length_b   9.68718660
_cell_length_c   9.74948200
_cell_angle_alpha   59.78703830
_cell_angle_beta   59.78703694
_cell_angle_gamma   59.82529222
_symmetry_Int_Tables_number   1
_chemical_formula_structural   Tb7CeCdHgIr2
_chemical_formula_sum   'Tb14 Ce2 Cd2 Hg2 Ir4'
_cell_volume   643.99630469
_cell_formula_units_Z   2
loop_
 _symmetry_equiv_pos_site_id
 _symmetry_equiv_pos_as_xyz
  1  'x, y, z'
loop_
 _atom_site_type_symbol
 _atom_site_label
 _atom_site_symmetry_multiplicity
 _atom_site_fract_x
 _atom_site_fract_y
 _atom_site_fract_z
 _atom_site_occupancy
  Tb  Tb0  1  0.602610  0.195988  0.600701  1
  Tb  Tb1  1  0.195988  0.602610  0.600701  1
  Tb  Tb2  1  0.061156  0.438654  0.440427  1
  Tb  Tb3  1  0.438654  0.061156  0.059763  1
  Tb  Tb4  1  0.438654  0.061156  0.440427  1
  Tb  Tb5  1  0.061156  0.438654  0.059763  1
  Tb  Tb6  1  0.438048  0.438048  0.061952  1
  Tb  Tb7  1  0.060331  0.060331  0.439669  1
  Tb  Tb8  1  0.188921  0.811459  0.812913  1
  Tb  Tb9  1  0.811459  0.188921  0.186707  1
  Tb  Tb10  1  0.811459  0.188921  0.812913  1
  Tb  Tb11  1  0.188921  0.811459  0.186707  1
  Tb  Tb12  1  0.811662  0.811662  0.188338  1
  Tb  Tb13  1  0.188705  0.188705  0.811295  1
  Ce  Ce14  1  0.596072  0.596072  0.598084  1
  Ce  Ce15  1  0.596072  0.596072  0.209772  1
  Cd  Cd16  1  0.828869  0.506820  0.832156  1
  Cd  Cd17  1  0.506820  0.828869  0.832156  1
  Hg  Hg18  1  0.833378  0.833378  0.836400  1
  Hg  Hg19  1  0.833378  0.833378  0.496847  1
  Ir  Ir20  1  0.394273  0.394273  0.389797  1
  Ir  Ir21  1  0.394273  0.394273  0.821658  1
  Ir  Ir22  1  0.397725  0.821420  0.390427  1
  Ir  Ir23  1  0.821420  0.397725  0.390427  1
