# generated using pymatgen
data_Ba3H10
_symmetry_space_group_name_H-M   'P 1'
_cell_length_a   4.50486808
_cell_length_b   6.40169301
_cell_length_c   10.06878191
_cell_angle_alpha   108.63879438
_cell_angle_beta   47.66495609
_cell_angle_gamma   91.17055023
_symmetry_Int_Tables_number   1
_chemical_formula_structural   Ba3H10
_chemical_formula_sum   'Ba3 H10'
_cell_volume   195.36562788
_cell_formula_units_Z   1
loop_
 _symmetry_equiv_pos_site_id
 _symmetry_equiv_pos_as_xyz
  1  'x, y, z'
loop_
 _atom_site_type_symbol
 _atom_site_label
 _atom_site_symmetry_multiplicity
 _atom_site_fract_x
 _atom_site_fract_y
 _atom_site_fract_z
 _atom_site_occupancy
  Ba  Ba0  1  0.131419  0.447568  0.892882  1
  Ba  Ba1  1  0.125083  0.776459  0.562448  1
  Ba  Ba2  1  0.120826  0.110155  0.233153  1
  H  H3  1  0.628748  0.188457  0.891214  1
  H  H4  1  0.615745  0.859100  0.226429  1
  H  H5  1  0.965091  0.248845  0.669165  1
  H  H6  1  0.112361  0.280382  0.579291  1
  H  H7  1  0.619351  0.523905  0.564679  1
  H  H8  1  0.614131  0.022404  0.571813  1
  H  H9  1  0.012033  0.554241  0.230603  1
  H  H10  1  0.619679  0.704288  0.901786  1
  H  H11  1  0.163575  0.623088  0.219575  1
  H  H12  1  0.634401  0.361379  0.230872  1
