# generated using pymatgen
data_Y7Sn23Rh6
_symmetry_space_group_name_H-M   'P 1'
_cell_length_a   9.86842300
_cell_length_b   9.86842460
_cell_length_c   10.12837900
_cell_angle_alpha   90.00000000
_cell_angle_beta   90.00000000
_cell_angle_gamma   120.00000468
_symmetry_Int_Tables_number   1
_chemical_formula_structural   Y7Sn23Rh6
_chemical_formula_sum   'Y7 Sn23 Rh6'
_cell_volume   854.21292729
_cell_formula_units_Z   1
loop_
 _symmetry_equiv_pos_site_id
 _symmetry_equiv_pos_as_xyz
  1  'x, y, z'
loop_
 _atom_site_type_symbol
 _atom_site_label
 _atom_site_symmetry_multiplicity
 _atom_site_fract_x
 _atom_site_fract_y
 _atom_site_fract_z
 _atom_site_occupancy
  Y  Y0  1  0.000000  0.000000  0.000000  1
  Y  Y1  1  0.044545  0.522273  0.307572  1
  Y  Y2  1  0.477727  0.955455  0.307572  1
  Y  Y3  1  0.477727  0.522273  0.307572  1
  Y  Y4  1  0.955455  0.477727  0.692428  1
  Y  Y5  1  0.522273  0.044545  0.692428  1
  Y  Y6  1  0.522273  0.477727  0.692428  1
  Sn  Sn7  1  0.000000  0.000000  0.500000  1
  Sn  Sn8  1  0.118983  0.881017  0.278682  1
  Sn  Sn9  1  0.762033  0.881017  0.278682  1
  Sn  Sn10  1  0.118983  0.237967  0.278682  1
  Sn  Sn11  1  0.881017  0.118983  0.721318  1
  Sn  Sn12  1  0.237967  0.118983  0.721318  1
  Sn  Sn13  1  0.881017  0.762033  0.721318  1
  Sn  Sn14  1  0.350743  0.000000  0.000000  1
  Sn  Sn15  1  0.649257  0.649257  0.000000  1
  Sn  Sn16  1  0.000000  0.350743  0.000000  1
  Sn  Sn17  1  0.350743  0.350743  0.000000  1
  Sn  Sn18  1  0.000000  0.649257  0.000000  1
  Sn  Sn19  1  0.649257  0.000000  0.000000  1
  Sn  Sn20  1  0.779564  0.559128  0.454273  1
  Sn  Sn21  1  0.779564  0.220436  0.454273  1
  Sn  Sn22  1  0.440872  0.220436  0.454273  1
  Sn  Sn23  1  0.220436  0.440872  0.545727  1
  Sn  Sn24  1  0.220436  0.779564  0.545727  1
  Sn  Sn25  1  0.559128  0.779564  0.545727  1
  Sn  Sn26  1  0.666667  0.333333  0.181924  1
  Sn  Sn27  1  0.333333  0.666667  0.818076  1
  Sn  Sn28  1  0.666667  0.333333  0.883001  1
  Sn  Sn29  1  0.333333  0.666667  0.116999  1
  Rh  Rh30  1  0.168275  0.831725  0.802426  1
  Rh  Rh31  1  0.663450  0.831725  0.802426  1
  Rh  Rh32  1  0.168275  0.336550  0.802426  1
  Rh  Rh33  1  0.831725  0.168275  0.197574  1
  Rh  Rh34  1  0.336550  0.168275  0.197574  1
  Rh  Rh35  1  0.831725  0.663450  0.197574  1
