# generated using pymatgen
data_CaCe3U4(ReB6)4
_symmetry_space_group_name_H-M   'P 1'
_cell_length_a   3.67788700
_cell_length_b   9.33156267
_cell_length_c   11.45324303
_cell_angle_alpha   90.02598620
_cell_angle_beta   90.00000000
_cell_angle_gamma   90.00000000
_symmetry_Int_Tables_number   1
_chemical_formula_structural   CaCe3U4(ReB6)4
_chemical_formula_sum   'Ca1 Ce3 U4 Re4 B24'
_cell_volume   393.08022015
_cell_formula_units_Z   1
loop_
 _symmetry_equiv_pos_site_id
 _symmetry_equiv_pos_as_xyz
  1  'x, y, z'
loop_
 _atom_site_type_symbol
 _atom_site_label
 _atom_site_symmetry_multiplicity
 _atom_site_fract_x
 _atom_site_fract_y
 _atom_site_fract_z
 _atom_site_occupancy
  Ca  Ca0  1  0.000000  0.163139  0.908117  1
  Ce  Ce1  1  0.000000  0.335689  0.408002  1
  Ce  Ce2  1  0.000000  0.664197  0.592561  1
  Ce  Ce3  1  0.000000  0.837347  0.091074  1
  U  U4  1  0.000000  0.958026  0.396745  1
  U  U5  1  0.000000  0.042937  0.604422  1
  U  U6  1  0.000000  0.455823  0.102388  1
  U  U7  1  0.000000  0.541079  0.896100  1
  Re  Re8  1  0.000000  0.646912  0.318126  1
  Re  Re9  1  0.000000  0.354280  0.680015  1
  Re  Re10  1  0.000000  0.146580  0.183510  1
  Re  Re11  1  0.000000  0.851803  0.818135  1
  B  B12  1  0.500000  0.553755  0.429361  1
  B  B13  1  0.500000  0.446562  0.569962  1
  B  B14  1  0.500000  0.053848  0.070585  1
  B  B15  1  0.500000  0.946461  0.929716  1
  B  B16  1  0.500000  0.744556  0.422029  1
  B  B17  1  0.500000  0.255646  0.578297  1
  B  B18  1  0.500000  0.244110  0.077906  1
  B  B19  1  0.500000  0.756107  0.922287  1
  B  B20  1  0.500000  0.802941  0.274281  1
  B  B21  1  0.500000  0.197553  0.725485  1
  B  B22  1  0.500000  0.302432  0.225389  1
  B  B23  1  0.500000  0.697006  0.774744  1
  B  B24  1  0.500000  0.644724  0.187802  1
  B  B25  1  0.500000  0.355433  0.811500  1
  B  B26  1  0.500000  0.144450  0.312115  1
  B  B27  1  0.500000  0.855832  0.688787  1
  B  B28  1  0.500000  0.990197  0.219679  1
  B  B29  1  0.500000  0.009681  0.780584  1
  B  B30  1  0.500000  0.490310  0.279517  1
  B  B31  1  0.500000  0.509361  0.719866  1
  B  B32  1  0.500000  0.639113  0.038196  1
  B  B33  1  0.500000  0.362249  0.962003  1
  B  B34  1  0.500000  0.138717  0.462311  1
  B  B35  1  0.500000  0.861143  0.538403  1
