# generated using pymatgen
data_LuPa4Al15
_symmetry_space_group_name_H-M   'P 1'
_cell_length_a   12.70266526
_cell_length_b   12.70266520
_cell_length_c   12.70266507
_cell_angle_alpha   27.77461795
_cell_angle_beta   27.77461951
_cell_angle_gamma   27.77462102
_symmetry_Int_Tables_number   1
_chemical_formula_structural   LuPa4Al15
_chemical_formula_sum   'Lu1 Pa4 Al15'
_cell_volume   392.99839007
_cell_formula_units_Z   1
loop_
 _symmetry_equiv_pos_site_id
 _symmetry_equiv_pos_as_xyz
  1  'x, y, z'
loop_
 _atom_site_type_symbol
 _atom_site_label
 _atom_site_symmetry_multiplicity
 _atom_site_fract_x
 _atom_site_fract_y
 _atom_site_fract_z
 _atom_site_occupancy
  Lu  Lu0  1  0.999983  0.999983  0.999983  1
  Pa  Pa1  1  0.130683  0.130683  0.130683  1
  Pa  Pa2  1  0.869336  0.869336  0.869336  1
  Pa  Pa3  1  0.400545  0.400545  0.400545  1
  Pa  Pa4  1  0.599425  0.599425  0.599425  1
  Al  Al5  1  0.130030  0.635845  0.635845  1
  Al  Al6  1  0.635845  0.635845  0.130030  1
  Al  Al7  1  0.635845  0.130030  0.635845  1
  Al  Al8  1  0.364266  0.869852  0.364266  1
  Al  Al9  1  0.364266  0.364266  0.869852  1
  Al  Al10  1  0.869852  0.364266  0.364266  1
  Al  Al11  1  0.428327  0.884268  0.884268  1
  Al  Al12  1  0.884268  0.884268  0.428327  1
  Al  Al13  1  0.884268  0.428327  0.884268  1
  Al  Al14  1  0.115723  0.571688  0.115723  1
  Al  Al15  1  0.115723  0.115723  0.571688  1
  Al  Al16  1  0.571688  0.115723  0.115723  1
  Al  Al17  1  0.500067  0.500067  0.999792  1
  Al  Al18  1  0.500067  0.999792  0.500067  1
  Al  Al19  1  0.999792  0.500067  0.500067  1
