# generated using pymatgen
data_MoCl2F
_symmetry_space_group_name_H-M   'P 1'
_cell_length_a   6.10271239
_cell_length_b   6.26268878
_cell_length_c   12.35214168
_cell_angle_alpha   89.61344742
_cell_angle_beta   90.39604683
_cell_angle_gamma   119.06109459
_symmetry_Int_Tables_number   1
_chemical_formula_structural   MoCl2F
_chemical_formula_sum   'Mo4 Cl8 F4'
_cell_volume   412.64311111
_cell_formula_units_Z   4
loop_
 _symmetry_equiv_pos_site_id
 _symmetry_equiv_pos_as_xyz
  1  'x, y, z'
loop_
 _atom_site_type_symbol
 _atom_site_label
 _atom_site_symmetry_multiplicity
 _atom_site_fract_x
 _atom_site_fract_y
 _atom_site_fract_z
 _atom_site_occupancy
  Mo  Mo0  1  0.015058  0.005931  0.250042  1
  Mo  Mo1  1  0.009620  0.994212  0.749936  1
  Mo  Mo2  1  0.323427  0.670660  0.749957  1
  Mo  Mo3  1  0.651290  0.329233  0.249671  1
  Cl  Cl4  1  0.323583  0.339102  0.636380  1
  Cl  Cl5  1  0.011682  0.325805  0.863987  1
  Cl  Cl6  1  0.682762  0.673124  0.363287  1
  Cl  Cl7  1  0.681020  0.016823  0.135027  1
  Cl  Cl8  1  0.985702  0.662075  0.136899  1
  Cl  Cl9  1  0.665447  0.986716  0.635642  1
  Cl  Cl10  1  0.984369  0.317773  0.364846  1
  Cl  Cl11  1  0.667269  0.678788  0.864455  1
  F  F12  1  0.326911  0.280570  0.162772  1
  F  F13  1  0.339399  0.054872  0.337060  1
  F  F14  1  0.048544  0.721179  0.662927  1
  F  F15  1  0.283918  0.943137  0.837115  1
