# generated using pymatgen
data_Dy2Er2MgSn4
_symmetry_space_group_name_H-M   'P 1'
_cell_length_a   7.64822900
_cell_length_b   8.21365300
_cell_length_c   15.21457200
_cell_angle_alpha   90.00000000
_cell_angle_beta   90.00000000
_cell_angle_gamma   90.00000000
_symmetry_Int_Tables_number   1
_chemical_formula_structural   Dy2Er2MgSn4
_chemical_formula_sum   'Dy8 Er8 Mg4 Sn16'
_cell_volume   955.77787744
_cell_formula_units_Z   4
loop_
 _symmetry_equiv_pos_site_id
 _symmetry_equiv_pos_as_xyz
  1  'x, y, z'
loop_
 _atom_site_type_symbol
 _atom_site_label
 _atom_site_symmetry_multiplicity
 _atom_site_fract_x
 _atom_site_fract_y
 _atom_site_fract_z
 _atom_site_occupancy
  Dy  Dy0  1  0.998872  0.184716  0.090834  1
  Dy  Dy1  1  0.001128  0.815284  0.909166  1
  Dy  Dy2  1  0.501128  0.684716  0.909166  1
  Dy  Dy3  1  0.001128  0.815284  0.590834  1
  Dy  Dy4  1  0.498872  0.315284  0.090834  1
  Dy  Dy5  1  0.998872  0.184716  0.409166  1
  Dy  Dy6  1  0.498872  0.315284  0.409166  1
  Dy  Dy7  1  0.501128  0.684716  0.590834  1
  Er  Er8  1  0.335170  0.169101  0.628829  1
  Er  Er9  1  0.664830  0.830899  0.371171  1
  Er  Er10  1  0.164830  0.669101  0.371171  1
  Er  Er11  1  0.664830  0.830899  0.128829  1
  Er  Er12  1  0.835170  0.330899  0.628829  1
  Er  Er13  1  0.335170  0.169101  0.871171  1
  Er  Er14  1  0.835170  0.330899  0.871171  1
  Er  Er15  1  0.164830  0.669101  0.128829  1
  Mg  Mg16  1  0.159174  0.505251  0.750000  1
  Mg  Mg17  1  0.840826  0.494749  0.250000  1
  Mg  Mg18  1  0.340826  0.005251  0.250000  1
  Mg  Mg19  1  0.659174  0.994749  0.750000  1
  Sn  Sn20  1  0.021897  0.092233  0.750000  1
  Sn  Sn21  1  0.978103  0.907767  0.250000  1
  Sn  Sn22  1  0.478103  0.592233  0.250000  1
  Sn  Sn23  1  0.521897  0.407767  0.750000  1
  Sn  Sn24  1  0.182078  0.462677  0.538526  1
  Sn  Sn25  1  0.817922  0.537323  0.461474  1
  Sn  Sn26  1  0.317922  0.962677  0.461474  1
  Sn  Sn27  1  0.817922  0.537323  0.038526  1
  Sn  Sn28  1  0.682078  0.037323  0.538526  1
  Sn  Sn29  1  0.182078  0.462677  0.961474  1
  Sn  Sn30  1  0.682078  0.037323  0.961474  1
  Sn  Sn31  1  0.317922  0.962677  0.038526  1
  Sn  Sn32  1  0.302466  0.847540  0.750000  1
  Sn  Sn33  1  0.697534  0.152460  0.250000  1
  Sn  Sn34  1  0.197534  0.347540  0.250000  1
  Sn  Sn35  1  0.802466  0.652460  0.750000  1
