# generated using pymatgen
data_Li4ZnSn2S7
_symmetry_space_group_name_H-M   'P 1'
_cell_length_a   9.36946613
_cell_length_b   9.36946278
_cell_length_c   10.25242824
_cell_angle_alpha   87.11400249
_cell_angle_beta   87.11400576
_cell_angle_gamma   43.67389728
_symmetry_Int_Tables_number   1
_chemical_formula_structural   Li4ZnSn2S7
_chemical_formula_sum   'Li8 Zn2 Sn4 S14'
_cell_volume   620.60242628
_cell_formula_units_Z   2
loop_
 _symmetry_equiv_pos_site_id
 _symmetry_equiv_pos_as_xyz
  1  'x, y, z'
loop_
 _atom_site_type_symbol
 _atom_site_label
 _atom_site_symmetry_multiplicity
 _atom_site_fract_x
 _atom_site_fract_y
 _atom_site_fract_z
 _atom_site_occupancy
  Li  Li0  1  0.525195  0.183846  0.411177  1
  Li  Li1  1  0.183851  0.525185  0.911176  1
  Li  Li2  1  0.912813  0.223916  0.334728  1
  Li  Li3  1  0.223916  0.912813  0.834728  1
  Li  Li4  1  0.678917  0.311776  0.697154  1
  Li  Li5  1  0.311777  0.678916  0.197153  1
  Li  Li6  1  0.042087  0.382568  0.615081  1
  Li  Li7  1  0.382567  0.042088  0.115080  1
  Zn  Zn8  1  0.930782  0.633745  0.259866  1
  Zn  Zn9  1  0.633744  0.930789  0.759869  1
  Sn  Sn10  1  0.474797  0.809412  0.470429  1
  Sn  Sn11  1  0.809412  0.474797  0.970429  1
  Sn  Sn12  1  0.075046  0.770187  0.537923  1
  Sn  Sn13  1  0.770188  0.075045  0.037922  1
  S  S14  1  0.368438  0.690022  0.633816  1
  S  S15  1  0.690022  0.368437  0.133816  1
  S  S16  1  0.214771  0.551336  0.349996  1
  S  S17  1  0.551335  0.214771  0.849996  1
  S  S18  1  0.989475  0.650665  0.709623  1
  S  S19  1  0.650665  0.989476  0.209623  1
  S  S20  1  0.273487  0.939461  0.280594  1
  S  S21  1  0.939460  0.273488  0.780594  1
  S  S22  1  0.419220  0.073328  0.574915  1
  S  S23  1  0.073328  0.419221  0.074915  1
  S  S24  1  0.836683  0.515816  0.416681  1
  S  S25  1  0.515816  0.836683  0.916681  1
  S  S26  1  0.796093  0.130618  0.496349  1
  S  S27  1  0.130618  0.796092  0.996349  1
