# generated using pymatgen
data_Ho2B5
_symmetry_space_group_name_H-M   'P 1'
_cell_length_a   7.06931800
_cell_length_b   7.07111233
_cell_length_c   7.09704375
_cell_angle_alpha   76.87012046
_cell_angle_beta   90.00000000
_cell_angle_gamma   90.00000000
_symmetry_Int_Tables_number   1
_chemical_formula_structural   Ho2B5
_chemical_formula_sum   'Ho8 B20'
_cell_volume   345.49217121
_cell_formula_units_Z   4
loop_
 _symmetry_equiv_pos_site_id
 _symmetry_equiv_pos_as_xyz
  1  'x, y, z'
loop_
 _atom_site_type_symbol
 _atom_site_label
 _atom_site_symmetry_multiplicity
 _atom_site_fract_x
 _atom_site_fract_y
 _atom_site_fract_z
 _atom_site_occupancy
  Ho  Ho0  1  0.184892  0.242303  0.246700  1
  Ho  Ho1  1  0.815108  0.757697  0.753300  1
  Ho  Ho2  1  0.315108  0.242303  0.746700  1
  Ho  Ho3  1  0.806850  0.233930  0.870930  1
  Ho  Ho4  1  0.693150  0.233930  0.370930  1
  Ho  Ho5  1  0.684892  0.757697  0.253300  1
  Ho  Ho6  1  0.306850  0.766070  0.629070  1
  Ho  Ho7  1  0.193150  0.766070  0.129070  1
  B  B8  1  0.674228  0.497212  0.039361  1
  B  B9  1  0.538108  0.503418  0.825273  1
  B  B10  1  0.174228  0.502788  0.460639  1
  B  B11  1  0.825772  0.497212  0.539361  1
  B  B12  1  0.411158  0.498671  0.411141  1
  B  B13  1  0.498070  0.313782  0.040809  1
  B  B14  1  0.508570  0.926166  0.924236  1
  B  B15  1  0.501930  0.686218  0.959191  1
  B  B16  1  0.461892  0.496582  0.174727  1
  B  B17  1  0.008570  0.073834  0.575764  1
  B  B18  1  0.491430  0.073834  0.075764  1
  B  B19  1  0.991430  0.926166  0.424236  1
  B  B20  1  0.088842  0.498671  0.911141  1
  B  B21  1  0.588842  0.501329  0.588859  1
  B  B22  1  0.038108  0.496582  0.674727  1
  B  B23  1  0.961892  0.503418  0.325273  1
  B  B24  1  0.998070  0.686218  0.459191  1
  B  B25  1  0.001930  0.313782  0.540809  1
  B  B26  1  0.911158  0.501329  0.088859  1
  B  B27  1  0.325772  0.502788  0.960639  1
