# generated using pymatgen
data_Tb3Pa(Co5P3)4
_symmetry_space_group_name_H-M   'P 1'
_cell_length_a   3.66616100
_cell_length_b   10.30543973
_cell_length_c   11.71839805
_cell_angle_alpha   89.97303198
_cell_angle_beta   90.00000000
_cell_angle_gamma   90.00000000
_symmetry_Int_Tables_number   1
_chemical_formula_structural   Tb3Pa(Co5P3)4
_chemical_formula_sum   'Tb3 Pa1 Co20 P12'
_cell_volume   442.73744965
_cell_formula_units_Z   1
loop_
 _symmetry_equiv_pos_site_id
 _symmetry_equiv_pos_as_xyz
  1  'x, y, z'
loop_
 _atom_site_type_symbol
 _atom_site_label
 _atom_site_symmetry_multiplicity
 _atom_site_fract_x
 _atom_site_fract_y
 _atom_site_fract_z
 _atom_site_occupancy
  Tb  Tb0  1  0.250000  0.916748  0.201949  1
  Tb  Tb1  1  0.750000  0.416977  0.298521  1
  Tb  Tb2  1  0.750000  0.082877  0.797433  1
  Pa  Pa3  1  0.250000  0.582438  0.702461  1
  Co  Co4  1  0.250000  0.716192  0.989886  1
  Co  Co5  1  0.250000  0.782330  0.491200  1
  Co  Co6  1  0.750000  0.283541  0.006498  1
  Co  Co7  1  0.750000  0.215561  0.507123  1
  Co  Co8  1  0.250000  0.408162  0.489215  1
  Co  Co9  1  0.250000  0.093060  0.988619  1
  Co  Co10  1  0.750000  0.593233  0.517340  1
  Co  Co11  1  0.750000  0.905991  0.010939  1
  Co  Co12  1  0.250000  0.221762  0.176306  1
  Co  Co13  1  0.250000  0.278346  0.677308  1
  Co  Co14  1  0.750000  0.776413  0.822097  1
  Co  Co15  1  0.750000  0.720849  0.324435  1
  Co  Co16  1  0.250000  0.881864  0.698319  1
  Co  Co17  1  0.250000  0.617471  0.198292  1
  Co  Co18  1  0.750000  0.116926  0.300984  1
  Co  Co19  1  0.750000  0.387338  0.800125  1
  Co  Co20  1  0.250000  0.467978  0.930890  1
  Co  Co21  1  0.250000  0.031784  0.431679  1
  Co  Co22  1  0.750000  0.531106  0.069115  1
  Co  Co23  1  0.750000  0.970007  0.567935  1
  P  P24  1  0.250000  0.418467  0.112644  1
  P  P25  1  0.250000  0.081693  0.612111  1
  P  P26  1  0.750000  0.582884  0.891256  1
  P  P27  1  0.750000  0.918673  0.387746  1
  P  P28  1  0.250000  0.270482  0.870971  1
  P  P29  1  0.250000  0.228198  0.369466  1
  P  P30  1  0.750000  0.728347  0.129919  1
  P  P31  1  0.750000  0.775831  0.629079  1
  P  P32  1  0.250000  0.602526  0.390353  1
  P  P33  1  0.250000  0.898582  0.891765  1
  P  P34  1  0.750000  0.393082  0.607780  1
  P  P35  1  0.750000  0.102285  0.108240  1
