# generated using pymatgen
data_CaDy5(Si3Os)8
_symmetry_space_group_name_H-M   'P 1'
_cell_length_a   10.14056318
_cell_length_b   10.14056391
_cell_length_c   8.17342401
_cell_angle_alpha   89.87760711
_cell_angle_beta   90.12239899
_cell_angle_gamma   132.48325956
_symmetry_Int_Tables_number   1
_chemical_formula_structural   CaDy5(Si3Os)8
_chemical_formula_sum   'Ca1 Dy5 Si24 Os8'
_cell_volume   619.83222538
_cell_formula_units_Z   1
loop_
 _symmetry_equiv_pos_site_id
 _symmetry_equiv_pos_as_xyz
  1  'x, y, z'
loop_
 _atom_site_type_symbol
 _atom_site_label
 _atom_site_symmetry_multiplicity
 _atom_site_fract_x
 _atom_site_fract_y
 _atom_site_fract_z
 _atom_site_occupancy
  Ca  Ca0  1  0.501115  0.001115  0.750000  1
  Dy  Dy1  1  0.500166  0.500310  0.500699  1
  Dy  Dy2  1  0.000310  0.000166  0.999301  1
  Dy  Dy3  1  0.999955  0.499955  0.250000  1
  Dy  Dy4  1  0.497910  0.997910  0.250000  1
  Dy  Dy5  1  0.001836  0.501836  0.750000  1
  Si  Si6  1  0.794192  0.203650  0.500427  1
  Si  Si7  1  0.295621  0.705691  0.998467  1
  Si  Si8  1  0.205691  0.795621  0.501533  1
  Si  Si9  1  0.703650  0.294192  0.999573  1
  Si  Si10  1  0.331979  0.334022  0.832999  1
  Si  Si11  1  0.667103  0.669191  0.166928  1
  Si  Si12  1  0.169191  0.167103  0.333072  1
  Si  Si13  1  0.834022  0.831979  0.667001  1
  Si  Si14  1  0.119383  0.884275  0.728113  1
  Si  Si15  1  0.112501  0.878288  0.273023  1
  Si  Si16  1  0.612168  0.378331  0.228112  1
  Si  Si17  1  0.625200  0.390627  0.771580  1
  Si  Si18  1  0.878331  0.112168  0.271888  1
  Si  Si19  1  0.890627  0.125200  0.728420  1
  Si  Si20  1  0.384275  0.619383  0.771887  1
  Si  Si21  1  0.378288  0.612501  0.226977  1
  Si  Si22  1  0.344596  0.110838  0.501252  1
  Si  Si23  1  0.888910  0.655226  0.495943  1
  Si  Si24  1  0.388242  0.154209  0.007011  1
  Si  Si25  1  0.844258  0.611227  0.995207  1
  Si  Si26  1  0.654209  0.888242  0.492989  1
  Si  Si27  1  0.111227  0.344258  0.504793  1
  Si  Si28  1  0.610838  0.844596  0.998748  1
  Si  Si29  1  0.155226  0.388910  0.004057  1
  Os  Os30  1  0.669977  0.331046  0.498936  1
  Os  Os31  1  0.167202  0.829304  0.002277  1
  Os  Os32  1  0.329304  0.667202  0.497723  1
  Os  Os33  1  0.831046  0.169977  0.001064  1
  Os  Os34  1  0.127373  0.126827  0.627844  1
  Os  Os35  1  0.873417  0.873837  0.372613  1
  Os  Os36  1  0.373837  0.373417  0.127387  1
  Os  Os37  1  0.626827  0.627373  0.872156  1
