# generated using pymatgen
data_YbAl5Pt3
_symmetry_space_group_name_H-M   'P 1'
_cell_length_a   4.11746500
_cell_length_b   7.45805800
_cell_length_c   20.47415800
_cell_angle_alpha   90.00000000
_cell_angle_beta   90.00000000
_cell_angle_gamma   90.00000000
_symmetry_Int_Tables_number   1
_chemical_formula_structural   YbAl5Pt3
_chemical_formula_sum   'Yb4 Al20 Pt12'
_cell_volume   628.72643835
_cell_formula_units_Z   4
loop_
 _symmetry_equiv_pos_site_id
 _symmetry_equiv_pos_as_xyz
  1  'x, y, z'
loop_
 _atom_site_type_symbol
 _atom_site_label
 _atom_site_symmetry_multiplicity
 _atom_site_fract_x
 _atom_site_fract_y
 _atom_site_fract_z
 _atom_site_occupancy
  Yb  Yb0  1  0.250000  0.115602  0.639696  1
  Yb  Yb1  1  0.750000  0.884398  0.360304  1
  Yb  Yb2  1  0.250000  0.384398  0.139696  1
  Yb  Yb3  1  0.750000  0.615602  0.860304  1
  Al  Al4  1  0.750000  0.351912  0.382430  1
  Al  Al5  1  0.750000  0.882451  0.983400  1
  Al  Al6  1  0.750000  0.687782  0.200118  1
  Al  Al7  1  0.250000  0.871585  0.492174  1
  Al  Al8  1  0.250000  0.628415  0.992174  1
  Al  Al9  1  0.250000  0.312218  0.799882  1
  Al  Al10  1  0.750000  0.073550  0.209417  1
  Al  Al11  1  0.250000  0.648088  0.617570  1
  Al  Al12  1  0.250000  0.573550  0.290583  1
  Al  Al13  1  0.250000  0.187782  0.299882  1
  Al  Al14  1  0.750000  0.148088  0.882430  1
  Al  Al15  1  0.250000  0.926450  0.790583  1
  Al  Al16  1  0.750000  0.371585  0.007826  1
  Al  Al17  1  0.750000  0.617549  0.483400  1
  Al  Al18  1  0.750000  0.128415  0.507826  1
  Al  Al19  1  0.250000  0.117549  0.016600  1
  Al  Al20  1  0.250000  0.851912  0.117570  1
  Al  Al21  1  0.250000  0.382451  0.516600  1
  Al  Al22  1  0.750000  0.426450  0.709417  1
  Al  Al23  1  0.750000  0.812218  0.700118  1
  Pt  Pt24  1  0.750000  0.383488  0.259377  1
  Pt  Pt25  1  0.250000  0.883488  0.240623  1
  Pt  Pt26  1  0.250000  0.616512  0.740623  1
  Pt  Pt27  1  0.750000  0.116512  0.759377  1
  Pt  Pt28  1  0.250000  0.161893  0.426596  1
  Pt  Pt29  1  0.750000  0.418037  0.584820  1
  Pt  Pt30  1  0.750000  0.081963  0.084820  1
  Pt  Pt31  1  0.250000  0.918037  0.915180  1
  Pt  Pt32  1  0.750000  0.838107  0.573404  1
  Pt  Pt33  1  0.250000  0.338107  0.926596  1
  Pt  Pt34  1  0.750000  0.661893  0.073404  1
  Pt  Pt35  1  0.250000  0.581963  0.415180  1
