# generated using pymatgen
data_Tm4Fe5P12(Ru4Rh)3
_symmetry_space_group_name_H-M   'P 1'
_cell_length_a   3.84545200
_cell_length_b   10.61609225
_cell_length_c   12.26723226
_cell_angle_alpha   89.96329305
_cell_angle_beta   90.00000000
_cell_angle_gamma   90.00000000
_symmetry_Int_Tables_number   1
_chemical_formula_structural   Tm4Fe5P12(Ru4Rh)3
_chemical_formula_sum   'Tm4 Fe5 P12 Ru12 Rh3'
_cell_volume   500.79337782
_cell_formula_units_Z   1
loop_
 _symmetry_equiv_pos_site_id
 _symmetry_equiv_pos_as_xyz
  1  'x, y, z'
loop_
 _atom_site_type_symbol
 _atom_site_label
 _atom_site_symmetry_multiplicity
 _atom_site_fract_x
 _atom_site_fract_y
 _atom_site_fract_z
 _atom_site_occupancy
  Tm  Tm0  1  0.250000  0.579873  0.709580  1
  Tm  Tm1  1  0.250000  0.917403  0.206939  1
  Tm  Tm2  1  0.750000  0.417897  0.291289  1
  Tm  Tm3  1  0.750000  0.084448  0.791306  1
  Fe  Fe4  1  0.750000  0.380990  0.799739  1
  Fe  Fe5  1  0.250000  0.462536  0.933431  1
  Fe  Fe6  1  0.250000  0.038400  0.435943  1
  Fe  Fe7  1  0.750000  0.537350  0.061405  1
  Fe  Fe8  1  0.750000  0.962922  0.564731  1
  P  P9  1  0.250000  0.429164  0.107924  1
  P  P10  1  0.250000  0.073620  0.609803  1
  P  P11  1  0.750000  0.561560  0.886540  1
  P  P12  1  0.750000  0.928444  0.393700  1
  P  P13  1  0.250000  0.272714  0.866523  1
  P  P14  1  0.250000  0.232742  0.370052  1
  P  P15  1  0.750000  0.728695  0.128928  1
  P  P16  1  0.750000  0.770408  0.631602  1
  P  P17  1  0.250000  0.598376  0.394780  1
  P  P18  1  0.250000  0.901319  0.893900  1
  P  P19  1  0.750000  0.396995  0.613856  1
  P  P20  1  0.750000  0.104646  0.104070  1
  Ru  Ru21  1  0.250000  0.705473  0.986000  1
  Ru  Ru22  1  0.250000  0.794841  0.486690  1
  Ru  Ru23  1  0.750000  0.296478  0.009438  1
  Ru  Ru24  1  0.750000  0.206204  0.513952  1
  Ru  Ru25  1  0.250000  0.404604  0.486558  1
  Ru  Ru26  1  0.250000  0.097433  0.983999  1
  Ru  Ru27  1  0.750000  0.594001  0.517538  1
  Ru  Ru28  1  0.750000  0.905569  0.015192  1
  Ru  Ru29  1  0.250000  0.231466  0.176107  1
  Ru  Ru30  1  0.250000  0.273550  0.678552  1
  Ru  Ru31  1  0.250000  0.884107  0.702919  1
  Ru  Ru32  1  0.250000  0.616970  0.201822  1
  Rh  Rh33  1  0.750000  0.762757  0.824342  1
  Rh  Rh34  1  0.750000  0.733001  0.323904  1
  Rh  Rh35  1  0.750000  0.113043  0.296943  1
