# generated using pymatgen
data_Sr7Pr(Si3Pt)4
_symmetry_space_group_name_H-M   'P 1'
_cell_length_a   8.34543400
_cell_length_b   8.34543463
_cell_length_c   9.08994300
_cell_angle_alpha   90.00000000
_cell_angle_beta   90.00000000
_cell_angle_gamma   120.00000543
_symmetry_Int_Tables_number   1
_chemical_formula_structural   Sr7Pr(Si3Pt)4
_chemical_formula_sum   'Sr7 Pr1 Si12 Pt4'
_cell_volume   548.26390420
_cell_formula_units_Z   1
loop_
 _symmetry_equiv_pos_site_id
 _symmetry_equiv_pos_as_xyz
  1  'x, y, z'
loop_
 _atom_site_type_symbol
 _atom_site_label
 _atom_site_symmetry_multiplicity
 _atom_site_fract_x
 _atom_site_fract_y
 _atom_site_fract_z
 _atom_site_occupancy
  Sr  Sr0  1  0.499529  0.500471  0.750000  1
  Sr  Sr1  1  0.500383  0.499617  0.250000  1
  Sr  Sr2  1  0.000941  0.500471  0.750000  1
  Sr  Sr3  1  0.999236  0.499617  0.250000  1
  Sr  Sr4  1  0.499529  0.999059  0.750000  1
  Sr  Sr5  1  0.500383  0.000764  0.250000  1
  Sr  Sr6  1  0.000000  0.000000  0.750000  1
  Pr  Pr7  1  0.000000  0.000000  0.250000  1
  Si  Si8  1  0.834253  0.165747  0.004348  1
  Si  Si9  1  0.165723  0.834277  0.004651  1
  Si  Si10  1  0.331495  0.165747  0.004348  1
  Si  Si11  1  0.165723  0.834277  0.495349  1
  Si  Si12  1  0.668554  0.834277  0.004651  1
  Si  Si13  1  0.834253  0.165747  0.495652  1
  Si  Si14  1  0.834253  0.668505  0.004348  1
  Si  Si15  1  0.668554  0.834277  0.495349  1
  Si  Si16  1  0.165723  0.331446  0.004651  1
  Si  Si17  1  0.331495  0.165747  0.495652  1
  Si  Si18  1  0.165723  0.331446  0.495349  1
  Si  Si19  1  0.834253  0.668505  0.495652  1
  Pt  Pt20  1  0.666667  0.333333  0.999073  1
  Pt  Pt21  1  0.333333  0.666667  0.001074  1
  Pt  Pt22  1  0.333333  0.666667  0.498926  1
  Pt  Pt23  1  0.666667  0.333333  0.500927  1
