# generated using pymatgen
data_ScPa3Ge4OsPt3
_symmetry_space_group_name_H-M   'P 1'
_cell_length_a   4.33609500
_cell_length_b   6.95087121
_cell_length_c   7.65990536
_cell_angle_alpha   89.58387970
_cell_angle_beta   90.00000000
_cell_angle_gamma   90.00000000
_symmetry_Int_Tables_number   1
_chemical_formula_structural   ScPa3Ge4OsPt3
_chemical_formula_sum   'Sc1 Pa3 Ge4 Os1 Pt3'
_cell_volume   230.86068537
_cell_formula_units_Z   1
loop_
 _symmetry_equiv_pos_site_id
 _symmetry_equiv_pos_as_xyz
  1  'x, y, z'
loop_
 _atom_site_type_symbol
 _atom_site_label
 _atom_site_symmetry_multiplicity
 _atom_site_fract_x
 _atom_site_fract_y
 _atom_site_fract_z
 _atom_site_occupancy
  Sc  Sc0  1  0.750000  0.502284  0.793321  1
  Pa  Pa1  1  0.250000  0.006825  0.301701  1
  Pa  Pa2  1  0.250000  0.491913  0.208203  1
  Pa  Pa3  1  0.750000  0.011123  0.702130  1
  Ge  Ge4  1  0.250000  0.319798  0.593334  1
  Ge  Ge5  1  0.250000  0.804864  0.907790  1
  Ge  Ge6  1  0.750000  0.682429  0.415766  1
  Ge  Ge7  1  0.750000  0.193098  0.083258  1
  Os  Os8  1  0.750000  0.270721  0.410812  1
  Pt  Pt9  1  0.250000  0.222738  0.915500  1
  Pt  Pt10  1  0.250000  0.712693  0.584964  1
  Pt  Pt11  1  0.750000  0.781513  0.083220  1
