# generated using pymatgen
data_Er2Fe3Tc14C3
_symmetry_space_group_name_H-M   'P 1'
_cell_length_a   6.88462454
_cell_length_b   6.88462503
_cell_length_c   6.88462380
_cell_angle_alpha   82.22812761
_cell_angle_beta   82.22812764
_cell_angle_gamma   82.22812717
_symmetry_Int_Tables_number   1
_chemical_formula_structural   Er2Fe3Tc14C3
_chemical_formula_sum   'Er2 Fe3 Tc14 C3'
_cell_volume   318.06948831
_cell_formula_units_Z   1
loop_
 _symmetry_equiv_pos_site_id
 _symmetry_equiv_pos_as_xyz
  1  'x, y, z'
loop_
 _atom_site_type_symbol
 _atom_site_label
 _atom_site_symmetry_multiplicity
 _atom_site_fract_x
 _atom_site_fract_y
 _atom_site_fract_z
 _atom_site_occupancy
  Er  Er0  1  0.651870  0.651870  0.651870  1
  Er  Er1  1  0.348130  0.348130  0.348130  1
  Fe  Fe2  1  0.000000  0.000000  0.500000  1
  Fe  Fe3  1  0.500000  0.000000  0.000000  1
  Fe  Fe4  1  0.000000  0.500000  0.000000  1
  Tc  Tc5  1  0.724113  0.275887  0.000000  1
  Tc  Tc6  1  0.000000  0.724113  0.275887  1
  Tc  Tc7  1  0.275887  0.000000  0.724113  1
  Tc  Tc8  1  0.000000  0.275887  0.724113  1
  Tc  Tc9  1  0.724113  0.000000  0.275887  1
  Tc  Tc10  1  0.275887  0.724113  0.000000  1
  Tc  Tc11  1  0.348858  0.860107  0.348858  1
  Tc  Tc12  1  0.348858  0.348858  0.860107  1
  Tc  Tc13  1  0.860107  0.348858  0.348858  1
  Tc  Tc14  1  0.651142  0.139893  0.651142  1
  Tc  Tc15  1  0.651142  0.651142  0.139893  1
  Tc  Tc16  1  0.139893  0.651142  0.651142  1
  Tc  Tc17  1  0.898665  0.898665  0.898665  1
  Tc  Tc18  1  0.101335  0.101335  0.101335  1
  C  C19  1  0.500000  0.500000  0.000000  1
  C  C20  1  0.000000  0.500000  0.500000  1
  C  C21  1  0.500000  0.000000  0.500000  1
