# generated using pymatgen
data_Zr7ScH30
_symmetry_space_group_name_H-M   'P 1'
_cell_length_a   7.03002047
_cell_length_b   7.03002081
_cell_length_c   7.03002086
_cell_angle_alpha   109.53116230
_cell_angle_beta   109.53116100
_cell_angle_gamma   109.53115517
_symmetry_Int_Tables_number   1
_chemical_formula_structural   Zr7ScH30
_chemical_formula_sum   'Zr7 Sc1 H30'
_cell_volume   266.85810017
_cell_formula_units_Z   1
loop_
 _symmetry_equiv_pos_site_id
 _symmetry_equiv_pos_as_xyz
  1  'x, y, z'
loop_
 _atom_site_type_symbol
 _atom_site_label
 _atom_site_symmetry_multiplicity
 _atom_site_fract_x
 _atom_site_fract_y
 _atom_site_fract_z
 _atom_site_occupancy
  Zr  Zr0  1  0.499649  0.000731  0.094670  1
  Zr  Zr1  1  0.000731  0.094670  0.499649  1
  Zr  Zr2  1  0.094670  0.499649  0.000731  1
  Zr  Zr3  1  0.998223  0.596856  0.501797  1
  Zr  Zr4  1  0.596856  0.501797  0.998223  1
  Zr  Zr5  1  0.501797  0.998223  0.596856  1
  Zr  Zr6  1  0.404844  0.404844  0.404844  1
  Sc  Sc7  1  0.904714  0.904714  0.904714  1
  H  H8  1  0.654263  0.967839  0.382957  1
  H  H9  1  0.227758  0.312098  0.845275  1
  H  H10  1  0.186957  0.417266  0.532351  1
  H  H11  1  0.088871  0.275094  0.118010  1
  H  H12  1  0.275094  0.118010  0.088871  1
  H  H13  1  0.118010  0.088871  0.275094  1
  H  H14  1  0.467155  0.154922  0.883276  1
  H  H15  1  0.728445  0.345635  0.812711  1
  H  H16  1  0.626130  0.374287  0.250250  1
  H  H17  1  0.250250  0.626130  0.374287  1
  H  H18  1  0.749427  0.873712  0.126044  1
  H  H19  1  0.126044  0.749427  0.873712  1
  H  H20  1  0.374287  0.250250  0.626130  1
  H  H21  1  0.873712  0.126044  0.749427  1
  H  H22  1  0.770508  0.583752  0.613958  1
  H  H23  1  0.312098  0.845275  0.227758  1
  H  H24  1  0.382957  0.654263  0.967839  1
  H  H25  1  0.967839  0.382957  0.654263  1
  H  H26  1  0.532351  0.186957  0.417266  1
  H  H27  1  0.417266  0.532351  0.186957  1
  H  H28  1  0.845275  0.227758  0.312098  1
  H  H29  1  0.914577  0.684688  0.030301  1
  H  H30  1  0.812711  0.728445  0.345635  1
  H  H31  1  0.154922  0.883276  0.467155  1
  H  H32  1  0.684688  0.030301  0.914577  1
  H  H33  1  0.345635  0.812711  0.728445  1
  H  H34  1  0.883276  0.467155  0.154922  1
  H  H35  1  0.613958  0.770508  0.583752  1
  H  H36  1  0.583752  0.613958  0.770508  1
  H  H37  1  0.030301  0.914577  0.684688  1
