# generated using pymatgen
data_TbHo(Sb5O13)2
_symmetry_space_group_name_H-M   'P 1'
_cell_length_a   7.42444495
_cell_length_b   7.35473313
_cell_length_c   10.30828939
_cell_angle_alpha   88.86608804
_cell_angle_beta   90.02206332
_cell_angle_gamma   90.05391744
_symmetry_Int_Tables_number   1
_chemical_formula_structural   TbHo(Sb5O13)2
_chemical_formula_sum   'Tb1 Ho1 Sb10 O26'
_cell_volume   562.77168312
_cell_formula_units_Z   1
loop_
 _symmetry_equiv_pos_site_id
 _symmetry_equiv_pos_as_xyz
  1  'x, y, z'
loop_
 _atom_site_type_symbol
 _atom_site_label
 _atom_site_symmetry_multiplicity
 _atom_site_fract_x
 _atom_site_fract_y
 _atom_site_fract_z
 _atom_site_occupancy
  Tb  Tb0  1  0.500000  0.500000  0.000000  1
  Ho  Ho1  1  0.000000  0.500000  0.000000  1
  Sb  Sb2  1  0.249520  0.728756  0.730942  1
  Sb  Sb3  1  0.750480  0.271244  0.269058  1
  Sb  Sb4  1  0.500000  0.000000  0.000000  1
  Sb  Sb5  1  0.750179  0.757482  0.748955  1
  Sb  Sb6  1  0.249772  0.748194  0.252005  1
  Sb  Sb7  1  0.500000  0.500000  0.500000  1
  Sb  Sb8  1  0.000000  0.500000  0.500000  1
  Sb  Sb9  1  0.750228  0.251806  0.747995  1
  Sb  Sb10  1  0.249821  0.242518  0.251045  1
  Sb  Sb11  1  0.000000  0.000000  0.000000  1
  O  O12  1  0.448013  0.690616  0.372202  1
  O  O13  1  0.752031  0.456505  0.127535  1
  O  O14  1  0.249175  0.493827  0.160632  1
  O  O15  1  0.454233  0.309046  0.365889  1
  O  O16  1  0.557182  0.215278  0.884656  1
  O  O17  1  0.943043  0.216234  0.885096  1
  O  O18  1  0.448616  0.207426  0.120877  1
  O  O19  1  0.749981  0.999846  0.072713  1
  O  O20  1  0.250019  0.000154  0.927287  1
  O  O21  1  0.750122  0.003800  0.684512  1
  O  O22  1  0.551384  0.792574  0.879123  1
  O  O23  1  0.948593  0.791984  0.879473  1
  O  O24  1  0.442818  0.784722  0.115344  1
  O  O25  1  0.051869  0.690665  0.372331  1
  O  O26  1  0.545767  0.690954  0.634111  1
  O  O27  1  0.954454  0.691078  0.633995  1
  O  O28  1  0.249973  0.518167  0.581113  1
  O  O29  1  0.750825  0.506173  0.839368  1
  O  O30  1  0.750027  0.481833  0.418887  1
  O  O31  1  0.045546  0.308922  0.366005  1
  O  O32  1  0.551987  0.309384  0.627798  1
  O  O33  1  0.948131  0.309335  0.627669  1
  O  O34  1  0.051407  0.208016  0.120527  1
  O  O35  1  0.249878  0.996200  0.315488  1
  O  O36  1  0.056957  0.783766  0.114904  1
  O  O37  1  0.247969  0.543495  0.872465  1
