# generated using pymatgen
data_Nd16Y3HoPb16
_symmetry_space_group_name_H-M   'P 1'
_cell_length_a   8.41591613
_cell_length_b   16.13746100
_cell_length_c   8.49648904
_cell_angle_alpha   90.00000000
_cell_angle_beta   90.00442389
_cell_angle_gamma   90.00000000
_symmetry_Int_Tables_number   1
_chemical_formula_structural   Nd16Y3HoPb16
_chemical_formula_sum   'Nd16 Y3 Ho1 Pb16'
_cell_volume   1153.92107317
_cell_formula_units_Z   1
loop_
 _symmetry_equiv_pos_site_id
 _symmetry_equiv_pos_as_xyz
  1  'x, y, z'
loop_
 _atom_site_type_symbol
 _atom_site_label
 _atom_site_symmetry_multiplicity
 _atom_site_fract_x
 _atom_site_fract_y
 _atom_site_fract_z
 _atom_site_occupancy
  Nd  Nd0  1  0.622555  0.619600  0.158719  1
  Nd  Nd1  1  0.122561  0.880298  0.341136  1
  Nd  Nd2  1  0.377640  0.119824  0.841402  1
  Nd  Nd3  1  0.877300  0.380203  0.659000  1
  Nd  Nd4  1  0.377640  0.380176  0.841402  1
  Nd  Nd5  1  0.877300  0.119797  0.659000  1
  Nd  Nd6  1  0.622555  0.880400  0.158719  1
  Nd  Nd7  1  0.122561  0.619702  0.341136  1
  Nd  Nd8  1  0.466238  0.600264  0.676619  1
  Nd  Nd9  1  0.966182  0.899772  0.823358  1
  Nd  Nd10  1  0.533866  0.100373  0.323191  1
  Nd  Nd11  1  0.033600  0.399598  0.176578  1
  Nd  Nd12  1  0.533866  0.399627  0.323191  1
  Nd  Nd13  1  0.033600  0.100402  0.176578  1
  Nd  Nd14  1  0.466238  0.899736  0.676619  1
  Nd  Nd15  1  0.966182  0.600228  0.823358  1
  Y  Y16  1  0.790535  0.750000  0.496668  1
  Y  Y17  1  0.290537  0.750000  0.003296  1
  Y  Y18  1  0.209538  0.250000  0.503296  1
  Ho  Ho19  1  0.709583  0.250000  0.996560  1
  Pb  Pb20  1  0.718946  0.455210  0.967997  1
  Pb  Pb21  1  0.218945  0.044422  0.532277  1
  Pb  Pb22  1  0.281051  0.955573  0.032131  1
  Pb  Pb23  1  0.781128  0.544413  0.467817  1
  Pb  Pb24  1  0.281051  0.544427  0.032131  1
  Pb  Pb25  1  0.781128  0.955587  0.467817  1
  Pb  Pb26  1  0.718946  0.044790  0.967997  1
  Pb  Pb27  1  0.218945  0.455578  0.532277  1
  Pb  Pb28  1  0.427544  0.750000  0.374810  1
  Pb  Pb29  1  0.927431  0.750000  0.125050  1
  Pb  Pb30  1  0.572795  0.250000  0.625414  1
  Pb  Pb31  1  0.072136  0.250000  0.875202  1
  Pb  Pb32  1  0.654960  0.750000  0.847884  1
  Pb  Pb33  1  0.154875  0.750000  0.652100  1
  Pb  Pb34  1  0.345368  0.250000  0.151994  1
  Pb  Pb35  1  0.844669  0.250000  0.347276  1
