# generated using pymatgen
data_Li8Pr7NdPt8
_symmetry_space_group_name_H-M   'P 1'
_cell_length_a   9.68056336
_cell_length_b   9.68042587
_cell_length_c   7.30779800
_cell_angle_alpha   90.33372920
_cell_angle_beta   89.66612165
_cell_angle_gamma   130.51870746
_symmetry_Int_Tables_number   1
_chemical_formula_structural   Li8Pr7NdPt8
_chemical_formula_sum   'Li8 Pr7 Nd1 Pt8'
_cell_volume   520.59148562
_cell_formula_units_Z   1
loop_
 _symmetry_equiv_pos_site_id
 _symmetry_equiv_pos_as_xyz
  1  'x, y, z'
loop_
 _atom_site_type_symbol
 _atom_site_label
 _atom_site_symmetry_multiplicity
 _atom_site_fract_x
 _atom_site_fract_y
 _atom_site_fract_z
 _atom_site_occupancy
  Li  Li0  1  0.848006  0.151997  0.874783  1
  Li  Li1  1  0.846789  0.652046  0.629155  1
  Li  Li2  1  0.347957  0.153219  0.629154  1
  Li  Li3  1  0.151717  0.848285  0.376819  1
  Li  Li4  1  0.152495  0.347725  0.129208  1
  Li  Li5  1  0.652268  0.847488  0.129208  1
  Li  Li6  1  0.651799  0.348202  0.377169  1
  Li  Li7  1  0.347724  0.652278  0.875051  1
  Pr  Pr8  1  0.531457  0.967379  0.545778  1
  Pr  Pr9  1  0.032617  0.468533  0.545780  1
  Pr  Pr10  1  0.531634  0.468367  0.958387  1
  Pr  Pr11  1  0.468192  0.032031  0.046765  1
  Pr  Pr12  1  0.967973  0.531810  0.046762  1
  Pr  Pr13  1  0.968417  0.031602  0.459545  1
  Pr  Pr14  1  0.031312  0.968655  0.958597  1
  Nd  Nd15  1  0.468218  0.531793  0.458469  1
  Pt  Pt16  1  0.816788  0.183218  0.253292  1
  Pt  Pt17  1  0.815341  0.683196  0.251729  1
  Pt  Pt18  1  0.316802  0.184661  0.251730  1
  Pt  Pt19  1  0.183645  0.816363  0.753552  1
  Pt  Pt20  1  0.185592  0.317840  0.750012  1
  Pt  Pt21  1  0.682160  0.814403  0.750013  1
  Pt  Pt22  1  0.683861  0.316138  0.753764  1
  Pt  Pt23  1  0.317237  0.682771  0.253283  1
