# generated using pymatgen
data_ErTm11Os3Rh
_symmetry_space_group_name_H-M   'P 1'
_cell_length_a   7.29852757
_cell_length_b   8.93709600
_cell_length_c   6.25973900
_cell_angle_alpha   90.00000000
_cell_angle_beta   89.90666523
_cell_angle_gamma   90.00000000
_symmetry_Int_Tables_number   1
_chemical_formula_structural   ErTm11Os3Rh
_chemical_formula_sum   'Er1 Tm11 Os3 Rh1'
_cell_volume   408.30746977
_cell_formula_units_Z   1
loop_
 _symmetry_equiv_pos_site_id
 _symmetry_equiv_pos_as_xyz
  1  'x, y, z'
loop_
 _atom_site_type_symbol
 _atom_site_label
 _atom_site_symmetry_multiplicity
 _atom_site_fract_x
 _atom_site_fract_y
 _atom_site_fract_z
 _atom_site_occupancy
  Er  Er0  1  0.038766  0.250000  0.628822  1
  Tm  Tm1  1  0.961340  0.750000  0.372393  1
  Tm  Tm2  1  0.462166  0.750000  0.129633  1
  Tm  Tm3  1  0.539575  0.250000  0.870113  1
  Tm  Tm4  1  0.172828  0.060351  0.165636  1
  Tm  Tm5  1  0.824495  0.937168  0.830837  1
  Tm  Tm6  1  0.323355  0.933706  0.672058  1
  Tm  Tm7  1  0.824495  0.562832  0.830837  1
  Tm  Tm8  1  0.678232  0.061208  0.331515  1
  Tm  Tm9  1  0.172828  0.439649  0.165636  1
  Tm  Tm10  1  0.678232  0.438792  0.331515  1
  Tm  Tm11  1  0.323355  0.566294  0.672058  1
  Os  Os12  1  0.615881  0.750000  0.537721  1
  Os  Os13  1  0.116806  0.750000  0.963660  1
  Os  Os14  1  0.883131  0.250000  0.038465  1
  Rh  Rh15  1  0.384515  0.250000  0.459103  1
