# generated using pymatgen
data_SrNdTcH6
_symmetry_space_group_name_H-M   'P 1'
_cell_length_a   5.28966142
_cell_length_b   5.28966208
_cell_length_c   5.28966100
_cell_angle_alpha   60.00000052
_cell_angle_beta   59.99999637
_cell_angle_gamma   59.99999812
_symmetry_Int_Tables_number   1
_chemical_formula_structural   SrNdTcH6
_chemical_formula_sum   'Sr1 Nd1 Tc1 H6'
_cell_volume   104.65708392
_cell_formula_units_Z   1
loop_
 _symmetry_equiv_pos_site_id
 _symmetry_equiv_pos_as_xyz
  1  'x, y, z'
loop_
 _atom_site_type_symbol
 _atom_site_label
 _atom_site_symmetry_multiplicity
 _atom_site_fract_x
 _atom_site_fract_y
 _atom_site_fract_z
 _atom_site_occupancy
  Sr  Sr0  1  0.750000  0.750000  0.750000  1
  Nd  Nd1  1  0.250000  0.250000  0.250000  1
  Tc  Tc2  1  0.000000  0.000000  0.000000  1
  H  H3  1  0.760294  0.760294  0.239706  1
  H  H4  1  0.239706  0.760294  0.239706  1
  H  H5  1  0.760294  0.239706  0.239706  1
  H  H6  1  0.239706  0.239706  0.760294  1
  H  H7  1  0.760294  0.239706  0.760294  1
  H  H8  1  0.239706  0.760294  0.760294  1
