# generated using pymatgen
data_NdDy4Mo3(P3Ir4)4
_symmetry_space_group_name_H-M   'P 1'
_cell_length_a   12.69169201
_cell_length_b   12.69240597
_cell_length_c   3.99618300
_cell_angle_alpha   90.00000000
_cell_angle_beta   90.00000000
_cell_angle_gamma   120.00186453
_symmetry_Int_Tables_number   1
_chemical_formula_structural   NdDy4Mo3(P3Ir4)4
_chemical_formula_sum   'Nd1 Dy4 Mo3 P12 Ir16'
_cell_volume   557.48260262
_cell_formula_units_Z   1
loop_
 _symmetry_equiv_pos_site_id
 _symmetry_equiv_pos_as_xyz
  1  'x, y, z'
loop_
 _atom_site_type_symbol
 _atom_site_label
 _atom_site_symmetry_multiplicity
 _atom_site_fract_x
 _atom_site_fract_y
 _atom_site_fract_z
 _atom_site_occupancy
  Nd  Nd0  1  0.000000  0.813188  0.000000  1
  Dy  Dy1  1  0.333300  0.666588  0.500000  1
  Dy  Dy2  1  0.666700  0.333287  0.500000  1
  Dy  Dy3  1  0.187388  0.187517  0.000000  1
  Dy  Dy4  1  0.812612  0.000129  0.000000  1
  Mo  Mo5  1  0.000000  0.452390  0.500000  1
  Mo  Mo6  1  0.545832  0.546475  0.500000  1
  Mo  Mo7  1  0.454168  0.000642  0.500000  1
  P  P8  1  0.000000  0.636577  0.500000  1
  P  P9  1  0.361355  0.361282  0.500000  1
  P  P10  1  0.638645  0.999927  0.500000  1
  P  P11  1  0.515595  0.684148  0.000000  1
  P  P12  1  0.315566  0.831859  0.000000  1
  P  P13  1  0.168116  0.483554  0.000000  1
  P  P14  1  0.484405  0.168554  0.000000  1
  P  P15  1  0.684434  0.516292  0.000000  1
  P  P16  1  0.831884  0.315437  0.000000  1
  P  P17  1  0.000000  0.177674  0.500000  1
  P  P18  1  0.821705  0.823575  0.500000  1
  P  P19  1  0.178295  0.001870  0.500000  1
  Ir  Ir20  1  0.508776  0.866359  0.000000  1
  Ir  Ir21  1  0.133473  0.641948  0.000000  1
  Ir  Ir22  1  0.357219  0.490797  0.000000  1
  Ir  Ir23  1  0.491224  0.357582  0.000000  1
  Ir  Ir24  1  0.866527  0.508474  0.000000  1
  Ir  Ir25  1  0.642781  0.133578  0.000000  1
  Ir  Ir26  1  0.000000  0.286441  0.000000  1
  Ir  Ir27  1  0.712067  0.713041  0.000000  1
  Ir  Ir28  1  0.287933  0.000974  0.000000  1
  Ir  Ir29  1  0.625432  0.804652  0.500000  1
  Ir  Ir30  1  0.198906  0.821771  0.500000  1
  Ir  Ir31  1  0.178846  0.374278  0.500000  1
  Ir  Ir32  1  0.374568  0.179220  0.500000  1
  Ir  Ir33  1  0.801094  0.622865  0.500000  1
  Ir  Ir34  1  0.821154  0.195433  0.500000  1
  Ir  Ir35  1  0.000000  0.001622  0.500000  1
