# generated using pymatgen
data_TbCe2(GaNi)3
_symmetry_space_group_name_H-M   'P 1'
_cell_length_a   6.97356711
_cell_length_b   6.89702798
_cell_length_c   3.93043100
_cell_angle_alpha   90.00000000
_cell_angle_beta   90.00000000
_cell_angle_gamma   119.63611271
_symmetry_Int_Tables_number   1
_chemical_formula_structural   TbCe2(GaNi)3
_chemical_formula_sum   'Tb1 Ce2 Ga3 Ni3'
_cell_volume   164.31173755
_cell_formula_units_Z   1
loop_
 _symmetry_equiv_pos_site_id
 _symmetry_equiv_pos_as_xyz
  1  'x, y, z'
loop_
 _atom_site_type_symbol
 _atom_site_label
 _atom_site_symmetry_multiplicity
 _atom_site_fract_x
 _atom_site_fract_y
 _atom_site_fract_z
 _atom_site_occupancy
  Tb  Tb0  1  0.000022  0.585809  0.500000  1
  Ce  Ce1  1  0.420079  0.418834  0.500000  1
  Ce  Ce2  1  0.579959  0.998821  0.500000  1
  Ga  Ga3  1  0.233742  0.996131  0.000000  1
  Ga  Ga4  1  0.766241  0.762383  0.000000  1
  Ga  Ga5  1  0.999993  0.242664  0.000000  1
  Ni  Ni6  1  0.654515  0.322123  0.000000  1
  Ni  Ni7  1  0.345326  0.667401  0.000000  1
  Ni  Ni8  1  0.000123  0.005833  0.500000  1
