# generated using pymatgen
data_ReTcS4
_symmetry_space_group_name_H-M   'P 1'
_cell_length_a   6.41608741
_cell_length_b   6.51422214
_cell_length_c   7.55843024
_cell_angle_alpha   66.94761158
_cell_angle_beta   77.79277455
_cell_angle_gamma   61.15637286
_symmetry_Int_Tables_number   1
_chemical_formula_structural   ReTcS4
_chemical_formula_sum   'Re2 Tc2 S8'
_cell_volume   254.52236304
_cell_formula_units_Z   2
loop_
 _symmetry_equiv_pos_site_id
 _symmetry_equiv_pos_as_xyz
  1  'x, y, z'
loop_
 _atom_site_type_symbol
 _atom_site_label
 _atom_site_symmetry_multiplicity
 _atom_site_fract_x
 _atom_site_fract_y
 _atom_site_fract_z
 _atom_site_occupancy
  Re  Re0  1  0.510988  0.285493  0.501849  1
  Re  Re1  1  0.489012  0.714507  0.498151  1
  Tc  Tc2  1  0.938687  0.308815  0.507702  1
  Tc  Tc3  1  0.061313  0.691185  0.492298  1
  S  S4  1  0.321949  0.170643  0.329165  1
  S  S5  1  0.678051  0.829357  0.670835  1
  S  S6  1  0.858389  0.151374  0.306509  1
  S  S7  1  0.141611  0.848626  0.693491  1
  S  S8  1  0.363657  0.669356  0.249409  1
  S  S9  1  0.636343  0.330644  0.750591  1
  S  S10  1  0.824506  0.701782  0.275588  1
  S  S11  1  0.175494  0.298218  0.724412  1
