# generated using pymatgen
data_La16Dy4(Ir3Rh)3
_symmetry_space_group_name_H-M   'P 1'
_cell_length_a   11.35336600
_cell_length_b   11.35336600
_cell_length_c   6.58687100
_cell_angle_alpha   90.00000000
_cell_angle_beta   90.00000000
_cell_angle_gamma   90.00000000
_symmetry_Int_Tables_number   1
_chemical_formula_structural   La16Dy4(Ir3Rh)3
_chemical_formula_sum   'La16 Dy4 Ir9 Rh3'
_cell_volume   849.04055498
_cell_formula_units_Z   1
loop_
 _symmetry_equiv_pos_site_id
 _symmetry_equiv_pos_as_xyz
  1  'x, y, z'
loop_
 _atom_site_type_symbol
 _atom_site_label
 _atom_site_symmetry_multiplicity
 _atom_site_fract_x
 _atom_site_fract_y
 _atom_site_fract_z
 _atom_site_occupancy
  La  La0  1  0.287921  0.088984  0.384006  1
  La  La1  1  0.287820  0.910606  0.883936  1
  La  La2  1  0.712180  0.089394  0.883936  1
  La  La3  1  0.712079  0.911016  0.384006  1
  La  La4  1  0.589394  0.787820  0.883936  1
  La  La5  1  0.588984  0.212079  0.384006  1
  La  La6  1  0.411016  0.787921  0.384006  1
  La  La7  1  0.410606  0.212180  0.883936  1
  La  La8  1  0.211525  0.410961  0.614977  1
  La  La9  1  0.211845  0.589207  0.117317  1
  La  La10  1  0.788155  0.410793  0.117317  1
  La  La11  1  0.788475  0.589039  0.614977  1
  La  La12  1  0.910793  0.711845  0.117317  1
  La  La13  1  0.910961  0.288475  0.614977  1
  La  La14  1  0.089039  0.711525  0.614977  1
  La  La15  1  0.089207  0.288155  0.117317  1
  Dy  Dy16  1  0.000000  0.000000  0.500128  1
  Dy  Dy17  1  0.000000  0.000000  0.000025  1
  Dy  Dy18  1  0.500000  0.500000  0.000025  1
  Dy  Dy19  1  0.500000  0.500000  0.500128  1
  Ir  Ir20  1  0.849201  0.149330  0.249916  1
  Ir  Ir21  1  0.849704  0.850021  0.749539  1
  Ir  Ir22  1  0.150296  0.149979  0.749539  1
  Ir  Ir23  1  0.150799  0.850670  0.249916  1
  Ir  Ir24  1  0.649979  0.349704  0.749539  1
  Ir  Ir25  1  0.649330  0.650799  0.249916  1
  Ir  Ir26  1  0.350670  0.349201  0.249916  1
  Ir  Ir27  1  0.350021  0.650296  0.749539  1
  Ir  Ir28  1  0.000000  0.500000  0.378583  1
  Rh  Rh29  1  0.500000  0.000000  0.120877  1
  Rh  Rh30  1  0.500000  0.000000  0.621097  1
  Rh  Rh31  1  0.000000  0.500000  0.880369  1
