# generated using pymatgen
data_Dy16CdHg3Ir4
_symmetry_space_group_name_H-M   'P 1'
_cell_length_a   9.61104867
_cell_length_b   9.61211990
_cell_length_c   9.61212000
_cell_angle_alpha   59.99999964
_cell_angle_beta   59.99631257
_cell_angle_gamma   59.99631456
_symmetry_Int_Tables_number   1
_chemical_formula_structural   Dy16CdHg3Ir4
_chemical_formula_sum   'Dy16 Cd1 Hg3 Ir4'
_cell_volume   627.87029866
_cell_formula_units_Z   1
loop_
 _symmetry_equiv_pos_site_id
 _symmetry_equiv_pos_as_xyz
  1  'x, y, z'
loop_
 _atom_site_type_symbol
 _atom_site_label
 _atom_site_symmetry_multiplicity
 _atom_site_fract_x
 _atom_site_fract_y
 _atom_site_fract_z
 _atom_site_occupancy
  Dy  Dy0  1  0.600380  0.599790  0.599790  1
  Dy  Dy1  1  0.600380  0.599790  0.200041  1
  Dy  Dy2  1  0.600380  0.200041  0.599790  1
  Dy  Dy3  1  0.198178  0.600607  0.600607  1
  Dy  Dy4  1  0.059020  0.440903  0.440903  1
  Dy  Dy5  1  0.440043  0.059743  0.059743  1
  Dy  Dy6  1  0.440043  0.059743  0.440471  1
  Dy  Dy7  1  0.059020  0.440903  0.059174  1
  Dy  Dy8  1  0.440043  0.440471  0.059743  1
  Dy  Dy9  1  0.059020  0.059174  0.440903  1
  Dy  Dy10  1  0.187162  0.811603  0.811603  1
  Dy  Dy11  1  0.811222  0.188625  0.188625  1
  Dy  Dy12  1  0.811222  0.188625  0.811529  1
  Dy  Dy13  1  0.187162  0.811603  0.189633  1
  Dy  Dy14  1  0.811222  0.811529  0.188625  1
  Dy  Dy15  1  0.187162  0.189633  0.811603  1
  Cd  Cd16  1  0.506834  0.831055  0.831055  1
  Hg  Hg17  1  0.833970  0.835755  0.835755  1
  Hg  Hg18  1  0.833970  0.835755  0.494520  1
  Hg  Hg19  1  0.833970  0.494520  0.835755  1
  Ir  Ir20  1  0.391528  0.391793  0.391793  1
  Ir  Ir21  1  0.391528  0.391793  0.824886  1
  Ir  Ir22  1  0.391528  0.824886  0.391793  1
  Ir  Ir23  1  0.825015  0.391662  0.391662  1
