# generated using pymatgen
data_Nd5(ThS4)3
_symmetry_space_group_name_H-M   'P 1'
_cell_length_a   4.02430700
_cell_length_b   10.70734391
_cell_length_c   10.94357981
_cell_angle_alpha   89.78328127
_cell_angle_beta   90.00000000
_cell_angle_gamma   90.00000000
_symmetry_Int_Tables_number   1
_chemical_formula_structural   Nd5(ThS4)3
_chemical_formula_sum   'Nd5 Th3 S12'
_cell_volume   471.55153058
_cell_formula_units_Z   1
loop_
 _symmetry_equiv_pos_site_id
 _symmetry_equiv_pos_as_xyz
  1  'x, y, z'
loop_
 _atom_site_type_symbol
 _atom_site_label
 _atom_site_symmetry_multiplicity
 _atom_site_fract_x
 _atom_site_fract_y
 _atom_site_fract_z
 _atom_site_occupancy
  Nd  Nd0  1  0.250000  0.005647  0.308979  1
  Nd  Nd1  1  0.750000  0.991029  0.690956  1
  Nd  Nd2  1  0.750000  0.506059  0.189808  1
  Nd  Nd3  1  0.250000  0.495968  0.806790  1
  Nd  Nd4  1  0.250000  0.687841  0.486792  1
  Th  Th5  1  0.750000  0.314445  0.513745  1
  Th  Th6  1  0.750000  0.186292  0.013582  1
  Th  Th7  1  0.250000  0.813447  0.986498  1
  S  S8  1  0.250000  0.056907  0.879986  1
  S  S9  1  0.750000  0.944239  0.120618  1
  S  S10  1  0.750000  0.552857  0.620389  1
  S  S11  1  0.250000  0.444515  0.378777  1
  S  S12  1  0.250000  0.129939  0.549982  1
  S  S13  1  0.750000  0.873539  0.451736  1
  S  S14  1  0.750000  0.628558  0.950582  1
  S  S15  1  0.250000  0.371184  0.048880  1
  S  S16  1  0.250000  0.703055  0.222855  1
  S  S17  1  0.750000  0.295230  0.774776  1
  S  S18  1  0.750000  0.203579  0.274564  1
  S  S19  1  0.250000  0.795668  0.729704  1
