# generated using pymatgen
data_Np4Tc2Ge6Ru5
_symmetry_space_group_name_H-M   'P 1'
_cell_length_a   7.18057386
_cell_length_b   7.18057322
_cell_length_c   7.18057344
_cell_angle_alpha   109.24139514
_cell_angle_beta   109.58626055
_cell_angle_gamma   109.58625307
_symmetry_Int_Tables_number   1
_chemical_formula_structural   Np4Tc2Ge6Ru5
_chemical_formula_sum   'Np4 Tc2 Ge6 Ru5'
_cell_volume   285.00353938
_cell_formula_units_Z   1
loop_
 _symmetry_equiv_pos_site_id
 _symmetry_equiv_pos_as_xyz
  1  'x, y, z'
loop_
 _atom_site_type_symbol
 _atom_site_label
 _atom_site_symmetry_multiplicity
 _atom_site_fract_x
 _atom_site_fract_y
 _atom_site_fract_z
 _atom_site_occupancy
  Np  Np0  1  0.499998  0.502441  0.497555  1
  Np  Np1  1  0.995113  0.997557  0.497555  1
  Np  Np2  1  0.499998  0.997557  0.002443  1
  Np  Np3  1  0.004887  0.502441  0.002443  1
  Tc  Tc4  1  0.000000  0.000000  0.000000  1
  Tc  Tc5  1  0.500001  0.750000  0.249999  1
  Ge  Ge6  1  0.000000  0.306669  0.306669  1
  Ge  Ge7  1  0.000000  0.693330  0.693330  1
  Ge  Ge8  1  0.306204  0.001932  0.308136  1
  Ge  Ge9  1  0.306204  0.304271  0.998068  1
  Ge  Ge10  1  0.693795  0.001932  0.695728  1
  Ge  Ge11  1  0.693795  0.691863  0.998068  1
  Ru  Ru12  1  0.500001  0.249999  0.750000  1
  Ru  Ru13  1  0.250046  0.499703  0.749749  1
  Ru  Ru14  1  0.749953  0.250250  0.500299  1
  Ru  Ru15  1  0.749953  0.499703  0.249654  1
  Ru  Ru16  1  0.250046  0.750345  0.500299  1
