# generated using pymatgen
data_Pr4Be4VIr9
_symmetry_space_group_name_H-M   'P 1'
_cell_length_a   5.62077500
_cell_length_b   5.62077480
_cell_length_c   22.36177800
_cell_angle_alpha   90.00000000
_cell_angle_beta   90.00000000
_cell_angle_gamma   119.99999527
_symmetry_Int_Tables_number   1
_chemical_formula_structural   Pr4Be4VIr9
_chemical_formula_sum   'Pr8 Be8 V2 Ir18'
_cell_volume   611.82803101
_cell_formula_units_Z   2
loop_
 _symmetry_equiv_pos_site_id
 _symmetry_equiv_pos_as_xyz
  1  'x, y, z'
loop_
 _atom_site_type_symbol
 _atom_site_label
 _atom_site_symmetry_multiplicity
 _atom_site_fract_x
 _atom_site_fract_y
 _atom_site_fract_z
 _atom_site_occupancy
  Pr  Pr0  1  0.333333  0.666667  0.527586  1
  Pr  Pr1  1  0.666667  0.333333  0.472414  1
  Pr  Pr2  1  0.666667  0.333333  0.027586  1
  Pr  Pr3  1  0.333333  0.666667  0.972414  1
  Pr  Pr4  1  0.333333  0.666667  0.674540  1
  Pr  Pr5  1  0.666667  0.333333  0.325460  1
  Pr  Pr6  1  0.666667  0.333333  0.174540  1
  Pr  Pr7  1  0.333333  0.666667  0.825460  1
  Be  Be8  1  0.333333  0.666667  0.172158  1
  Be  Be9  1  0.666667  0.333333  0.827842  1
  Be  Be10  1  0.666667  0.333333  0.672158  1
  Be  Be11  1  0.333333  0.666667  0.327842  1
  Be  Be12  1  0.000000  0.000000  0.170125  1
  Be  Be13  1  0.000000  0.000000  0.829875  1
  Be  Be14  1  0.000000  0.000000  0.670125  1
  Be  Be15  1  0.000000  0.000000  0.329875  1
  V  V16  1  0.000000  0.000000  0.000000  1
  V  V17  1  0.000000  0.000000  0.500000  1
  Ir  Ir18  1  0.167030  0.334059  0.092038  1
  Ir  Ir19  1  0.832970  0.665941  0.907962  1
  Ir  Ir20  1  0.665941  0.832970  0.092038  1
  Ir  Ir21  1  0.832970  0.665941  0.592038  1
  Ir  Ir22  1  0.334059  0.167030  0.907962  1
  Ir  Ir23  1  0.167030  0.334059  0.407962  1
  Ir  Ir24  1  0.167030  0.832970  0.092038  1
  Ir  Ir25  1  0.334059  0.167030  0.592038  1
  Ir  Ir26  1  0.832970  0.167030  0.907962  1
  Ir  Ir27  1  0.665941  0.832970  0.407962  1
  Ir  Ir28  1  0.832970  0.167030  0.592038  1
  Ir  Ir29  1  0.167030  0.832970  0.407962  1
  Ir  Ir30  1  0.166241  0.332482  0.250000  1
  Ir  Ir31  1  0.833759  0.667518  0.750000  1
  Ir  Ir32  1  0.667518  0.833759  0.250000  1
  Ir  Ir33  1  0.332482  0.166241  0.750000  1
  Ir  Ir34  1  0.166241  0.833759  0.250000  1
  Ir  Ir35  1  0.833759  0.166241  0.750000  1
