# generated using pymatgen
data_Ho4ErPb3O
_symmetry_space_group_name_H-M   'P 1'
_cell_length_a   9.06195009
_cell_length_b   9.05480786
_cell_length_c   9.06155742
_cell_angle_alpha   125.69678585
_cell_angle_beta   125.71939992
_cell_angle_gamma   80.34404966
_symmetry_Int_Tables_number   1
_chemical_formula_structural   Ho4ErPb3O
_chemical_formula_sum   'Ho8 Er2 Pb6 O2'
_cell_volume   473.08866025
_cell_formula_units_Z   2
loop_
 _symmetry_equiv_pos_site_id
 _symmetry_equiv_pos_as_xyz
  1  'x, y, z'
loop_
 _atom_site_type_symbol
 _atom_site_label
 _atom_site_symmetry_multiplicity
 _atom_site_fract_x
 _atom_site_fract_y
 _atom_site_fract_z
 _atom_site_occupancy
  Ho  Ho0  1  0.998262  0.199474  0.499991  1
  Ho  Ho1  1  0.800520  0.300580  0.798816  1
  Ho  Ho2  1  0.498304  0.998237  0.798825  1
  Ho  Ho3  1  0.501696  0.001763  0.201175  1
  Ho  Ho4  1  0.001738  0.800526  0.500009  1
  Ho  Ho5  1  0.500000  0.500000  0.000000  1
  Ho  Ho6  1  0.199480  0.699420  0.201184  1
  Ho  Ho7  1  0.000000  0.000000  0.000000  1
  Er  Er8  1  0.699669  0.497835  0.499996  1
  Er  Er9  1  0.300331  0.502165  0.500004  1
  Pb  Pb10  1  0.851461  0.351450  0.202888  1
  Pb  Pb11  1  0.148539  0.648550  0.797112  1
  Pb  Pb12  1  0.351176  0.149289  0.499988  1
  Pb  Pb13  1  0.749667  0.749689  0.999336  1
  Pb  Pb14  1  0.648824  0.850711  0.500012  1
  Pb  Pb15  1  0.250333  0.250311  0.000664  1
  O  O16  1  0.749809  0.250734  0.500002  1
  O  O17  1  0.250191  0.749266  0.499998  1
