# generated using pymatgen
data_CeNd7(CdRu)2
_symmetry_space_group_name_H-M   'P 1'
_cell_length_a   10.01929378
_cell_length_b   9.88405711
_cell_length_c   9.88415391
_cell_angle_alpha   59.61385976
_cell_angle_beta   59.54603869
_cell_angle_gamma   59.54698846
_symmetry_Int_Tables_number   1
_chemical_formula_structural   CeNd7(CdRu)2
_chemical_formula_sum   'Ce2 Nd14 Cd4 Ru4'
_cell_volume   685.36178114
_cell_formula_units_Z   2
loop_
 _symmetry_equiv_pos_site_id
 _symmetry_equiv_pos_as_xyz
  1  'x, y, z'
loop_
 _atom_site_type_symbol
 _atom_site_label
 _atom_site_symmetry_multiplicity
 _atom_site_fract_x
 _atom_site_fract_y
 _atom_site_fract_z
 _atom_site_occupancy
  Ce  Ce0  1  0.977723  0.338752  0.338751  1
  Ce  Ce1  1  0.344773  0.338751  0.338752  1
  Nd  Nd2  1  0.561709  0.559566  0.940902  1
  Nd  Nd3  1  0.937826  0.559564  0.940902  1
  Nd  Nd4  1  0.561500  0.938500  0.938500  1
  Nd  Nd5  1  0.937825  0.940902  0.559566  1
  Nd  Nd6  1  0.561709  0.940902  0.559564  1
  Nd  Nd7  1  0.940991  0.559009  0.559009  1
  Nd  Nd8  1  0.190215  0.191201  0.809421  1
  Nd  Nd9  1  0.809161  0.191202  0.809422  1
  Nd  Nd10  1  0.189537  0.810463  0.810462  1
  Nd  Nd11  1  0.809164  0.809422  0.191201  1
  Nd  Nd12  1  0.190215  0.809422  0.191201  1
  Nd  Nd13  1  0.808310  0.191690  0.191690  1
  Nd  Nd14  1  0.349170  0.347763  0.953894  1
  Nd  Nd15  1  0.349172  0.953894  0.347763  1
  Cd  Cd16  1  0.581237  0.577192  0.260334  1
  Cd  Cd17  1  0.581237  0.260334  0.577192  1
  Cd  Cd18  1  0.260638  0.578488  0.578487  1
  Cd  Cd19  1  0.582385  0.578487  0.578488  1
  Ru  Ru20  1  0.137975  0.156635  0.567412  1
  Ru  Ru21  1  0.137978  0.567412  0.156635  1
  Ru  Ru22  1  0.573215  0.150226  0.150226  1
  Ru  Ru23  1  0.126333  0.150226  0.150226  1
