# generated using pymatgen
data_Rb4Dy7(HoTe4)5
_symmetry_space_group_name_H-M   'P 1'
_cell_length_a   4.38054200
_cell_length_b   13.26546856
_cell_length_c   23.39639300
_cell_angle_alpha   89.87502479
_cell_angle_beta   90.00000000
_cell_angle_gamma   90.00000000
_symmetry_Int_Tables_number   1
_chemical_formula_structural   Rb4Dy7(HoTe4)5
_chemical_formula_sum   'Rb4 Dy7 Ho5 Te20'
_cell_volume   1359.55980983
_cell_formula_units_Z   1
loop_
 _symmetry_equiv_pos_site_id
 _symmetry_equiv_pos_as_xyz
  1  'x, y, z'
loop_
 _atom_site_type_symbol
 _atom_site_label
 _atom_site_symmetry_multiplicity
 _atom_site_fract_x
 _atom_site_fract_y
 _atom_site_fract_z
 _atom_site_occupancy
  Rb  Rb0  1  0.250000  0.347747  0.092671  1
  Rb  Rb1  1  0.750000  0.653049  0.908272  1
  Rb  Rb2  1  0.750000  0.846591  0.407554  1
  Rb  Rb3  1  0.250000  0.153347  0.591958  1
  Dy  Dy4  1  0.250000  0.455818  0.699172  1
  Dy  Dy5  1  0.750000  0.544317  0.300116  1
  Dy  Dy6  1  0.750000  0.955626  0.800819  1
  Dy  Dy7  1  0.250000  0.043098  0.199423  1
  Dy  Dy8  1  0.250000  0.799124  0.671713  1
  Dy  Dy9  1  0.750000  0.200795  0.327956  1
  Dy  Dy10  1  0.750000  0.299084  0.828218  1
  Ho  Ho11  1  0.250000  0.701766  0.172382  1
  Ho  Ho12  1  0.250000  0.392582  0.444726  1
  Ho  Ho13  1  0.750000  0.607889  0.554716  1
  Ho  Ho14  1  0.750000  0.891906  0.055422  1
  Ho  Ho15  1  0.250000  0.107346  0.945113  1
  Te  Te16  1  0.250000  0.444753  0.569498  1
  Te  Te17  1  0.750000  0.555738  0.429868  1
  Te  Te18  1  0.750000  0.943975  0.930564  1
  Te  Te19  1  0.250000  0.055046  0.069874  1
  Te  Te20  1  0.250000  0.767749  0.541813  1
  Te  Te21  1  0.750000  0.232784  0.457832  1
  Te  Te22  1  0.750000  0.267131  0.958101  1
  Te  Te23  1  0.250000  0.732140  0.043087  1
  Te  Te24  1  0.250000  0.798565  0.802689  1
  Te  Te25  1  0.750000  0.200095  0.197100  1
  Te  Te26  1  0.750000  0.298838  0.697307  1
  Te  Te27  1  0.250000  0.701402  0.302504  1
  Te  Te28  1  0.250000  0.457834  0.830335  1
  Te  Te29  1  0.750000  0.544392  0.169045  1
  Te  Te30  1  0.750000  0.957837  0.669606  1
  Te  Te31  1  0.250000  0.042106  0.330558  1
  Te  Te32  1  0.250000  0.372806  0.312658  1
  Te  Te33  1  0.750000  0.627322  0.686748  1
  Te  Te34  1  0.750000  0.872200  0.187445  1
  Te  Te35  1  0.250000  0.127202  0.813136  1
