# generated using pymatgen
data_Ce3Er(BRu)16
_symmetry_space_group_name_H-M   'P 1'
_cell_length_a   9.24650175
_cell_length_b   7.50206903
_cell_length_c   7.50206954
_cell_angle_alpha   89.72541713
_cell_angle_beta   114.05508975
_cell_angle_gamma   114.05508287
_symmetry_Int_Tables_number   1
_chemical_formula_structural   Ce3Er(BRu)16
_chemical_formula_sum   'Ce3 Er1 B16 Ru16'
_cell_volume   425.73587960
_cell_formula_units_Z   1
loop_
 _symmetry_equiv_pos_site_id
 _symmetry_equiv_pos_as_xyz
  1  'x, y, z'
loop_
 _atom_site_type_symbol
 _atom_site_label
 _atom_site_symmetry_multiplicity
 _atom_site_fract_x
 _atom_site_fract_y
 _atom_site_fract_z
 _atom_site_occupancy
  Ce  Ce0  1  0.750000  0.875000  0.125000  1
  Ce  Ce1  1  0.250000  0.625000  0.375000  1
  Ce  Ce2  1  0.750000  0.375000  0.625000  1
  Er  Er3  1  0.250000  0.125000  0.875001  1
  B  B4  1  0.914094  0.288954  0.065541  1
  B  B5  1  0.414691  0.565915  0.124804  1
  B  B6  1  0.085309  0.210113  0.151224  1
  B  B7  1  0.583554  0.149234  0.208576  1
  B  B8  1  0.412685  0.064498  0.287448  1
  B  B9  1  0.914094  0.625139  0.348554  1
  B  B10  1  0.585906  0.651446  0.374861  1
  B  B11  1  0.085309  0.875195  0.434084  1
  B  B12  1  0.916446  0.125022  0.565680  1
  B  B13  1  0.412685  0.348187  0.625238  1
  B  B14  1  0.087315  0.374763  0.651812  1
  B  B15  1  0.585906  0.934460  0.711047  1
  B  B16  1  0.414691  0.848776  0.789887  1
  B  B17  1  0.916446  0.791424  0.850766  1
  B  B18  1  0.583554  0.434320  0.874978  1
  B  B19  1  0.087315  0.712553  0.935503  1
  Ru  Ru20  1  0.872193  0.550619  0.036349  1
  Ru  Ru21  1  0.372595  0.834103  0.050265  1
  Ru  Ru22  1  0.127405  0.949735  0.165898  1
  Ru  Ru23  1  0.626666  0.462102  0.177745  1
  Ru  Ru24  1  0.373347  0.335999  0.322010  1
  Ru  Ru25  1  0.872193  0.321574  0.335844  1
  Ru  Ru26  1  0.627807  0.963651  0.449381  1
  Ru  Ru27  1  0.127405  0.177670  0.461508  1
  Ru  Ru28  1  0.873334  0.822256  0.537898  1
  Ru  Ru29  1  0.373347  0.037347  0.551336  1
  Ru  Ru30  1  0.126653  0.677989  0.664000  1
  Ru  Ru31  1  0.627807  0.664156  0.678426  1
  Ru  Ru32  1  0.372595  0.538493  0.822331  1
  Ru  Ru33  1  0.873334  0.051079  0.835438  1
  Ru  Ru34  1  0.626666  0.164563  0.948921  1
  Ru  Ru35  1  0.126653  0.448665  0.962654  1
