# generated using pymatgen
data_Y5HoVB14W
_symmetry_space_group_name_H-M   'P 1'
_cell_length_a   8.15565920
_cell_length_b   8.15565821
_cell_length_c   9.46546919
_cell_angle_alpha   89.97739488
_cell_angle_beta   90.02260464
_cell_angle_gamma   155.58005198
_symmetry_Int_Tables_number   1
_chemical_formula_structural   Y5HoVB14W
_chemical_formula_sum   'Y5 Ho1 V1 B14 W1'
_cell_volume   260.28744557
_cell_formula_units_Z   1
loop_
 _symmetry_equiv_pos_site_id
 _symmetry_equiv_pos_as_xyz
  1  'x, y, z'
loop_
 _atom_site_type_symbol
 _atom_site_label
 _atom_site_symmetry_multiplicity
 _atom_site_fract_x
 _atom_site_fract_y
 _atom_site_fract_z
 _atom_site_occupancy
  Y  Y0  1  0.893744  0.106256  0.437709  1
  Y  Y1  1  0.106875  0.893125  0.557742  1
  Y  Y2  1  0.893747  0.106253  0.062269  1
  Y  Y3  1  0.241764  0.758236  0.249992  1
  Y  Y4  1  0.754893  0.245107  0.750130  1
  Ho  Ho5  1  0.106710  0.893290  0.942792  1
  V  V6  1  0.052629  0.947371  0.249782  1
  B  B7  1  0.727232  0.272768  0.466659  1
  B  B8  1  0.272674  0.727326  0.531565  1
  B  B9  1  0.726990  0.273010  0.033128  1
  B  B10  1  0.272442  0.727558  0.968368  1
  B  B11  1  0.632192  0.367808  0.149900  1
  B  B12  1  0.365416  0.634584  0.853729  1
  B  B13  1  0.632215  0.367785  0.349633  1
  B  B14  1  0.365427  0.634573  0.646299  1
  B  B15  1  0.521272  0.478728  0.095238  1
  B  B16  1  0.480888  0.519112  0.908994  1
  B  B17  1  0.521107  0.478893  0.404406  1
  B  B18  1  0.480667  0.519333  0.591162  1
  B  B19  1  0.459084  0.540916  0.249936  1
  B  B20  1  0.544982  0.455018  0.750434  1
  W  W21  1  0.947050  0.052950  0.750135  1
