# generated using pymatgen
data_Hf6Sc3TaRe3Si
_symmetry_space_group_name_H-M   'P 1'
_cell_length_a   8.73599500
_cell_length_b   8.73588656
_cell_length_c   8.57690200
_cell_angle_alpha   90.00000000
_cell_angle_beta   90.00000000
_cell_angle_gamma   120.00102559
_symmetry_Int_Tables_number   1
_chemical_formula_structural   Hf6Sc3TaRe3Si
_chemical_formula_sum   'Hf12 Sc6 Ta2 Re6 Si2'
_cell_volume   566.86018469
_cell_formula_units_Z   2
loop_
 _symmetry_equiv_pos_site_id
 _symmetry_equiv_pos_as_xyz
  1  'x, y, z'
loop_
 _atom_site_type_symbol
 _atom_site_label
 _atom_site_symmetry_multiplicity
 _atom_site_fract_x
 _atom_site_fract_y
 _atom_site_fract_z
 _atom_site_occupancy
  Hf  Hf0  1  0.196565  0.803423  0.453229  1
  Hf  Hf1  1  0.196573  0.393152  0.453228  1
  Hf  Hf2  1  0.606849  0.803421  0.453213  1
  Hf  Hf3  1  0.803435  0.196577  0.546771  1
  Hf  Hf4  1  0.803427  0.606848  0.546772  1
  Hf  Hf5  1  0.393151  0.196579  0.546787  1
  Hf  Hf6  1  0.803435  0.196577  0.953229  1
  Hf  Hf7  1  0.803427  0.606848  0.953228  1
  Hf  Hf8  1  0.393151  0.196579  0.953213  1
  Hf  Hf9  1  0.196565  0.803423  0.046771  1
  Hf  Hf10  1  0.196573  0.393152  0.046772  1
  Hf  Hf11  1  0.606849  0.803421  0.046787  1
  Sc  Sc12  1  0.538688  0.461328  0.250000  1
  Sc  Sc13  1  0.538690  0.077366  0.250000  1
  Sc  Sc14  1  0.922644  0.461318  0.250000  1
  Sc  Sc15  1  0.461312  0.538672  0.750000  1
  Sc  Sc16  1  0.461310  0.922634  0.750000  1
  Sc  Sc17  1  0.077356  0.538682  0.750000  1
  Ta  Ta18  1  0.000000  0.000000  0.500000  1
  Ta  Ta19  1  0.000000  0.000000  0.000000  1
  Re  Re20  1  0.887884  0.112131  0.250000  1
  Re  Re21  1  0.887886  0.775748  0.250000  1
  Re  Re22  1  0.224266  0.112136  0.250000  1
  Re  Re23  1  0.112116  0.887869  0.750000  1
  Re  Re24  1  0.112114  0.224252  0.750000  1
  Re  Re25  1  0.775734  0.887864  0.750000  1
  Si  Si26  1  0.333334  0.666666  0.250000  1
  Si  Si27  1  0.666666  0.333334  0.750000  1
