# generated using pymatgen
data_TbEr7Hf11Si16W
_symmetry_space_group_name_H-M   'P 1'
_cell_length_a   7.23010765
_cell_length_b   7.22816244
_cell_length_c   13.26452358
_cell_angle_alpha   89.94941692
_cell_angle_beta   90.02969729
_cell_angle_gamma   90.08495925
_symmetry_Int_Tables_number   1
_chemical_formula_structural   TbEr7Hf11Si16W
_chemical_formula_sum   'Tb1 Er7 Hf11 Si16 W1'
_cell_volume   693.20808452
_cell_formula_units_Z   1
loop_
 _symmetry_equiv_pos_site_id
 _symmetry_equiv_pos_as_xyz
  1  'x, y, z'
loop_
 _atom_site_type_symbol
 _atom_site_label
 _atom_site_symmetry_multiplicity
 _atom_site_fract_x
 _atom_site_fract_y
 _atom_site_fract_z
 _atom_site_occupancy
  Tb  Tb0  1  0.655950  0.005840  0.283111  1
  Er  Er1  1  0.998156  0.344695  0.212109  1
  Er  Er2  1  0.004838  0.655870  0.717165  1
  Er  Er3  1  0.155927  0.495174  0.465675  1
  Er  Er4  1  0.501643  0.845687  0.033778  1
  Er  Er5  1  0.846173  0.501670  0.965502  1
  Er  Er6  1  0.495237  0.155835  0.535236  1
  Er  Er7  1  0.344526  0.998255  0.787618  1
  Hf  Hf8  1  0.825203  0.825141  0.500190  1
  Hf  Hf9  1  0.323556  0.675044  0.248440  1
  Hf  Hf10  1  0.675438  0.323944  0.751559  1
  Hf  Hf11  1  0.147387  0.998077  0.373444  1
  Hf  Hf12  1  0.854400  0.004188  0.877934  1
  Hf  Hf13  1  0.503762  0.647035  0.625205  1
  Hf  Hf14  1  0.350946  0.493781  0.876992  1
  Hf  Hf15  1  0.493003  0.350764  0.122434  1
  Hf  Hf16  1  0.647343  0.503685  0.375434  1
  Hf  Hf17  1  0.997930  0.146960  0.627088  1
  Hf  Hf18  1  0.003902  0.853530  0.121634  1
  Si  Si19  1  0.359362  0.296905  0.316049  1
  Si  Si20  1  0.639122  0.704673  0.818368  1
  Si  Si21  1  0.204545  0.860493  0.567562  1
  Si  Si22  1  0.140276  0.796843  0.932136  1
  Si  Si23  1  0.797466  0.140088  0.067146  1
  Si  Si24  1  0.861503  0.205459  0.433622  1
  Si  Si25  1  0.295807  0.360558  0.683735  1
  Si  Si26  1  0.704693  0.637815  0.181306  1
  Si  Si27  1  0.293725  0.051891  0.181444  1
  Si  Si28  1  0.703313  0.951274  0.686440  1
  Si  Si29  1  0.449341  0.796493  0.435366  1
  Si  Si30  1  0.202255  0.546467  0.063540  1
  Si  Si31  1  0.546590  0.202307  0.935955  1
  Si  Si32  1  0.797167  0.450454  0.565418  1
  Si  Si33  1  0.051925  0.294871  0.818135  1
  Si  Si34  1  0.951657  0.702840  0.313729  1
  W  W35  1  0.175935  0.175393  0.999501  1
