# generated using pymatgen
data_La9Pr7(DySn4)4
_symmetry_space_group_name_H-M   'P 1'
_cell_length_a   8.35137681
_cell_length_b   8.49014972
_cell_length_c   16.14050405
_cell_angle_alpha   90.02624826
_cell_angle_beta   90.03187287
_cell_angle_gamma   90.03924850
_symmetry_Int_Tables_number   1
_chemical_formula_structural   La9Pr7(DySn4)4
_chemical_formula_sum   'La9 Pr7 Dy4 Sn16'
_cell_volume   1144.43282721
_cell_formula_units_Z   1
loop_
 _symmetry_equiv_pos_site_id
 _symmetry_equiv_pos_as_xyz
  1  'x, y, z'
loop_
 _atom_site_type_symbol
 _atom_site_label
 _atom_site_symmetry_multiplicity
 _atom_site_fract_x
 _atom_site_fract_y
 _atom_site_fract_z
 _atom_site_occupancy
  La  La0  1  0.868022  0.662060  0.879838  1
  La  La1  1  0.519871  0.318833  0.901859  1
  La  La2  1  0.020031  0.181080  0.598046  1
  La  La3  1  0.480038  0.681044  0.401858  1
  La  La4  1  0.979988  0.818930  0.098232  1
  La  La5  1  0.479900  0.680944  0.098212  1
  La  La6  1  0.980034  0.819049  0.401854  1
  La  La7  1  0.520010  0.318972  0.598097  1
  La  La8  1  0.020085  0.180867  0.901865  1
  Pr  Pr9  1  0.367573  0.838278  0.879554  1
  Pr  Pr10  1  0.867504  0.661856  0.620422  1
  Pr  Pr11  1  0.632376  0.161844  0.379440  1
  Pr  Pr12  1  0.132204  0.338335  0.120509  1
  Pr  Pr13  1  0.632200  0.161825  0.120713  1
  Pr  Pr14  1  0.132408  0.338153  0.379432  1
  Pr  Pr15  1  0.367751  0.838056  0.620456  1
  Dy  Dy16  1  0.200558  0.501363  0.749985  1
  Dy  Dy17  1  0.700383  0.998776  0.749896  1
  Dy  Dy18  1  0.799654  0.498546  0.250036  1
  Dy  Dy19  1  0.299588  0.001407  0.249993  1
  Sn  Sn20  1  0.292004  0.034240  0.044854  1
  Sn  Sn21  1  0.792143  0.465711  0.455133  1
  Sn  Sn22  1  0.707923  0.965742  0.544899  1
  Sn  Sn23  1  0.209470  0.533627  0.955314  1
  Sn  Sn24  1  0.706921  0.967061  0.955248  1
  Sn  Sn25  1  0.207871  0.534253  0.544810  1
  Sn  Sn26  1  0.292088  0.034249  0.455135  1
  Sn  Sn27  1  0.791893  0.465240  0.045646  1
  Sn  Sn28  1  0.564412  0.616012  0.749474  1
  Sn  Sn29  1  0.066105  0.884820  0.749717  1
  Sn  Sn30  1  0.434603  0.383848  0.249916  1
  Sn  Sn31  1  0.934706  0.115948  0.249994  1
  Sn  Sn32  1  0.325087  0.145716  0.749912  1
  Sn  Sn33  1  0.825045  0.353338  0.749629  1
  Sn  Sn34  1  0.674798  0.854177  0.249999  1
  Sn  Sn35  1  0.174754  0.645802  0.250022  1
