# generated using pymatgen
data_GdSc2Al8(SiOs)4
_symmetry_space_group_name_H-M   'P 1'
_cell_length_a   8.61852800
_cell_length_b   8.61852949
_cell_length_c   9.34654700
_cell_angle_alpha   90.00000000
_cell_angle_beta   90.00000000
_cell_angle_gamma   120.07382290
_symmetry_Int_Tables_number   1
_chemical_formula_structural   GdSc2Al8(SiOs)4
_chemical_formula_sum   'Gd2 Sc4 Al16 Si8 Os8'
_cell_volume   600.79256155
_cell_formula_units_Z   2
loop_
 _symmetry_equiv_pos_site_id
 _symmetry_equiv_pos_as_xyz
  1  'x, y, z'
loop_
 _atom_site_type_symbol
 _atom_site_label
 _atom_site_symmetry_multiplicity
 _atom_site_fract_x
 _atom_site_fract_y
 _atom_site_fract_z
 _atom_site_occupancy
  Gd  Gd0  1  0.191296  0.808704  0.250000  1
  Gd  Gd1  1  0.808704  0.191296  0.750000  1
  Sc  Sc2  1  0.194219  0.393600  0.250000  1
  Sc  Sc3  1  0.805781  0.606400  0.750000  1
  Sc  Sc4  1  0.606400  0.805781  0.250000  1
  Sc  Sc5  1  0.393600  0.194219  0.750000  1
  Al  Al6  1  0.167263  0.329181  0.577511  1
  Al  Al7  1  0.832737  0.670819  0.422489  1
  Al  Al8  1  0.670819  0.832737  0.577511  1
  Al  Al9  1  0.832737  0.670819  0.077511  1
  Al  Al10  1  0.329181  0.167263  0.422489  1
  Al  Al11  1  0.167263  0.329181  0.922489  1
  Al  Al12  1  0.164094  0.835906  0.580725  1
  Al  Al13  1  0.329181  0.167263  0.077511  1
  Al  Al14  1  0.835906  0.164094  0.419275  1
  Al  Al15  1  0.670819  0.832737  0.922489  1
  Al  Al16  1  0.835906  0.164094  0.080725  1
  Al  Al17  1  0.164094  0.835906  0.919275  1
  Al  Al18  1  0.562081  0.437919  0.250000  1
  Al  Al19  1  0.437919  0.562081  0.750000  1
  Al  Al20  1  0.994054  0.005946  0.250000  1
  Al  Al21  1  0.005946  0.994054  0.750000  1
  Si  Si22  1  0.335912  0.664088  0.045797  1
  Si  Si23  1  0.664088  0.335912  0.954203  1
  Si  Si24  1  0.664088  0.335912  0.545797  1
  Si  Si25  1  0.335912  0.664088  0.454203  1
  Si  Si26  1  0.565793  0.124561  0.250000  1
  Si  Si27  1  0.434207  0.875439  0.750000  1
  Si  Si28  1  0.875439  0.434207  0.250000  1
  Si  Si29  1  0.124561  0.565793  0.750000  1
  Os  Os30  1  0.500000  0.000000  0.000000  1
  Os  Os31  1  0.000000  0.500000  0.000000  1
  Os  Os32  1  0.500000  0.000000  0.500000  1
  Os  Os33  1  0.500000  0.500000  0.000000  1
  Os  Os34  1  0.000000  0.500000  0.500000  1
  Os  Os35  1  0.500000  0.500000  0.500000  1
  Os  Os36  1  0.000000  0.000000  0.000000  1
  Os  Os37  1  0.000000  0.000000  0.500000  1
