# generated using pymatgen
data_Ho2ThP3
_symmetry_space_group_name_H-M   'P 1'
_cell_length_a   4.05281500
_cell_length_b   4.05281584
_cell_length_c   9.82077900
_cell_angle_alpha   90.00000000
_cell_angle_beta   90.00000000
_cell_angle_gamma   119.99998502
_symmetry_Int_Tables_number   1
_chemical_formula_structural   Ho2ThP3
_chemical_formula_sum   'Ho2 Th1 P3'
_cell_volume   139.69803087
_cell_formula_units_Z   1
loop_
 _symmetry_equiv_pos_site_id
 _symmetry_equiv_pos_as_xyz
  1  'x, y, z'
loop_
 _atom_site_type_symbol
 _atom_site_label
 _atom_site_symmetry_multiplicity
 _atom_site_fract_x
 _atom_site_fract_y
 _atom_site_fract_z
 _atom_site_occupancy
  Ho  Ho0  1  0.333333  0.666667  0.658624  1
  Ho  Ho1  1  0.666667  0.333333  0.341376  1
  Th  Th2  1  0.000000  0.000000  0.000000  1
  P  P3  1  0.333333  0.666667  0.173887  1
  P  P4  1  0.666667  0.333333  0.826113  1
  P  P5  1  0.000000  0.000000  0.500000  1
