# generated using pymatgen
data_Y8Si(PdPt)12
_symmetry_space_group_name_H-M   'P 1'
_cell_length_a   8.35588000
_cell_length_b   8.36212700
_cell_length_c   8.42479800
_cell_angle_alpha   90.00000000
_cell_angle_beta   90.00000000
_cell_angle_gamma   90.00000000
_symmetry_Int_Tables_number   1
_chemical_formula_structural   Y8Si(PdPt)12
_chemical_formula_sum   'Y8 Si1 Pd12 Pt12'
_cell_volume   588.66531887
_cell_formula_units_Z   1
loop_
 _symmetry_equiv_pos_site_id
 _symmetry_equiv_pos_as_xyz
  1  'x, y, z'
loop_
 _atom_site_type_symbol
 _atom_site_label
 _atom_site_symmetry_multiplicity
 _atom_site_fract_x
 _atom_site_fract_y
 _atom_site_fract_z
 _atom_site_occupancy
  Y  Y0  1  0.253120  0.253591  0.252649  1
  Y  Y1  1  0.746880  0.746409  0.747351  1
  Y  Y2  1  0.746880  0.746409  0.252649  1
  Y  Y3  1  0.746880  0.253591  0.747351  1
  Y  Y4  1  0.253120  0.253591  0.747351  1
  Y  Y5  1  0.253120  0.746409  0.252649  1
  Y  Y6  1  0.253120  0.746409  0.747351  1
  Y  Y7  1  0.746880  0.253591  0.252649  1
  Si  Si8  1  0.000000  0.000000  0.000000  1
  Pd  Pd9  1  0.500000  0.000000  0.258626  1
  Pd  Pd10  1  0.257947  0.000000  0.500000  1
  Pd  Pd11  1  0.500000  0.000000  0.741374  1
  Pd  Pd12  1  0.742053  0.000000  0.500000  1
  Pd  Pd13  1  0.000000  0.500000  0.257817  1
  Pd  Pd14  1  0.000000  0.500000  0.742183  1
  Pd  Pd15  1  0.500000  0.500000  0.253008  1
  Pd  Pd16  1  0.500000  0.500000  0.746992  1
  Pd  Pd17  1  0.000000  0.281948  0.000000  1
  Pd  Pd18  1  0.000000  0.718052  0.000000  1
  Pd  Pd19  1  0.000000  0.000000  0.281499  1
  Pd  Pd20  1  0.000000  0.000000  0.718501  1
  Pt  Pt21  1  0.257924  0.500000  0.000000  1
  Pt  Pt22  1  0.742076  0.500000  0.000000  1
  Pt  Pt23  1  0.000000  0.258040  0.500000  1
  Pt  Pt24  1  0.500000  0.257276  0.000000  1
  Pt  Pt25  1  0.000000  0.741960  0.500000  1
  Pt  Pt26  1  0.500000  0.742724  0.000000  1
  Pt  Pt27  1  0.251733  0.500000  0.500000  1
  Pt  Pt28  1  0.748267  0.500000  0.500000  1
  Pt  Pt29  1  0.500000  0.253078  0.500000  1
  Pt  Pt30  1  0.500000  0.746922  0.500000  1
  Pt  Pt31  1  0.280008  0.000000  0.000000  1
  Pt  Pt32  1  0.719992  0.000000  0.000000  1
