# generated using pymatgen
data_Dy3Er(PSe4)4
_symmetry_space_group_name_H-M   'P 1'
_cell_length_a   9.24693001
_cell_length_b   6.88301204
_cell_length_c   13.40404300
_cell_angle_alpha   90.00592685
_cell_angle_beta   120.87541510
_cell_angle_gamma   89.99825167
_symmetry_Int_Tables_number   1
_chemical_formula_structural   Dy3Er(PSe4)4
_chemical_formula_sum   'Dy3 Er1 P4 Se16'
_cell_volume   732.22326533
_cell_formula_units_Z   1
loop_
 _symmetry_equiv_pos_site_id
 _symmetry_equiv_pos_as_xyz
  1  'x, y, z'
loop_
 _atom_site_type_symbol
 _atom_site_label
 _atom_site_symmetry_multiplicity
 _atom_site_fract_x
 _atom_site_fract_y
 _atom_site_fract_z
 _atom_site_occupancy
  Dy  Dy0  1  0.556656  0.319842  0.165296  1
  Dy  Dy1  1  0.443290  0.819669  0.334572  1
  Dy  Dy2  1  0.556552  0.180207  0.665614  1
  Er  Er3  1  0.443230  0.679055  0.834555  1
  P  P4  1  0.313893  0.768489  0.038958  1
  P  P5  1  0.686569  0.268668  0.460740  1
  P  P6  1  0.313830  0.731357  0.539798  1
  P  P7  1  0.685761  0.231404  0.960528  1
  Se  Se8  1  0.583837  0.730124  0.088434  1
  Se  Se9  1  0.276801  0.043956  0.113410  1
  Se  Se10  1  0.261086  0.544477  0.137653  1
  Se  Se11  1  0.850119  0.248239  0.149252  1
  Se  Se12  1  0.149860  0.748364  0.351017  1
  Se  Se13  1  0.738957  0.044333  0.362035  1
  Se  Se14  1  0.723237  0.544374  0.386276  1
  Se  Se15  1  0.416002  0.230424  0.410297  1
  Se  Se16  1  0.584092  0.769671  0.589664  1
  Se  Se17  1  0.277712  0.456502  0.615179  1
  Se  Se18  1  0.262114  0.954465  0.639348  1
  Se  Se19  1  0.850302  0.251662  0.649472  1
  Se  Se20  1  0.151754  0.751240  0.849960  1
  Se  Se21  1  0.737668  0.456547  0.862004  1
  Se  Se22  1  0.721255  0.954920  0.886078  1
  Se  Se23  1  0.415420  0.272009  0.909860  1
