# generated using pymatgen
data_Tb8Ti5Ge16Mo7
_symmetry_space_group_name_H-M   'P 1'
_cell_length_a   6.92986145
_cell_length_b   7.09804037
_cell_length_c   13.38812847
_cell_angle_alpha   89.98279725
_cell_angle_beta   89.97497181
_cell_angle_gamma   90.03267383
_symmetry_Int_Tables_number   1
_chemical_formula_structural   Tb8Ti5Ge16Mo7
_chemical_formula_sum   'Tb8 Ti5 Ge16 Mo7'
_cell_volume   658.54090480
_cell_formula_units_Z   1
loop_
 _symmetry_equiv_pos_site_id
 _symmetry_equiv_pos_as_xyz
  1  'x, y, z'
loop_
 _atom_site_type_symbol
 _atom_site_label
 _atom_site_symmetry_multiplicity
 _atom_site_fract_x
 _atom_site_fract_y
 _atom_site_fract_z
 _atom_site_occupancy
  Tb  Tb0  1  0.004621  0.173786  0.405203  1
  Tb  Tb1  1  0.504377  0.326476  0.094517  1
  Tb  Tb2  1  0.495432  0.674622  0.595130  1
  Tb  Tb3  1  0.995237  0.828374  0.905177  1
  Tb  Tb4  1  0.993754  0.828874  0.594267  1
  Tb  Tb5  1  0.495629  0.672858  0.905422  1
  Tb  Tb6  1  0.506401  0.329604  0.405969  1
  Tb  Tb7  1  0.006223  0.169752  0.095742  1
  Ti  Ti8  1  0.161625  0.331793  0.872710  1
  Ti  Ti9  1  0.158089  0.332004  0.626967  1
  Ti  Ti10  1  0.662394  0.166592  0.871952  1
  Ti  Ti11  1  0.840421  0.667454  0.127872  1
  Ti  Ti12  1  0.340568  0.832978  0.372249  1
  Ge  Ge13  1  0.328693  0.044500  0.544658  1
  Ge  Ge14  1  0.826290  0.455897  0.956029  1
  Ge  Ge15  1  0.670827  0.955166  0.044737  1
  Ge  Ge16  1  0.170940  0.544742  0.455619  1
  Ge  Ge17  1  0.172459  0.543318  0.044082  1
  Ge  Ge18  1  0.672200  0.955078  0.455850  1
  Ge  Ge19  1  0.826726  0.456321  0.544156  1
  Ge  Ge20  1  0.327803  0.044707  0.956824  1
  Ge  Ge21  1  0.808965  0.366072  0.248855  1
  Ge  Ge22  1  0.309716  0.134812  0.251112  1
  Ge  Ge23  1  0.690724  0.865427  0.750495  1
  Ge  Ge24  1  0.192794  0.635212  0.749911  1
  Ge  Ge25  1  0.036602  0.870420  0.251492  1
  Ge  Ge26  1  0.537000  0.629165  0.248971  1
  Ge  Ge27  1  0.463542  0.369527  0.749156  1
  Ge  Ge28  1  0.961716  0.128339  0.750344  1
  Mo  Mo29  1  0.335682  0.833793  0.126954  1
  Mo  Mo30  1  0.835918  0.664880  0.374176  1
  Mo  Mo31  1  0.665024  0.165915  0.624894  1
  Mo  Mo32  1  0.332796  0.011507  0.749087  1
  Mo  Mo33  1  0.666895  0.987521  0.250043  1
  Mo  Mo34  1  0.167156  0.513608  0.250397  1
  Mo  Mo35  1  0.834761  0.488907  0.748982  1
