# generated using pymatgen
data_Y12IrOs3
_symmetry_space_group_name_H-M   'P 1'
_cell_length_a   6.41006331
_cell_length_b   7.42160037
_cell_length_c   9.12526800
_cell_angle_alpha   90.00000000
_cell_angle_beta   90.00000000
_cell_angle_gamma   90.03594926
_symmetry_Int_Tables_number   1
_chemical_formula_structural   Y12IrOs3
_chemical_formula_sum   'Y12 Ir1 Os3'
_cell_volume   434.11563431
_cell_formula_units_Z   1
loop_
 _symmetry_equiv_pos_site_id
 _symmetry_equiv_pos_as_xyz
  1  'x, y, z'
loop_
 _atom_site_type_symbol
 _atom_site_label
 _atom_site_symmetry_multiplicity
 _atom_site_fract_x
 _atom_site_fract_y
 _atom_site_fract_z
 _atom_site_occupancy
  Y  Y0  1  0.331943  0.672824  0.063046  1
  Y  Y1  1  0.170191  0.175285  0.437204  1
  Y  Y2  1  0.669568  0.326217  0.563810  1
  Y  Y3  1  0.828376  0.825785  0.934527  1
  Y  Y4  1  0.669568  0.326217  0.936190  1
  Y  Y5  1  0.828376  0.825785  0.565473  1
  Y  Y6  1  0.331943  0.672824  0.436954  1
  Y  Y7  1  0.170191  0.175285  0.062796  1
  Y  Y8  1  0.868423  0.539158  0.250000  1
  Y  Y9  1  0.630922  0.040624  0.250000  1
  Y  Y10  1  0.131431  0.459976  0.750000  1
  Y  Y11  1  0.368251  0.959863  0.750000  1
  Ir  Ir12  1  0.039501  0.882894  0.250000  1
  Os  Os13  1  0.460642  0.382559  0.250000  1
  Os  Os14  1  0.962199  0.116773  0.750000  1
  Os  Os15  1  0.538475  0.617935  0.750000  1
