# generated using pymatgen
data_LiZn2(SnPt)2
_symmetry_space_group_name_H-M   'P 1'
_cell_length_a   4.39676500
_cell_length_b   4.39676496
_cell_length_c   15.61414000
_cell_angle_alpha   90.00000000
_cell_angle_beta   90.00000000
_cell_angle_gamma   119.99997776
_symmetry_Int_Tables_number   1
_chemical_formula_structural   LiZn2(SnPt)2
_chemical_formula_sum   'Li2 Zn4 Sn4 Pt4'
_cell_volume   261.40584947
_cell_formula_units_Z   2
loop_
 _symmetry_equiv_pos_site_id
 _symmetry_equiv_pos_as_xyz
  1  'x, y, z'
loop_
 _atom_site_type_symbol
 _atom_site_label
 _atom_site_symmetry_multiplicity
 _atom_site_fract_x
 _atom_site_fract_y
 _atom_site_fract_z
 _atom_site_occupancy
  Li  Li0  1  0.000000  0.000000  0.166218  1
  Li  Li1  1  0.000000  0.000000  0.833782  1
  Zn  Zn2  1  0.000000  0.000000  0.674541  1
  Zn  Zn3  1  0.000000  0.000000  0.325459  1
  Zn  Zn4  1  0.333333  0.666667  0.751943  1
  Zn  Zn5  1  0.666667  0.333333  0.248057  1
  Sn  Sn6  1  0.333333  0.666667  0.070298  1
  Sn  Sn7  1  0.666667  0.333333  0.929702  1
  Sn  Sn8  1  0.666667  0.333333  0.569663  1
  Sn  Sn9  1  0.333333  0.666667  0.430337  1
  Pt  Pt10  1  0.000000  0.000000  0.000000  1
  Pt  Pt11  1  0.000000  0.000000  0.500000  1
  Pt  Pt12  1  0.333333  0.666667  0.253336  1
  Pt  Pt13  1  0.666667  0.333333  0.746664  1
