# generated using pymatgen
data_Ho(Zr3Pb2)3
_symmetry_space_group_name_H-M   'P 1'
_cell_length_a   8.75421402
_cell_length_b   8.75421453
_cell_length_c   5.91734800
_cell_angle_alpha   90.00000000
_cell_angle_beta   90.00000000
_cell_angle_gamma   120.81796081
_symmetry_Int_Tables_number   1
_chemical_formula_structural   Ho(Zr3Pb2)3
_chemical_formula_sum   'Ho1 Zr9 Pb6'
_cell_volume   389.45130093
_cell_formula_units_Z   1
loop_
 _symmetry_equiv_pos_site_id
 _symmetry_equiv_pos_as_xyz
  1  'x, y, z'
loop_
 _atom_site_type_symbol
 _atom_site_label
 _atom_site_symmetry_multiplicity
 _atom_site_fract_x
 _atom_site_fract_y
 _atom_site_fract_z
 _atom_site_occupancy
  Ho  Ho0  1  0.767208  0.767208  0.250000  1
  Zr  Zr1  1  0.000978  0.251428  0.250000  1
  Zr  Zr2  1  0.750942  0.999971  0.750000  1
  Zr  Zr3  1  0.332582  0.665112  0.500605  1
  Zr  Zr4  1  0.251428  0.000978  0.250000  1
  Zr  Zr5  1  0.665112  0.332582  0.500605  1
  Zr  Zr6  1  0.999971  0.750942  0.750000  1
  Zr  Zr7  1  0.332582  0.665112  0.999395  1
  Zr  Zr8  1  0.237916  0.237916  0.750000  1
  Zr  Zr9  1  0.665112  0.332582  0.999395  1
  Pb  Pb10  1  0.608066  0.608066  0.750000  1
  Pb  Pb11  1  0.389863  0.999395  0.750000  1
  Pb  Pb12  1  0.607770  0.001783  0.250000  1
  Pb  Pb13  1  0.999395  0.389863  0.750000  1
  Pb  Pb14  1  0.389292  0.389292  0.250000  1
  Pb  Pb15  1  0.001783  0.607770  0.250000  1
