# generated using pymatgen
data_Pr9Y(Sn5Pd2)4
_symmetry_space_group_name_H-M   'P 1'
_cell_length_a   14.33443929
_cell_length_b   14.33443929
_cell_length_c   4.67134700
_cell_angle_alpha   90.00000000
_cell_angle_beta   90.00000000
_cell_angle_gamma   89.95140360
_symmetry_Int_Tables_number   1
_chemical_formula_structural   Pr9Y(Sn5Pd2)4
_chemical_formula_sum   'Pr9 Y1 Sn20 Pd8'
_cell_volume   959.85005036
_cell_formula_units_Z   1
loop_
 _symmetry_equiv_pos_site_id
 _symmetry_equiv_pos_as_xyz
  1  'x, y, z'
loop_
 _atom_site_type_symbol
 _atom_site_label
 _atom_site_symmetry_multiplicity
 _atom_site_fract_x
 _atom_site_fract_y
 _atom_site_fract_z
 _atom_site_occupancy
  Pr  Pr0  1  0.500139  0.499763  0.000000  1
  Pr  Pr1  1  0.999763  0.000139  0.000000  1
  Pr  Pr2  1  0.320687  0.820687  0.500000  1
  Pr  Pr3  1  0.179186  0.320686  0.500000  1
  Pr  Pr4  1  0.820686  0.679186  0.500000  1
  Pr  Pr5  1  0.891019  0.391019  0.500000  1
  Pr  Pr6  1  0.108492  0.608492  0.500000  1
  Pr  Pr7  1  0.391829  0.108931  0.500000  1
  Pr  Pr8  1  0.608931  0.891829  0.500000  1
  Y  Y9  1  0.678365  0.178365  0.500000  1
  Sn  Sn10  1  0.570214  0.070214  0.000000  1
  Sn  Sn11  1  0.431433  0.931433  0.000000  1
  Sn  Sn12  1  0.069011  0.430970  0.000000  1
  Sn  Sn13  1  0.930970  0.569011  0.000000  1
  Sn  Sn14  1  0.653879  0.699834  0.000000  1
  Sn  Sn15  1  0.346343  0.299923  0.000000  1
  Sn  Sn16  1  0.153868  0.800197  0.000000  1
  Sn  Sn17  1  0.844582  0.199583  0.000000  1
  Sn  Sn18  1  0.300197  0.653868  0.000000  1
  Sn  Sn19  1  0.699583  0.344582  0.000000  1
  Sn  Sn20  1  0.199834  0.153879  0.000000  1
  Sn  Sn21  1  0.799923  0.846343  0.000000  1
  Sn  Sn22  1  0.661994  0.502282  0.500000  1
  Sn  Sn23  1  0.337693  0.498299  0.500000  1
  Sn  Sn24  1  0.162087  0.998282  0.500000  1
  Sn  Sn25  1  0.837266  0.002797  0.500000  1
  Sn  Sn26  1  0.498282  0.662087  0.500000  1
  Sn  Sn27  1  0.502797  0.337266  0.500000  1
  Sn  Sn28  1  0.002282  0.161994  0.500000  1
  Sn  Sn29  1  0.998299  0.837693  0.500000  1
  Pd  Pd30  1  0.745375  0.528923  0.000000  1
  Pd  Pd31  1  0.254591  0.470565  0.000000  1
  Pd  Pd32  1  0.245481  0.970616  0.000000  1
  Pd  Pd33  1  0.753802  0.031014  0.000000  1
  Pd  Pd34  1  0.470616  0.745481  0.000000  1
  Pd  Pd35  1  0.531014  0.253802  0.000000  1
  Pd  Pd36  1  0.028923  0.245375  0.000000  1
  Pd  Pd37  1  0.970565  0.754591  0.000000  1
