# generated using pymatgen
data_Ho6Al24Cu3Ru5
_symmetry_space_group_name_H-M   'P 1'
_cell_length_a   8.77937622
_cell_length_b   8.81033139
_cell_length_c   9.47443661
_cell_angle_alpha   89.90232355
_cell_angle_beta   90.06366011
_cell_angle_gamma   119.34885183
_symmetry_Int_Tables_number   1
_chemical_formula_structural   Ho6Al24Cu3Ru5
_chemical_formula_sum   'Ho6 Al24 Cu3 Ru5'
_cell_volume   638.78046329
_cell_formula_units_Z   1
loop_
 _symmetry_equiv_pos_site_id
 _symmetry_equiv_pos_as_xyz
  1  'x, y, z'
loop_
 _atom_site_type_symbol
 _atom_site_label
 _atom_site_symmetry_multiplicity
 _atom_site_fract_x
 _atom_site_fract_y
 _atom_site_fract_z
 _atom_site_occupancy
  Ho  Ho0  1  0.192444  0.384817  0.247980  1
  Ho  Ho1  1  0.807556  0.615183  0.752020  1
  Ho  Ho2  1  0.613395  0.808646  0.252681  1
  Ho  Ho3  1  0.386605  0.191354  0.747319  1
  Ho  Ho4  1  0.196328  0.806924  0.248805  1
  Ho  Ho5  1  0.803672  0.193076  0.751195  1
  Al  Al6  1  0.335300  0.669893  0.023557  1
  Al  Al7  1  0.664700  0.330107  0.976443  1
  Al  Al8  1  0.668920  0.332157  0.522951  1
  Al  Al9  1  0.331080  0.667843  0.477049  1
  Al  Al10  1  0.156574  0.323482  0.577281  1
  Al  Al11  1  0.843426  0.676518  0.422719  1
  Al  Al12  1  0.675590  0.842039  0.578076  1
  Al  Al13  1  0.838456  0.678165  0.081237  1
  Al  Al14  1  0.324410  0.157961  0.421924  1
  Al  Al15  1  0.161544  0.321835  0.918763  1
  Al  Al16  1  0.162970  0.835173  0.577719  1
  Al  Al17  1  0.324400  0.157432  0.078704  1
  Al  Al18  1  0.837030  0.164827  0.422281  1
  Al  Al19  1  0.675600  0.842568  0.921296  1
  Al  Al20  1  0.832370  0.157718  0.081401  1
  Al  Al21  1  0.167630  0.842282  0.918599  1
  Al  Al22  1  0.562064  0.122792  0.249774  1
  Al  Al23  1  0.437936  0.877208  0.750226  1
  Al  Al24  1  0.876409  0.438202  0.251546  1
  Al  Al25  1  0.123591  0.561798  0.748454  1
  Al  Al26  1  0.561741  0.439810  0.250118  1
  Al  Al27  1  0.438259  0.560190  0.749882  1
  Al  Al28  1  0.999888  0.002688  0.250412  1
  Al  Al29  1  0.000112  0.997312  0.749588  1
  Cu  Cu30  1  0.000000  0.500000  0.000000  1
  Cu  Cu31  1  0.500000  0.500000  0.000000  1
  Cu  Cu32  1  0.500000  0.500000  0.500000  1
  Ru  Ru33  1  0.500000  0.000000  0.000000  1
  Ru  Ru34  1  0.500000  0.000000  0.500000  1
  Ru  Ru35  1  0.000000  0.500000  0.500000  1
  Ru  Ru36  1  0.000000  0.000000  0.000000  1
  Ru  Ru37  1  0.000000  0.000000  0.500000  1
