# generated using pymatgen
data_Sr6PrTl(RhO6)2
_symmetry_space_group_name_H-M   'P 1'
_cell_length_a   6.90720406
_cell_length_b   6.90720328
_cell_length_c   6.90720454
_cell_angle_alpha   90.62605564
_cell_angle_beta   90.62605768
_cell_angle_gamma   90.62605544
_symmetry_Int_Tables_number   1
_chemical_formula_structural   Sr6PrTl(RhO6)2
_chemical_formula_sum   'Sr6 Pr1 Tl1 Rh2 O12'
_cell_volume   329.47956602
_cell_formula_units_Z   1
loop_
 _symmetry_equiv_pos_site_id
 _symmetry_equiv_pos_as_xyz
  1  'x, y, z'
loop_
 _atom_site_type_symbol
 _atom_site_label
 _atom_site_symmetry_multiplicity
 _atom_site_fract_x
 _atom_site_fract_y
 _atom_site_fract_z
 _atom_site_occupancy
  Sr  Sr0  1  0.250000  0.878311  0.621689  1
  Sr  Sr1  1  0.878311  0.621689  0.250000  1
  Sr  Sr2  1  0.750000  0.116321  0.383679  1
  Sr  Sr3  1  0.383679  0.750000  0.116321  1
  Sr  Sr4  1  0.116321  0.383679  0.750000  1
  Sr  Sr5  1  0.621689  0.250000  0.878311  1
  Pr  Pr6  1  0.250000  0.250000  0.250000  1
  Tl  Tl7  1  0.750000  0.750000  0.750000  1
  Rh  Rh8  1  0.497630  0.497630  0.497630  1
  Rh  Rh9  1  0.002370  0.002370  0.002370  1
  O  O10  1  0.584302  0.784680  0.450689  1
  O  O11  1  0.450689  0.584302  0.784680  1
  O  O12  1  0.784680  0.450689  0.584302  1
  O  O13  1  0.915698  0.049311  0.715320  1
  O  O14  1  0.715320  0.915698  0.049311  1
  O  O15  1  0.049311  0.715320  0.915698  1
  O  O16  1  0.415189  0.206804  0.552068  1
  O  O17  1  0.552068  0.415189  0.206804  1
  O  O18  1  0.206804  0.552068  0.415189  1
  O  O19  1  0.084811  0.947932  0.293196  1
  O  O20  1  0.947932  0.293196  0.084811  1
  O  O21  1  0.293196  0.084811  0.947932  1
