# generated using pymatgen
data_Ho2FeCoBr2
_symmetry_space_group_name_H-M   'P 1'
_cell_length_a   3.88874400
_cell_length_b   3.88874392
_cell_length_c   11.46209300
_cell_angle_alpha   90.00000000
_cell_angle_beta   90.00000000
_cell_angle_gamma   120.00000068
_symmetry_Int_Tables_number   1
_chemical_formula_structural   Ho2FeCoBr2
_chemical_formula_sum   'Ho2 Fe1 Co1 Br2'
_cell_volume   150.11125493
_cell_formula_units_Z   1
loop_
 _symmetry_equiv_pos_site_id
 _symmetry_equiv_pos_as_xyz
  1  'x, y, z'
loop_
 _atom_site_type_symbol
 _atom_site_label
 _atom_site_symmetry_multiplicity
 _atom_site_fract_x
 _atom_site_fract_y
 _atom_site_fract_z
 _atom_site_occupancy
  Ho  Ho0  1  0.000000  0.000000  0.166480  1
  Ho  Ho1  1  0.000000  0.000000  0.832353  1
  Fe  Fe2  1  0.333334  0.666668  0.993177  1
  Co  Co3  1  0.666667  0.333334  0.008173  1
  Br  Br4  1  0.333334  0.666668  0.333928  1
  Br  Br5  1  0.666667  0.333334  0.665888  1
