# generated using pymatgen
data_Dy4Fe4Ni11Mo5P12
_symmetry_space_group_name_H-M   'P 1'
_cell_length_a   3.70396300
_cell_length_b   10.59901782
_cell_length_c   12.16627726
_cell_angle_alpha   90.35146995
_cell_angle_beta   90.00000000
_cell_angle_gamma   90.00000000
_symmetry_Int_Tables_number   1
_chemical_formula_structural   Dy4Fe4Ni11Mo5P12
_chemical_formula_sum   'Dy4 Fe4 Ni11 Mo5 P12'
_cell_volume   477.61922604
_cell_formula_units_Z   1
loop_
 _symmetry_equiv_pos_site_id
 _symmetry_equiv_pos_as_xyz
  1  'x, y, z'
loop_
 _atom_site_type_symbol
 _atom_site_label
 _atom_site_symmetry_multiplicity
 _atom_site_fract_x
 _atom_site_fract_y
 _atom_site_fract_z
 _atom_site_occupancy
  Dy  Dy0  1  0.250000  0.586543  0.712285  1
  Dy  Dy1  1  0.250000  0.918816  0.205493  1
  Dy  Dy2  1  0.750000  0.417891  0.286554  1
  Dy  Dy3  1  0.750000  0.078985  0.793374  1
  Fe  Fe4  1  0.250000  0.463957  0.934679  1
  Fe  Fe5  1  0.250000  0.032398  0.433414  1
  Fe  Fe6  1  0.750000  0.535760  0.064826  1
  Fe  Fe7  1  0.750000  0.963453  0.564547  1
  Ni  Ni8  1  0.250000  0.089399  0.988435  1
  Ni  Ni9  1  0.750000  0.599483  0.516205  1
  Ni  Ni10  1  0.750000  0.910806  0.010651  1
  Ni  Ni11  1  0.250000  0.222175  0.176134  1
  Ni  Ni12  1  0.250000  0.268052  0.682283  1
  Ni  Ni13  1  0.750000  0.777591  0.823870  1
  Ni  Ni14  1  0.750000  0.726040  0.318122  1
  Ni  Ni15  1  0.250000  0.882766  0.701538  1
  Ni  Ni16  1  0.250000  0.619021  0.198303  1
  Ni  Ni17  1  0.750000  0.116223  0.296922  1
  Ni  Ni18  1  0.750000  0.383183  0.801445  1
  Mo  Mo19  1  0.250000  0.706052  0.989561  1
  Mo  Mo20  1  0.250000  0.793017  0.490634  1
  Mo  Mo21  1  0.750000  0.293215  0.010199  1
  Mo  Mo22  1  0.750000  0.204044  0.510462  1
  Mo  Mo23  1  0.250000  0.411322  0.490825  1
  P  P24  1  0.250000  0.423796  0.111409  1
  P  P25  1  0.250000  0.071453  0.611257  1
  P  P26  1  0.750000  0.576676  0.888890  1
  P  P27  1  0.750000  0.923604  0.386728  1
  P  P28  1  0.250000  0.265687  0.868979  1
  P  P29  1  0.250000  0.228109  0.365886  1
  P  P30  1  0.750000  0.734731  0.130440  1
  P  P31  1  0.750000  0.768874  0.632825  1
  P  P32  1  0.250000  0.604095  0.384180  1
  P  P33  1  0.250000  0.900016  0.890079  1
  P  P34  1  0.750000  0.403546  0.619284  1
  P  P35  1  0.750000  0.099221  0.109282  1
