# generated using pymatgen
data_Ca9(Pd2Pt)2
_symmetry_space_group_name_H-M   'P 1'
_cell_length_a   7.65240721
_cell_length_b   7.63967700
_cell_length_c   7.65856672
_cell_angle_alpha   71.72890307
_cell_angle_beta   71.61103638
_cell_angle_gamma   71.62452623
_symmetry_Int_Tables_number   1
_chemical_formula_structural   Ca9(Pd2Pt)2
_chemical_formula_sum   'Ca9 Pd4 Pt2'
_cell_volume   391.65105657
_cell_formula_units_Z   1
loop_
 _symmetry_equiv_pos_site_id
 _symmetry_equiv_pos_as_xyz
  1  'x, y, z'
loop_
 _atom_site_type_symbol
 _atom_site_label
 _atom_site_symmetry_multiplicity
 _atom_site_fract_x
 _atom_site_fract_y
 _atom_site_fract_z
 _atom_site_occupancy
  Ca  Ca0  1  0.997984  0.000962  0.996041  1
  Ca  Ca1  1  0.797241  0.799452  0.795323  1
  Ca  Ca2  1  0.206629  0.203680  0.205580  1
  Ca  Ca3  1  0.333475  0.604990  0.839592  1
  Ca  Ca4  1  0.841391  0.328291  0.608497  1
  Ca  Ca5  1  0.601180  0.845606  0.331816  1
  Ca  Ca6  1  0.665872  0.392863  0.155582  1
  Ca  Ca7  1  0.158488  0.669241  0.396942  1
  Ca  Ca8  1  0.393867  0.156646  0.668647  1
  Pd  Pd9  1  0.956574  0.586613  0.156234  1
  Pd  Pd10  1  0.846005  0.042641  0.411200  1
  Pd  Pd11  1  0.412879  0.843907  0.043685  1
  Pd  Pd12  1  0.042650  0.413906  0.845851  1
  Pt  Pt13  1  0.157025  0.956020  0.588363  1
  Pt  Pt14  1  0.588738  0.155183  0.956647  1
