# generated using pymatgen
data_Hf2Zr2Nb3Si4W
_symmetry_space_group_name_H-M   'P 1'
_cell_length_a   3.61175700
_cell_length_b   7.00845810
_cell_length_c   8.40937479
_cell_angle_alpha   90.28804567
_cell_angle_beta   90.00000000
_cell_angle_gamma   90.00000000
_symmetry_Int_Tables_number   1
_chemical_formula_structural   Hf2Zr2Nb3Si4W
_chemical_formula_sum   'Hf2 Zr2 Nb3 Si4 W1'
_cell_volume   212.86253241
_cell_formula_units_Z   1
loop_
 _symmetry_equiv_pos_site_id
 _symmetry_equiv_pos_as_xyz
  1  'x, y, z'
loop_
 _atom_site_type_symbol
 _atom_site_label
 _atom_site_symmetry_multiplicity
 _atom_site_fract_x
 _atom_site_fract_y
 _atom_site_fract_z
 _atom_site_occupancy
  Hf  Hf0  1  0.250000  0.546115  0.165080  1
  Hf  Hf1  1  0.250000  0.041930  0.330568  1
  Zr  Zr2  1  0.750000  0.457745  0.834564  1
  Zr  Zr3  1  0.750000  0.956982  0.667532  1
  Nb  Nb4  1  0.250000  0.634283  0.558031  1
  Nb  Nb5  1  0.250000  0.128883  0.941438  1
  Nb  Nb6  1  0.750000  0.368239  0.439024  1
  Si  Si7  1  0.250000  0.755291  0.865031  1
  Si  Si8  1  0.250000  0.254582  0.639707  1
  Si  Si9  1  0.750000  0.242822  0.141168  1
  Si  Si10  1  0.750000  0.747001  0.356274  1
  W  W11  1  0.750000  0.866127  0.061583  1
