# generated using pymatgen
data_Tb4Ti3AlIr4
_symmetry_space_group_name_H-M   'P 1'
_cell_length_a   4.33433000
_cell_length_b   6.98418181
_cell_length_c   8.01733102
_cell_angle_alpha   92.81768342
_cell_angle_beta   90.00000000
_cell_angle_gamma   90.00000000
_symmetry_Int_Tables_number   1
_chemical_formula_structural   Tb4Ti3AlIr4
_chemical_formula_sum   'Tb4 Ti3 Al1 Ir4'
_cell_volume   242.40521062
_cell_formula_units_Z   1
loop_
 _symmetry_equiv_pos_site_id
 _symmetry_equiv_pos_as_xyz
  1  'x, y, z'
loop_
 _atom_site_type_symbol
 _atom_site_label
 _atom_site_symmetry_multiplicity
 _atom_site_fract_x
 _atom_site_fract_y
 _atom_site_fract_z
 _atom_site_occupancy
  Tb  Tb0  1  0.250000  0.979982  0.315524  1
  Tb  Tb1  1  0.250000  0.472078  0.174274  1
  Tb  Tb2  1  0.750000  0.026660  0.686551  1
  Tb  Tb3  1  0.750000  0.514809  0.824274  1
  Ti  Ti4  1  0.250000  0.366557  0.568292  1
  Ti  Ti5  1  0.250000  0.867147  0.939530  1
  Ti  Ti6  1  0.750000  0.632808  0.432280  1
  Al  Al7  1  0.750000  0.143166  0.069113  1
  Ir  Ir8  1  0.250000  0.222012  0.881606  1
  Ir  Ir9  1  0.250000  0.724216  0.598754  1
  Ir  Ir10  1  0.750000  0.772935  0.109247  1
  Ir  Ir11  1  0.750000  0.277630  0.400555  1
