# generated using pymatgen
data_Na4AlGa3I16
_symmetry_space_group_name_H-M   'P 1'
_cell_length_a   8.42882800
_cell_length_b   8.49307202
_cell_length_c   15.21962104
_cell_angle_alpha   89.99177389
_cell_angle_beta   90.00000000
_cell_angle_gamma   90.00000000
_symmetry_Int_Tables_number   1
_chemical_formula_structural   Na4AlGa3I16
_chemical_formula_sum   'Na4 Al1 Ga3 I16'
_cell_volume   1089.52157072
_cell_formula_units_Z   1
loop_
 _symmetry_equiv_pos_site_id
 _symmetry_equiv_pos_as_xyz
  1  'x, y, z'
loop_
 _atom_site_type_symbol
 _atom_site_label
 _atom_site_symmetry_multiplicity
 _atom_site_fract_x
 _atom_site_fract_y
 _atom_site_fract_z
 _atom_site_occupancy
  Na  Na0  1  0.250000  0.445992  0.150580  1
  Na  Na1  1  0.750000  0.945930  0.349413  1
  Na  Na2  1  0.750000  0.554022  0.849409  1
  Na  Na3  1  0.250000  0.054043  0.650593  1
  Al  Al4  1  0.250000  0.196703  0.398242  1
  Ga  Ga5  1  0.250000  0.303355  0.898247  1
  Ga  Ga6  1  0.750000  0.803326  0.601776  1
  Ga  Ga7  1  0.750000  0.696598  0.101706  1
  I  I8  1  0.250000  0.127343  0.035419  1
  I  I9  1  0.750000  0.627356  0.464586  1
  I  I10  1  0.750000  0.872673  0.964605  1
  I  I11  1  0.250000  0.371627  0.534586  1
  I  I12  1  0.250000  0.907490  0.447674  1
  I  I13  1  0.750000  0.405895  0.051947  1
  I  I14  1  0.750000  0.094161  0.551987  1
  I  I15  1  0.250000  0.594159  0.948013  1
  I  I16  1  0.995205  0.755762  0.200329  1
  I  I17  1  0.006171  0.255393  0.300279  1
  I  I18  1  0.495195  0.244233  0.799688  1
  I  I19  1  0.504819  0.744274  0.700312  1
  I  I20  1  0.004805  0.244233  0.799688  1
  I  I21  1  0.995181  0.744274  0.700312  1
  I  I22  1  0.504795  0.755762  0.200329  1
  I  I23  1  0.493829  0.255393  0.300279  1
