# generated using pymatgen
data_NdY4Th(Co3P2)6
_symmetry_space_group_name_H-M   'P 1'
_cell_length_a   3.73339600
_cell_length_b   10.57611400
_cell_length_c   12.24961600
_cell_angle_alpha   90.00000000
_cell_angle_beta   90.00000000
_cell_angle_gamma   90.00000000
_symmetry_Int_Tables_number   1
_chemical_formula_structural   NdY4Th(Co3P2)6
_chemical_formula_sum   'Nd1 Y4 Th1 Co18 P12'
_cell_volume   483.67390369
_cell_formula_units_Z   1
loop_
 _symmetry_equiv_pos_site_id
 _symmetry_equiv_pos_as_xyz
  1  'x, y, z'
loop_
 _atom_site_type_symbol
 _atom_site_label
 _atom_site_symmetry_multiplicity
 _atom_site_fract_x
 _atom_site_fract_y
 _atom_site_fract_z
 _atom_site_occupancy
  Nd  Nd0  1  0.000000  0.500000  0.521883  1
  Y  Y1  1  0.500000  0.815964  0.204053  1
  Y  Y2  1  0.500000  0.184036  0.204053  1
  Y  Y3  1  0.000000  0.683531  0.794860  1
  Y  Y4  1  0.000000  0.316469  0.794860  1
  Th  Th5  1  0.500000  0.000000  0.475745  1
  Co  Co6  1  0.500000  0.500000  0.156319  1
  Co  Co7  1  0.000000  0.000000  0.844887  1
  Co  Co8  1  0.500000  0.500000  0.706023  1
  Co  Co9  1  0.000000  0.000000  0.297584  1
  Co  Co10  1  0.000000  0.500000  0.985680  1
  Co  Co11  1  0.500000  0.000000  0.014202  1
  Co  Co12  1  0.500000  0.333554  0.994717  1
  Co  Co13  1  0.500000  0.666446  0.994717  1
  Co  Co14  1  0.000000  0.166527  0.005496  1
  Co  Co15  1  0.000000  0.833473  0.005496  1
  Co  Co16  1  0.500000  0.296830  0.429251  1
  Co  Co17  1  0.500000  0.703170  0.429251  1
  Co  Co18  1  0.000000  0.201112  0.570517  1
  Co  Co19  1  0.000000  0.798888  0.570517  1
  Co  Co20  1  0.500000  0.880165  0.712744  1
  Co  Co21  1  0.500000  0.119835  0.712744  1
  Co  Co22  1  0.000000  0.619744  0.286684  1
  Co  Co23  1  0.000000  0.380256  0.286684  1
  P  P24  1  0.500000  0.500000  0.883091  1
  P  P25  1  0.000000  0.000000  0.117648  1
  P  P26  1  0.500000  0.500000  0.339191  1
  P  P27  1  0.000000  0.000000  0.662262  1
  P  P28  1  0.500000  0.307822  0.617383  1
  P  P29  1  0.500000  0.692178  0.617383  1
  P  P30  1  0.000000  0.194944  0.382054  1
  P  P31  1  0.000000  0.805056  0.382054  1
  P  P32  1  0.500000  0.846928  0.895147  1
  P  P33  1  0.500000  0.153072  0.895147  1
  P  P34  1  0.000000  0.652482  0.104837  1
  P  P35  1  0.000000  0.347518  0.104837  1
