# generated using pymatgen
data_Tb2Pr2Ga4Ru3Pt
_symmetry_space_group_name_H-M   'P 1'
_cell_length_a   4.59357900
_cell_length_b   7.25356782
_cell_length_c   7.28712008
_cell_angle_alpha   90.89530595
_cell_angle_beta   90.00000000
_cell_angle_gamma   90.00000000
_symmetry_Int_Tables_number   1
_chemical_formula_structural   Tb2Pr2Ga4Ru3Pt
_chemical_formula_sum   'Tb2 Pr2 Ga4 Ru3 Pt1'
_cell_volume   242.77600920
_cell_formula_units_Z   1
loop_
 _symmetry_equiv_pos_site_id
 _symmetry_equiv_pos_as_xyz
  1  'x, y, z'
loop_
 _atom_site_type_symbol
 _atom_site_label
 _atom_site_symmetry_multiplicity
 _atom_site_fract_x
 _atom_site_fract_y
 _atom_site_fract_z
 _atom_site_occupancy
  Tb  Tb0  1  0.750000  0.530799  0.802215  1
  Tb  Tb1  1  0.750000  0.015978  0.702918  1
  Pr  Pr2  1  0.250000  0.985924  0.310104  1
  Pr  Pr3  1  0.250000  0.480349  0.186561  1
  Ga  Ga4  1  0.750000  0.690018  0.399424  1
  Ga  Ga5  1  0.250000  0.317865  0.622682  1
  Ga  Ga6  1  0.750000  0.198232  0.084392  1
  Ga  Ga7  1  0.250000  0.803901  0.897051  1
  Ru  Ru8  1  0.250000  0.667561  0.567097  1
  Ru  Ru9  1  0.250000  0.154034  0.931121  1
  Ru  Ru10  1  0.750000  0.838199  0.061699  1
  Pt  Pt11  1  0.750000  0.317140  0.434739  1
