# generated using pymatgen
data_Nd19LuSi15Pd
_symmetry_space_group_name_H-M   'P 1'
_cell_length_a   7.79491850
_cell_length_b   7.93140210
_cell_length_c   15.14398400
_cell_angle_alpha   89.69345168
_cell_angle_beta   89.45898037
_cell_angle_gamma   90.07089448
_symmetry_Int_Tables_number   1
_chemical_formula_structural   Nd19LuSi15Pd
_chemical_formula_sum   'Nd19 Lu1 Si15 Pd1'
_cell_volume   936.21533637
_cell_formula_units_Z   1
loop_
 _symmetry_equiv_pos_site_id
 _symmetry_equiv_pos_as_xyz
  1  'x, y, z'
loop_
 _atom_site_type_symbol
 _atom_site_label
 _atom_site_symmetry_multiplicity
 _atom_site_fract_x
 _atom_site_fract_y
 _atom_site_fract_z
 _atom_site_occupancy
  Nd  Nd0  1  0.813693  0.328323  0.618486  1
  Nd  Nd1  1  0.456373  0.686267  0.897891  1
  Nd  Nd2  1  0.957320  0.813943  0.897373  1
  Nd  Nd3  1  0.186561  0.682242  0.120046  1
  Nd  Nd4  1  0.691393  0.819061  0.120756  1
  Nd  Nd5  1  0.307320  0.178528  0.878223  1
  Nd  Nd6  1  0.188308  0.677097  0.380540  1
  Nd  Nd7  1  0.043261  0.187374  0.102695  1
  Nd  Nd8  1  0.312183  0.180143  0.622436  1
  Nd  Nd9  1  0.857082  0.490882  0.256028  1
  Nd  Nd10  1  0.363052  0.008174  0.251640  1
  Nd  Nd11  1  0.533944  0.312675  0.397073  1
  Nd  Nd12  1  0.810946  0.318966  0.878131  1
  Nd  Nd13  1  0.965395  0.817567  0.601454  1
  Nd  Nd14  1  0.459857  0.686760  0.603664  1
  Nd  Nd15  1  0.042851  0.182023  0.397874  1
  Nd  Nd16  1  0.688553  0.818485  0.381606  1
  Nd  Nd17  1  0.638104  0.992510  0.748838  1
  Nd  Nd18  1  0.543429  0.312334  0.101906  1
  Lu  Lu19  1  0.139492  0.511928  0.748033  1
  Si  Si20  1  0.478978  0.601969  0.246685  1
  Si  Si21  1  0.249716  0.378978  0.247501  1
  Si  Si22  1  0.513203  0.402897  0.751249  1
  Si  Si23  1  0.631747  0.025150  0.957780  1
  Si  Si24  1  0.016107  0.104275  0.749647  1
  Si  Si25  1  0.753355  0.620971  0.750154  1
  Si  Si26  1  0.751472  0.120498  0.248748  1
  Si  Si27  1  0.364311  0.970671  0.460966  1
  Si  Si28  1  0.981559  0.898068  0.248431  1
  Si  Si29  1  0.366335  0.974603  0.041123  1
  Si  Si30  1  0.635785  0.026026  0.542085  1
  Si  Si31  1  0.133810  0.476267  0.955398  1
  Si  Si32  1  0.146809  0.477464  0.546993  1
  Si  Si33  1  0.867707  0.525404  0.039229  1
  Si  Si34  1  0.245318  0.870815  0.751026  1
  Pd  Pd35  1  0.864670  0.520659  0.458293  1
