# generated using pymatgen
data_Y4HoEr3(B6Ru)4
_symmetry_space_group_name_H-M   'P 1'
_cell_length_a   3.65280700
_cell_length_b   9.13192202
_cell_length_c   11.51450903
_cell_angle_alpha   90.00770377
_cell_angle_beta   90.00000000
_cell_angle_gamma   90.00000000
_symmetry_Int_Tables_number   1
_chemical_formula_structural   Y4HoEr3(B6Ru)4
_chemical_formula_sum   'Y4 Ho1 Er3 B24 Ru4'
_cell_volume   384.09118609
_cell_formula_units_Z   1
loop_
 _symmetry_equiv_pos_site_id
 _symmetry_equiv_pos_as_xyz
  1  'x, y, z'
loop_
 _atom_site_type_symbol
 _atom_site_label
 _atom_site_symmetry_multiplicity
 _atom_site_fract_x
 _atom_site_fract_y
 _atom_site_fract_z
 _atom_site_occupancy
  Y  Y0  1  0.000000  0.321961  0.414277  1
  Y  Y1  1  0.000000  0.678067  0.585851  1
  Y  Y2  1  0.000000  0.821818  0.085672  1
  Y  Y3  1  0.000000  0.178174  0.914215  1
  Ho  Ho4  1  0.000000  0.943489  0.372146  1
  Er  Er5  1  0.000000  0.056611  0.628052  1
  Er  Er6  1  0.000000  0.443470  0.127824  1
  Er  Er7  1  0.000000  0.556513  0.872134  1
  B  B8  1  0.500000  0.554218  0.432843  1
  B  B9  1  0.500000  0.445641  0.567214  1
  B  B10  1  0.500000  0.054357  0.067114  1
  B  B11  1  0.500000  0.945661  0.932800  1
  B  B12  1  0.500000  0.748241  0.419316  1
  B  B13  1  0.500000  0.251460  0.580750  1
  B  B14  1  0.500000  0.248645  0.080694  1
  B  B15  1  0.500000  0.751409  0.919274  1
  B  B16  1  0.500000  0.790678  0.265940  1
  B  B17  1  0.500000  0.209049  0.733975  1
  B  B18  1  0.500000  0.291124  0.233905  1
  B  B19  1  0.500000  0.709015  0.766051  1
  B  B20  1  0.500000  0.630840  0.184759  1
  B  B21  1  0.500000  0.369079  0.815178  1
  B  B22  1  0.500000  0.131207  0.315058  1
  B  B23  1  0.500000  0.869043  0.684872  1
  B  B24  1  0.500000  0.983325  0.212847  1
  B  B25  1  0.500000  0.016850  0.786909  1
  B  B26  1  0.500000  0.483058  0.286864  1
  B  B27  1  0.500000  0.516867  0.713117  1
  B  B28  1  0.500000  0.606088  0.029193  1
  B  B29  1  0.500000  0.393897  0.970773  1
  B  B30  1  0.500000  0.106588  0.470950  1
  B  B31  1  0.500000  0.893657  0.529559  1
  Ru  Ru32  1  0.000000  0.637520  0.320650  1
  Ru  Ru33  1  0.000000  0.362144  0.679377  1
  Ru  Ru34  1  0.000000  0.138159  0.179115  1
  Ru  Ru35  1  0.000000  0.862077  0.820731  1
