# generated using pymatgen
data_Tb8DyHo(SiB4)4
_symmetry_space_group_name_H-M   'P 1'
_cell_length_a   7.24978100
_cell_length_b   7.24978100
_cell_length_c   8.13368300
_cell_angle_alpha   90.00000000
_cell_angle_beta   90.00000000
_cell_angle_gamma   90.00000000
_symmetry_Int_Tables_number   1
_chemical_formula_structural   Tb8DyHo(SiB4)4
_chemical_formula_sum   'Tb8 Dy1 Ho1 Si4 B16'
_cell_volume   427.50088457
_cell_formula_units_Z   1
loop_
 _symmetry_equiv_pos_site_id
 _symmetry_equiv_pos_as_xyz
  1  'x, y, z'
loop_
 _atom_site_type_symbol
 _atom_site_label
 _atom_site_symmetry_multiplicity
 _atom_site_fract_x
 _atom_site_fract_y
 _atom_site_fract_z
 _atom_site_occupancy
  Tb  Tb0  1  0.680238  0.180353  0.224368  1
  Tb  Tb1  1  0.319762  0.819647  0.775632  1
  Tb  Tb2  1  0.319762  0.819647  0.224368  1
  Tb  Tb3  1  0.819647  0.680238  0.224368  1
  Tb  Tb4  1  0.819647  0.680238  0.775632  1
  Tb  Tb5  1  0.680238  0.180353  0.775632  1
  Tb  Tb6  1  0.180353  0.319762  0.775632  1
  Tb  Tb7  1  0.180353  0.319762  0.224368  1
  Dy  Dy8  1  0.000000  0.000000  0.500000  1
  Ho  Ho9  1  0.500000  0.500000  0.500000  1
  Si  Si10  1  0.115150  0.614555  0.500000  1
  Si  Si11  1  0.884850  0.385445  0.500000  1
  Si  Si12  1  0.385445  0.115150  0.500000  1
  Si  Si13  1  0.614555  0.884850  0.500000  1
  B  B14  1  0.172384  0.039141  0.000000  1
  B  B15  1  0.827616  0.960859  0.000000  1
  B  B16  1  0.960859  0.172384  0.000000  1
  B  B17  1  0.327625  0.539106  0.000000  1
  B  B18  1  0.039141  0.827616  0.000000  1
  B  B19  1  0.672375  0.460894  0.000000  1
  B  B20  1  0.539106  0.672375  0.000000  1
  B  B21  1  0.460894  0.327625  0.000000  1
  B  B22  1  0.090019  0.590055  0.000000  1
  B  B23  1  0.909981  0.409945  0.000000  1
  B  B24  1  0.409945  0.090019  0.000000  1
  B  B25  1  0.590055  0.909981  0.000000  1
  B  B26  1  0.000000  0.000000  0.161185  1
  B  B27  1  0.000000  0.000000  0.838815  1
  B  B28  1  0.500000  0.500000  0.838609  1
  B  B29  1  0.500000  0.500000  0.161391  1
