# generated using pymatgen
data_Ac2UO6
_symmetry_space_group_name_H-M   'P 1'
_cell_length_a   6.88258453
_cell_length_b   6.88258389
_cell_length_c   6.88258397
_cell_angle_alpha   145.60245912
_cell_angle_beta   130.54530733
_cell_angle_gamma   61.62847692
_symmetry_Int_Tables_number   1
_chemical_formula_structural   Ac2UO6
_chemical_formula_sum   'Ac2 U1 O6'
_cell_volume   138.53027026
_cell_formula_units_Z   1
loop_
 _symmetry_equiv_pos_site_id
 _symmetry_equiv_pos_as_xyz
  1  'x, y, z'
loop_
 _atom_site_type_symbol
 _atom_site_label
 _atom_site_symmetry_multiplicity
 _atom_site_fract_x
 _atom_site_fract_y
 _atom_site_fract_z
 _atom_site_occupancy
  Ac  Ac0  1  0.662479  0.662479  0.000000  1
  Ac  Ac1  1  0.337521  0.337521  0.000000  1
  U  U2  1  0.000000  0.000000  0.000000  1
  O  O3  1  0.916962  0.145190  0.771773  1
  O  O4  1  0.784433  0.500000  0.284433  1
  O  O5  1  0.373417  0.145190  0.228227  1
  O  O6  1  0.626583  0.854810  0.771773  1
  O  O7  1  0.215567  0.500000  0.715567  1
  O  O8  1  0.083038  0.854810  0.228227  1
