# generated using pymatgen
data_Tb6DyEr13Sn16
_symmetry_space_group_name_H-M   'P 1'
_cell_length_a   8.01117375
_cell_length_b   8.14422005
_cell_length_c   15.39501807
_cell_angle_alpha   90.01226715
_cell_angle_beta   90.10157138
_cell_angle_gamma   89.95471637
_symmetry_Int_Tables_number   1
_chemical_formula_structural   Tb6DyEr13Sn16
_chemical_formula_sum   'Tb6 Dy1 Er13 Sn16'
_cell_volume   1004.44237377
_cell_formula_units_Z   1
loop_
 _symmetry_equiv_pos_site_id
 _symmetry_equiv_pos_as_xyz
  1  'x, y, z'
loop_
 _atom_site_type_symbol
 _atom_site_label
 _atom_site_symmetry_multiplicity
 _atom_site_fract_x
 _atom_site_fract_y
 _atom_site_fract_z
 _atom_site_occupancy
  Tb  Tb0  1  0.020405  0.179268  0.597224  1
  Tb  Tb1  1  0.479737  0.679045  0.403294  1
  Tb  Tb2  1  0.979317  0.820794  0.096868  1
  Tb  Tb3  1  0.479348  0.678842  0.096818  1
  Tb  Tb4  1  0.979752  0.820828  0.403362  1
  Tb  Tb5  1  0.520024  0.321156  0.596858  1
  Dy  Dy6  1  0.020633  0.179339  0.902915  1
  Er  Er7  1  0.367110  0.837450  0.877165  1
  Er  Er8  1  0.866404  0.662728  0.622899  1
  Er  Er9  1  0.633124  0.162661  0.377289  1
  Er  Er10  1  0.132686  0.337529  0.122420  1
  Er  Er11  1  0.632594  0.162534  0.122506  1
  Er  Er12  1  0.133282  0.337272  0.377335  1
  Er  Er13  1  0.366803  0.837544  0.623044  1
  Er  Er14  1  0.867349  0.662556  0.877243  1
  Er  Er15  1  0.521667  0.321308  0.902590  1
  Er  Er16  1  0.198288  0.503572  0.750184  1
  Er  Er17  1  0.698146  0.996427  0.750184  1
  Er  Er18  1  0.801778  0.495901  0.249888  1
  Er  Er19  1  0.301896  0.003777  0.250053  1
  Sn  Sn20  1  0.293828  0.037765  0.041462  1
  Sn  Sn21  1  0.794494  0.461891  0.458546  1
  Sn  Sn22  1  0.705463  0.962126  0.541601  1
  Sn  Sn23  1  0.207188  0.536816  0.958028  1
  Sn  Sn24  1  0.705697  0.962681  0.958288  1
  Sn  Sn25  1  0.205026  0.538526  0.541580  1
  Sn  Sn26  1  0.294422  0.038025  0.458641  1
  Sn  Sn27  1  0.793247  0.461597  0.041043  1
  Sn  Sn28  1  0.564257  0.619230  0.750154  1
  Sn  Sn29  1  0.064239  0.880400  0.749976  1
  Sn  Sn30  1  0.435525  0.380401  0.249790  1
  Sn  Sn31  1  0.935649  0.119649  0.249813  1
  Sn  Sn32  1  0.330956  0.148824  0.750527  1
  Sn  Sn33  1  0.829895  0.351776  0.750169  1
  Sn  Sn34  1  0.669953  0.851438  0.250090  1
  Sn  Sn35  1  0.169816  0.648324  0.250150  1
