# generated using pymatgen
data_Er8Ta11TiSi15Sn
_symmetry_space_group_name_H-M   'P 1'
_cell_length_a   7.08151716
_cell_length_b   7.04073786
_cell_length_c   12.99452956
_cell_angle_alpha   90.02247397
_cell_angle_beta   89.84188835
_cell_angle_gamma   89.87586336
_symmetry_Int_Tables_number   1
_chemical_formula_structural   Er8Ta11TiSi15Sn
_chemical_formula_sum   'Er8 Ta11 Ti1 Si15 Sn1'
_cell_volume   647.89158667
_cell_formula_units_Z   1
loop_
 _symmetry_equiv_pos_site_id
 _symmetry_equiv_pos_as_xyz
  1  'x, y, z'
loop_
 _atom_site_type_symbol
 _atom_site_label
 _atom_site_symmetry_multiplicity
 _atom_site_fract_x
 _atom_site_fract_y
 _atom_site_fract_z
 _atom_site_occupancy
  Er  Er0  1  0.345298  0.999478  0.462604  1
  Er  Er1  1  0.505827  0.837172  0.720427  1
  Er  Er2  1  0.502026  0.158426  0.218202  1
  Er  Er3  1  0.841641  0.498348  0.280945  1
  Er  Er4  1  0.158894  0.507725  0.784708  1
  Er  Er5  1  0.659865  0.996835  0.970101  1
  Er  Er6  1  0.992626  0.348691  0.525738  1
  Er  Er7  1  0.999217  0.658902  0.032826  1
  Ta  Ta8  1  0.329755  0.329347  0.001214  1
  Ta  Ta9  1  0.170845  0.828696  0.249692  1
  Ta  Ta10  1  0.818714  0.173389  0.752071  1
  Ta  Ta11  1  0.670696  0.670918  0.499531  1
  Ta  Ta12  1  0.152126  0.005213  0.880474  1
  Ta  Ta13  1  0.494660  0.651283  0.124675  1
  Ta  Ta14  1  0.514350  0.354701  0.623251  1
  Ta  Ta15  1  0.654325  0.492877  0.878295  1
  Ta  Ta16  1  0.347327  0.507288  0.375399  1
  Ta  Ta17  1  0.844693  0.992426  0.373090  1
  Ta  Ta18  1  0.008288  0.152501  0.125817  1
  Ti  Ti19  1  0.979427  0.834075  0.621878  1
  Si  Si20  1  0.368207  0.705545  0.932736  1
  Si  Si21  1  0.631848  0.296175  0.430120  1
  Si  Si22  1  0.705827  0.365356  0.069890  1
  Si  Si23  1  0.293136  0.635880  0.568622  1
  Si  Si24  1  0.796891  0.865725  0.181028  1
  Si  Si25  1  0.133439  0.203982  0.318370  1
  Si  Si26  1  0.867441  0.799209  0.818706  1
  Si  Si27  1  0.297141  0.954105  0.065718  1
  Si  Si28  1  0.546611  0.793051  0.312785  1
  Si  Si29  1  0.458610  0.205652  0.817813  1
  Si  Si30  1  0.798889  0.543928  0.687341  1
  Si  Si31  1  0.205677  0.454664  0.186422  1
  Si  Si32  1  0.705305  0.046305  0.564245  1
  Si  Si33  1  0.955056  0.295999  0.936181  1
  Si  Si34  1  0.046049  0.708197  0.434823  1
  Sn  Sn35  1  0.199273  0.127940  0.674262  1
