# generated using pymatgen
data_Hf6GaAs5Ru6
_symmetry_space_group_name_H-M   'P 1'
_cell_length_a   7.67027029
_cell_length_b   7.68767337
_cell_length_c   7.67027065
_cell_angle_alpha   128.41111064
_cell_angle_beta   119.90928255
_cell_angle_gamma   83.04655144
_symmetry_Int_Tables_number   1
_chemical_formula_structural   Hf6GaAs5Ru6
_chemical_formula_sum   'Hf6 Ga1 As5 Ru6'
_cell_volume   295.10282653
_cell_formula_units_Z   1
loop_
 _symmetry_equiv_pos_site_id
 _symmetry_equiv_pos_as_xyz
  1  'x, y, z'
loop_
 _atom_site_type_symbol
 _atom_site_label
 _atom_site_symmetry_multiplicity
 _atom_site_fract_x
 _atom_site_fract_y
 _atom_site_fract_z
 _atom_site_occupancy
  Hf  Hf0  1  0.469968  0.699391  0.729423  1
  Hf  Hf1  1  0.526002  0.256397  0.230395  1
  Hf  Hf2  1  0.748765  0.832338  0.583573  1
  Hf  Hf3  1  0.249334  0.831269  0.081934  1
  Hf  Hf4  1  0.054778  0.256346  0.701569  1
  Hf  Hf5  1  0.950192  0.656492  0.206300  1
  Ga  Ga6  1  0.276626  0.272816  0.496191  1
  As  As7  1  0.725389  0.228485  0.003096  1
  As  As8  1  0.328457  0.585463  0.248230  1
  As  As9  1  0.671012  0.920547  0.259269  1
  As  As10  1  0.161278  0.920547  0.749534  1
  As  As11  1  0.837233  0.585463  0.757006  1
  Ru  Ru12  1  0.502139  0.499204  0.000914  1
  Ru  Ru13  1  0.998290  0.499204  0.497065  1
  Ru  Ru14  1  0.091214  0.252327  0.096077  1
  Ru  Ru15  1  0.899081  0.005491  0.151498  1
  Ru  Ru16  1  0.353993  0.005491  0.606410  1
  Ru  Ru17  1  0.656250  0.252327  0.661114  1
