# generated using pymatgen
data_Li2TaSnRh4
_symmetry_space_group_name_H-M   'P 1'
_cell_length_a   4.38345700
_cell_length_b   6.13266400
_cell_length_c   13.15635000
_cell_angle_alpha   90.00000000
_cell_angle_beta   90.00308403
_cell_angle_gamma   90.00000000
_symmetry_Int_Tables_number   1
_chemical_formula_structural   Li2TaSnRh4
_chemical_formula_sum   'Li6 Ta3 Sn3 Rh12'
_cell_volume   353.67253871
_cell_formula_units_Z   3
loop_
 _symmetry_equiv_pos_site_id
 _symmetry_equiv_pos_as_xyz
  1  'x, y, z'
loop_
 _atom_site_type_symbol
 _atom_site_label
 _atom_site_symmetry_multiplicity
 _atom_site_fract_x
 _atom_site_fract_y
 _atom_site_fract_z
 _atom_site_occupancy
  Li  Li0  1  0.000017  0.499999  0.000385  1
  Li  Li1  1  0.499875  0.000000  0.166621  1
  Li  Li2  1  0.999850  0.499999  0.333012  1
  Li  Li3  1  0.500013  0.000000  0.499750  1
  Li  Li4  1  0.000120  0.499999  0.666618  1
  Li  Li5  1  0.500125  0.000000  0.833579  1
  Ta  Ta6  1  0.499996  0.499999  0.499699  1
  Ta  Ta7  1  0.000121  0.000000  0.666674  1
  Ta  Ta8  1  0.500123  0.499999  0.833635  1
  Sn  Sn9  1  0.000011  0.000000  0.001365  1
  Sn  Sn10  1  0.499861  0.499999  0.166674  1
  Sn  Sn11  1  0.999866  0.000000  0.331944  1
  Rh  Rh12  1  0.500020  0.256001  0.992646  1
  Rh  Rh13  1  0.500020  0.744000  0.992646  1
  Rh  Rh14  1  0.999880  0.251898  0.166670  1
  Rh  Rh15  1  0.999880  0.748103  0.166670  1
  Rh  Rh16  1  0.499866  0.255989  0.340683  1
  Rh  Rh17  1  0.499866  0.744012  0.340683  1
  Rh  Rh18  1  0.000005  0.250537  0.503836  1
  Rh  Rh19  1  0.000005  0.749463  0.503836  1
  Rh  Rh20  1  0.500116  0.248939  0.666681  1
  Rh  Rh21  1  0.500116  0.751062  0.666681  1
  Rh  Rh22  1  0.000128  0.250576  0.829506  1
  Rh  Rh23  1  0.000128  0.749425  0.829506  1
