# generated using pymatgen
data_Hf8Fe8Si13Au
_symmetry_space_group_name_H-M   'P 1'
_cell_length_a   5.02914709
_cell_length_b   9.56237541
_cell_length_c   9.56237614
_cell_angle_alpha   86.03478855
_cell_angle_beta   74.75390280
_cell_angle_gamma   74.75390538
_symmetry_Int_Tables_number   1
_chemical_formula_structural   Hf8Fe8Si13Au
_chemical_formula_sum   'Hf8 Fe8 Si13 Au1'
_cell_volume   428.06060479
_cell_formula_units_Z   1
loop_
 _symmetry_equiv_pos_site_id
 _symmetry_equiv_pos_as_xyz
  1  'x, y, z'
loop_
 _atom_site_type_symbol
 _atom_site_label
 _atom_site_symmetry_multiplicity
 _atom_site_fract_x
 _atom_site_fract_y
 _atom_site_fract_z
 _atom_site_occupancy
  Hf  Hf0  1  0.137060  0.000000  0.719329  1
  Hf  Hf1  1  0.856388  0.000000  0.280671  1
  Hf  Hf2  1  0.856388  0.280671  0.000000  1
  Hf  Hf3  1  0.137060  0.719329  0.000000  1
  Hf  Hf4  1  0.502982  0.199186  0.800814  1
  Hf  Hf5  1  0.502982  0.800814  0.199186  1
  Hf  Hf6  1  0.303796  0.199186  0.199186  1
  Hf  Hf7  1  0.702167  0.800814  0.800814  1
  Fe  Fe8  1  0.397989  0.500492  0.203747  1
  Fe  Fe9  1  0.102229  0.499508  0.796253  1
  Fe  Fe10  1  0.102229  0.796253  0.499508  1
  Fe  Fe11  1  0.397989  0.203747  0.500492  1
  Fe  Fe12  1  0.601737  0.796253  0.500492  1
  Fe  Fe13  1  0.898481  0.203747  0.499508  1
  Fe  Fe14  1  0.898481  0.499508  0.203747  1
  Fe  Fe15  1  0.601737  0.500492  0.796253  1
  Si  Si16  1  0.290329  0.000000  0.417483  1
  Si  Si17  1  0.707812  0.000000  0.582517  1
  Si  Si18  1  0.707812  0.582517  0.000000  1
  Si  Si19  1  0.290329  0.417483  0.000000  1
  Si  Si20  1  0.000542  0.298145  0.701855  1
  Si  Si21  1  0.000542  0.701855  0.298145  1
  Si  Si22  1  0.702396  0.298145  0.298145  1
  Si  Si23  1  0.298687  0.701855  0.701855  1
  Si  Si24  1  0.500188  0.409174  0.590826  1
  Si  Si25  1  0.500188  0.590826  0.409174  1
  Si  Si26  1  0.091014  0.409174  0.409174  1
  Si  Si27  1  0.909362  0.590826  0.590826  1
  Si  Si28  1  0.749798  0.000000  0.000000  1
  Au  Au29  1  0.251306  0.000000  0.000000  1
