# generated using pymatgen
data_Yb(MnSb3)4
_symmetry_space_group_name_H-M   'P 1'
_cell_length_a   8.09405872
_cell_length_b   8.08729173
_cell_length_c   8.09405865
_cell_angle_alpha   109.45428491
_cell_angle_beta   109.48814849
_cell_angle_gamma   109.45428458
_symmetry_Int_Tables_number   1
_chemical_formula_structural   Yb(MnSb3)4
_chemical_formula_sum   'Yb1 Mn4 Sb12'
_cell_volume   407.94786126
_cell_formula_units_Z   1
loop_
 _symmetry_equiv_pos_site_id
 _symmetry_equiv_pos_as_xyz
  1  'x, y, z'
loop_
 _atom_site_type_symbol
 _atom_site_label
 _atom_site_symmetry_multiplicity
 _atom_site_fract_x
 _atom_site_fract_y
 _atom_site_fract_z
 _atom_site_occupancy
  Yb  Yb0  1  0.000000  0.000000  0.000000  1
  Mn  Mn1  1  0.500000  0.500000  0.500000  1
  Mn  Mn2  1  0.500000  0.000000  0.000000  1
  Mn  Mn3  1  0.000000  0.000000  0.500000  1
  Mn  Mn4  1  0.000000  0.500000  0.000000  1
  Sb  Sb5  1  0.840791  0.666027  0.506974  1
  Sb  Sb6  1  0.159209  0.333973  0.493026  1
  Sb  Sb7  1  0.159422  0.666138  0.824523  1
  Sb  Sb8  1  0.840578  0.333862  0.175477  1
  Sb  Sb9  1  0.665100  0.506716  0.840578  1
  Sb  Sb10  1  0.334900  0.493284  0.159422  1
  Sb  Sb11  1  0.666182  0.825236  0.159209  1
  Sb  Sb12  1  0.333818  0.174764  0.840791  1
  Sb  Sb13  1  0.506974  0.840947  0.666182  1
  Sb  Sb14  1  0.493026  0.159053  0.333818  1
  Sb  Sb15  1  0.175477  0.841616  0.334900  1
  Sb  Sb16  1  0.824523  0.158384  0.665100  1
