# generated using pymatgen
data_La2Dy3Tc5(P6Ir7)2
_symmetry_space_group_name_H-M   'P 1'
_cell_length_a   12.71089900
_cell_length_b   12.79363389
_cell_length_c   4.00152200
_cell_angle_alpha   90.00000000
_cell_angle_beta   90.00000000
_cell_angle_gamma   120.17821451
_symmetry_Int_Tables_number   1
_chemical_formula_structural   La2Dy3Tc5(P6Ir7)2
_chemical_formula_sum   'La2 Dy3 Tc5 P12 Ir14'
_cell_volume   562.52692339
_cell_formula_units_Z   1
loop_
 _symmetry_equiv_pos_site_id
 _symmetry_equiv_pos_as_xyz
  1  'x, y, z'
loop_
 _atom_site_type_symbol
 _atom_site_label
 _atom_site_symmetry_multiplicity
 _atom_site_fract_x
 _atom_site_fract_y
 _atom_site_fract_z
 _atom_site_occupancy
  La  La0  1  0.999313  0.811702  0.000000  1
  La  La1  1  0.185428  0.184816  0.000000  1
  Dy  Dy2  1  0.334714  0.667597  0.500000  1
  Dy  Dy3  1  0.667133  0.333617  0.500000  1
  Dy  Dy4  1  0.808457  0.998019  0.000000  1
  Tc  Tc5  1  0.994813  0.447941  0.500000  1
  Tc  Tc6  1  0.549025  0.546405  0.500000  1
  Tc  Tc7  1  0.458315  0.009373  0.500000  1
  Tc  Tc8  1  0.619189  0.799079  0.500000  1
  Tc  Tc9  1  0.204305  0.821295  0.500000  1
  P  P10  1  0.007057  0.635864  0.500000  1
  P  P11  1  0.367162  0.368393  0.500000  1
  P  P12  1  0.632605  0.993342  0.500000  1
  P  P13  1  0.519195  0.694802  0.000000  1
  P  P14  1  0.308221  0.828404  0.000000  1
  P  P15  1  0.170949  0.482642  0.000000  1
  P  P16  1  0.484773  0.171196  0.000000  1
  P  P17  1  0.687575  0.517226  0.000000  1
  P  P18  1  0.831229  0.314493  0.000000  1
  P  P19  1  0.995355  0.176926  0.500000  1
  P  P20  1  0.813123  0.819333  0.500000  1
  P  P21  1  0.181447  0.994920  0.500000  1
  Ir  Ir22  1  0.507993  0.875390  0.000000  1
  Ir  Ir23  1  0.127648  0.633736  0.000000  1
  Ir  Ir24  1  0.363221  0.494562  0.000000  1
  Ir  Ir25  1  0.493084  0.361197  0.000000  1
  Ir  Ir26  1  0.866534  0.505858  0.000000  1
  Ir  Ir27  1  0.643134  0.137014  0.000000  1
  Ir  Ir28  1  0.998267  0.286040  0.000000  1
  Ir  Ir29  1  0.713077  0.709954  0.000000  1
  Ir  Ir30  1  0.291340  0.005112  0.000000  1
  Ir  Ir31  1  0.179380  0.380040  0.500000  1
  Ir  Ir32  1  0.379712  0.184489  0.500000  1
  Ir  Ir33  1  0.802277  0.618006  0.500000  1
  Ir  Ir34  1  0.817958  0.192051  0.500000  1
  Ir  Ir35  1  0.996994  0.999163  0.500000  1
