# generated using pymatgen
data_Er7Zr(Si4W3)4
_symmetry_space_group_name_H-M   'P 1'
_cell_length_a   6.71658863
_cell_length_b   6.88276976
_cell_length_c   12.86605749
_cell_angle_alpha   90.10704002
_cell_angle_beta   89.99115932
_cell_angle_gamma   90.08530242
_symmetry_Int_Tables_number   1
_chemical_formula_structural   Er7Zr(Si4W3)4
_chemical_formula_sum   'Er7 Zr1 Si16 W12'
_cell_volume   594.77983418
_cell_formula_units_Z   1
loop_
 _symmetry_equiv_pos_site_id
 _symmetry_equiv_pos_as_xyz
  1  'x, y, z'
loop_
 _atom_site_type_symbol
 _atom_site_label
 _atom_site_symmetry_multiplicity
 _atom_site_fract_x
 _atom_site_fract_y
 _atom_site_fract_z
 _atom_site_occupancy
  Er  Er0  1  0.494660  0.668323  0.592619  1
  Er  Er1  1  0.995839  0.832490  0.906779  1
  Er  Er2  1  0.503977  0.332310  0.093561  1
  Er  Er3  1  0.003438  0.166599  0.407818  1
  Er  Er4  1  0.503861  0.332243  0.407610  1
  Er  Er5  1  0.003962  0.167952  0.093464  1
  Er  Er6  1  0.495796  0.667847  0.906040  1
  Zr  Zr7  1  0.994288  0.829986  0.596261  1
  Si  Si8  1  0.664927  0.957938  0.455888  1
  Si  Si9  1  0.161699  0.540696  0.046366  1
  Si  Si10  1  0.338445  0.041898  0.953316  1
  Si  Si11  1  0.838934  0.459989  0.545872  1
  Si  Si12  1  0.331548  0.039485  0.545064  1
  Si  Si13  1  0.838695  0.458409  0.952726  1
  Si  Si14  1  0.661931  0.958446  0.046147  1
  Si  Si15  1  0.161669  0.543759  0.455554  1
  Si  Si16  1  0.464943  0.371962  0.749887  1
  Si  Si17  1  0.964581  0.126838  0.748643  1
  Si  Si18  1  0.536583  0.628604  0.250073  1
  Si  Si19  1  0.035666  0.872414  0.249812  1
  Si  Si20  1  0.699238  0.864433  0.749599  1
  Si  Si21  1  0.196094  0.635906  0.749107  1
  Si  Si22  1  0.302183  0.135604  0.250469  1
  Si  Si23  1  0.803367  0.365496  0.250586  1
  W  W24  1  0.667319  0.161064  0.625325  1
  W  W25  1  0.167833  0.335255  0.873706  1
  W  W26  1  0.332133  0.837100  0.124496  1
  W  W27  1  0.833820  0.665290  0.376326  1
  W  W28  1  0.332729  0.836363  0.374805  1
  W  W29  1  0.832824  0.664863  0.125061  1
  W  W30  1  0.668201  0.161891  0.874591  1
  W  W31  1  0.168540  0.336521  0.624705  1
  W  W32  1  0.833607  0.503335  0.748380  1
  W  W33  1  0.334304  0.997835  0.747416  1
  W  W34  1  0.166996  0.500294  0.250391  1
  W  W35  1  0.665373  0.000566  0.251533  1
