# generated using pymatgen
data_Tb6Ho2Ta11TiSi16
_symmetry_space_group_name_H-M   'P 1'
_cell_length_a   7.05124009
_cell_length_b   7.04720905
_cell_length_c   13.00306803
_cell_angle_alpha   89.95319085
_cell_angle_beta   90.00819031
_cell_angle_gamma   89.99952147
_symmetry_Int_Tables_number   1
_chemical_formula_structural   Tb6Ho2Ta11TiSi16
_chemical_formula_sum   'Tb6 Ho2 Ta11 Ti1 Si16'
_cell_volume   646.14255205
_cell_formula_units_Z   1
loop_
 _symmetry_equiv_pos_site_id
 _symmetry_equiv_pos_as_xyz
  1  'x, y, z'
loop_
 _atom_site_type_symbol
 _atom_site_label
 _atom_site_symmetry_multiplicity
 _atom_site_fract_x
 _atom_site_fract_y
 _atom_site_fract_z
 _atom_site_occupancy
  Tb  Tb0  1  0.342100  0.002371  0.467785  1
  Tb  Tb1  1  0.497838  0.841997  0.717793  1
  Tb  Tb2  1  0.502357  0.158399  0.218017  1
  Tb  Tb3  1  0.841588  0.497407  0.282095  1
  Tb  Tb4  1  0.157921  0.502224  0.782409  1
  Tb  Tb5  1  0.658627  0.996969  0.967922  1
  Ho  Ho6  1  0.002560  0.341665  0.532142  1
  Ho  Ho7  1  0.997601  0.658914  0.031920  1
  Ta  Ta8  1  0.328400  0.328930  0.999800  1
  Ta  Ta9  1  0.171487  0.828010  0.249946  1
  Ta  Ta10  1  0.827190  0.172927  0.749915  1
  Ta  Ta11  1  0.671229  0.671170  0.499812  1
  Ta  Ta12  1  0.151941  0.006984  0.873960  1
  Ta  Ta13  1  0.492586  0.652578  0.124294  1
  Ta  Ta14  1  0.507622  0.347209  0.624037  1
  Ta  Ta15  1  0.653143  0.491571  0.876229  1
  Ta  Ta16  1  0.347753  0.507469  0.375891  1
  Ta  Ta17  1  0.846543  0.991784  0.374072  1
  Ta  Ta18  1  0.008005  0.152676  0.125888  1
  Ti  Ti19  1  0.992495  0.846490  0.626198  1
  Si  Si20  1  0.201901  0.132173  0.681968  1
  Si  Si21  1  0.365852  0.703934  0.932095  1
  Si  Si22  1  0.634587  0.296347  0.432746  1
  Si  Si23  1  0.703770  0.366448  0.067941  1
  Si  Si24  1  0.295476  0.634654  0.567751  1
  Si  Si25  1  0.796924  0.865689  0.181683  1
  Si  Si26  1  0.133763  0.203592  0.318380  1
  Si  Si27  1  0.866066  0.797273  0.817103  1
  Si  Si28  1  0.293616  0.953771  0.063682  1
  Si  Si29  1  0.545666  0.794006  0.313992  1
  Si  Si30  1  0.453538  0.206300  0.813640  1
  Si  Si31  1  0.795349  0.547108  0.685012  1
  Si  Si32  1  0.205787  0.454541  0.185954  1
  Si  Si33  1  0.709053  0.045312  0.564430  1
  Si  Si34  1  0.954085  0.294530  0.936206  1
  Si  Si35  1  0.045583  0.706579  0.437293  1
