# generated using pymatgen
data_Ho6Er2Tc(B8Os)3
_symmetry_space_group_name_H-M   'P 1'
_cell_length_a   3.64761300
_cell_length_b   9.12177782
_cell_length_c   11.50347704
_cell_angle_alpha   89.95991459
_cell_angle_beta   90.00000000
_cell_angle_gamma   90.00000000
_symmetry_Int_Tables_number   1
_chemical_formula_structural   Ho6Er2Tc(B8Os)3
_chemical_formula_sum   'Ho6 Er2 Tc1 B24 Os3'
_cell_volume   382.75182353
_cell_formula_units_Z   1
loop_
 _symmetry_equiv_pos_site_id
 _symmetry_equiv_pos_as_xyz
  1  'x, y, z'
loop_
 _atom_site_type_symbol
 _atom_site_label
 _atom_site_symmetry_multiplicity
 _atom_site_fract_x
 _atom_site_fract_y
 _atom_site_fract_z
 _atom_site_occupancy
  Ho  Ho0  1  0.000000  0.323991  0.412939  1
  Ho  Ho1  1  0.000000  0.677053  0.583729  1
  Ho  Ho2  1  0.000000  0.820266  0.088132  1
  Ho  Ho3  1  0.000000  0.177778  0.914769  1
  Ho  Ho4  1  0.000000  0.942895  0.372522  1
  Ho  Ho5  1  0.000000  0.056685  0.627543  1
  Er  Er6  1  0.000000  0.444825  0.128059  1
  Er  Er7  1  0.000000  0.556362  0.872308  1
  Tc  Tc8  1  0.000000  0.637564  0.321076  1
  B  B9  1  0.500000  0.552890  0.433116  1
  B  B10  1  0.500000  0.446569  0.567201  1
  B  B11  1  0.500000  0.053667  0.066962  1
  B  B12  1  0.500000  0.946324  0.933261  1
  B  B13  1  0.500000  0.748011  0.419549  1
  B  B14  1  0.500000  0.252087  0.580355  1
  B  B15  1  0.500000  0.248678  0.080236  1
  B  B16  1  0.500000  0.751412  0.919722  1
  B  B17  1  0.500000  0.791388  0.266190  1
  B  B18  1  0.500000  0.208923  0.733738  1
  B  B19  1  0.500000  0.291446  0.233070  1
  B  B20  1  0.500000  0.708912  0.766378  1
  B  B21  1  0.500000  0.631429  0.185567  1
  B  B22  1  0.500000  0.368409  0.814863  1
  B  B23  1  0.500000  0.131757  0.314032  1
  B  B24  1  0.500000  0.868494  0.685518  1
  B  B25  1  0.500000  0.982945  0.212675  1
  B  B26  1  0.500000  0.016986  0.787630  1
  B  B27  1  0.500000  0.482287  0.287091  1
  B  B28  1  0.500000  0.516963  0.712993  1
  B  B29  1  0.500000  0.606636  0.029156  1
  B  B30  1  0.500000  0.393185  0.970215  1
  B  B31  1  0.500000  0.107789  0.470251  1
  B  B32  1  0.500000  0.893224  0.530080  1
  Os  Os33  1  0.000000  0.362112  0.679553  1
  Os  Os34  1  0.000000  0.137787  0.178044  1
  Os  Os35  1  0.000000  0.862273  0.821479  1
