# generated using pymatgen
data_Dy3Al12CoOs3
_symmetry_space_group_name_H-M   'P 1'
_cell_length_a   8.76704700
_cell_length_b   8.76704725
_cell_length_c   9.51439700
_cell_angle_alpha   90.00000000
_cell_angle_beta   90.00000000
_cell_angle_gamma   119.99999527
_symmetry_Int_Tables_number   1
_chemical_formula_structural   Dy3Al12CoOs3
_chemical_formula_sum   'Dy6 Al24 Co2 Os6'
_cell_volume   633.31329261
_cell_formula_units_Z   2
loop_
 _symmetry_equiv_pos_site_id
 _symmetry_equiv_pos_as_xyz
  1  'x, y, z'
loop_
 _atom_site_type_symbol
 _atom_site_label
 _atom_site_symmetry_multiplicity
 _atom_site_fract_x
 _atom_site_fract_y
 _atom_site_fract_z
 _atom_site_occupancy
  Dy  Dy0  1  0.193674  0.387349  0.250000  1
  Dy  Dy1  1  0.806326  0.612651  0.750000  1
  Dy  Dy2  1  0.612651  0.806326  0.250000  1
  Dy  Dy3  1  0.387349  0.193674  0.750000  1
  Dy  Dy4  1  0.193674  0.806326  0.250000  1
  Dy  Dy5  1  0.806326  0.193674  0.750000  1
  Al  Al6  1  0.333333  0.666667  0.015946  1
  Al  Al7  1  0.666667  0.333333  0.984054  1
  Al  Al8  1  0.666667  0.333333  0.515946  1
  Al  Al9  1  0.333333  0.666667  0.484054  1
  Al  Al10  1  0.159803  0.319608  0.575616  1
  Al  Al11  1  0.840197  0.680392  0.424384  1
  Al  Al12  1  0.680392  0.840197  0.575616  1
  Al  Al13  1  0.840197  0.680392  0.075616  1
  Al  Al14  1  0.319608  0.159803  0.424384  1
  Al  Al15  1  0.159803  0.319608  0.924384  1
  Al  Al16  1  0.159803  0.840197  0.575616  1
  Al  Al17  1  0.319608  0.159803  0.075616  1
  Al  Al18  1  0.840197  0.159803  0.424384  1
  Al  Al19  1  0.680392  0.840197  0.924384  1
  Al  Al20  1  0.840197  0.159803  0.075616  1
  Al  Al21  1  0.159803  0.840197  0.924384  1
  Al  Al22  1  0.561521  0.123042  0.250000  1
  Al  Al23  1  0.438479  0.876958  0.750000  1
  Al  Al24  1  0.876958  0.438479  0.250000  1
  Al  Al25  1  0.123042  0.561521  0.750000  1
  Al  Al26  1  0.561521  0.438479  0.250000  1
  Al  Al27  1  0.438479  0.561521  0.750000  1
  Al  Al28  1  0.000000  0.000000  0.250000  1
  Al  Al29  1  0.000000  0.000000  0.750000  1
  Co  Co30  1  0.000000  0.000000  0.000000  1
  Co  Co31  1  0.000000  0.000000  0.500000  1
  Os  Os32  1  0.500000  0.000000  0.000000  1
  Os  Os33  1  0.000000  0.500000  0.000000  1
  Os  Os34  1  0.500000  0.000000  0.500000  1
  Os  Os35  1  0.500000  0.500000  0.000000  1
  Os  Os36  1  0.000000  0.500000  0.500000  1
  Os  Os37  1  0.500000  0.500000  0.500000  1
