# generated using pymatgen
data_CdBi2Ru4PbO14
_symmetry_space_group_name_H-M   'P 1'
_cell_length_a   7.36739775
_cell_length_b   7.30430659
_cell_length_c   7.30430596
_cell_angle_alpha   119.03566240
_cell_angle_beta   120.59140719
_cell_angle_gamma   90.07601282
_symmetry_Int_Tables_number   1
_chemical_formula_structural   CdBi2Ru4PbO14
_chemical_formula_sum   'Cd1 Bi2 Ru4 Pb1 O14'
_cell_volume   279.27000465
_cell_formula_units_Z   1
loop_
 _symmetry_equiv_pos_site_id
 _symmetry_equiv_pos_as_xyz
  1  'x, y, z'
loop_
 _atom_site_type_symbol
 _atom_site_label
 _atom_site_symmetry_multiplicity
 _atom_site_fract_x
 _atom_site_fract_y
 _atom_site_fract_z
 _atom_site_occupancy
  Cd  Cd0  1  0.500000  0.500000  0.000000  1
  Bi  Bi1  1  0.500000  0.500000  0.500000  1
  Bi  Bi2  1  0.500000  0.000000  0.000000  1
  Ru  Ru3  1  0.000000  0.000000  0.500000  1
  Ru  Ru4  1  0.000000  0.500000  0.000000  1
  Ru  Ru5  1  0.000000  0.000000  0.000000  1
  Ru  Ru6  1  0.500000  0.000000  0.500000  1
  Pb  Pb7  1  0.000000  0.500000  0.500000  1
  O  O8  1  0.321164  0.058225  0.641517  1
  O  O9  1  0.917715  0.069877  0.241432  1
  O  O10  1  0.924437  0.674549  0.249888  1
  O  O11  1  0.917715  0.676283  0.847838  1
  O  O12  1  0.321164  0.679645  0.262938  1
  O  O13  1  0.327315  0.078327  0.248989  1
  O  O14  1  0.678836  0.941775  0.358483  1
  O  O15  1  0.082285  0.930123  0.758568  1
  O  O16  1  0.075563  0.325451  0.750112  1
  O  O17  1  0.082285  0.323717  0.152162  1
  O  O18  1  0.678836  0.320355  0.737062  1
  O  O19  1  0.672685  0.921673  0.751011  1
  O  O20  1  0.606985  0.375343  0.231641  1
  O  O21  1  0.393015  0.624657  0.768359  1
