# generated using pymatgen
data_Y6Ho4(TlSb)3
_symmetry_space_group_name_H-M   'P 1'
_cell_length_a   6.39307200
_cell_length_b   8.99231609
_cell_length_c   8.99175000
_cell_angle_alpha   120.00201558
_cell_angle_beta   89.99927406
_cell_angle_gamma   90.00184121
_symmetry_Int_Tables_number   1
_chemical_formula_structural   Y6Ho4(TlSb)3
_chemical_formula_sum   'Y6 Ho4 Tl3 Sb3'
_cell_volume   447.65887017
_cell_formula_units_Z   1
loop_
 _symmetry_equiv_pos_site_id
 _symmetry_equiv_pos_as_xyz
  1  'x, y, z'
loop_
 _atom_site_type_symbol
 _atom_site_label
 _atom_site_symmetry_multiplicity
 _atom_site_fract_x
 _atom_site_fract_y
 _atom_site_fract_z
 _atom_site_occupancy
  Y  Y0  1  0.750002  0.240594  0.000015  1
  Y  Y1  1  0.749999  0.759440  0.759406  1
  Y  Y2  1  0.750003  0.000044  0.240592  1
  Y  Y3  1  0.250002  0.758866  0.999984  1
  Y  Y4  1  0.250006  0.241091  0.241082  1
  Y  Y5  1  0.250003  0.999997  0.758872  1
  Ho  Ho6  1  0.500386  0.333304  0.666640  1
  Ho  Ho7  1  0.500389  0.666659  0.333352  1
  Ho  Ho8  1  0.999609  0.666656  0.333358  1
  Ho  Ho9  1  0.999612  0.333304  0.666630  1
  Tl  Tl10  1  0.750009  0.606986  0.000000  1
  Tl  Tl11  1  0.749991  0.393004  0.393010  1
  Tl  Tl12  1  0.749995  0.999997  0.606996  1
  Sb  Sb13  1  0.249998  0.392307  0.000024  1
  Sb  Sb14  1  0.250000  0.607623  0.607518  1
  Sb  Sb15  1  0.250001  0.000126  0.392519  1
