# generated using pymatgen
data_TbYbCuPt3
_symmetry_space_group_name_H-M   'P 1'
_cell_length_a   5.50488607
_cell_length_b   5.50488461
_cell_length_c   5.22493415
_cell_angle_alpha   58.21117496
_cell_angle_beta   58.21118755
_cell_angle_gamma   59.99999536
_symmetry_Int_Tables_number   1
_chemical_formula_structural   TbYbCuPt3
_chemical_formula_sum   'Tb1 Yb1 Cu1 Pt3'
_cell_volume   108.83654892
_cell_formula_units_Z   1
loop_
 _symmetry_equiv_pos_site_id
 _symmetry_equiv_pos_as_xyz
  1  'x, y, z'
loop_
 _atom_site_type_symbol
 _atom_site_label
 _atom_site_symmetry_multiplicity
 _atom_site_fract_x
 _atom_site_fract_y
 _atom_site_fract_z
 _atom_site_occupancy
  Tb  Tb0  1  0.000579  0.000579  0.998264  1
  Yb  Yb1  1  0.252462  0.252462  0.242615  1
  Cu  Cu2  1  0.623823  0.623823  0.128532  1
  Pt  Pt3  1  0.624057  0.125024  0.626863  1
  Pt  Pt4  1  0.125024  0.624057  0.626863  1
  Pt  Pt5  1  0.624057  0.624057  0.626863  1
