# generated using pymatgen
data_Sr5TlPt2
_symmetry_space_group_name_H-M   'P 1'
_cell_length_a   8.31284457
_cell_length_b   8.31277029
_cell_length_c   9.69933800
_cell_angle_alpha   115.38650139
_cell_angle_beta   115.37408299
_cell_angle_gamma   90.00000762
_symmetry_Int_Tables_number   1
_chemical_formula_structural   Sr5TlPt2
_chemical_formula_sum   'Sr10 Tl2 Pt4'
_cell_volume   533.07602609
_cell_formula_units_Z   2
loop_
 _symmetry_equiv_pos_site_id
 _symmetry_equiv_pos_as_xyz
  1  'x, y, z'
loop_
 _atom_site_type_symbol
 _atom_site_label
 _atom_site_symmetry_multiplicity
 _atom_site_fract_x
 _atom_site_fract_y
 _atom_site_fract_z
 _atom_site_occupancy
  Sr  Sr0  1  0.000000  0.000000  0.000000  1
  Sr  Sr1  1  0.500000  0.500000  0.000000  1
  Sr  Sr2  1  0.465535  0.299331  0.264890  1
  Sr  Sr3  1  0.965515  0.465508  0.264843  1
  Sr  Sr4  1  0.299356  0.799331  0.264890  1
  Sr  Sr5  1  0.799328  0.965507  0.264843  1
  Sr  Sr6  1  0.200672  0.034493  0.735157  1
  Sr  Sr7  1  0.700645  0.200669  0.735110  1
  Sr  Sr8  1  0.034485  0.534494  0.735157  1
  Sr  Sr9  1  0.534467  0.700670  0.735110  1
  Tl  Tl10  1  0.249862  0.250000  0.500000  1
  Tl  Tl11  1  0.750138  0.750000  0.500000  1
  Pt  Pt12  1  0.627652  0.127655  0.999867  1
  Pt  Pt13  1  0.127787  0.372345  0.000133  1
  Pt  Pt14  1  0.872214  0.627654  0.999867  1
  Pt  Pt15  1  0.372347  0.872346  0.000133  1
