# generated using pymatgen
data_HoEr3(TcB6)2
_symmetry_space_group_name_H-M   'P 1'
_cell_length_a   3.66244800
_cell_length_b   9.12175900
_cell_length_c   11.49271801
_cell_angle_alpha   89.99748547
_cell_angle_beta   90.00000000
_cell_angle_gamma   90.00000000
_symmetry_Int_Tables_number   1
_chemical_formula_structural   HoEr3(TcB6)2
_chemical_formula_sum   'Ho2 Er6 Tc4 B24'
_cell_volume   383.94835522
_cell_formula_units_Z   2
loop_
 _symmetry_equiv_pos_site_id
 _symmetry_equiv_pos_as_xyz
  1  'x, y, z'
loop_
 _atom_site_type_symbol
 _atom_site_label
 _atom_site_symmetry_multiplicity
 _atom_site_fract_x
 _atom_site_fract_y
 _atom_site_fract_z
 _atom_site_occupancy
  Ho  Ho0  1  0.500000  0.324009  0.414108  1
  Ho  Ho1  1  0.500000  0.675991  0.585892  1
  Er  Er2  1  0.500000  0.175871  0.914245  1
  Er  Er3  1  0.500000  0.824129  0.085755  1
  Er  Er4  1  0.500000  0.443057  0.130269  1
  Er  Er5  1  0.500000  0.556943  0.869731  1
  Er  Er6  1  0.500000  0.056916  0.630643  1
  Er  Er7  1  0.500000  0.943084  0.369357  1
  Tc  Tc8  1  0.500000  0.139042  0.179436  1
  Tc  Tc9  1  0.500000  0.860958  0.820564  1
  Tc  Tc10  1  0.500000  0.360696  0.679857  1
  Tc  Tc11  1  0.500000  0.639304  0.320143  1
  B  B12  1  0.000000  0.099942  0.472162  1
  B  B13  1  0.000000  0.900058  0.527838  1
  B  B14  1  0.000000  0.399480  0.972033  1
  B  B15  1  0.000000  0.600520  0.027967  1
  B  B16  1  0.000000  0.130907  0.314722  1
  B  B17  1  0.000000  0.869093  0.685278  1
  B  B18  1  0.000000  0.368812  0.815146  1
  B  B19  1  0.000000  0.631188  0.184854  1
  B  B20  1  0.000000  0.053244  0.066804  1
  B  B21  1  0.000000  0.946756  0.933196  1
  B  B22  1  0.000000  0.446586  0.567145  1
  B  B23  1  0.000000  0.553414  0.432855  1
  B  B24  1  0.000000  0.482179  0.287871  1
  B  B25  1  0.000000  0.517821  0.712129  1
  B  B26  1  0.000000  0.018063  0.788324  1
  B  B27  1  0.000000  0.981937  0.211676  1
  B  B28  1  0.000000  0.249312  0.080868  1
  B  B29  1  0.000000  0.750688  0.919132  1
  B  B30  1  0.000000  0.250494  0.581321  1
  B  B31  1  0.000000  0.749506  0.418679  1
  B  B32  1  0.000000  0.292499  0.234595  1
  B  B33  1  0.000000  0.707501  0.765405  1
  B  B34  1  0.000000  0.207314  0.735105  1
  B  B35  1  0.000000  0.792686  0.264895  1
