# generated using pymatgen
data_Yb2U2Ge6Ru7
_symmetry_space_group_name_H-M   'P 1'
_cell_length_a   7.13767463
_cell_length_b   7.13767384
_cell_length_c   7.23650122
_cell_angle_alpha   109.24533148
_cell_angle_beta   109.24533729
_cell_angle_gamma   109.36865808
_symmetry_Int_Tables_number   1
_chemical_formula_structural   Yb2U2Ge6Ru7
_chemical_formula_sum   'Yb2 U2 Ge6 Ru7'
_cell_volume   285.72985238
_cell_formula_units_Z   1
loop_
 _symmetry_equiv_pos_site_id
 _symmetry_equiv_pos_as_xyz
  1  'x, y, z'
loop_
 _atom_site_type_symbol
 _atom_site_label
 _atom_site_symmetry_multiplicity
 _atom_site_fract_x
 _atom_site_fract_y
 _atom_site_fract_z
 _atom_site_occupancy
  Yb  Yb0  1  0.000000  0.500000  0.000000  1
  Yb  Yb1  1  0.500000  0.000000  0.000000  1
  U  U2  1  0.000000  0.000000  0.500000  1
  U  U3  1  0.500000  0.500000  0.500000  1
  Ge  Ge4  1  0.686595  0.686595  0.000000  1
  Ge  Ge5  1  0.309816  0.993279  0.303094  1
  Ge  Ge6  1  0.993279  0.309816  0.303094  1
  Ge  Ge7  1  0.313405  0.313405  0.000000  1
  Ge  Ge8  1  0.690183  0.006721  0.696906  1
  Ge  Ge9  1  0.006721  0.690184  0.696906  1
  Ru  Ru10  1  0.750000  0.250000  0.500000  1
  Ru  Ru11  1  0.753706  0.514470  0.268177  1
  Ru  Ru12  1  0.485530  0.246294  0.731823  1
  Ru  Ru13  1  0.246294  0.485530  0.731823  1
  Ru  Ru14  1  0.250000  0.750000  0.500000  1
  Ru  Ru15  1  0.514470  0.753706  0.268177  1
  Ru  Ru16  1  0.000000  0.000000  0.000000  1
