# generated using pymatgen
data_RbDy2Ho8(C2Br9)2
_symmetry_space_group_name_H-M   'P 1'
_cell_length_a   10.68158570
_cell_length_b   10.73809780
_cell_length_c   10.82911800
_cell_angle_alpha   113.45935657
_cell_angle_beta   87.37543237
_cell_angle_gamma   119.07920382
_symmetry_Int_Tables_number   1
_chemical_formula_structural   RbDy2Ho8(C2Br9)2
_chemical_formula_sum   'Rb1 Dy2 Ho8 C4 Br18'
_cell_volume   978.76035193
_cell_formula_units_Z   1
loop_
 _symmetry_equiv_pos_site_id
 _symmetry_equiv_pos_as_xyz
  1  'x, y, z'
loop_
 _atom_site_type_symbol
 _atom_site_label
 _atom_site_symmetry_multiplicity
 _atom_site_fract_x
 _atom_site_fract_y
 _atom_site_fract_z
 _atom_site_occupancy
  Rb  Rb0  1  0.499960  0.999001  0.499967  1
  Dy  Dy1  1  0.717345  0.634161  0.988178  1
  Dy  Dy2  1  0.888087  0.058355  0.999137  1
  Ho  Ho3  1  0.664314  0.717174  0.703185  1
  Ho  Ho4  1  0.282196  0.364013  0.011834  1
  Ho  Ho5  1  0.093971  0.405851  0.300539  1
  Ho  Ho6  1  0.959626  0.036634  0.333556  1
  Ho  Ho7  1  0.906513  0.594123  0.698955  1
  Ho  Ho8  1  0.110135  0.942156  0.001198  1
  Ho  Ho9  1  0.040688  0.963649  0.666900  1
  Ho  Ho10  1  0.335356  0.282280  0.297081  1
  C  C11  1  0.156988  0.227701  0.122975  1
  C  C12  1  0.842988  0.771623  0.876764  1
  C  C13  1  0.922551  0.851706  0.795840  1
  C  C14  1  0.077333  0.148032  0.204283  1
  Br  Br15  1  0.450954  0.530422  0.832933  1
  Br  Br16  1  0.381347  0.039644  0.158989  1
  Br  Br17  1  0.778915  0.857501  0.501578  1
  Br  Br18  1  0.839473  0.312886  0.155574  1
  Br  Br19  1  0.547553  0.468768  0.167406  1
  Br  Br20  1  0.221717  0.143124  0.498987  1
  Br  Br21  1  0.315234  0.100102  0.828278  1
  Br  Br22  1  0.684637  0.900481  0.173091  1
  Br  Br23  1  0.974752  0.761206  0.173781  1
  Br  Br24  1  0.933737  0.302825  0.501123  1
  Br  Br25  1  0.027323  0.240157  0.826443  1
  Br  Br26  1  0.067903  0.698566  0.499246  1
  Br  Br27  1  0.261104  0.623686  0.187504  1
  Br  Br28  1  0.740011  0.374624  0.810470  1
  Br  Br29  1  0.639059  0.433642  0.499384  1
  Br  Br30  1  0.160998  0.690405  0.845778  1
  Br  Br31  1  0.616326  0.959073  0.838702  1
  Br  Br32  1  0.360899  0.566426  0.500337  1
