# generated using pymatgen
data_Lu6P13Rh20
_symmetry_space_group_name_H-M   'P 1'
_cell_length_a   13.29893700
_cell_length_b   13.29893600
_cell_length_c   3.88751700
_cell_angle_alpha   90.00000000
_cell_angle_beta   90.00000000
_cell_angle_gamma   119.99999502
_symmetry_Int_Tables_number   1
_chemical_formula_structural   Lu6P13Rh20
_chemical_formula_sum   'Lu6 P13 Rh20'
_cell_volume   595.43831841
_cell_formula_units_Z   1
loop_
 _symmetry_equiv_pos_site_id
 _symmetry_equiv_pos_as_xyz
  1  'x, y, z'
loop_
 _atom_site_type_symbol
 _atom_site_label
 _atom_site_symmetry_multiplicity
 _atom_site_fract_x
 _atom_site_fract_y
 _atom_site_fract_z
 _atom_site_occupancy
  Lu  Lu0  1  0.528643  0.717550  0.248819  1
  Lu  Lu1  1  0.282450  0.811093  0.248819  1
  Lu  Lu2  1  0.188907  0.471357  0.248819  1
  Lu  Lu3  1  0.471357  0.282450  0.751181  1
  Lu  Lu4  1  0.717550  0.188907  0.751181  1
  Lu  Lu5  1  0.811093  0.528643  0.751181  1
  P  P6  1  0.527466  0.140370  0.250302  1
  P  P7  1  0.859630  0.387096  0.250302  1
  P  P8  1  0.612904  0.472534  0.250302  1
  P  P9  1  0.943911  0.713538  0.254244  1
  P  P10  1  0.286462  0.230372  0.254244  1
  P  P11  1  0.769628  0.056089  0.254244  1
  P  P12  1  0.387096  0.527466  0.749698  1
  P  P13  1  0.472534  0.859630  0.749698  1
  P  P14  1  0.140370  0.612904  0.749698  1
  P  P15  1  0.713538  0.769628  0.745756  1
  P  P16  1  0.230372  0.943911  0.745756  1
  P  P17  1  0.056089  0.286462  0.745756  1
  P  P18  1  0.000000  0.000000  0.000000  1
  Rh  Rh19  1  0.333333  0.666667  0.752245  1
  Rh  Rh20  1  0.919970  0.250620  0.252892  1
  Rh  Rh21  1  0.749380  0.669350  0.252892  1
  Rh  Rh22  1  0.330650  0.080030  0.252892  1
  Rh  Rh23  1  0.437561  0.020905  0.751302  1
  Rh  Rh24  1  0.979095  0.416656  0.751302  1
  Rh  Rh25  1  0.583344  0.562439  0.751302  1
  Rh  Rh26  1  0.666667  0.333333  0.247755  1
  Rh  Rh27  1  0.094491  0.187668  0.248245  1
  Rh  Rh28  1  0.812332  0.906823  0.248245  1
  Rh  Rh29  1  0.093177  0.905509  0.248245  1
  Rh  Rh30  1  0.020905  0.583344  0.248698  1
  Rh  Rh31  1  0.416656  0.437561  0.248698  1
  Rh  Rh32  1  0.562439  0.979095  0.248698  1
  Rh  Rh33  1  0.669350  0.919970  0.747108  1
  Rh  Rh34  1  0.080030  0.749380  0.747108  1
  Rh  Rh35  1  0.250620  0.330650  0.747108  1
  Rh  Rh36  1  0.905509  0.812332  0.751755  1
  Rh  Rh37  1  0.187668  0.093177  0.751755  1
  Rh  Rh38  1  0.906823  0.094491  0.751755  1
