# generated using pymatgen
data_Tb15Dy2Ho3Pb16
_symmetry_space_group_name_H-M   'P 1'
_cell_length_a   8.22218845
_cell_length_b   15.70608101
_cell_length_c   8.31277303
_cell_angle_alpha   90.00344500
_cell_angle_beta   90.02373732
_cell_angle_gamma   89.99945771
_symmetry_Int_Tables_number   1
_chemical_formula_structural   Tb15Dy2Ho3Pb16
_chemical_formula_sum   'Tb15 Dy2 Ho3 Pb16'
_cell_volume   1073.49776444
_cell_formula_units_Z   1
loop_
 _symmetry_equiv_pos_site_id
 _symmetry_equiv_pos_as_xyz
  1  'x, y, z'
loop_
 _atom_site_type_symbol
 _atom_site_label
 _atom_site_symmetry_multiplicity
 _atom_site_fract_x
 _atom_site_fract_y
 _atom_site_fract_z
 _atom_site_occupancy
  Tb  Tb0  1  0.122957  0.879758  0.340388  1
  Tb  Tb1  1  0.377183  0.120259  0.840513  1
  Tb  Tb2  1  0.877173  0.379722  0.659495  1
  Tb  Tb3  1  0.377164  0.379717  0.840468  1
  Tb  Tb4  1  0.877199  0.120308  0.659505  1
  Tb  Tb5  1  0.622712  0.879738  0.159459  1
  Tb  Tb6  1  0.122918  0.620220  0.340403  1
  Tb  Tb7  1  0.466429  0.600155  0.677106  1
  Tb  Tb8  1  0.966554  0.899824  0.823120  1
  Tb  Tb9  1  0.533501  0.100210  0.323010  1
  Tb  Tb10  1  0.033515  0.399817  0.177023  1
  Tb  Tb11  1  0.533534  0.399849  0.322984  1
  Tb  Tb12  1  0.033491  0.100175  0.176986  1
  Tb  Tb13  1  0.466426  0.899827  0.677065  1
  Tb  Tb14  1  0.966513  0.600180  0.823145  1
  Dy  Dy15  1  0.622768  0.620278  0.159418  1
  Dy  Dy16  1  0.791188  0.749958  0.496568  1
  Ho  Ho17  1  0.291133  0.749930  0.003487  1
  Ho  Ho18  1  0.208899  0.250023  0.503423  1
  Ho  Ho19  1  0.708916  0.250038  0.996639  1
  Pb  Pb20  1  0.718821  0.457290  0.967366  1
  Pb  Pb21  1  0.218886  0.042844  0.532762  1
  Pb  Pb22  1  0.281108  0.957228  0.032777  1
  Pb  Pb23  1  0.780946  0.542660  0.466913  1
  Pb  Pb24  1  0.281351  0.542819  0.032849  1
  Pb  Pb25  1  0.781095  0.957377  0.467156  1
  Pb  Pb26  1  0.718892  0.042847  0.967200  1
  Pb  Pb27  1  0.218891  0.457145  0.532764  1
  Pb  Pb28  1  0.427382  0.749937  0.372868  1
  Pb  Pb29  1  0.927577  0.749942  0.126608  1
  Pb  Pb30  1  0.572355  0.249996  0.626852  1
  Pb  Pb31  1  0.072350  0.249992  0.873158  1
  Pb  Pb32  1  0.654836  0.749949  0.848786  1
  Pb  Pb33  1  0.155115  0.750000  0.651848  1
  Pb  Pb34  1  0.345081  0.249995  0.151697  1
  Pb  Pb35  1  0.845140  0.249994  0.348192  1
