# generated using pymatgen
data_Tb4Sm4Re3TcB24
_symmetry_space_group_name_H-M   'P 1'
_cell_length_a   3.72841600
_cell_length_b   9.24069589
_cell_length_c   11.66319100
_cell_angle_alpha   90.02461140
_cell_angle_beta   90.00000000
_cell_angle_gamma   90.00000000
_symmetry_Int_Tables_number   1
_chemical_formula_structural   Tb4Sm4Re3TcB24
_chemical_formula_sum   'Tb4 Sm4 Re3 Tc1 B24'
_cell_volume   401.83373021
_cell_formula_units_Z   1
loop_
 _symmetry_equiv_pos_site_id
 _symmetry_equiv_pos_as_xyz
  1  'x, y, z'
loop_
 _atom_site_type_symbol
 _atom_site_label
 _atom_site_symmetry_multiplicity
 _atom_site_fract_x
 _atom_site_fract_y
 _atom_site_fract_z
 _atom_site_occupancy
  Tb  Tb0  1  0.000000  0.941679  0.369231  1
  Tb  Tb1  1  0.000000  0.057186  0.630208  1
  Tb  Tb2  1  0.000000  0.443295  0.131153  1
  Tb  Tb3  1  0.000000  0.557261  0.869806  1
  Sm  Sm4  1  0.000000  0.323576  0.413836  1
  Sm  Sm5  1  0.000000  0.676670  0.586015  1
  Sm  Sm6  1  0.000000  0.823460  0.086000  1
  Sm  Sm7  1  0.000000  0.176792  0.913902  1
  Re  Re8  1  0.000000  0.361313  0.679876  1
  Re  Re9  1  0.000000  0.138875  0.179907  1
  Re  Re10  1  0.000000  0.861251  0.820099  1
  Tc  Tc11  1  0.000000  0.638896  0.320064  1
  B  B12  1  0.500000  0.554148  0.431493  1
  B  B13  1  0.500000  0.445982  0.568348  1
  B  B14  1  0.500000  0.054170  0.068298  1
  B  B15  1  0.500000  0.946079  0.931548  1
  B  B16  1  0.500000  0.748053  0.416872  1
  B  B17  1  0.500000  0.251567  0.582939  1
  B  B18  1  0.500000  0.248652  0.083039  1
  B  B19  1  0.500000  0.751717  0.916995  1
  B  B20  1  0.500000  0.790623  0.266149  1
  B  B21  1  0.500000  0.209000  0.733669  1
  B  B22  1  0.500000  0.290882  0.233914  1
  B  B23  1  0.500000  0.709035  0.766291  1
  B  B24  1  0.500000  0.630528  0.186740  1
  B  B25  1  0.500000  0.369690  0.813397  1
  B  B26  1  0.500000  0.130095  0.313440  1
  B  B27  1  0.500000  0.869609  0.686550  1
  B  B28  1  0.500000  0.983634  0.212185  1
  B  B29  1  0.500000  0.016292  0.787567  1
  B  B30  1  0.500000  0.483955  0.287862  1
  B  B31  1  0.500000  0.516377  0.712395  1
  B  B32  1  0.500000  0.599058  0.027841  1
  B  B33  1  0.500000  0.401243  0.972626  1
  B  B34  1  0.500000  0.098468  0.472122  1
  B  B35  1  0.500000  0.900892  0.527623  1
