# generated using pymatgen
data_Li8ErSc7SnPb7
_symmetry_space_group_name_H-M   'P 1'
_cell_length_a   9.30981379
_cell_length_b   9.30951824
_cell_length_c   6.86096445
_cell_angle_alpha   89.82310873
_cell_angle_beta   89.91804131
_cell_angle_gamma   120.01757683
_symmetry_Int_Tables_number   1
_chemical_formula_structural   Li8ErSc7SnPb7
_chemical_formula_sum   'Li8 Er1 Sc7 Sn1 Pb7'
_cell_volume   514.87573101
_cell_formula_units_Z   1
loop_
 _symmetry_equiv_pos_site_id
 _symmetry_equiv_pos_as_xyz
  1  'x, y, z'
loop_
 _atom_site_type_symbol
 _atom_site_label
 _atom_site_symmetry_multiplicity
 _atom_site_fract_x
 _atom_site_fract_y
 _atom_site_fract_z
 _atom_site_occupancy
  Li  Li0  1  0.165952  0.332268  0.215779  1
  Li  Li1  1  0.166472  0.834548  0.213937  1
  Li  Li2  1  0.666811  0.834287  0.209356  1
  Li  Li3  1  0.666585  0.331538  0.290046  1
  Li  Li4  1  0.834990  0.668685  0.728737  1
  Li  Li5  1  0.332219  0.164410  0.724098  1
  Li  Li6  1  0.832862  0.165946  0.720858  1
  Li  Li7  1  0.334312  0.667969  0.801186  1
  Er  Er8  1  0.494579  0.510954  0.506266  1
  Sc  Sc9  1  0.997595  0.998894  0.998176  1
  Sc  Sc10  1  0.508595  0.012950  0.004632  1
  Sc  Sc11  1  0.508393  0.495305  0.004693  1
  Sc  Sc12  1  0.985923  0.492368  0.005659  1
  Sc  Sc13  1  0.996309  0.997589  0.500001  1
  Sc  Sc14  1  0.494369  0.983483  0.506399  1
  Sc  Sc15  1  0.014434  0.507758  0.505577  1
  Sn  Sn16  1  0.668573  0.836987  0.772256  1
  Pb  Pb17  1  0.330318  0.668449  0.250752  1
  Pb  Pb18  1  0.836083  0.667464  0.264673  1
  Pb  Pb19  1  0.331851  0.163953  0.266070  1
  Pb  Pb20  1  0.833671  0.166775  0.271100  1
  Pb  Pb21  1  0.667704  0.332362  0.759724  1
  Pb  Pb22  1  0.164293  0.331856  0.772430  1
  Pb  Pb23  1  0.167106  0.833200  0.765580  1
