# generated using pymatgen
data_Tb3DyErPb3
_symmetry_space_group_name_H-M   'P 1'
_cell_length_a   9.08459300
_cell_length_b   9.08459384
_cell_length_c   6.65536500
_cell_angle_alpha   90.00000000
_cell_angle_beta   90.00000000
_cell_angle_gamma   120.00000059
_symmetry_Int_Tables_number   1
_chemical_formula_structural   Tb3DyErPb3
_chemical_formula_sum   'Tb6 Dy2 Er2 Pb6'
_cell_volume   475.67847335
_cell_formula_units_Z   2
loop_
 _symmetry_equiv_pos_site_id
 _symmetry_equiv_pos_as_xyz
  1  'x, y, z'
loop_
 _atom_site_type_symbol
 _atom_site_label
 _atom_site_symmetry_multiplicity
 _atom_site_fract_x
 _atom_site_fract_y
 _atom_site_fract_z
 _atom_site_occupancy
  Tb  Tb0  1  0.760785  0.760785  0.749840  1
  Tb  Tb1  1  0.239215  0.000000  0.749840  1
  Tb  Tb2  1  0.000000  0.239215  0.749840  1
  Tb  Tb3  1  0.239215  0.239215  0.250160  1
  Tb  Tb4  1  0.760785  0.000000  0.250160  1
  Tb  Tb5  1  0.000000  0.760785  0.250160  1
  Dy  Dy6  1  0.666667  0.333333  0.000000  1
  Dy  Dy7  1  0.333333  0.666667  0.000000  1
  Er  Er8  1  0.333333  0.666667  0.500000  1
  Er  Er9  1  0.666667  0.333333  0.500000  1
  Pb  Pb10  1  0.394635  0.394635  0.749521  1
  Pb  Pb11  1  0.605365  0.000000  0.749521  1
  Pb  Pb12  1  0.000000  0.605365  0.749521  1
  Pb  Pb13  1  0.605365  0.605365  0.250479  1
  Pb  Pb14  1  0.394635  0.000000  0.250479  1
  Pb  Pb15  1  0.000000  0.394635  0.250479  1
