# generated using pymatgen
data_Zn20Pd3PtAu2
_symmetry_space_group_name_H-M   'P 1'
_cell_length_a   7.99867759
_cell_length_b   7.99867777
_cell_length_c   7.94728306
_cell_angle_alpha   70.77461525
_cell_angle_beta   70.77461291
_cell_angle_gamma   109.47895839
_symmetry_Int_Tables_number   1
_chemical_formula_structural   Zn20Pd3PtAu2
_chemical_formula_sum   'Zn20 Pd3 Pt1 Au2'
_cell_volume   393.72950875
_cell_formula_units_Z   1
loop_
 _symmetry_equiv_pos_site_id
 _symmetry_equiv_pos_as_xyz
  1  'x, y, z'
loop_
 _atom_site_type_symbol
 _atom_site_label
 _atom_site_symmetry_multiplicity
 _atom_site_fract_x
 _atom_site_fract_y
 _atom_site_fract_z
 _atom_site_occupancy
  Zn  Zn0  1  0.001450  0.001450  0.789482  1
  Zn  Zn1  1  0.774143  0.774143  0.225075  1
  Zn  Zn2  1  0.217582  0.000344  0.998007  1
  Zn  Zn3  1  0.000344  0.217582  0.998007  1
  Zn  Zn4  1  0.268303  0.268303  0.386906  1
  Zn  Zn5  1  0.003816  0.733192  0.649768  1
  Zn  Zn6  1  0.733192  0.003816  0.649768  1
  Zn  Zn7  1  0.652009  0.652009  0.629655  1
  Zn  Zn8  1  0.378943  0.645567  0.348168  1
  Zn  Zn9  1  0.645567  0.378943  0.348168  1
  Zn  Zn10  1  0.351661  0.730825  0.989904  1
  Zn  Zn11  1  0.612971  0.260629  0.733587  1
  Zn  Zn12  1  0.353392  0.006216  0.270821  1
  Zn  Zn13  1  0.730825  0.351661  0.989904  1
  Zn  Zn14  1  0.006216  0.353392  0.270821  1
  Zn  Zn15  1  0.260629  0.612971  0.733587  1
  Zn  Zn16  1  0.645395  0.645395  0.993599  1
  Zn  Zn17  1  0.003734  0.653895  0.348452  1
  Zn  Zn18  1  0.653895  0.003734  0.348452  1
  Zn  Zn19  1  0.356555  0.356555  0.005707  1
  Pd  Pd20  1  0.357053  0.357053  0.657236  1
  Pd  Pd21  1  0.643071  0.987534  0.013128  1
  Pd  Pd22  1  0.987534  0.643071  0.013128  1
  Pt  Pt23  1  0.999633  0.999633  0.345289  1
  Au  Au24  1  0.996638  0.365446  0.631691  1
  Au  Au25  1  0.365446  0.996638  0.631691  1
