# generated using pymatgen
data_Yb12Pr7ErSi16
_symmetry_space_group_name_H-M   'P 1'
_cell_length_a   7.56576884
_cell_length_b   7.97223408
_cell_length_c   15.28991600
_cell_angle_alpha   89.94453137
_cell_angle_beta   89.92295199
_cell_angle_gamma   89.89508271
_symmetry_Int_Tables_number   1
_chemical_formula_structural   Yb12Pr7ErSi16
_chemical_formula_sum   'Yb12 Pr7 Er1 Si16'
_cell_volume   922.22498995
_cell_formula_units_Z   1
loop_
 _symmetry_equiv_pos_site_id
 _symmetry_equiv_pos_as_xyz
  1  'x, y, z'
loop_
 _atom_site_type_symbol
 _atom_site_label
 _atom_site_symmetry_multiplicity
 _atom_site_fract_x
 _atom_site_fract_y
 _atom_site_fract_z
 _atom_site_occupancy
  Yb  Yb0  1  0.647856  0.999387  0.251965  1
  Yb  Yb1  1  0.141907  0.500101  0.252416  1
  Yb  Yb2  1  0.858893  0.498460  0.750414  1
  Yb  Yb3  1  0.352916  0.001840  0.750435  1
  Yb  Yb4  1  0.970401  0.813587  0.400232  1
  Yb  Yb5  1  0.679774  0.818503  0.877242  1
  Yb  Yb6  1  0.180184  0.684442  0.619827  1
  Yb  Yb7  1  0.819858  0.317230  0.123177  1
  Yb  Yb8  1  0.317652  0.178338  0.378840  1
  Yb  Yb9  1  0.319260  0.181106  0.123772  1
  Yb  Yb10  1  0.818693  0.319823  0.378441  1
  Yb  Yb11  1  0.181024  0.681646  0.877202  1
  Pr  Pr12  1  0.971427  0.813187  0.098937  1
  Pr  Pr13  1  0.470441  0.687837  0.399544  1
  Pr  Pr14  1  0.526649  0.316181  0.902309  1
  Pr  Pr15  1  0.027131  0.185986  0.595297  1
  Pr  Pr16  1  0.027097  0.184682  0.901724  1
  Pr  Pr17  1  0.529078  0.316281  0.598300  1
  Pr  Pr18  1  0.469650  0.687213  0.101501  1
  Er  Er19  1  0.680797  0.817016  0.622443  1
  Si  Si20  1  0.752492  0.623848  0.248632  1
  Si  Si21  1  0.256964  0.874802  0.248846  1
  Si  Si22  1  0.742020  0.122384  0.746765  1
  Si  Si23  1  0.248036  0.377698  0.749296  1
  Si  Si24  1  0.029724  0.089711  0.249974  1
  Si  Si25  1  0.526919  0.407575  0.251375  1
  Si  Si26  1  0.474781  0.596161  0.746698  1
  Si  Si27  1  0.966444  0.905766  0.745085  1
  Si  Si28  1  0.859055  0.527195  0.961485  1
  Si  Si29  1  0.367757  0.972199  0.541737  1
  Si  Si30  1  0.641555  0.028764  0.037286  1
  Si  Si31  1  0.140799  0.470090  0.463074  1
  Si  Si32  1  0.142710  0.470186  0.036974  1
  Si  Si33  1  0.648042  0.025751  0.466493  1
  Si  Si34  1  0.358002  0.972977  0.961725  1
  Si  Si35  1  0.854011  0.532050  0.540541  1
