# generated using pymatgen
data_Yb3Er(OsC2)2
_symmetry_space_group_name_H-M   'P 1'
_cell_length_a   5.12596700
_cell_length_b   6.43167564
_cell_length_c   10.12306881
_cell_angle_alpha   90.60471038
_cell_angle_beta   90.00000000
_cell_angle_gamma   90.00000000
_symmetry_Int_Tables_number   1
_chemical_formula_structural   Yb3Er(OsC2)2
_chemical_formula_sum   'Yb6 Er2 Os4 C8'
_cell_volume   333.72438435
_cell_formula_units_Z   2
loop_
 _symmetry_equiv_pos_site_id
 _symmetry_equiv_pos_as_xyz
  1  'x, y, z'
loop_
 _atom_site_type_symbol
 _atom_site_label
 _atom_site_symmetry_multiplicity
 _atom_site_fract_x
 _atom_site_fract_y
 _atom_site_fract_z
 _atom_site_occupancy
  Yb  Yb0  1  0.750000  0.804986  0.051994  1
  Yb  Yb1  1  0.250000  0.195014  0.948006  1
  Yb  Yb2  1  0.250000  0.532433  0.222060  1
  Yb  Yb3  1  0.750000  0.467567  0.777940  1
  Yb  Yb4  1  0.750000  0.969819  0.726909  1
  Yb  Yb5  1  0.250000  0.030181  0.273091  1
  Er  Er6  1  0.250000  0.684117  0.553785  1
  Er  Er7  1  0.750000  0.315883  0.446215  1
  Os  Os8  1  0.250000  0.729504  0.854395  1
  Os  Os9  1  0.750000  0.270496  0.145605  1
  Os  Os10  1  0.750000  0.773168  0.357606  1
  Os  Os11  1  0.250000  0.226832  0.642394  1
  C  C12  1  0.250000  0.466273  0.755331  1
  C  C13  1  0.750000  0.533727  0.244669  1
  C  C14  1  0.750000  0.037060  0.263476  1
  C  C15  1  0.250000  0.962940  0.736524  1
  C  C16  1  0.250000  0.798048  0.032190  1
  C  C17  1  0.750000  0.201952  0.967810  1
  C  C18  1  0.750000  0.684932  0.536578  1
  C  C19  1  0.250000  0.315068  0.463422  1
