# generated using pymatgen
data_VHg12As3O20
_symmetry_space_group_name_H-M   'P 1'
_cell_length_a   9.29918669
_cell_length_b   7.25598536
_cell_length_c   10.77812374
_cell_angle_alpha   57.66996326
_cell_angle_beta   89.87339687
_cell_angle_gamma   89.92562541
_symmetry_Int_Tables_number   1
_chemical_formula_structural   VHg12As3O20
_chemical_formula_sum   'V1 Hg12 As3 O20'
_cell_volume   614.51248528
_cell_formula_units_Z   1
loop_
 _symmetry_equiv_pos_site_id
 _symmetry_equiv_pos_as_xyz
  1  'x, y, z'
loop_
 _atom_site_type_symbol
 _atom_site_label
 _atom_site_symmetry_multiplicity
 _atom_site_fract_x
 _atom_site_fract_y
 _atom_site_fract_z
 _atom_site_occupancy
  V  V0  1  0.240764  0.304428  0.703264  1
  Hg  Hg1  1  0.132677  0.659894  0.338425  1
  Hg  Hg2  1  0.362476  0.650027  0.846883  1
  Hg  Hg3  1  0.863846  0.349338  0.656212  1
  Hg  Hg4  1  0.637399  0.347825  0.156686  1
  Hg  Hg5  1  0.006989  0.772020  0.985946  1
  Hg  Hg6  1  0.491905  0.768540  0.490756  1
  Hg  Hg7  1  0.994280  0.228262  0.012769  1
  Hg  Hg8  1  0.513585  0.231800  0.511357  1
  Hg  Hg9  1  0.368866  0.965362  0.049634  1
  Hg  Hg10  1  0.132723  0.961051  0.551122  1
  Hg  Hg11  1  0.633091  0.036703  0.948772  1
  Hg  Hg12  1  0.868598  0.036028  0.450623  1
  As  As13  1  0.259170  0.297472  0.207338  1
  As  As14  1  0.758286  0.701789  0.294350  1
  As  As15  1  0.740694  0.699396  0.795173  1
  O  O16  1  0.135242  0.862070  0.110534  1
  O  O17  1  0.362897  0.852358  0.618408  1
  O  O18  1  0.866121  0.142102  0.885256  1
  O  O19  1  0.635807  0.139507  0.385713  1
  O  O20  1  0.231631  0.330106  0.853614  1
  O  O21  1  0.265497  0.325163  0.355682  1
  O  O22  1  0.764284  0.673232  0.145963  1
  O  O23  1  0.733846  0.672070  0.646387  1
  O  O24  1  0.175896  0.053804  0.751089  1
  O  O25  1  0.322259  0.048779  0.249060  1
  O  O26  1  0.826453  0.947583  0.252821  1
  O  O27  1  0.678704  0.948629  0.752436  1
  O  O28  1  0.130310  0.518341  0.564420  1
  O  O29  1  0.369658  0.511153  0.075363  1
  O  O30  1  0.863329  0.482221  0.427590  1
  O  O31  1  0.630598  0.486358  0.927444  1
  O  O32  1  0.421752  0.338418  0.641551  1
  O  O33  1  0.083049  0.348947  0.140419  1
  O  O34  1  0.580142  0.661160  0.355790  1
  O  O35  1  0.917177  0.648066  0.861150  1
