# generated using pymatgen
data_La4FeSi2NiI2
_symmetry_space_group_name_H-M   'P 1'
_cell_length_a   4.21587000
_cell_length_b   4.21587128
_cell_length_c   17.63134800
_cell_angle_alpha   90.00000000
_cell_angle_beta   90.00000000
_cell_angle_gamma   119.99998994
_symmetry_Int_Tables_number   1
_chemical_formula_structural   La4FeSi2NiI2
_chemical_formula_sum   'La4 Fe1 Si2 Ni1 I2'
_cell_volume   271.38806620
_cell_formula_units_Z   1
loop_
 _symmetry_equiv_pos_site_id
 _symmetry_equiv_pos_as_xyz
  1  'x, y, z'
loop_
 _atom_site_type_symbol
 _atom_site_label
 _atom_site_symmetry_multiplicity
 _atom_site_fract_x
 _atom_site_fract_y
 _atom_site_fract_z
 _atom_site_occupancy
  La  La0  1  0.000000  0.000000  0.105212  1
  La  La1  1  0.000000  0.000000  0.601199  1
  La  La2  1  0.000000  0.000000  0.893582  1
  La  La3  1  0.000000  0.000000  0.395809  1
  Fe  Fe4  1  0.666667  0.333333  0.501076  1
  Si  Si5  1  0.666667  0.333333  0.994538  1
  Si  Si6  1  0.333333  0.666667  0.498035  1
  Ni  Ni7  1  0.333333  0.666667  0.008611  1
  I  I8  1  0.666667  0.333333  0.248602  1
  I  I9  1  0.333333  0.666667  0.753336  1
