# generated using pymatgen
data_Dy2Tm14CdHg3Rh4
_symmetry_space_group_name_H-M   'P 1'
_cell_length_a   9.52049516
_cell_length_b   9.49395172
_cell_length_c   9.47864771
_cell_angle_alpha   59.82607638
_cell_angle_beta   59.85385443
_cell_angle_gamma   59.90747023
_symmetry_Int_Tables_number   1
_chemical_formula_structural   Dy2Tm14CdHg3Rh4
_chemical_formula_sum   'Dy2 Tm14 Cd1 Hg3 Rh4'
_cell_volume   603.92078148
_cell_formula_units_Z   1
loop_
 _symmetry_equiv_pos_site_id
 _symmetry_equiv_pos_as_xyz
  1  'x, y, z'
loop_
 _atom_site_type_symbol
 _atom_site_label
 _atom_site_symmetry_multiplicity
 _atom_site_fract_x
 _atom_site_fract_y
 _atom_site_fract_z
 _atom_site_occupancy
  Dy  Dy0  1  0.936856  0.937160  0.562822  1
  Dy  Dy1  1  0.563162  0.937160  0.562822  1
  Tm  Tm2  1  0.563371  0.562851  0.937284  1
  Tm  Tm3  1  0.148987  0.555003  0.147026  1
  Tm  Tm4  1  0.688199  0.313178  0.310425  1
  Tm  Tm5  1  0.937318  0.562738  0.562626  1
  Tm  Tm6  1  0.936495  0.562851  0.937284  1
  Tm  Tm7  1  0.688361  0.689570  0.311050  1
  Tm  Tm8  1  0.562428  0.937122  0.938020  1
  Tm  Tm9  1  0.151051  0.149031  0.149014  1
  Tm  Tm10  1  0.311020  0.689570  0.311050  1
  Tm  Tm11  1  0.550903  0.149031  0.149014  1
  Tm  Tm12  1  0.310288  0.313222  0.689364  1
  Tm  Tm13  1  0.311260  0.688248  0.689233  1
  Tm  Tm14  1  0.149955  0.148312  0.551777  1
  Tm  Tm15  1  0.687126  0.313222  0.689364  1
  Cd  Cd16  1  0.919167  0.242368  0.919299  1
  Hg  Hg17  1  0.914301  0.916543  0.915611  1
  Hg  Hg18  1  0.253544  0.916543  0.915611  1
  Hg  Hg19  1  0.915082  0.916244  0.253590  1
  Rh  Rh20  1  0.356966  0.356545  0.929521  1
  Rh  Rh21  1  0.357009  0.357511  0.356114  1
  Rh  Rh22  1  0.929365  0.357511  0.356114  1
  Rh  Rh23  1  0.357785  0.928466  0.355962  1
