# generated using pymatgen
data_Rb2FeGe3O8
_symmetry_space_group_name_H-M   'P 1'
_cell_length_a   5.51461701
_cell_length_b   7.10441197
_cell_length_c   7.16262900
_cell_angle_alpha   79.91850849
_cell_angle_beta   68.30625920
_cell_angle_gamma   68.02926023
_symmetry_Int_Tables_number   1
_chemical_formula_structural   Rb2FeGe3O8
_chemical_formula_sum   'Rb2 Fe1 Ge3 O8'
_cell_volume   241.58643075
_cell_formula_units_Z   1
loop_
 _symmetry_equiv_pos_site_id
 _symmetry_equiv_pos_as_xyz
  1  'x, y, z'
loop_
 _atom_site_type_symbol
 _atom_site_label
 _atom_site_symmetry_multiplicity
 _atom_site_fract_x
 _atom_site_fract_y
 _atom_site_fract_z
 _atom_site_occupancy
  Rb  Rb0  1  0.972624  0.298436  0.816630  1
  Rb  Rb1  1  0.035492  0.699387  0.203910  1
  Fe  Fe2  1  0.697473  0.885036  0.773061  1
  Ge  Ge3  1  0.317892  0.081971  0.250225  1
  Ge  Ge4  1  0.655093  0.280610  0.407011  1
  Ge  Ge5  1  0.353945  0.707890  0.604912  1
  O  O6  1  0.998712  0.294610  0.274082  1
  O  O7  1  0.662633  0.669474  0.641545  1
  O  O8  1  0.593899  0.175163  0.221701  1
  O  O9  1  0.061602  0.701499  0.809564  1
  O  O10  1  0.228926  0.958549  0.490925  1
  O  O11  1  0.591755  0.167334  0.645059  1
  O  O12  1  0.400531  0.943878  0.047738  1
  O  O13  1  0.429422  0.538164  0.411638  1
