# generated using pymatgen
data_LaTl2I5
_symmetry_space_group_name_H-M   'P 1'
_cell_length_a   9.29566100
_cell_length_b   9.87505300
_cell_length_c   14.67361000
_cell_angle_alpha   90.00000000
_cell_angle_beta   90.00000000
_cell_angle_gamma   90.00000000
_symmetry_Int_Tables_number   1
_chemical_formula_structural   LaTl2I5
_chemical_formula_sum   'La4 Tl8 I20'
_cell_volume   1346.96615828
_cell_formula_units_Z   4
loop_
 _symmetry_equiv_pos_site_id
 _symmetry_equiv_pos_as_xyz
  1  'x, y, z'
loop_
 _atom_site_type_symbol
 _atom_site_label
 _atom_site_symmetry_multiplicity
 _atom_site_fract_x
 _atom_site_fract_y
 _atom_site_fract_z
 _atom_site_occupancy
  La  La0  1  0.921228  0.750000  0.505588  1
  La  La1  1  0.078772  0.250000  0.494412  1
  La  La2  1  0.421228  0.250000  0.994412  1
  La  La3  1  0.578772  0.750000  0.005588  1
  Tl  Tl4  1  0.947849  0.003343  0.827068  1
  Tl  Tl5  1  0.052151  0.996657  0.172932  1
  Tl  Tl6  1  0.447849  0.996657  0.672932  1
  Tl  Tl7  1  0.052151  0.503343  0.172932  1
  Tl  Tl8  1  0.552151  0.003343  0.327068  1
  Tl  Tl9  1  0.947849  0.496657  0.827068  1
  Tl  Tl10  1  0.552151  0.496657  0.327068  1
  Tl  Tl11  1  0.447849  0.503343  0.672932  1
  I  I12  1  0.129806  0.750000  0.682290  1
  I  I13  1  0.870194  0.250000  0.317710  1
  I  I14  1  0.629806  0.250000  0.817710  1
  I  I15  1  0.370194  0.750000  0.182290  1
  I  I16  1  0.831401  0.046304  0.579335  1
  I  I17  1  0.168599  0.953696  0.420665  1
  I  I18  1  0.331401  0.953696  0.920665  1
  I  I19  1  0.168599  0.546304  0.420665  1
  I  I20  1  0.668599  0.046304  0.079335  1
  I  I21  1  0.831401  0.453696  0.579335  1
  I  I22  1  0.668599  0.453696  0.079335  1
  I  I23  1  0.331401  0.546304  0.920665  1
  I  I24  1  0.568057  0.750000  0.506974  1
  I  I25  1  0.431943  0.250000  0.493026  1
  I  I26  1  0.068057  0.250000  0.993026  1
  I  I27  1  0.931943  0.750000  0.006974  1
  I  I28  1  0.664905  0.750000  0.792326  1
  I  I29  1  0.335095  0.250000  0.207674  1
  I  I30  1  0.164905  0.250000  0.707674  1
  I  I31  1  0.835095  0.750000  0.292326  1
