# generated using pymatgen
data_YbDyEr2(Mo2O7)2
_symmetry_space_group_name_H-M   'P 1'
_cell_length_a   7.27839697
_cell_length_b   7.27833633
_cell_length_c   7.39974212
_cell_angle_alpha   60.54466691
_cell_angle_beta   60.54099336
_cell_angle_gamma   59.99972926
_symmetry_Int_Tables_number   1
_chemical_formula_structural   YbDyEr2(Mo2O7)2
_chemical_formula_sum   'Yb1 Dy1 Er2 Mo4 O14'
_cell_volume   279.43677948
_cell_formula_units_Z   1
loop_
 _symmetry_equiv_pos_site_id
 _symmetry_equiv_pos_as_xyz
  1  'x, y, z'
loop_
 _atom_site_type_symbol
 _atom_site_label
 _atom_site_symmetry_multiplicity
 _atom_site_fract_x
 _atom_site_fract_y
 _atom_site_fract_z
 _atom_site_occupancy
  Yb  Yb0  1  0.125000  0.125000  0.625000  1
  Dy  Dy1  1  0.125000  0.625000  0.125000  1
  Er  Er2  1  0.625000  0.125000  0.125000  1
  Er  Er3  1  0.125000  0.125000  0.125000  1
  Mo  Mo4  1  0.125000  0.625000  0.625000  1
  Mo  Mo5  1  0.625000  0.125000  0.625000  1
  Mo  Mo6  1  0.625000  0.625000  0.125000  1
  Mo  Mo7  1  0.625000  0.625000  0.625000  1
  O  O8  1  0.708823  0.710243  0.285104  1
  O  O9  1  0.287006  0.287015  0.726559  1
  O  O10  1  0.699419  0.287015  0.726559  1
  O  O11  1  0.295830  0.710243  0.285104  1
  O  O12  1  0.287233  0.700340  0.725192  1
  O  O13  1  0.709545  0.295801  0.285109  1
  O  O14  1  0.541177  0.539757  0.964896  1
  O  O15  1  0.962994  0.962985  0.523441  1
  O  O16  1  0.550581  0.962985  0.523441  1
  O  O17  1  0.954170  0.539757  0.964896  1
  O  O18  1  0.962767  0.549660  0.524808  1
  O  O19  1  0.540455  0.954199  0.964891  1
  O  O20  1  0.254027  0.250037  0.241909  1
  O  O21  1  0.995973  0.999963  0.008091  1
