# generated using pymatgen
data_YTmTh2(Sn5Rh3)2
_symmetry_space_group_name_H-M   'P 1'
_cell_length_a   13.55475851
_cell_length_b   13.55475785
_cell_length_c   7.34330032
_cell_angle_alpha   90.60444583
_cell_angle_beta   89.39555358
_cell_angle_gamma   161.07350898
_symmetry_Int_Tables_number   1
_chemical_formula_structural   YTmTh2(Sn5Rh3)2
_chemical_formula_sum   'Y1 Tm1 Th2 Sn10 Rh6'
_cell_volume   437.59297710
_cell_formula_units_Z   1
loop_
 _symmetry_equiv_pos_site_id
 _symmetry_equiv_pos_as_xyz
  1  'x, y, z'
loop_
 _atom_site_type_symbol
 _atom_site_label
 _atom_site_symmetry_multiplicity
 _atom_site_fract_x
 _atom_site_fract_y
 _atom_site_fract_z
 _atom_site_occupancy
  Y  Y0  1  0.827944  0.172056  0.751310  1
  Tm  Tm1  1  0.525528  0.474472  0.736767  1
  Th  Th2  1  0.475026  0.524974  0.235504  1
  Th  Th3  1  0.172231  0.827769  0.259230  1
  Sn  Sn4  1  0.704659  0.295341  0.555816  1
  Sn  Sn5  1  0.596195  0.403805  0.107636  1
  Sn  Sn6  1  0.048578  0.951422  0.403852  1
  Sn  Sn7  1  0.952997  0.047003  0.890251  1
  Sn  Sn8  1  0.710854  0.289146  0.975504  1
  Sn  Sn9  1  0.290493  0.709507  0.479984  1
  Sn  Sn10  1  0.295734  0.704266  0.048529  1
  Sn  Sn11  1  0.877923  0.122077  0.230073  1
  Sn  Sn12  1  0.120111  0.879889  0.734575  1
  Sn  Sn13  1  0.403274  0.596726  0.618263  1
  Rh  Rh14  1  0.395282  0.604718  0.986758  1
  Rh  Rh15  1  0.775888  0.224112  0.270580  1
  Rh  Rh16  1  0.222656  0.777344  0.768775  1
  Rh  Rh17  1  0.049705  0.950295  0.015815  1
  Rh  Rh18  1  0.605859  0.394141  0.481219  1
  Rh  Rh19  1  0.949061  0.050939  0.513360  1
