# generated using pymatgen
data_Nd6Al24Ir2Ru5Au
_symmetry_space_group_name_H-M   'P 1'
_cell_length_a   8.94561520
_cell_length_b   8.94561581
_cell_length_c   9.65927812
_cell_angle_alpha   89.70634303
_cell_angle_beta   90.29365672
_cell_angle_gamma   120.09195526
_symmetry_Int_Tables_number   1
_chemical_formula_structural   Nd6Al24Ir2Ru5Au
_chemical_formula_sum   'Nd6 Al24 Ir2 Ru5 Au1'
_cell_volume   668.78264581
_cell_formula_units_Z   1
loop_
 _symmetry_equiv_pos_site_id
 _symmetry_equiv_pos_as_xyz
  1  'x, y, z'
loop_
 _atom_site_type_symbol
 _atom_site_label
 _atom_site_symmetry_multiplicity
 _atom_site_fract_x
 _atom_site_fract_y
 _atom_site_fract_z
 _atom_site_occupancy
  Nd  Nd0  1  0.191352  0.383083  0.249568  1
  Nd  Nd1  1  0.808648  0.616917  0.750432  1
  Nd  Nd2  1  0.616917  0.808648  0.249568  1
  Nd  Nd3  1  0.383083  0.191352  0.750432  1
  Nd  Nd4  1  0.191397  0.808603  0.253429  1
  Nd  Nd5  1  0.808603  0.191397  0.746571  1
  Al  Al6  1  0.327836  0.672164  0.017199  1
  Al  Al7  1  0.672164  0.327836  0.982801  1
  Al  Al8  1  0.665993  0.334007  0.515826  1
  Al  Al9  1  0.334007  0.665993  0.484174  1
  Al  Al10  1  0.162045  0.325456  0.574496  1
  Al  Al11  1  0.837955  0.674544  0.425504  1
  Al  Al12  1  0.674544  0.837955  0.574496  1
  Al  Al13  1  0.849095  0.677355  0.077972  1
  Al  Al14  1  0.325456  0.162045  0.425504  1
  Al  Al15  1  0.150905  0.322645  0.922028  1
  Al  Al16  1  0.162771  0.837229  0.576166  1
  Al  Al17  1  0.322645  0.150905  0.077972  1
  Al  Al18  1  0.837229  0.162771  0.423834  1
  Al  Al19  1  0.677355  0.849095  0.922028  1
  Al  Al20  1  0.837255  0.162745  0.076945  1
  Al  Al21  1  0.162745  0.837255  0.923055  1
  Al  Al22  1  0.563262  0.124486  0.248270  1
  Al  Al23  1  0.436738  0.875514  0.751730  1
  Al  Al24  1  0.875514  0.436738  0.248270  1
  Al  Al25  1  0.124486  0.563262  0.751730  1
  Al  Al26  1  0.565886  0.434114  0.258935  1
  Al  Al27  1  0.434114  0.565886  0.741065  1
  Al  Al28  1  0.999199  0.000801  0.250296  1
  Al  Al29  1  0.000801  0.999199  0.749704  1
  Ir  Ir30  1  0.500000  0.000000  0.500000  1
  Ir  Ir31  1  0.000000  0.500000  0.500000  1
  Ru  Ru32  1  0.500000  0.000000  0.000000  1
  Ru  Ru33  1  0.000000  0.500000  0.000000  1
  Ru  Ru34  1  0.500000  0.500000  0.500000  1
  Ru  Ru35  1  0.000000  0.000000  0.000000  1
  Ru  Ru36  1  0.000000  0.000000  0.500000  1
  Au  Au37  1  0.500000  0.500000  0.000000  1
