# generated using pymatgen
data_Lu8Sc2(BiSb)3
_symmetry_space_group_name_H-M   'P 1'
_cell_length_a   7.91296558
_cell_length_b   9.20565728
_cell_length_c   11.62370382
_cell_angle_alpha   89.89509887
_cell_angle_beta   89.83508670
_cell_angle_gamma   89.96594187
_symmetry_Int_Tables_number   1
_chemical_formula_structural   Lu8Sc2(BiSb)3
_chemical_formula_sum   'Lu16 Sc4 Bi6 Sb6'
_cell_volume   846.71257958
_cell_formula_units_Z   2
loop_
 _symmetry_equiv_pos_site_id
 _symmetry_equiv_pos_as_xyz
  1  'x, y, z'
loop_
 _atom_site_type_symbol
 _atom_site_label
 _atom_site_symmetry_multiplicity
 _atom_site_fract_x
 _atom_site_fract_y
 _atom_site_fract_z
 _atom_site_occupancy
  Lu  Lu0  1  0.352337  0.247650  0.286185  1
  Lu  Lu1  1  0.647663  0.752350  0.713815  1
  Lu  Lu2  1  0.142059  0.752901  0.784418  1
  Lu  Lu3  1  0.857941  0.247099  0.215582  1
  Lu  Lu4  1  0.181953  0.247841  0.780726  1
  Lu  Lu5  1  0.818047  0.752159  0.219274  1
  Lu  Lu6  1  0.313248  0.753305  0.282364  1
  Lu  Lu7  1  0.686752  0.246695  0.717636  1
  Lu  Lu8  1  0.190771  0.064765  0.059990  1
  Lu  Lu9  1  0.809229  0.935235  0.940010  1
  Lu  Lu10  1  0.303725  0.936088  0.556685  1
  Lu  Lu11  1  0.808255  0.565630  0.942274  1
  Lu  Lu12  1  0.696275  0.063912  0.443315  1
  Lu  Lu13  1  0.191745  0.434370  0.057726  1
  Lu  Lu14  1  0.692516  0.434239  0.442211  1
  Lu  Lu15  1  0.307484  0.565761  0.557789  1
  Sc  Sc16  1  0.027078  0.245015  0.511987  1
  Sc  Sc17  1  0.972922  0.754985  0.488013  1
  Sc  Sc18  1  0.472917  0.750179  0.012356  1
  Sc  Sc19  1  0.527083  0.249821  0.987644  1
  Bi  Bi20  1  0.433541  0.996306  0.828870  1
  Bi  Bi21  1  0.934023  0.503646  0.670744  1
  Bi  Bi22  1  0.566459  0.003694  0.171130  1
  Bi  Bi23  1  0.065977  0.496354  0.329256  1
  Bi  Bi24  1  0.566230  0.496213  0.171515  1
  Bi  Bi25  1  0.433770  0.503787  0.828485  1
  Sb  Sb26  1  0.402439  0.249988  0.542682  1
  Sb  Sb27  1  0.597561  0.750012  0.457318  1
  Sb  Sb28  1  0.098591  0.749958  0.042146  1
  Sb  Sb29  1  0.901409  0.250042  0.957854  1
  Sb  Sb30  1  0.065516  0.004159  0.329835  1
  Sb  Sb31  1  0.934484  0.995841  0.670165  1
