# generated using pymatgen
data_AcCe2ThB24
_symmetry_space_group_name_H-M   'P 1'
_cell_length_a   4.14439600
_cell_length_b   4.14439600
_cell_length_c   16.56874300
_cell_angle_alpha   90.00000000
_cell_angle_beta   90.00000000
_cell_angle_gamma   90.00000000
_symmetry_Int_Tables_number   1
_chemical_formula_structural   AcCe2ThB24
_chemical_formula_sum   'Ac1 Ce2 Th1 B24'
_cell_volume   284.58503140
_cell_formula_units_Z   1
loop_
 _symmetry_equiv_pos_site_id
 _symmetry_equiv_pos_as_xyz
  1  'x, y, z'
loop_
 _atom_site_type_symbol
 _atom_site_label
 _atom_site_symmetry_multiplicity
 _atom_site_fract_x
 _atom_site_fract_y
 _atom_site_fract_z
 _atom_site_occupancy
  Ac  Ac0  1  0.500000  0.500000  0.250680  1
  Ce  Ce1  1  0.500000  0.500000  0.502859  1
  Ce  Ce2  1  0.500000  0.500000  0.749820  1
  Th  Th3  1  0.500000  0.500000  0.996763  1
  B  B4  1  0.000000  0.000000  0.047983  1
  B  B5  1  0.000000  0.000000  0.300798  1
  B  B6  1  0.000000  0.000000  0.550647  1
  B  B7  1  0.000000  0.000000  0.799261  1
  B  B8  1  0.000000  0.301902  0.874336  1
  B  B9  1  0.000000  0.301102  0.122793  1
  B  B10  1  0.000000  0.300720  0.377147  1
  B  B11  1  0.000000  0.301532  0.625693  1
  B  B12  1  0.301902  0.000000  0.874336  1
  B  B13  1  0.301102  0.000000  0.122793  1
  B  B14  1  0.300720  0.000000  0.377147  1
  B  B15  1  0.301532  0.000000  0.625693  1
  B  B16  1  0.000000  0.000000  0.949618  1
  B  B17  1  0.000000  0.000000  0.199214  1
  B  B18  1  0.000000  0.000000  0.451817  1
  B  B19  1  0.000000  0.000000  0.700664  1
  B  B20  1  0.000000  0.698098  0.874336  1
  B  B21  1  0.000000  0.698898  0.122793  1
  B  B22  1  0.000000  0.699280  0.377147  1
  B  B23  1  0.000000  0.698468  0.625693  1
  B  B24  1  0.698098  0.000000  0.874336  1
  B  B25  1  0.698898  0.000000  0.122793  1
  B  B26  1  0.699280  0.000000  0.377147  1
  B  B27  1  0.698468  0.000000  0.625693  1
