# generated using pymatgen
data_Ho7Er13(Sn3Pb5)2
_symmetry_space_group_name_H-M   'P 1'
_cell_length_a   8.11457332
_cell_length_b   15.48768551
_cell_length_c   8.16691808
_cell_angle_alpha   90.01095699
_cell_angle_beta   89.98789847
_cell_angle_gamma   90.06422952
_symmetry_Int_Tables_number   1
_chemical_formula_structural   Ho7Er13(Sn3Pb5)2
_chemical_formula_sum   'Ho7 Er13 Sn6 Pb10'
_cell_volume   1026.38458029
_cell_formula_units_Z   1
loop_
 _symmetry_equiv_pos_site_id
 _symmetry_equiv_pos_as_xyz
  1  'x, y, z'
loop_
 _atom_site_type_symbol
 _atom_site_label
 _atom_site_symmetry_multiplicity
 _atom_site_fract_x
 _atom_site_fract_y
 _atom_site_fract_z
 _atom_site_occupancy
  Ho  Ho0  1  0.963522  0.895927  0.824597  1
  Ho  Ho1  1  0.535314  0.099833  0.326515  1
  Ho  Ho2  1  0.036107  0.399900  0.173135  1
  Ho  Ho3  1  0.535860  0.399980  0.326724  1
  Ho  Ho4  1  0.035312  0.099809  0.173426  1
  Ho  Ho5  1  0.463853  0.896211  0.675118  1
  Ho  Ho6  1  0.963047  0.604076  0.824602  1
  Er  Er7  1  0.621059  0.623960  0.160820  1
  Er  Er8  1  0.121540  0.875922  0.338922  1
  Er  Er9  1  0.378239  0.122535  0.837782  1
  Er  Er10  1  0.878715  0.377597  0.662434  1
  Er  Er11  1  0.378823  0.377828  0.837565  1
  Er  Er12  1  0.878293  0.122478  0.662460  1
  Er  Er13  1  0.621557  0.875801  0.160841  1
  Er  Er14  1  0.120982  0.624117  0.339083  1
  Er  Er15  1  0.462399  0.604525  0.674531  1
  Er  Er16  1  0.790236  0.749881  0.496450  1
  Er  Er17  1  0.290054  0.749918  0.003586  1
  Er  Er18  1  0.210294  0.250080  0.507871  1
  Er  Er19  1  0.710283  0.249906  0.992125  1
  Sn  Sn20  1  0.425455  0.750089  0.376968  1
  Sn  Sn21  1  0.925215  0.749963  0.123311  1
  Sn  Sn22  1  0.574304  0.250008  0.623289  1
  Sn  Sn23  1  0.074459  0.249931  0.876667  1
  Sn  Sn24  1  0.655134  0.749843  0.850847  1
  Sn  Sn25  1  0.155895  0.750116  0.649126  1
  Pb  Pb26  1  0.716943  0.458877  0.967720  1
  Pb  Pb27  1  0.217024  0.040837  0.533696  1
  Pb  Pb28  1  0.283651  0.957935  0.033298  1
  Pb  Pb29  1  0.782103  0.542384  0.467423  1
  Pb  Pb30  1  0.283192  0.542365  0.032755  1
  Pb  Pb31  1  0.783157  0.957847  0.466739  1
  Pb  Pb32  1  0.716644  0.040603  0.966100  1
  Pb  Pb33  1  0.216707  0.459078  0.533554  1
  Pb  Pb34  1  0.347242  0.249964  0.152597  1
  Pb  Pb35  1  0.847385  0.249874  0.347325  1
