# generated using pymatgen
data_Ac26B8O51
_symmetry_space_group_name_H-M   'P 1'
_cell_length_a   7.12976009
_cell_length_b   13.33272572
_cell_length_c   15.07649700
_cell_angle_alpha   90.06870222
_cell_angle_beta   99.36272055
_cell_angle_gamma   90.31220259
_symmetry_Int_Tables_number   1
_chemical_formula_structural   Ac26B8O51
_chemical_formula_sum   'Ac26 B8 O51'
_cell_volume   1414.04239788
_cell_formula_units_Z   1
loop_
 _symmetry_equiv_pos_site_id
 _symmetry_equiv_pos_as_xyz
  1  'x, y, z'
loop_
 _atom_site_type_symbol
 _atom_site_label
 _atom_site_symmetry_multiplicity
 _atom_site_fract_x
 _atom_site_fract_y
 _atom_site_fract_z
 _atom_site_occupancy
  Ac  Ac0  1  0.847077  0.307577  0.030025  1
  Ac  Ac1  1  0.924838  0.287067  0.296184  1
  Ac  Ac2  1  0.000599  0.502240  0.499168  1
  Ac  Ac3  1  0.847334  0.206114  0.539757  1
  Ac  Ac4  1  0.945486  0.210193  0.798076  1
  Ac  Ac5  1  0.676923  0.610444  0.059618  1
  Ac  Ac6  1  0.775128  0.986951  0.314054  1
  Ac  Ac7  1  0.000412  0.998752  0.998139  1
  Ac  Ac8  1  0.626850  0.696977  0.341636  1
  Ac  Ac9  1  0.688826  0.878901  0.568060  1
  Ac  Ac10  1  0.514828  0.889668  0.085806  1
  Ac  Ac11  1  0.772005  0.499534  0.830043  1
  Ac  Ac12  1  0.477253  0.389532  0.410439  1
  Ac  Ac13  1  0.625456  0.801440  0.841907  1
  Ac  Ac14  1  0.372440  0.200453  0.155429  1
  Ac  Ac15  1  0.516440  0.605884  0.588506  1
  Ac  Ac16  1  0.228641  0.499845  0.170072  1
  Ac  Ac17  1  0.484613  0.109040  0.911077  1
  Ac  Ac18  1  0.284259  0.116098  0.437962  1
  Ac  Ac19  1  0.377342  0.301954  0.662255  1
  Ac  Ac20  1  0.240304  0.001591  0.670117  1
  Ac  Ac21  1  0.322312  0.389384  0.939093  1
  Ac  Ac22  1  0.063825  0.785927  0.201904  1
  Ac  Ac23  1  0.160059  0.808629  0.469623  1
  Ac  Ac24  1  0.065359  0.711297  0.704379  1
  Ac  Ac25  1  0.152421  0.691602  0.968318  1
  B  B26  1  0.863609  0.097999  0.159684  1
  B  B27  1  0.866236  0.405073  0.661956  1
  B  B28  1  0.669135  0.448746  0.211710  1
  B  B29  1  0.669251  0.050273  0.706230  1
  B  B30  1  0.334998  0.949844  0.298174  1
  B  B31  1  0.330526  0.551025  0.788523  1
  B  B32  1  0.138987  0.598802  0.338376  1
  B  B33  1  0.136194  0.904655  0.835554  1
  O  O34  1  0.996002  0.651968  0.369226  1
  O  O35  1  0.924343  0.127277  0.401094  1
  O  O36  1  0.846898  0.993563  0.150835  1
  O  O37  1  0.837243  0.431419  0.177098  1
  O  O38  1  0.993607  0.852401  0.867391  1
  O  O39  1  0.834424  0.345355  0.432369  1
  O  O40  1  0.812252  0.852645  0.416707  1
  O  O41  1  0.726925  0.768987  0.187069  1
  O  O42  1  0.734833  0.147463  0.204879  1
  O  O43  1  0.968802  0.359280  0.890904  1
  O  O44  1  0.844774  0.508283  0.653978  1
  O  O45  1  0.826014  0.064329  0.661912  1
  O  O46  1  0.593397  0.543935  0.215800  1
  O  O47  1  0.835855  0.154413  0.930078  1
  O  O48  1  0.512201  0.249695  0.018542  1
  O  O49  1  0.658071  0.552626  0.451603  1
  O  O50  1  0.813045  0.655734  0.909534  1
  O  O51  1  0.727833  0.740716  0.675579  1
  O  O52  1  0.573065  0.367217  0.242214  1
  O  O53  1  0.740363  0.347420  0.702632  1
  O  O54  1  0.595667  0.954845  0.716411  1
  O  O55  1  0.419576  0.870565  0.261012  1
  O  O56  1  0.510578  0.239815  0.512670  1
  O  O57  1  0.336475  0.545588  0.034232  1
  O  O58  1  0.658101  0.945536  0.952345  1
  O  O59  1  0.341912  0.054121  0.048300  1
  O  O60  1  0.664569  0.454834  0.966499  1
  O  O61  1  0.489152  0.748696  0.483685  1
  O  O62  1  0.580529  0.132079  0.738030  1
  O  O63  1  0.434267  0.041040  0.309949  1
  O  O64  1  0.266676  0.650448  0.293646  1
  O  O65  1  0.421643  0.633542  0.757882  1
  O  O66  1  0.362922  0.961962  0.530508  1
  O  O67  1  0.255928  0.257924  0.322864  1
  O  O68  1  0.187677  0.343784  0.088700  1
  O  O69  1  0.343619  0.442153  0.546489  1
  O  O70  1  0.487936  0.749250  0.981488  1
  O  O71  1  0.164862  0.844167  0.067968  1
  O  O72  1  0.409979  0.456473  0.783112  1
  O  O73  1  0.156565  0.939168  0.325495  1
  O  O74  1  0.155716  0.495206  0.348716  1
  O  O75  1  0.028842  0.638075  0.107489  1
  O  O76  1  0.264977  0.852552  0.792420  1
  O  O77  1  0.279778  0.238800  0.817920  1
  O  O78  1  0.179686  0.158373  0.589708  1
  O  O79  1  0.166607  0.655993  0.569214  1
  O  O80  1  0.007948  0.149965  0.130403  1
  O  O81  1  0.163748  0.564852  0.825102  1
  O  O82  1  0.152509  0.009185  0.843481  1
  O  O83  1  0.044384  0.862245  0.607266  1
  O  O84  1  0.012478  0.355922  0.629877  1
