# generated using pymatgen
data_Tb8Ho8Cd4Os3Pt
_symmetry_space_group_name_H-M   'P 1'
_cell_length_a   9.61256267
_cell_length_b   9.69782174
_cell_length_c   9.72820300
_cell_angle_alpha   59.89631725
_cell_angle_beta   59.60124576
_cell_angle_gamma   59.56802359
_symmetry_Int_Tables_number   1
_chemical_formula_structural   Tb8Ho8Cd4Os3Pt
_chemical_formula_sum   'Tb8 Ho8 Cd4 Os3 Pt1'
_cell_volume   636.70532030
_cell_formula_units_Z   1
loop_
 _symmetry_equiv_pos_site_id
 _symmetry_equiv_pos_as_xyz
  1  'x, y, z'
loop_
 _atom_site_type_symbol
 _atom_site_label
 _atom_site_symmetry_multiplicity
 _atom_site_fract_x
 _atom_site_fract_y
 _atom_site_fract_z
 _atom_site_occupancy
  Tb  Tb0  1  0.186565  0.189990  0.811723  1
  Tb  Tb1  1  0.814526  0.804763  0.190356  1
  Tb  Tb2  1  0.938066  0.559707  0.560766  1
  Tb  Tb3  1  0.553000  0.940649  0.940453  1
  Tb  Tb4  1  0.553000  0.940649  0.565900  1
  Tb  Tb5  1  0.938066  0.559707  0.941461  1
  Tb  Tb6  1  0.552541  0.566499  0.940480  1
  Tb  Tb7  1  0.938595  0.941260  0.560073  1
  Ho  Ho8  1  0.346939  0.350605  0.348620  1
  Ho  Ho9  1  0.346939  0.350605  0.953836  1
  Ho  Ho10  1  0.346767  0.955322  0.348955  1
  Ho  Ho11  1  0.968033  0.343849  0.344058  1
  Ho  Ho12  1  0.813496  0.189449  0.191296  1
  Ho  Ho13  1  0.185891  0.810824  0.810814  1
  Ho  Ho14  1  0.185891  0.810824  0.192472  1
  Ho  Ho15  1  0.813496  0.189449  0.805760  1
  Cd  Cd16  1  0.580526  0.579244  0.580555  1
  Cd  Cd17  1  0.580526  0.579244  0.259675  1
  Cd  Cd18  1  0.580937  0.258498  0.580282  1
  Cd  Cd19  1  0.255596  0.581234  0.581584  1
  Os  Os20  1  0.147325  0.138012  0.136607  1
  Os  Os21  1  0.147325  0.138012  0.578057  1
  Os  Os22  1  0.148920  0.578400  0.136341  1
  Pt  Pt23  1  0.577037  0.143209  0.139878  1
