# generated using pymatgen
data_PmSmSi3Ag
_symmetry_space_group_name_H-M   'P 1'
_cell_length_a   5.93759900
_cell_length_b   5.93814192
_cell_length_c   5.93814400
_cell_angle_alpha   138.65312238
_cell_angle_beta   104.65506266
_cell_angle_gamma   89.78799300
_symmetry_Int_Tables_number   1
_chemical_formula_structural   PmSmSi3Ag
_chemical_formula_sum   'Pm1 Sm1 Si3 Ag1'
_cell_volume   128.00590993
_cell_formula_units_Z   1
loop_
 _symmetry_equiv_pos_site_id
 _symmetry_equiv_pos_as_xyz
  1  'x, y, z'
loop_
 _atom_site_type_symbol
 _atom_site_label
 _atom_site_symmetry_multiplicity
 _atom_site_fract_x
 _atom_site_fract_y
 _atom_site_fract_z
 _atom_site_occupancy
  Pm  Pm0  1  0.003455  0.003395  0.000060  1
  Sm  Sm1  1  0.496598  0.496589  0.000008  1
  Si  Si2  1  0.083164  0.749698  0.333465  1
  Si  Si3  1  0.921706  0.250201  0.671503  1
  Si  Si4  1  0.409165  0.749762  0.659402  1
  Ag  Ag5  1  0.585910  0.250352  0.335559  1
