# generated using pymatgen
data_Ce2NdZr(Co4P3)2
_symmetry_space_group_name_H-M   'P 1'
_cell_length_a   3.77409000
_cell_length_b   10.81063600
_cell_length_c   12.52283200
_cell_angle_alpha   90.00000000
_cell_angle_beta   90.00000000
_cell_angle_gamma   90.00000000
_symmetry_Int_Tables_number   1
_chemical_formula_structural   Ce2NdZr(Co4P3)2
_chemical_formula_sum   'Ce4 Nd2 Zr2 Co16 P12'
_cell_volume   510.93546802
_cell_formula_units_Z   2
loop_
 _symmetry_equiv_pos_site_id
 _symmetry_equiv_pos_as_xyz
  1  'x, y, z'
loop_
 _atom_site_type_symbol
 _atom_site_label
 _atom_site_symmetry_multiplicity
 _atom_site_fract_x
 _atom_site_fract_y
 _atom_site_fract_z
 _atom_site_occupancy
  Ce  Ce0  1  0.000000  0.500000  0.533026  1
  Ce  Ce1  1  0.500000  0.000000  0.468229  1
  Ce  Ce2  1  0.500000  0.821961  0.206841  1
  Ce  Ce3  1  0.500000  0.178039  0.206841  1
  Nd  Nd4  1  0.000000  0.680037  0.795216  1
  Nd  Nd5  1  0.000000  0.319963  0.795216  1
  Zr  Zr6  1  0.500000  0.500000  0.156564  1
  Zr  Zr7  1  0.000000  0.000000  0.843249  1
  Co  Co8  1  0.500000  0.500000  0.696582  1
  Co  Co9  1  0.000000  0.000000  0.297013  1
  Co  Co10  1  0.000000  0.500000  0.987077  1
  Co  Co11  1  0.500000  0.000000  0.014118  1
  Co  Co12  1  0.500000  0.331735  0.994919  1
  Co  Co13  1  0.500000  0.668265  0.994919  1
  Co  Co14  1  0.000000  0.166652  0.008181  1
  Co  Co15  1  0.000000  0.833348  0.008181  1
  Co  Co16  1  0.500000  0.296603  0.433138  1
  Co  Co17  1  0.500000  0.703397  0.433138  1
  Co  Co18  1  0.000000  0.202726  0.565449  1
  Co  Co19  1  0.000000  0.797274  0.565449  1
  Co  Co20  1  0.500000  0.880453  0.699953  1
  Co  Co21  1  0.500000  0.119547  0.699953  1
  Co  Co22  1  0.000000  0.621761  0.297464  1
  Co  Co23  1  0.000000  0.378239  0.297464  1
  P  P24  1  0.500000  0.500000  0.886080  1
  P  P25  1  0.000000  0.000000  0.113760  1
  P  P26  1  0.500000  0.500000  0.361553  1
  P  P27  1  0.000000  0.000000  0.638781  1
  P  P28  1  0.500000  0.305205  0.613513  1
  P  P29  1  0.500000  0.694795  0.613513  1
  P  P30  1  0.000000  0.194665  0.386339  1
  P  P31  1  0.000000  0.805335  0.386339  1
  P  P32  1  0.500000  0.840012  0.898633  1
  P  P33  1  0.500000  0.159988  0.898633  1
  P  P34  1  0.000000  0.660655  0.102340  1
  P  P35  1  0.000000  0.339345  0.102340  1
