# generated using pymatgen
data_Dy8Zr11TiSi15As
_symmetry_space_group_name_H-M   'P 1'
_cell_length_a   7.32358314
_cell_length_b   7.31825518
_cell_length_c   13.46335102
_cell_angle_alpha   89.92611926
_cell_angle_beta   89.67904166
_cell_angle_gamma   90.07687519
_symmetry_Int_Tables_number   1
_chemical_formula_structural   Dy8Zr11TiSi15As
_chemical_formula_sum   'Dy8 Zr11 Ti1 Si15 As1'
_cell_volume   721.56716720
_cell_formula_units_Z   1
loop_
 _symmetry_equiv_pos_site_id
 _symmetry_equiv_pos_as_xyz
  1  'x, y, z'
loop_
 _atom_site_type_symbol
 _atom_site_label
 _atom_site_symmetry_multiplicity
 _atom_site_fract_x
 _atom_site_fract_y
 _atom_site_fract_z
 _atom_site_occupancy
  Dy  Dy0  1  0.997239  0.654119  0.034755  1
  Dy  Dy1  1  0.003193  0.346248  0.537425  1
  Dy  Dy2  1  0.655152  0.996552  0.964011  1
  Dy  Dy3  1  0.156304  0.504209  0.785199  1
  Dy  Dy4  1  0.841748  0.494005  0.283498  1
  Dy  Dy5  1  0.503056  0.156322  0.212649  1
  Dy  Dy6  1  0.498615  0.845982  0.717009  1
  Dy  Dy7  1  0.346389  0.003261  0.465048  1
  Zr  Zr8  1  0.351314  0.504691  0.376499  1
  Zr  Zr9  1  0.849244  0.000019  0.373095  1
  Zr  Zr10  1  0.002994  0.149019  0.123832  1
  Zr  Zr11  1  0.997335  0.850547  0.626604  1
  Zr  Zr12  1  0.504765  0.350353  0.625388  1
  Zr  Zr13  1  0.147658  0.003190  0.875106  1
  Zr  Zr14  1  0.671214  0.675373  0.501211  1
  Zr  Zr15  1  0.824024  0.175761  0.751185  1
  Zr  Zr16  1  0.174895  0.825914  0.248746  1
  Zr  Zr17  1  0.326946  0.327495  0.998396  1
  Zr  Zr18  1  0.495872  0.648025  0.124405  1
  Ti  Ti19  1  0.649085  0.490507  0.874670  1
  Si  Si20  1  0.946341  0.298410  0.935427  1
  Si  Si21  1  0.705264  0.049164  0.563407  1
  Si  Si22  1  0.203276  0.450333  0.186956  1
  Si  Si23  1  0.794270  0.548908  0.690890  1
  Si  Si24  1  0.453322  0.209169  0.814596  1
  Si  Si25  1  0.548568  0.797418  0.312801  1
  Si  Si26  1  0.296520  0.949833  0.061950  1
  Si  Si27  1  0.792973  0.861867  0.182071  1
  Si  Si28  1  0.300761  0.637980  0.573514  1
  Si  Si29  1  0.704473  0.363181  0.062208  1
  Si  Si30  1  0.638957  0.294650  0.433292  1
  Si  Si31  1  0.370334  0.702722  0.930350  1
  Si  Si32  1  0.139433  0.206780  0.316759  1
  Si  Si33  1  0.206966  0.138172  0.683492  1
  Si  Si34  1  0.859739  0.787038  0.819378  1
  As  As35  1  0.041764  0.702785  0.434179  1
