# generated using pymatgen
data_Ti2AsRuRh4
_symmetry_space_group_name_H-M   'P 1'
_cell_length_a   3.99411800
_cell_length_b   5.44304625
_cell_length_c   10.61510546
_cell_angle_alpha   90.67489907
_cell_angle_beta   90.00000000
_cell_angle_gamma   90.00000000
_symmetry_Int_Tables_number   1
_chemical_formula_structural   Ti2AsRuRh4
_chemical_formula_sum   'Ti4 As2 Ru2 Rh8'
_cell_volume   230.75817691
_cell_formula_units_Z   2
loop_
 _symmetry_equiv_pos_site_id
 _symmetry_equiv_pos_as_xyz
  1  'x, y, z'
loop_
 _atom_site_type_symbol
 _atom_site_label
 _atom_site_symmetry_multiplicity
 _atom_site_fract_x
 _atom_site_fract_y
 _atom_site_fract_z
 _atom_site_occupancy
  Ti  Ti0  1  0.500000  0.332131  0.145913  1
  Ti  Ti1  1  0.500000  0.667869  0.854087  1
  Ti  Ti2  1  0.500000  0.832190  0.359729  1
  Ti  Ti3  1  0.500000  0.167810  0.640271  1
  As  As4  1  0.000000  0.000000  0.000000  1
  As  As5  1  0.000000  0.500000  0.500000  1
  Ru  Ru6  1  0.500000  0.313778  0.392562  1
  Ru  Ru7  1  0.500000  0.686222  0.607438  1
  Rh  Rh8  1  0.000000  0.000000  0.500000  1
  Rh  Rh9  1  0.000000  0.500000  0.000000  1
  Rh  Rh10  1  0.000000  0.073234  0.244239  1
  Rh  Rh11  1  0.000000  0.926766  0.755761  1
  Rh  Rh12  1  0.000000  0.573372  0.255574  1
  Rh  Rh13  1  0.000000  0.426628  0.744426  1
  Rh  Rh14  1  0.500000  0.812410  0.107542  1
  Rh  Rh15  1  0.500000  0.187590  0.892458  1
