# generated using pymatgen
data_Os(RhSe4)2
_symmetry_space_group_name_H-M   'P 1'
_cell_length_a   6.05497794
_cell_length_b   6.03871527
_cell_length_c   6.02588391
_cell_angle_alpha   90.42652807
_cell_angle_beta   90.24900404
_cell_angle_gamma   90.06708153
_symmetry_Int_Tables_number   1
_chemical_formula_structural   Os(RhSe4)2
_chemical_formula_sum   'Os1 Rh2 Se8'
_cell_volume   220.32380809
_cell_formula_units_Z   1
loop_
 _symmetry_equiv_pos_site_id
 _symmetry_equiv_pos_as_xyz
  1  'x, y, z'
loop_
 _atom_site_type_symbol
 _atom_site_label
 _atom_site_symmetry_multiplicity
 _atom_site_fract_x
 _atom_site_fract_y
 _atom_site_fract_z
 _atom_site_occupancy
  Os  Os0  1  0.000000  0.500000  0.500000  1
  Rh  Rh1  1  0.500000  0.000000  0.500000  1
  Rh  Rh2  1  0.500000  0.500000  0.000000  1
  Se  Se3  1  0.382714  0.883039  0.113489  1
  Se  Se4  1  0.111876  0.381086  0.879182  1
  Se  Se5  1  0.882503  0.119267  0.385033  1
  Se  Se6  1  0.617286  0.116961  0.886511  1
  Se  Se7  1  0.888124  0.618914  0.120818  1
  Se  Se8  1  0.117497  0.880733  0.614967  1
  Se  Se9  1  0.626310  0.618868  0.619677  1
  Se  Se10  1  0.373690  0.381132  0.380323  1
