# generated using pymatgen
data_ThTcF36
_symmetry_space_group_name_H-M   'P 1'
_cell_length_a   6.27265927
_cell_length_b   10.75691708
_cell_length_c   10.98335486
_cell_angle_alpha   94.54676696
_cell_angle_beta   102.03901813
_cell_angle_gamma   73.49651470
_symmetry_Int_Tables_number   1
_chemical_formula_structural   ThTcF36
_chemical_formula_sum   'Th1 Tc1 F36'
_cell_volume   694.77803796
_cell_formula_units_Z   1
loop_
 _symmetry_equiv_pos_site_id
 _symmetry_equiv_pos_as_xyz
  1  'x, y, z'
loop_
 _atom_site_type_symbol
 _atom_site_label
 _atom_site_symmetry_multiplicity
 _atom_site_fract_x
 _atom_site_fract_y
 _atom_site_fract_z
 _atom_site_occupancy
  Th  Th0  1  0.753352  0.834013  0.874917  1
  Tc  Tc1  1  0.292204  0.185672  0.153000  1
  F  F2  1  0.328074  0.409973  0.875361  1
  F  F3  1  0.630177  0.623727  0.115152  1
  F  F4  1  0.323970  0.280306  0.591403  1
  F  F5  1  0.669965  0.735154  0.426816  1
  F  F6  1  0.878454  0.222647  0.816989  1
  F  F7  1  0.170930  0.756739  0.188456  1
  F  F8  1  0.680030  0.847945  0.055363  1
  F  F9  1  0.329333  0.130807  0.991225  1
  F  F10  1  0.799890  0.609224  0.859837  1
  F  F11  1  0.255508  0.351246  0.089804  1
  F  F12  1  0.452640  0.464942  0.810291  1
  F  F13  1  0.590608  0.505412  0.142601  1
  F  F14  1  0.727747  0.699417  0.697526  1
  F  F15  1  0.265934  0.280141  0.301179  1
  F  F16  1  0.742422  0.975479  0.547666  1
  F  F17  1  0.229670  0.002065  0.475150  1
  F  F18  1  0.292959  0.177327  0.653970  1
  F  F19  1  0.701718  0.800309  0.326576  1
  F  F20  1  0.807376  0.090873  0.589012  1
  F  F21  1  0.169785  0.914971  0.377207  1
  F  F22  1  0.807947  0.013587  0.850343  1
  F  F23  1  0.160162  0.046158  0.130073  1
  F  F24  1  0.920474  0.344260  0.802215  1
  F  F25  1  0.110258  0.641613  0.203381  1
  F  F26  1  0.158417  0.759570  0.913205  1
  F  F27  1  0.978345  0.261662  0.114860  1
  F  F28  1  0.385348  0.942679  0.758627  1
  F  F29  1  0.475640  0.060616  0.268251  1
  F  F30  1  0.113299  0.749825  0.575801  1
  F  F31  1  0.884143  0.241646  0.415648  1
  F  F32  1  0.203234  0.636197  0.649665  1
  F  F33  1  0.818923  0.361427  0.352154  1
  F  F34  1  0.275791  0.850708  0.835305  1
  F  F35  1  0.588637  0.199272  0.164619  1
  F  F36  1  0.545679  0.443764  0.545034  1
  F  F37  1  0.480956  0.548626  0.461320  1
