# generated using pymatgen
data_Sc2Tc4NiB4
_symmetry_space_group_name_H-M   'P 1'
_cell_length_a   3.08297800
_cell_length_b   8.41463844
_cell_length_c   9.88824477
_cell_angle_alpha   89.99584104
_cell_angle_beta   90.00000000
_cell_angle_gamma   90.00000000
_symmetry_Int_Tables_number   1
_chemical_formula_structural   Sc2Tc4NiB4
_chemical_formula_sum   'Sc4 Tc8 Ni2 B8'
_cell_volume   256.52228065
_cell_formula_units_Z   2
loop_
 _symmetry_equiv_pos_site_id
 _symmetry_equiv_pos_as_xyz
  1  'x, y, z'
loop_
 _atom_site_type_symbol
 _atom_site_label
 _atom_site_symmetry_multiplicity
 _atom_site_fract_x
 _atom_site_fract_y
 _atom_site_fract_z
 _atom_site_occupancy
  Sc  Sc0  1  0.500000  0.837132  0.184721  1
  Sc  Sc1  1  0.500000  0.162868  0.815279  1
  Sc  Sc2  1  0.500000  0.662855  0.684720  1
  Sc  Sc3  1  0.500000  0.337145  0.315280  1
  Tc  Tc4  1  0.000000  0.665645  0.958630  1
  Tc  Tc5  1  0.000000  0.334355  0.041370  1
  Tc  Tc6  1  0.000000  0.834342  0.458628  1
  Tc  Tc7  1  0.000000  0.165658  0.541372  1
  Tc  Tc8  1  0.000000  0.410528  0.753783  1
  Tc  Tc9  1  0.000000  0.589472  0.246217  1
  Tc  Tc10  1  0.000000  0.910537  0.746206  1
  Tc  Tc11  1  0.000000  0.089463  0.253794  1
  Ni  Ni12  1  0.000000  0.000000  0.000000  1
  Ni  Ni13  1  0.000000  0.500000  0.500000  1
  B  B14  1  0.500000  0.969463  0.589760  1
  B  B15  1  0.500000  0.030537  0.410240  1
  B  B16  1  0.500000  0.855459  0.904013  1
  B  B17  1  0.500000  0.144541  0.095987  1
  B  B18  1  0.500000  0.644526  0.404002  1
  B  B19  1  0.500000  0.355474  0.595998  1
  B  B20  1  0.500000  0.469459  0.910239  1
  B  B21  1  0.500000  0.530541  0.089761  1
