# generated using pymatgen
data_TbDy6ErPt4
_symmetry_space_group_name_H-M   'P 1'
_cell_length_a   4.75217600
_cell_length_b   7.15537570
_cell_length_c   8.83004445
_cell_angle_alpha   89.99313380
_cell_angle_beta   90.00000000
_cell_angle_gamma   90.00000000
_symmetry_Int_Tables_number   1
_chemical_formula_structural   TbDy6ErPt4
_chemical_formula_sum   'Tb1 Dy6 Er1 Pt4'
_cell_volume   300.25333852
_cell_formula_units_Z   1
loop_
 _symmetry_equiv_pos_site_id
 _symmetry_equiv_pos_as_xyz
  1  'x, y, z'
loop_
 _atom_site_type_symbol
 _atom_site_label
 _atom_site_symmetry_multiplicity
 _atom_site_fract_x
 _atom_site_fract_y
 _atom_site_fract_z
 _atom_site_occupancy
  Tb  Tb0  1  0.750000  0.006688  0.667176  1
  Dy  Dy1  1  0.250000  0.356339  0.580968  1
  Dy  Dy2  1  0.750000  0.144499  0.081981  1
  Dy  Dy3  1  0.250000  0.855657  0.918478  1
  Dy  Dy4  1  0.750000  0.507939  0.832416  1
  Dy  Dy5  1  0.250000  0.493092  0.168463  1
  Dy  Dy6  1  0.250000  0.991445  0.332240  1
  Er  Er7  1  0.750000  0.643686  0.418730  1
  Pt  Pt8  1  0.750000  0.242497  0.408128  1
  Pt  Pt9  1  0.250000  0.757942  0.589606  1
  Pt  Pt10  1  0.750000  0.740570  0.092959  1
  Pt  Pt11  1  0.250000  0.259645  0.908856  1
