# generated using pymatgen
data_Zr8Ga15Rh7
_symmetry_space_group_name_H-M   'P 1'
_cell_length_a   8.94315756
_cell_length_b   8.94315698
_cell_length_c   8.94315647
_cell_angle_alpha   120.75035869
_cell_angle_beta   119.68814289
_cell_angle_gamma   89.62314094
_symmetry_Int_Tables_number   1
_chemical_formula_structural   Zr8Ga15Rh7
_chemical_formula_sum   'Zr8 Ga15 Rh7'
_cell_volume   504.03271963
_cell_formula_units_Z   1
loop_
 _symmetry_equiv_pos_site_id
 _symmetry_equiv_pos_as_xyz
  1  'x, y, z'
loop_
 _atom_site_type_symbol
 _atom_site_label
 _atom_site_symmetry_multiplicity
 _atom_site_fract_x
 _atom_site_fract_y
 _atom_site_fract_z
 _atom_site_occupancy
  Zr  Zr0  1  0.800080  0.288867  0.073220  1
  Zr  Zr1  1  0.215648  0.288867  0.488788  1
  Zr  Zr2  1  0.195736  0.695736  0.500000  1
  Zr  Zr3  1  0.215648  0.726859  0.926780  1
  Zr  Zr4  1  0.800080  0.726859  0.511212  1
  Zr  Zr5  1  0.773199  0.273199  0.500000  1
  Zr  Zr6  1  0.377675  0.120739  0.743064  1
  Zr  Zr7  1  0.377675  0.634611  0.256936  1
  Ga  Ga8  1  0.984377  0.484377  0.500000  1
  Ga  Ga9  1  0.157476  0.342082  0.184605  1
  Ga  Ga10  1  0.157476  0.972870  0.815395  1
  Ga  Ga11  1  0.150094  0.351232  0.798862  1
  Ga  Ga12  1  0.552369  0.351232  0.201138  1
  Ga  Ga13  1  0.844320  0.653781  0.809462  1
  Ga  Ga14  1  0.844320  0.034858  0.190538  1
  Ga  Ga15  1  0.843006  0.655218  0.187788  1
  Ga  Ga16  1  0.467430  0.655218  0.812212  1
  Ga  Ga17  1  0.375747  0.125636  0.250111  1
  Ga  Ga18  1  0.875526  0.125636  0.749889  1
  Ga  Ga19  1  0.620845  0.867060  0.246215  1
  Ga  Ga20  1  0.620845  0.374630  0.753785  1
  Ga  Ga21  1  0.613956  0.875227  0.738730  1
  Ga  Ga22  1  0.136497  0.875227  0.261270  1
  Rh  Rh23  1  0.998675  0.000807  0.502054  1
  Rh  Rh24  1  0.498753  0.000807  0.002132  1
  Rh  Rh25  1  0.497180  0.497180  0.000000  1
  Rh  Rh26  1  0.498753  0.496622  0.497946  1
  Rh  Rh27  1  0.998675  0.496622  0.997868  1
  Rh  Rh28  1  0.998947  0.998947  0.000000  1
  Rh  Rh29  1  0.508991  0.008991  0.500000  1
