# generated using pymatgen
data_LuThSc4Pb5
_symmetry_space_group_name_H-M   'P 1'
_cell_length_a   6.34438111
_cell_length_b   9.32246911
_cell_length_c   11.34886638
_cell_angle_alpha   114.41727531
_cell_angle_beta   106.23132520
_cell_angle_gamma   90.00000064
_symmetry_Int_Tables_number   1
_chemical_formula_structural   LuThSc4Pb5
_chemical_formula_sum   'Lu2 Th2 Sc8 Pb10'
_cell_volume   581.68700471
_cell_formula_units_Z   2
loop_
 _symmetry_equiv_pos_site_id
 _symmetry_equiv_pos_as_xyz
  1  'x, y, z'
loop_
 _atom_site_type_symbol
 _atom_site_label
 _atom_site_symmetry_multiplicity
 _atom_site_fract_x
 _atom_site_fract_y
 _atom_site_fract_z
 _atom_site_occupancy
  Lu  Lu0  1  0.643072  0.029029  0.286143  1
  Lu  Lu1  1  0.356928  0.970971  0.713857  1
  Th  Th2  1  0.142020  0.259324  0.284038  1
  Th  Th3  1  0.857980  0.740676  0.715962  1
  Sc  Sc4  1  0.555684  0.307125  0.612509  1
  Sc  Sc5  1  0.444316  0.692875  0.387491  1
  Sc  Sc6  1  0.943173  0.692875  0.387491  1
  Sc  Sc7  1  0.056827  0.307125  0.612509  1
  Sc  Sc8  1  0.440451  0.674272  0.880902  1
  Sc  Sc9  1  0.559549  0.325728  0.119098  1
  Sc  Sc10  1  0.939233  0.196940  0.878466  1
  Sc  Sc11  1  0.060767  0.803060  0.121534  1
  Pb  Pb12  1  0.293834  0.597468  0.587669  1
  Pb  Pb13  1  0.706166  0.402532  0.412331  1
  Pb  Pb14  1  0.790519  0.994729  0.581038  1
  Pb  Pb15  1  0.209481  0.005271  0.418962  1
  Pb  Pb16  1  0.254139  0.000000  0.000000  1
  Pb  Pb17  1  0.745861  0.000000  0.000000  1
  Pb  Pb18  1  0.070192  0.484732  0.140385  1
  Pb  Pb19  1  0.929808  0.515268  0.859615  1
  Pb  Pb20  1  0.573610  0.671454  0.147220  1
  Pb  Pb21  1  0.426390  0.328546  0.852780  1
