# generated using pymatgen
data_Ac2YPa3N8
_symmetry_space_group_name_H-M   'P 1'
_cell_length_a   7.17641635
_cell_length_b   7.17617968
_cell_length_c   7.08015935
_cell_angle_alpha   120.44437280
_cell_angle_beta   90.00804162
_cell_angle_gamma   119.99541109
_symmetry_Int_Tables_number   1
_chemical_formula_structural   Ac2YPa3N8
_chemical_formula_sum   'Ac2 Y1 Pa3 N8'
_cell_volume   256.08154026
_cell_formula_units_Z   1
loop_
 _symmetry_equiv_pos_site_id
 _symmetry_equiv_pos_as_xyz
  1  'x, y, z'
loop_
 _atom_site_type_symbol
 _atom_site_label
 _atom_site_symmetry_multiplicity
 _atom_site_fract_x
 _atom_site_fract_y
 _atom_site_fract_z
 _atom_site_occupancy
  Ac  Ac0  1  0.996427  0.992843  0.989263  1
  Ac  Ac1  1  0.753574  0.507157  0.260737  1
  Y  Y2  1  0.375000  0.750000  0.125000  1
  Pa  Pa3  1  0.375000  0.750000  0.624999  1
  Pa  Pa4  1  0.375000  0.249999  0.624999  1
  Pa  Pa5  1  0.874999  0.249999  0.625000  1
  N  N6  1  0.613311  0.226686  0.411208  1
  N  N7  1  0.184526  0.797893  0.411212  1
  N  N8  1  0.613369  0.797893  0.411272  1
  N  N9  1  0.145120  0.290292  0.435405  1
  N  N10  1  0.604879  0.209709  0.814595  1
  N  N11  1  0.136631  0.702106  0.838726  1
  N  N12  1  0.136690  0.273315  0.838792  1
  N  N13  1  0.565474  0.702106  0.838788  1
