# generated using pymatgen
data_Sr21Al5Cd(GaSn2)3
_symmetry_space_group_name_H-M   'P 1'
_cell_length_a   12.22259194
_cell_length_b   12.23465294
_cell_length_c   12.22567679
_cell_angle_alpha   59.84178502
_cell_angle_beta   59.83093389
_cell_angle_gamma   59.85474889
_symmetry_Int_Tables_number   1
_chemical_formula_structural   Sr21Al5Cd(GaSn2)3
_chemical_formula_sum   'Sr21 Al5 Cd1 Ga3 Sn6'
_cell_volume   1288.12376921
_cell_formula_units_Z   1
loop_
 _symmetry_equiv_pos_site_id
 _symmetry_equiv_pos_as_xyz
  1  'x, y, z'
loop_
 _atom_site_type_symbol
 _atom_site_label
 _atom_site_symmetry_multiplicity
 _atom_site_fract_x
 _atom_site_fract_y
 _atom_site_fract_z
 _atom_site_occupancy
  Sr  Sr0  1  0.870682  0.870504  0.388533  1
  Sr  Sr1  1  0.608356  0.131179  0.129946  1
  Sr  Sr2  1  0.870728  0.388440  0.870670  1
  Sr  Sr3  1  0.130239  0.131489  0.130189  1
  Sr  Sr4  1  0.388565  0.870510  0.870704  1
  Sr  Sr5  1  0.870370  0.870170  0.870426  1
  Sr  Sr6  1  0.174373  0.825864  0.499555  1
  Sr  Sr7  1  0.826668  0.499188  0.499598  1
  Sr  Sr8  1  0.129937  0.131201  0.608391  1
  Sr  Sr9  1  0.828219  0.173305  0.499544  1
  Sr  Sr10  1  0.174862  0.499462  0.498676  1
  Sr  Sr11  1  0.130892  0.606692  0.130945  1
  Sr  Sr12  1  0.498643  0.499510  0.174729  1
  Sr  Sr13  1  0.499548  0.173280  0.828221  1
  Sr  Sr14  1  0.499554  0.825880  0.174377  1
  Sr  Sr15  1  0.499611  0.499161  0.826830  1
  Sr  Sr16  1  0.499141  0.173743  0.499131  1
  Sr  Sr17  1  0.174701  0.499405  0.826648  1
  Sr  Sr18  1  0.000275  0.999168  0.000277  1
  Sr  Sr19  1  0.500089  0.825379  0.500050  1
  Sr  Sr20  1  0.826635  0.499420  0.174747  1
  Al  Al21  1  0.694640  0.917290  0.694596  1
  Al  Al22  1  0.694346  0.694176  0.917346  1
  Al  Al23  1  0.694635  0.693405  0.694478  1
  Al  Al24  1  0.304070  0.086622  0.304134  1
  Al  Al25  1  0.917363  0.694152  0.694279  1
  Cd  Cd26  1  0.500098  0.499555  0.500060  1
  Ga  Ga27  1  0.306477  0.306754  0.080197  1
  Ga  Ga28  1  0.080166  0.306809  0.306516  1
  Ga  Ga29  1  0.306165  0.307624  0.306285  1
  Sn  Sn30  1  0.784994  0.213928  0.785043  1
  Sn  Sn31  1  0.785046  0.216020  0.216048  1
  Sn  Sn32  1  0.214828  0.786414  0.214858  1
  Sn  Sn33  1  0.214941  0.784093  0.784002  1
  Sn  Sn34  1  0.784124  0.784311  0.214828  1
  Sn  Sn35  1  0.216017  0.215901  0.785145  1
