# generated using pymatgen
data_Lu16Sc4SiSb11
_symmetry_space_group_name_H-M   'P 1'
_cell_length_a   7.82995461
_cell_length_b   9.05265900
_cell_length_c   11.51757800
_cell_angle_alpha   90.00000000
_cell_angle_beta   89.72132613
_cell_angle_gamma   90.00000000
_symmetry_Int_Tables_number   1
_chemical_formula_structural   Lu16Sc4SiSb11
_chemical_formula_sum   'Lu16 Sc4 Si1 Sb11'
_cell_volume   816.37826055
_cell_formula_units_Z   1
loop_
 _symmetry_equiv_pos_site_id
 _symmetry_equiv_pos_as_xyz
  1  'x, y, z'
loop_
 _atom_site_type_symbol
 _atom_site_label
 _atom_site_symmetry_multiplicity
 _atom_site_fract_x
 _atom_site_fract_y
 _atom_site_fract_z
 _atom_site_occupancy
  Lu  Lu0  1  0.189856  0.568250  0.444056  1
  Lu  Lu1  1  0.698158  0.936867  0.061460  1
  Lu  Lu2  1  0.805386  0.049601  0.559520  1
  Lu  Lu3  1  0.302303  0.437956  0.940091  1
  Lu  Lu4  1  0.805386  0.450399  0.559520  1
  Lu  Lu5  1  0.302303  0.062044  0.940091  1
  Lu  Lu6  1  0.189856  0.931750  0.444056  1
  Lu  Lu7  1  0.698158  0.563133  0.061460  1
  Lu  Lu8  1  0.171929  0.750000  0.712874  1
  Lu  Lu9  1  0.690844  0.750000  0.774219  1
  Lu  Lu10  1  0.814738  0.250000  0.279292  1
  Lu  Lu11  1  0.313507  0.250000  0.221282  1
  Lu  Lu12  1  0.855800  0.750000  0.294714  1
  Lu  Lu13  1  0.353044  0.750000  0.214387  1
  Lu  Lu14  1  0.147006  0.250000  0.714552  1
  Lu  Lu15  1  0.646425  0.250000  0.783280  1
  Sc  Sc16  1  0.029760  0.750000  0.988034  1
  Sc  Sc17  1  0.537861  0.750000  0.511155  1
  Sc  Sc18  1  0.971625  0.250000  0.011563  1
  Sc  Sc19  1  0.475046  0.250000  0.489829  1
  Si  Si20  1  0.909254  0.750000  0.537922  1
  Sb  Sb21  1  0.934134  0.495732  0.829994  1
  Sb  Sb22  1  0.433483  0.001985  0.670071  1
  Sb  Sb23  1  0.066029  0.995463  0.170531  1
  Sb  Sb24  1  0.564738  0.503154  0.329994  1
  Sb  Sb25  1  0.066029  0.504537  0.170531  1
  Sb  Sb26  1  0.564738  0.996846  0.329994  1
  Sb  Sb27  1  0.934134  0.004268  0.829994  1
  Sb  Sb28  1  0.433483  0.498015  0.670071  1
  Sb  Sb29  1  0.410300  0.750000  0.956111  1
  Sb  Sb30  1  0.092474  0.250000  0.458828  1
  Sb  Sb31  1  0.592212  0.250000  0.040522  1
