# generated using pymatgen
data_RbHo(PSe3)2
_symmetry_space_group_name_H-M   'P 1'
_cell_length_a   7.63851900
_cell_length_b   6.93619192
_cell_length_c   11.03663602
_cell_angle_alpha   86.40280977
_cell_angle_beta   90.00000000
_cell_angle_gamma   90.00000000
_symmetry_Int_Tables_number   1
_chemical_formula_structural   RbHo(PSe3)2
_chemical_formula_sum   'Rb2 Ho2 P4 Se12'
_cell_volume   583.59356769
_cell_formula_units_Z   2
loop_
 _symmetry_equiv_pos_site_id
 _symmetry_equiv_pos_as_xyz
  1  'x, y, z'
loop_
 _atom_site_type_symbol
 _atom_site_label
 _atom_site_symmetry_multiplicity
 _atom_site_fract_x
 _atom_site_fract_y
 _atom_site_fract_z
 _atom_site_occupancy
  Rb  Rb0  1  0.679840  0.192682  0.005467  1
  Rb  Rb1  1  0.179840  0.807318  0.994533  1
  Ho  Ho2  1  0.889191  0.280573  0.500917  1
  Ho  Ho3  1  0.389191  0.719427  0.499083  1
  P  P4  1  0.153471  0.293344  0.775913  1
  P  P5  1  0.653471  0.706656  0.224087  1
  P  P6  1  0.875473  0.823452  0.335297  1
  P  P7  1  0.375473  0.176548  0.664703  1
  Se  Se8  1  0.074110  0.585692  0.343611  1
  Se  Se9  1  0.939039  0.090443  0.752072  1
  Se  Se10  1  0.574110  0.414308  0.656389  1
  Se  Se11  1  0.236929  0.321850  0.960714  1
  Se  Se12  1  0.579958  0.446531  0.345107  1
  Se  Se13  1  0.079958  0.553469  0.654893  1
  Se  Se14  1  0.748884  0.875050  0.514846  1
  Se  Se15  1  0.248884  0.124950  0.485154  1
  Se  Se16  1  0.474909  0.896891  0.739826  1
  Se  Se17  1  0.974909  0.103109  0.260174  1
  Se  Se18  1  0.736929  0.678150  0.039286  1
  Se  Se19  1  0.439039  0.909557  0.247928  1
