# generated using pymatgen
data_Er5Ga3Si4Ni3
_symmetry_space_group_name_H-M   'P 1'
_cell_length_a   4.14167400
_cell_length_b   18.84002600
_cell_length_c   6.79966600
_cell_angle_alpha   90.00000000
_cell_angle_beta   90.00000000
_cell_angle_gamma   90.00000000
_symmetry_Int_Tables_number   1
_chemical_formula_structural   Er5Ga3Si4Ni3
_chemical_formula_sum   'Er10 Ga6 Si8 Ni6'
_cell_volume   530.57280997
_cell_formula_units_Z   2
loop_
 _symmetry_equiv_pos_site_id
 _symmetry_equiv_pos_as_xyz
  1  'x, y, z'
loop_
 _atom_site_type_symbol
 _atom_site_label
 _atom_site_symmetry_multiplicity
 _atom_site_fract_x
 _atom_site_fract_y
 _atom_site_fract_z
 _atom_site_occupancy
  Er  Er0  1  0.249998  0.571583  0.497690  1
  Er  Er1  1  0.249998  0.928417  0.497690  1
  Er  Er2  1  0.750000  0.428417  0.502310  1
  Er  Er3  1  0.750000  0.071583  0.502310  1
  Er  Er4  1  0.249998  0.620820  0.997682  1
  Er  Er5  1  0.249998  0.879179  0.997682  1
  Er  Er6  1  0.750000  0.379180  0.002318  1
  Er  Er7  1  0.750000  0.120821  0.002318  1
  Er  Er8  1  0.249998  0.750000  0.613719  1
  Er  Er9  1  0.750000  0.250000  0.386281  1
  Ga  Ga10  1  0.249998  0.250000  0.036343  1
  Ga  Ga11  1  0.750000  0.750000  0.963658  1
  Ga  Ga12  1  0.249998  0.175030  0.680885  1
  Ga  Ga13  1  0.249998  0.324970  0.680885  1
  Ga  Ga14  1  0.750000  0.824969  0.319115  1
  Ga  Ga15  1  0.750000  0.675030  0.319115  1
  Si  Si16  1  0.249998  0.143359  0.287145  1
  Si  Si17  1  0.249998  0.356641  0.287145  1
  Si  Si18  1  0.750000  0.856641  0.712856  1
  Si  Si19  1  0.750000  0.643359  0.712856  1
  Si  Si20  1  0.249998  0.035891  0.802776  1
  Si  Si21  1  0.249998  0.464109  0.802776  1
  Si  Si22  1  0.750000  0.964110  0.197224  1
  Si  Si23  1  0.750000  0.535891  0.197224  1
  Ni  Ni24  1  0.249998  0.750000  0.206992  1
  Ni  Ni25  1  0.750000  0.250000  0.793008  1
  Ni  Ni26  1  0.249998  0.025430  0.161681  1
  Ni  Ni27  1  0.249998  0.474570  0.161681  1
  Ni  Ni28  1  0.750000  0.974570  0.838319  1
  Ni  Ni29  1  0.750000  0.525430  0.838319  1
