# generated using pymatgen
data_Tb6Er3TmSi6
_symmetry_space_group_name_H-M   'P 1'
_cell_length_a   8.44898000
_cell_length_b   8.44897973
_cell_length_c   6.33218000
_cell_angle_alpha   90.00000000
_cell_angle_beta   90.00000000
_cell_angle_gamma   120.00000107
_symmetry_Int_Tables_number   1
_chemical_formula_structural   Tb6Er3TmSi6
_chemical_formula_sum   'Tb6 Er3 Tm1 Si6'
_cell_volume   391.46454026
_cell_formula_units_Z   1
loop_
 _symmetry_equiv_pos_site_id
 _symmetry_equiv_pos_as_xyz
  1  'x, y, z'
loop_
 _atom_site_type_symbol
 _atom_site_label
 _atom_site_symmetry_multiplicity
 _atom_site_fract_x
 _atom_site_fract_y
 _atom_site_fract_z
 _atom_site_occupancy
  Tb  Tb0  1  0.000071  0.756020  0.749919  1
  Tb  Tb1  1  0.000071  0.244052  0.250081  1
  Tb  Tb2  1  0.755948  0.756020  0.250081  1
  Tb  Tb3  1  0.755948  0.999929  0.749919  1
  Tb  Tb4  1  0.243980  0.244052  0.749919  1
  Tb  Tb5  1  0.243980  0.999929  0.250081  1
  Er  Er6  1  0.666667  0.333333  0.000000  1
  Er  Er7  1  0.666667  0.333333  0.500000  1
  Er  Er8  1  0.333333  0.666667  0.000000  1
  Tm  Tm9  1  0.333333  0.666667  0.500000  1
  Si  Si10  1  0.395007  0.999783  0.749786  1
  Si  Si11  1  0.395007  0.395224  0.250214  1
  Si  Si12  1  0.000217  0.604993  0.250214  1
  Si  Si13  1  0.000217  0.395224  0.749786  1
  Si  Si14  1  0.604776  0.604993  0.749786  1
  Si  Si15  1  0.604776  0.999783  0.250214  1
