# generated using pymatgen
data_Tb(HoHg2)5
_symmetry_space_group_name_H-M   'P 1'
_cell_length_a   6.36310477
_cell_length_b   6.36310342
_cell_length_c   10.16129700
_cell_angle_alpha   90.04314872
_cell_angle_beta   90.04314929
_cell_angle_gamma   105.23744001
_symmetry_Int_Tables_number   1
_chemical_formula_structural   Tb(HoHg2)5
_chemical_formula_sum   'Tb1 Ho5 Hg10'
_cell_volume   396.95785480
_cell_formula_units_Z   1
loop_
 _symmetry_equiv_pos_site_id
 _symmetry_equiv_pos_as_xyz
  1  'x, y, z'
loop_
 _atom_site_type_symbol
 _atom_site_label
 _atom_site_symmetry_multiplicity
 _atom_site_fract_x
 _atom_site_fract_y
 _atom_site_fract_z
 _atom_site_occupancy
  Tb  Tb0  1  0.212733  0.787267  0.500000  1
  Ho  Ho1  1  0.571322  0.570351  0.249825  1
  Ho  Ho2  1  0.429649  0.428678  0.750175  1
  Ho  Ho3  1  0.213402  0.786598  0.000000  1
  Ho  Ho4  1  0.786928  0.213072  0.500000  1
  Ho  Ho5  1  0.786370  0.213630  0.000000  1
  Hg  Hg6  1  0.973955  0.974152  0.249592  1
  Hg  Hg7  1  0.025848  0.026045  0.750408  1
  Hg  Hg8  1  0.292367  0.292424  0.029158  1
  Hg  Hg9  1  0.707576  0.707633  0.970842  1
  Hg  Hg10  1  0.292913  0.293523  0.470380  1
  Hg  Hg11  1  0.706477  0.707087  0.529620  1
  Hg  Hg12  1  0.481958  0.039408  0.249450  1
  Hg  Hg13  1  0.960592  0.518042  0.750550  1
  Hg  Hg14  1  0.519593  0.961684  0.750607  1
  Hg  Hg15  1  0.038316  0.480407  0.249393  1
