# generated using pymatgen
data_NdP12Os3Rh
_symmetry_space_group_name_H-M   'P 1'
_cell_length_a   7.03831781
_cell_length_b   7.04913584
_cell_length_c   7.03831804
_cell_angle_alpha   109.50236393
_cell_angle_beta   109.44006561
_cell_angle_gamma   109.50236303
_symmetry_Int_Tables_number   1
_chemical_formula_structural   NdP12Os3Rh
_chemical_formula_sum   'Nd1 P12 Os3 Rh1'
_cell_volume   268.71051129
_cell_formula_units_Z   1
loop_
 _symmetry_equiv_pos_site_id
 _symmetry_equiv_pos_as_xyz
  1  'x, y, z'
loop_
 _atom_site_type_symbol
 _atom_site_label
 _atom_site_symmetry_multiplicity
 _atom_site_fract_x
 _atom_site_fract_y
 _atom_site_fract_z
 _atom_site_occupancy
  Nd  Nd0  1  0.000000  0.000000  0.000000  1
  P  P1  1  0.355474  0.212178  0.857214  1
  P  P2  1  0.644526  0.787822  0.142786  1
  P  P3  1  0.642167  0.501819  0.856218  1
  P  P4  1  0.357833  0.498181  0.143782  1
  P  P5  1  0.214051  0.859652  0.357833  1
  P  P6  1  0.785949  0.140348  0.642167  1
  P  P7  1  0.501740  0.856704  0.644526  1
  P  P8  1  0.498260  0.143296  0.355474  1
  P  P9  1  0.856218  0.354399  0.214051  1
  P  P10  1  0.143782  0.645601  0.785949  1
  P  P11  1  0.857214  0.645036  0.501740  1
  P  P12  1  0.142786  0.354964  0.498260  1
  Os  Os13  1  0.000000  0.000000  0.500000  1
  Os  Os14  1  0.500000  0.000000  0.000000  1
  Os  Os15  1  0.500000  0.500000  0.500000  1
  Rh  Rh16  1  0.000000  0.500000  0.000000  1
