# generated using pymatgen
data_Ba3Tc2(P3Ir2)2
_symmetry_space_group_name_H-M   'P 1'
_cell_length_a   8.94179675
_cell_length_b   8.94095248
_cell_length_c   8.94095118
_cell_angle_alpha   153.60629586
_cell_angle_beta   91.80680622
_cell_angle_gamma   94.16908506
_symmetry_Int_Tables_number   1
_chemical_formula_structural   Ba3Tc2(P3Ir2)2
_chemical_formula_sum   'Ba3 Tc2 P6 Ir4'
_cell_volume   309.29759337
_cell_formula_units_Z   1
loop_
 _symmetry_equiv_pos_site_id
 _symmetry_equiv_pos_as_xyz
  1  'x, y, z'
loop_
 _atom_site_type_symbol
 _atom_site_label
 _atom_site_symmetry_multiplicity
 _atom_site_fract_x
 _atom_site_fract_y
 _atom_site_fract_z
 _atom_site_occupancy
  Ba  Ba0  1  0.331398  0.331705  0.999693  1
  Ba  Ba1  1  0.667329  0.666745  0.000584  1
  Ba  Ba2  1  0.001214  0.001537  0.999677  1
  Tc  Tc3  1  0.583653  0.834714  0.748937  1
  Tc  Tc4  1  0.247673  0.498613  0.749059  1
  P  P5  1  0.321406  0.666601  0.654804  1
  P  P6  1  0.680401  0.334446  0.345955  1
  P  P7  1  0.988111  0.335524  0.652586  1
  P  P8  1  0.345141  0.999089  0.346051  1
  P  P9  1  0.015684  0.666633  0.349053  1
  P  P10  1  0.650139  0.997711  0.652429  1
  Ir  Ir11  1  0.753451  0.503535  0.249916  1
  Ir  Ir12  1  0.079961  0.829827  0.250134  1
  Ir  Ir13  1  0.417001  0.166675  0.250326  1
  Ir  Ir14  1  0.917438  0.166642  0.750797  1
