# generated using pymatgen
data_TbTh2(InRh)3
_symmetry_space_group_name_H-M   'P 1'
_cell_length_a   7.63834200
_cell_length_b   7.74728088
_cell_length_c   3.94650200
_cell_angle_alpha   90.00000000
_cell_angle_beta   90.00000000
_cell_angle_gamma   119.53593571
_symmetry_Int_Tables_number   1
_chemical_formula_structural   TbTh2(InRh)3
_chemical_formula_sum   'Tb1 Th2 In3 Rh3'
_cell_volume   203.19044533
_cell_formula_units_Z   1
loop_
 _symmetry_equiv_pos_site_id
 _symmetry_equiv_pos_as_xyz
  1  'x, y, z'
loop_
 _atom_site_type_symbol
 _atom_site_label
 _atom_site_symmetry_multiplicity
 _atom_site_fract_x
 _atom_site_fract_y
 _atom_site_fract_z
 _atom_site_occupancy
  Tb  Tb0  1  0.592044  0.000000  0.500000  1
  Th  Th1  1  0.996853  0.586108  0.500000  1
  Th  Th2  1  0.410745  0.413892  0.500000  1
  In  In3  1  0.746707  0.760970  0.000000  1
  In  In4  1  0.985738  0.239030  0.000000  1
  In  In5  1  0.268357  0.000000  0.000000  1
  Rh  Rh6  1  0.315257  0.645644  0.000000  1
  Rh  Rh7  1  0.014686  0.000000  0.500000  1
  Rh  Rh8  1  0.669614  0.354356  0.000000  1
