# generated using pymatgen
data_Nd5Bi3(OsO6)4
_symmetry_space_group_name_H-M   'P 1'
_cell_length_a   5.47651313
_cell_length_b   9.33620156
_cell_length_c   10.13827819
_cell_angle_alpha   90.11840365
_cell_angle_beta   89.93688841
_cell_angle_gamma   90.09374815
_symmetry_Int_Tables_number   1
_chemical_formula_structural   Nd5Bi3(OsO6)4
_chemical_formula_sum   'Nd5 Bi3 Os4 O24'
_cell_volume   518.36633082
_cell_formula_units_Z   1
loop_
 _symmetry_equiv_pos_site_id
 _symmetry_equiv_pos_as_xyz
  1  'x, y, z'
loop_
 _atom_site_type_symbol
 _atom_site_label
 _atom_site_symmetry_multiplicity
 _atom_site_fract_x
 _atom_site_fract_y
 _atom_site_fract_z
 _atom_site_occupancy
  Nd  Nd0  1  0.475700  0.896668  0.960644  1
  Nd  Nd1  1  0.034475  0.217169  0.866343  1
  Nd  Nd2  1  0.535373  0.279715  0.133337  1
  Nd  Nd3  1  0.965706  0.719279  0.635396  1
  Nd  Nd4  1  0.466180  0.780254  0.367305  1
  Bi  Bi5  1  0.023481  0.103398  0.461448  1
  Bi  Bi6  1  0.524182  0.397925  0.540080  1
  Bi  Bi7  1  0.975953  0.602460  0.039152  1
  Os  Os8  1  0.541468  0.004635  0.643702  1
  Os  Os9  1  0.042247  0.495890  0.355132  1
  Os  Os10  1  0.460469  0.502220  0.856012  1
  Os  Os11  1  0.956438  0.994882  0.145949  1
  O  O12  1  0.251222  0.415496  0.995765  1
  O  O13  1  0.749369  0.087833  0.005905  1
  O  O14  1  0.749944  0.917469  0.503644  1
  O  O15  1  0.250442  0.582685  0.495638  1
  O  O16  1  0.223165  0.111407  0.065248  1
  O  O17  1  0.722635  0.385051  0.933070  1
  O  O18  1  0.779170  0.614739  0.434353  1
  O  O19  1  0.276712  0.885683  0.565355  1
  O  O20  1  0.308088  0.365265  0.322673  1
  O  O21  1  0.809567  0.135806  0.675907  1
  O  O22  1  0.686406  0.867872  0.180314  1
  O  O23  1  0.194635  0.636711  0.825134  1
  O  O24  1  0.162820  0.947174  0.287962  1
  O  O25  1  0.667718  0.549107  0.711093  1
  O  O26  1  0.834256  0.449150  0.211832  1
  O  O27  1  0.332334  0.053545  0.786721  1
  O  O28  1  0.180518  0.638149  0.239779  1
  O  O29  1  0.683013  0.861676  0.757801  1
  O  O30  1  0.824201  0.139583  0.260859  1
  O  O31  1  0.316727  0.364159  0.738923  1
  O  O32  1  0.068102  0.847041  0.022742  1
  O  O33  1  0.581876  0.649707  0.975718  1
  O  O34  1  0.922230  0.348503  0.475427  1
  O  O35  1  0.423180  0.151694  0.523640  1
