# generated using pymatgen
data_Dy5Er5(Bi3C)2
_symmetry_space_group_name_H-M   'P 1'
_cell_length_a   9.13819607
_cell_length_b   9.13626784
_cell_length_c   6.45428600
_cell_angle_alpha   90.00000000
_cell_angle_beta   90.00000000
_cell_angle_gamma   119.99302842
_symmetry_Int_Tables_number   1
_chemical_formula_structural   Dy5Er5(Bi3C)2
_chemical_formula_sum   'Dy5 Er5 Bi6 C2'
_cell_volume   466.70089896
_cell_formula_units_Z   1
loop_
 _symmetry_equiv_pos_site_id
 _symmetry_equiv_pos_as_xyz
  1  'x, y, z'
loop_
 _atom_site_type_symbol
 _atom_site_label
 _atom_site_symmetry_multiplicity
 _atom_site_fract_x
 _atom_site_fract_y
 _atom_site_fract_z
 _atom_site_occupancy
  Dy  Dy0  1  0.666645  0.333435  0.000197  1
  Dy  Dy1  1  0.333355  0.666791  0.000197  1
  Dy  Dy2  1  0.333355  0.666791  0.499803  1
  Dy  Dy3  1  0.666645  0.333435  0.499803  1
  Dy  Dy4  1  0.000000  0.790778  0.250000  1
  Er  Er5  1  0.794645  0.795172  0.750000  1
  Er  Er6  1  0.205355  0.000527  0.750000  1
  Er  Er7  1  0.000000  0.205482  0.750000  1
  Er  Er8  1  0.205072  0.205007  0.250000  1
  Er  Er9  1  0.794928  0.999935  0.250000  1
  Bi  Bi10  1  0.400224  0.400064  0.750000  1
  Bi  Bi11  1  0.599776  0.999840  0.750000  1
  Bi  Bi12  1  0.000000  0.600695  0.750000  1
  Bi  Bi13  1  0.599075  0.599959  0.250000  1
  Bi  Bi14  1  0.400925  0.000884  0.250000  1
  Bi  Bi15  1  0.000000  0.399036  0.250000  1
  C  C16  1  0.000000  0.001084  0.999417  1
  C  C17  1  0.000000  0.001084  0.500583  1
