# generated using pymatgen
data_Ba5Au6
_symmetry_space_group_name_H-M   'P 1'
_cell_length_a   17.26459900
_cell_length_b   17.26459856
_cell_length_c   4.67071600
_cell_angle_alpha   90.00000000
_cell_angle_beta   90.00000000
_cell_angle_gamma   164.62743228
_symmetry_Int_Tables_number   1
_chemical_formula_structural   Ba5Au6
_chemical_formula_sum   'Ba5 Au6'
_cell_volume   369.06014557
_cell_formula_units_Z   1
loop_
 _symmetry_equiv_pos_site_id
 _symmetry_equiv_pos_as_xyz
  1  'x, y, z'
loop_
 _atom_site_type_symbol
 _atom_site_label
 _atom_site_symmetry_multiplicity
 _atom_site_fract_x
 _atom_site_fract_y
 _atom_site_fract_z
 _atom_site_occupancy
  Ba  Ba0  1  0.000000  0.000000  0.000000  1
  Ba  Ba1  1  0.614295  0.385705  0.000000  1
  Ba  Ba2  1  0.385705  0.614295  0.000000  1
  Ba  Ba3  1  0.801553  0.198446  0.500000  1
  Ba  Ba4  1  0.198446  0.801553  0.500000  1
  Au  Au5  1  0.719417  0.280583  0.000000  1
  Au  Au6  1  0.280583  0.719417  0.000000  1
  Au  Au7  1  0.905481  0.094519  0.500000  1
  Au  Au8  1  0.541306  0.458693  0.500000  1
  Au  Au9  1  0.458693  0.541306  0.500000  1
  Au  Au10  1  0.094519  0.905481  0.500000  1
