# generated using pymatgen
data_Y4Ga4Ir2PtRh
_symmetry_space_group_name_H-M   'P 1'
_cell_length_a   4.39857700
_cell_length_b   6.85469925
_cell_length_c   7.73335795
_cell_angle_alpha   89.71096150
_cell_angle_beta   90.00000000
_cell_angle_gamma   90.00000000
_symmetry_Int_Tables_number   1
_chemical_formula_structural   Y4Ga4Ir2PtRh
_chemical_formula_sum   'Y4 Ga4 Ir2 Pt1 Rh1'
_cell_volume   233.16490905
_cell_formula_units_Z   1
loop_
 _symmetry_equiv_pos_site_id
 _symmetry_equiv_pos_as_xyz
  1  'x, y, z'
loop_
 _atom_site_type_symbol
 _atom_site_label
 _atom_site_symmetry_multiplicity
 _atom_site_fract_x
 _atom_site_fract_y
 _atom_site_fract_z
 _atom_site_occupancy
  Y  Y0  1  0.250000  0.981448  0.306581  1
  Y  Y1  1  0.250000  0.482540  0.196206  1
  Y  Y2  1  0.750000  0.020727  0.690869  1
  Y  Y3  1  0.750000  0.522130  0.807673  1
  Ga  Ga4  1  0.250000  0.338589  0.570616  1
  Ga  Ga5  1  0.250000  0.834054  0.926368  1
  Ga  Ga6  1  0.750000  0.662496  0.426670  1
  Ga  Ga7  1  0.750000  0.160453  0.075712  1
  Ir  Ir8  1  0.750000  0.771734  0.102823  1
  Ir  Ir9  1  0.750000  0.271738  0.396522  1
  Pt  Pt10  1  0.250000  0.227031  0.897008  1
  Rh  Rh11  1  0.250000  0.727061  0.602952  1
