# generated using pymatgen
data_Sc8Si16Tc11Ir
_symmetry_space_group_name_H-M   'P 1'
_cell_length_a   6.61915631
_cell_length_b   6.61915587
_cell_length_c   12.43436365
_cell_angle_alpha   89.98039503
_cell_angle_beta   90.01960363
_cell_angle_gamma   90.26629737
_symmetry_Int_Tables_number   1
_chemical_formula_structural   Sc8Si16Tc11Ir
_chemical_formula_sum   'Sc8 Si16 Tc11 Ir1'
_cell_volume   544.78365356
_cell_formula_units_Z   1
loop_
 _symmetry_equiv_pos_site_id
 _symmetry_equiv_pos_as_xyz
  1  'x, y, z'
loop_
 _atom_site_type_symbol
 _atom_site_label
 _atom_site_symmetry_multiplicity
 _atom_site_fract_x
 _atom_site_fract_y
 _atom_site_fract_z
 _atom_site_occupancy
  Sc  Sc0  1  0.007004  0.657469  0.031508  1
  Sc  Sc1  1  0.994863  0.337886  0.532374  1
  Sc  Sc2  1  0.337886  0.994863  0.467626  1
  Sc  Sc3  1  0.158227  0.492141  0.782085  1
  Sc  Sc4  1  0.842557  0.505263  0.279220  1
  Sc  Sc5  1  0.492141  0.158227  0.217915  1
  Sc  Sc6  1  0.505263  0.842557  0.720780  1
  Sc  Sc7  1  0.657469  0.007004  0.968492  1
  Si  Si8  1  0.027950  0.722437  0.437235  1
  Si  Si9  1  0.618371  0.303442  0.430947  1
  Si  Si10  1  0.380213  0.694458  0.931513  1
  Si  Si11  1  0.195219  0.120651  0.680595  1
  Si  Si12  1  0.303442  0.618371  0.569053  1
  Si  Si13  1  0.694458  0.380213  0.068487  1
  Si  Si14  1  0.805691  0.880011  0.180998  1
  Si  Si15  1  0.120651  0.195219  0.319405  1
  Si  Si16  1  0.975768  0.274976  0.938539  1
  Si  Si17  1  0.722437  0.027950  0.562765  1
  Si  Si18  1  0.222791  0.474736  0.188192  1
  Si  Si19  1  0.778679  0.523756  0.689197  1
  Si  Si20  1  0.474736  0.222791  0.811808  1
  Si  Si21  1  0.523756  0.778679  0.310803  1
  Si  Si22  1  0.274976  0.975768  0.061461  1
  Si  Si23  1  0.880011  0.805691  0.819002  1
  Tc  Tc24  1  0.166585  0.831576  0.250348  1
  Tc  Tc25  1  0.332049  0.332049  0.000000  1
  Tc  Tc26  1  0.020509  0.813842  0.631190  1
  Tc  Tc27  1  0.979785  0.188287  0.134090  1
  Tc  Tc28  1  0.813842  0.020509  0.368810  1
  Tc  Tc29  1  0.316554  0.482958  0.383489  1
  Tc  Tc30  1  0.684976  0.517342  0.881924  1
  Tc  Tc31  1  0.482958  0.316554  0.616511  1
  Tc  Tc32  1  0.517342  0.684976  0.118076  1
  Tc  Tc33  1  0.188287  0.979785  0.865910  1
  Tc  Tc34  1  0.831576  0.166585  0.749652  1
  Ir  Ir35  1  0.670977  0.670977  0.500000  1
