# generated using pymatgen
data_Sc22Ru4PtRh3
_symmetry_space_group_name_H-M   'P 1'
_cell_length_a   9.52571170
_cell_length_b   9.51362756
_cell_length_c   9.49188165
_cell_angle_alpha   60.15974429
_cell_angle_beta   60.03329968
_cell_angle_gamma   59.58457897
_symmetry_Int_Tables_number   1
_chemical_formula_structural   Sc22Ru4PtRh3
_chemical_formula_sum   'Sc22 Ru4 Pt1 Rh3'
_cell_volume   607.19180411
_cell_formula_units_Z   1
loop_
 _symmetry_equiv_pos_site_id
 _symmetry_equiv_pos_as_xyz
  1  'x, y, z'
loop_
 _atom_site_type_symbol
 _atom_site_label
 _atom_site_symmetry_multiplicity
 _atom_site_fract_x
 _atom_site_fract_y
 _atom_site_fract_z
 _atom_site_occupancy
  Sc  Sc0  1  0.803595  0.803595  0.196405  1
  Sc  Sc1  1  0.194309  0.805691  0.197395  1
  Sc  Sc2  1  0.806151  0.193849  0.197295  1
  Sc  Sc3  1  0.196405  0.196405  0.803595  1
  Sc  Sc4  1  0.805691  0.194309  0.802605  1
  Sc  Sc5  1  0.193849  0.806151  0.802705  1
  Sc  Sc6  1  0.613888  0.616535  0.151743  1
  Sc  Sc7  1  0.612881  0.151771  0.619142  1
  Sc  Sc8  1  0.151771  0.612881  0.616208  1
  Sc  Sc9  1  0.616535  0.613888  0.617836  1
  Sc  Sc10  1  0.386112  0.383465  0.848257  1
  Sc  Sc11  1  0.387119  0.848229  0.380858  1
  Sc  Sc12  1  0.848229  0.387119  0.383792  1
  Sc  Sc13  1  0.383465  0.386112  0.382164  1
  Sc  Sc14  1  0.841048  0.837587  0.473981  1
  Sc  Sc15  1  0.843827  0.470335  0.841697  1
  Sc  Sc16  1  0.470335  0.843827  0.844140  1
  Sc  Sc17  1  0.837587  0.841048  0.847381  1
  Sc  Sc18  1  0.158952  0.162413  0.526019  1
  Sc  Sc19  1  0.156173  0.529665  0.158303  1
  Sc  Sc20  1  0.529665  0.156173  0.155860  1
  Sc  Sc21  1  0.162413  0.158952  0.152619  1
  Ru  Ru22  1  0.000000  0.000000  0.000000  1
  Ru  Ru23  1  0.500000  0.500000  0.500000  1
  Ru  Ru24  1  0.000000  0.500000  0.500000  1
  Ru  Ru25  1  0.500000  0.000000  0.000000  1
  Pt  Pt26  1  0.000000  0.000000  0.500000  1
  Rh  Rh27  1  0.500000  0.000000  0.500000  1
  Rh  Rh28  1  0.500000  0.500000  0.000000  1
  Rh  Rh29  1  0.000000  0.500000  0.000000  1
