# generated using pymatgen
data_La8ZnAgPd23
_symmetry_space_group_name_H-M   'P 1'
_cell_length_a   8.50437600
_cell_length_b   8.59047000
_cell_length_c   8.59047000
_cell_angle_alpha   90.00000000
_cell_angle_beta   90.00000000
_cell_angle_gamma   90.00000000
_symmetry_Int_Tables_number   1
_chemical_formula_structural   La8ZnAgPd23
_chemical_formula_sum   'La8 Zn1 Ag1 Pd23'
_cell_volume   627.59041804
_cell_formula_units_Z   1
loop_
 _symmetry_equiv_pos_site_id
 _symmetry_equiv_pos_as_xyz
  1  'x, y, z'
loop_
 _atom_site_type_symbol
 _atom_site_label
 _atom_site_symmetry_multiplicity
 _atom_site_fract_x
 _atom_site_fract_y
 _atom_site_fract_z
 _atom_site_occupancy
  La  La0  1  0.250418  0.244497  0.244497  1
  La  La1  1  0.748870  0.749186  0.749186  1
  La  La2  1  0.748870  0.749186  0.250814  1
  La  La3  1  0.748870  0.250814  0.749186  1
  La  La4  1  0.250418  0.244497  0.755503  1
  La  La5  1  0.250418  0.755503  0.244497  1
  La  La6  1  0.250418  0.755503  0.755503  1
  La  La7  1  0.748870  0.250814  0.250814  1
  Zn  Zn8  1  0.999368  0.000000  0.000000  1
  Ag  Ag9  1  0.255957  0.500000  0.500000  1
  Pd  Pd10  1  0.262266  0.500000  0.000000  1
  Pd  Pd11  1  0.737430  0.500000  0.000000  1
  Pd  Pd12  1  0.002741  0.261926  0.500000  1
  Pd  Pd13  1  0.500749  0.263140  0.000000  1
  Pd  Pd14  1  0.002741  0.738074  0.500000  1
  Pd  Pd15  1  0.500749  0.736860  0.000000  1
  Pd  Pd16  1  0.500749  0.000000  0.263140  1
  Pd  Pd17  1  0.262266  0.000000  0.500000  1
  Pd  Pd18  1  0.500749  0.000000  0.736860  1
  Pd  Pd19  1  0.737430  0.000000  0.500000  1
  Pd  Pd20  1  0.002741  0.500000  0.261926  1
  Pd  Pd21  1  0.002741  0.500000  0.738074  1
  Pd  Pd22  1  0.745696  0.500000  0.500000  1
  Pd  Pd23  1  0.497688  0.253959  0.500000  1
  Pd  Pd24  1  0.497688  0.746041  0.500000  1
  Pd  Pd25  1  0.497688  0.500000  0.253959  1
  Pd  Pd26  1  0.497688  0.500000  0.746041  1
  Pd  Pd27  1  0.299600  0.000000  0.000000  1
  Pd  Pd28  1  0.701501  0.000000  0.000000  1
  Pd  Pd29  1  0.999157  0.297589  0.000000  1
  Pd  Pd30  1  0.999157  0.702411  0.000000  1
  Pd  Pd31  1  0.999157  0.000000  0.297589  1
  Pd  Pd32  1  0.999157  0.000000  0.702411  1
