# generated using pymatgen
data_RbCo2SbO6
_symmetry_space_group_name_H-M   'P 1'
_cell_length_a   7.67079367
_cell_length_b   7.67079428
_cell_length_c   7.67079283
_cell_angle_alpha   39.08360194
_cell_angle_beta   39.08359712
_cell_angle_gamma   39.08360125
_symmetry_Int_Tables_number   1
_chemical_formula_structural   RbCo2SbO6
_chemical_formula_sum   'Rb1 Co2 Sb1 O6'
_cell_volume   161.36439828
_cell_formula_units_Z   1
loop_
 _symmetry_equiv_pos_site_id
 _symmetry_equiv_pos_as_xyz
  1  'x, y, z'
loop_
 _atom_site_type_symbol
 _atom_site_label
 _atom_site_symmetry_multiplicity
 _atom_site_fract_x
 _atom_site_fract_y
 _atom_site_fract_z
 _atom_site_occupancy
  Rb  Rb0  1  0.000000  0.000000  0.000000  1
  Co  Co1  1  0.167469  0.167469  0.167469  1
  Co  Co2  1  0.832531  0.832531  0.832531  1
  Sb  Sb3  1  0.500000  0.500000  0.500000  1
  O  O4  1  0.799542  0.449132  0.109642  1
  O  O5  1  0.550869  0.890357  0.200458  1
  O  O6  1  0.109643  0.799541  0.449132  1
  O  O7  1  0.890357  0.200459  0.550868  1
  O  O8  1  0.449131  0.109643  0.799542  1
  O  O9  1  0.200458  0.550868  0.890358  1
