# generated using pymatgen
data_TbYEr3CoBi2
_symmetry_space_group_name_H-M   'P 1'
_cell_length_a   7.96186000
_cell_length_b   8.87127300
_cell_length_c   12.43442300
_cell_angle_alpha   90.00000000
_cell_angle_beta   90.00000000
_cell_angle_gamma   90.00000000
_symmetry_Int_Tables_number   1
_chemical_formula_structural   TbYEr3CoBi2
_chemical_formula_sum   'Tb4 Y4 Er12 Co4 Bi8'
_cell_volume   878.26609684
_cell_formula_units_Z   4
loop_
 _symmetry_equiv_pos_site_id
 _symmetry_equiv_pos_as_xyz
  1  'x, y, z'
loop_
 _atom_site_type_symbol
 _atom_site_label
 _atom_site_symmetry_multiplicity
 _atom_site_fract_x
 _atom_site_fract_y
 _atom_site_fract_z
 _atom_site_occupancy
  Tb  Tb0  1  0.123826  0.750000  0.813218  1
  Tb  Tb1  1  0.876174  0.250000  0.186782  1
  Tb  Tb2  1  0.623826  0.250000  0.686782  1
  Tb  Tb3  1  0.376174  0.750000  0.313218  1
  Y  Y4  1  0.655332  0.750000  0.700543  1
  Y  Y5  1  0.344668  0.250000  0.299457  1
  Y  Y6  1  0.155332  0.250000  0.799457  1
  Y  Y7  1  0.844668  0.750000  0.200543  1
  Er  Er8  1  0.553637  0.750000  0.996732  1
  Er  Er9  1  0.446363  0.250000  0.003268  1
  Er  Er10  1  0.053637  0.250000  0.503268  1
  Er  Er11  1  0.946363  0.750000  0.496732  1
  Er  Er12  1  0.826848  0.463787  0.935485  1
  Er  Er13  1  0.173152  0.536213  0.064515  1
  Er  Er14  1  0.326848  0.536213  0.564515  1
  Er  Er15  1  0.173152  0.963787  0.064515  1
  Er  Er16  1  0.673152  0.463787  0.435485  1
  Er  Er17  1  0.826848  0.036213  0.935485  1
  Er  Er18  1  0.673152  0.036213  0.435485  1
  Er  Er19  1  0.326848  0.963787  0.564515  1
  Co  Co20  1  0.937082  0.750000  0.992068  1
  Co  Co21  1  0.062918  0.250000  0.007932  1
  Co  Co22  1  0.437082  0.250000  0.507932  1
  Co  Co23  1  0.562918  0.750000  0.492068  1
  Bi  Bi24  1  0.934936  0.006570  0.672271  1
  Bi  Bi25  1  0.065064  0.993430  0.327729  1
  Bi  Bi26  1  0.434936  0.993430  0.827729  1
  Bi  Bi27  1  0.065064  0.506570  0.327729  1
  Bi  Bi28  1  0.565064  0.006570  0.172271  1
  Bi  Bi29  1  0.934936  0.493430  0.672271  1
  Bi  Bi30  1  0.565064  0.493430  0.172271  1
  Bi  Bi31  1  0.434936  0.506570  0.827729  1
