# generated using pymatgen
data_Eu2GaIrI
_symmetry_space_group_name_H-M   'P 1'
_cell_length_a   4.33769300
_cell_length_b   4.33769296
_cell_length_c   17.58827800
_cell_angle_alpha   90.00000000
_cell_angle_beta   90.00000000
_cell_angle_gamma   120.00000791
_symmetry_Int_Tables_number   1
_chemical_formula_structural   Eu2GaIrI
_chemical_formula_sum   'Eu4 Ga2 Ir2 I2'
_cell_volume   286.59693265
_cell_formula_units_Z   2
loop_
 _symmetry_equiv_pos_site_id
 _symmetry_equiv_pos_as_xyz
  1  'x, y, z'
loop_
 _atom_site_type_symbol
 _atom_site_label
 _atom_site_symmetry_multiplicity
 _atom_site_fract_x
 _atom_site_fract_y
 _atom_site_fract_z
 _atom_site_occupancy
  Eu  Eu0  1  0.000000  0.000000  0.110291  1
  Eu  Eu1  1  0.000000  0.000000  0.389709  1
  Eu  Eu2  1  0.000000  0.000000  0.610228  1
  Eu  Eu3  1  0.000000  0.000000  0.889772  1
  Ga  Ga4  1  0.666666  0.333332  0.500851  1
  Ga  Ga5  1  0.666666  0.333332  0.999149  1
  Ir  Ir6  1  0.333334  0.666668  0.000710  1
  Ir  Ir7  1  0.333334  0.666668  0.499290  1
  I  I8  1  0.666666  0.333332  0.250000  1
  I  I9  1  0.333334  0.666668  0.750000  1
