# generated using pymatgen
data_Lu8TaTi11Ge16
_symmetry_space_group_name_H-M   'P 1'
_cell_length_a   7.09868765
_cell_length_b   7.09868827
_cell_length_c   13.04783011
_cell_angle_alpha   89.97066715
_cell_angle_beta   90.02933455
_cell_angle_gamma   90.04486505
_symmetry_Int_Tables_number   1
_chemical_formula_structural   Lu8TaTi11Ge16
_chemical_formula_sum   'Lu8 Ta1 Ti11 Ge16'
_cell_volume   657.49767112
_cell_formula_units_Z   1
loop_
 _symmetry_equiv_pos_site_id
 _symmetry_equiv_pos_as_xyz
  1  'x, y, z'
loop_
 _atom_site_type_symbol
 _atom_site_label
 _atom_site_symmetry_multiplicity
 _atom_site_fract_x
 _atom_site_fract_y
 _atom_site_fract_z
 _atom_site_occupancy
  Lu  Lu0  1  0.340414  0.001408  0.468273  1
  Lu  Lu1  1  0.498707  0.839669  0.718354  1
  Lu  Lu2  1  0.500748  0.159377  0.217731  1
  Lu  Lu3  1  0.839669  0.498707  0.281646  1
  Lu  Lu4  1  0.159377  0.500748  0.782269  1
  Lu  Lu5  1  0.658904  0.999241  0.968387  1
  Lu  Lu6  1  0.001408  0.340414  0.531727  1
  Lu  Lu7  1  0.999241  0.658904  0.031613  1
  Ta  Ta8  1  0.327654  0.327654  0.000000  1
  Ti  Ti9  1  0.172854  0.827450  0.250120  1
  Ti  Ti10  1  0.827450  0.172854  0.749880  1
  Ti  Ti11  1  0.672302  0.672302  0.500000  1
  Ti  Ti12  1  0.155979  0.007265  0.875998  1
  Ti  Ti13  1  0.493333  0.653609  0.124656  1
  Ti  Ti14  1  0.506359  0.345913  0.625403  1
  Ti  Ti15  1  0.653609  0.493333  0.875344  1
  Ti  Ti16  1  0.345913  0.506359  0.374597  1
  Ti  Ti17  1  0.845023  0.994234  0.375427  1
  Ti  Ti18  1  0.007265  0.155979  0.124002  1
  Ti  Ti19  1  0.994234  0.845023  0.624573  1
  Ge  Ge20  1  0.197546  0.129928  0.678966  1
  Ge  Ge21  1  0.370155  0.699290  0.928625  1
  Ge  Ge22  1  0.630134  0.302201  0.429216  1
  Ge  Ge23  1  0.699290  0.370155  0.071375  1
  Ge  Ge24  1  0.302201  0.630134  0.570784  1
  Ge  Ge25  1  0.802258  0.869990  0.179168  1
  Ge  Ge26  1  0.129928  0.197546  0.321034  1
  Ge  Ge27  1  0.869990  0.802258  0.820832  1
  Ge  Ge28  1  0.293165  0.958851  0.068651  1
  Ge  Ge29  1  0.539330  0.793700  0.318178  1
  Ge  Ge30  1  0.461999  0.205140  0.816648  1
  Ge  Ge31  1  0.793700  0.539330  0.681822  1
  Ge  Ge32  1  0.205140  0.461999  0.183352  1
  Ge  Ge33  1  0.706724  0.039142  0.568151  1
  Ge  Ge34  1  0.958851  0.293165  0.931349  1
  Ge  Ge35  1  0.039142  0.706724  0.431849  1
