# generated using pymatgen
data_Tb2CeIn3Ir2Rh
_symmetry_space_group_name_H-M   'P 1'
_cell_length_a   7.56666069
_cell_length_b   7.56666039
_cell_length_c   3.89410100
_cell_angle_alpha   90.00000000
_cell_angle_beta   90.00000000
_cell_angle_gamma   118.20315444
_symmetry_Int_Tables_number   1
_chemical_formula_structural   Tb2CeIn3Ir2Rh
_chemical_formula_sum   'Tb2 Ce1 In3 Ir2 Rh1'
_cell_volume   196.48453049
_cell_formula_units_Z   1
loop_
 _symmetry_equiv_pos_site_id
 _symmetry_equiv_pos_as_xyz
  1  'x, y, z'
loop_
 _atom_site_type_symbol
 _atom_site_label
 _atom_site_symmetry_multiplicity
 _atom_site_fract_x
 _atom_site_fract_y
 _atom_site_fract_z
 _atom_site_occupancy
  Tb  Tb0  1  0.407852  0.999841  0.500000  1
  Tb  Tb1  1  0.999841  0.407852  0.500000  1
  Ce  Ce2  1  0.580541  0.580541  0.500000  1
  In  In3  1  0.744144  0.005947  0.000000  1
  In  In4  1  0.005947  0.744144  0.000000  1
  In  In5  1  0.246988  0.246988  0.000000  1
  Ir  Ir6  1  0.350277  0.666548  0.000000  1
  Ir  Ir7  1  0.666548  0.350277  0.000000  1
  Rh  Rh8  1  0.997864  0.997864  0.500000  1
