# generated using pymatgen
data_BaLaPt10
_symmetry_space_group_name_H-M   'P 1'
_cell_length_a   4.40074000
_cell_length_b   5.54646600
_cell_length_c   9.59596300
_cell_angle_alpha   89.99998967
_cell_angle_beta   90.00000000
_cell_angle_gamma   90.00000000
_symmetry_Int_Tables_number   1
_chemical_formula_structural   BaLaPt10
_chemical_formula_sum   'Ba1 La1 Pt10'
_cell_volume   234.22358860
_cell_formula_units_Z   1
loop_
 _symmetry_equiv_pos_site_id
 _symmetry_equiv_pos_as_xyz
  1  'x, y, z'
loop_
 _atom_site_type_symbol
 _atom_site_label
 _atom_site_symmetry_multiplicity
 _atom_site_fract_x
 _atom_site_fract_y
 _atom_site_fract_z
 _atom_site_occupancy
  Ba  Ba0  1  0.000000  0.999981  0.000000  1
  La  La1  1  0.000000  0.499977  0.500000  1
  Pt  Pt2  1  0.000000  0.999983  0.338949  1
  Pt  Pt3  1  0.000000  0.499982  0.825588  1
  Pt  Pt4  1  0.000000  0.499982  0.174412  1
  Pt  Pt5  1  0.000000  0.999983  0.661051  1
  Pt  Pt6  1  0.500000  0.999990  0.500000  1
  Pt  Pt7  1  0.500000  0.499982  0.000000  1
  Pt  Pt8  1  0.500000  0.253175  0.255749  1
  Pt  Pt9  1  0.500000  0.746795  0.744251  1
  Pt  Pt10  1  0.500000  0.746795  0.255749  1
  Pt  Pt11  1  0.500000  0.253175  0.744251  1
