# generated using pymatgen
data_EuVSiO4
_symmetry_space_group_name_H-M   'P 1'
_cell_length_a   4.92966100
_cell_length_b   6.78027700
_cell_length_c   11.74449200
_cell_angle_alpha   90.00000000
_cell_angle_beta   90.00000000
_cell_angle_gamma   90.00000000
_symmetry_Int_Tables_number   1
_chemical_formula_structural   EuVSiO4
_chemical_formula_sum   'Eu4 V4 Si4 O16'
_cell_volume   392.55338641
_cell_formula_units_Z   4
loop_
 _symmetry_equiv_pos_site_id
 _symmetry_equiv_pos_as_xyz
  1  'x, y, z'
loop_
 _atom_site_type_symbol
 _atom_site_label
 _atom_site_symmetry_multiplicity
 _atom_site_fract_x
 _atom_site_fract_y
 _atom_site_fract_z
 _atom_site_occupancy
  Eu  Eu0  1  0.032554  0.750000  0.720505  1
  Eu  Eu1  1  0.967446  0.250000  0.279495  1
  Eu  Eu2  1  0.532554  0.250000  0.779495  1
  Eu  Eu3  1  0.467446  0.750000  0.220505  1
  V  V4  1  0.500000  0.500000  0.500000  1
  V  V5  1  0.000000  0.500000  0.000000  1
  V  V6  1  0.500000  0.000000  0.500000  1
  V  V7  1  0.000000  0.000000  0.000000  1
  Si  Si8  1  0.585436  0.750000  0.919905  1
  Si  Si9  1  0.414564  0.250000  0.080095  1
  Si  Si10  1  0.085436  0.250000  0.580095  1
  Si  Si11  1  0.914564  0.750000  0.419905  1
  O  O12  1  0.716637  0.554756  0.855324  1
  O  O13  1  0.283363  0.445244  0.144676  1
  O  O14  1  0.216637  0.445244  0.644676  1
  O  O15  1  0.283363  0.054756  0.144676  1
  O  O16  1  0.783363  0.554756  0.355324  1
  O  O17  1  0.716637  0.945244  0.855324  1
  O  O18  1  0.783363  0.945244  0.355324  1
  O  O19  1  0.216637  0.054756  0.644676  1
  O  O20  1  0.758707  0.750000  0.546536  1
  O  O21  1  0.241293  0.250000  0.453464  1
  O  O22  1  0.258707  0.250000  0.953464  1
  O  O23  1  0.741293  0.750000  0.046536  1
  O  O24  1  0.253230  0.750000  0.927001  1
  O  O25  1  0.746770  0.250000  0.072999  1
  O  O26  1  0.753230  0.250000  0.572999  1
  O  O27  1  0.246770  0.750000  0.427001  1
