# generated using pymatgen
data_CaYTh2(Al3Rh)6
_symmetry_space_group_name_H-M   'P 1'
_cell_length_a   7.62134263
_cell_length_b   7.61789968
_cell_length_c   9.54043600
_cell_angle_alpha   90.00000000
_cell_angle_beta   90.00000000
_cell_angle_gamma   119.28875579
_symmetry_Int_Tables_number   1
_chemical_formula_structural   CaYTh2(Al3Rh)6
_chemical_formula_sum   'Ca1 Y1 Th2 Al18 Rh6'
_cell_volume   483.09635462
_cell_formula_units_Z   1
loop_
 _symmetry_equiv_pos_site_id
 _symmetry_equiv_pos_as_xyz
  1  'x, y, z'
loop_
 _atom_site_type_symbol
 _atom_site_label
 _atom_site_symmetry_multiplicity
 _atom_site_fract_x
 _atom_site_fract_y
 _atom_site_fract_z
 _atom_site_occupancy
  Ca  Ca0  1  0.005333  0.327570  0.750000  1
  Y  Y1  1  0.327535  0.004596  0.750000  1
  Th  Th2  1  0.994747  0.670555  0.250000  1
  Th  Th3  1  0.672499  0.995569  0.250000  1
  Al  Al4  1  0.134480  0.134942  0.250000  1
  Al  Al5  1  0.873589  0.872201  0.750000  1
  Al  Al6  1  0.005927  0.335906  0.068567  1
  Al  Al7  1  0.999897  0.663517  0.918519  1
  Al  Al8  1  0.999897  0.663517  0.581481  1
  Al  Al9  1  0.335730  0.005443  0.429830  1
  Al  Al10  1  0.005927  0.335906  0.431433  1
  Al  Al11  1  0.664411  0.000194  0.581223  1
  Al  Al12  1  0.664411  0.000194  0.918777  1
  Al  Al13  1  0.335730  0.005443  0.070170  1
  Al  Al14  1  0.332089  0.332139  0.554476  1
  Al  Al15  1  0.663446  0.663556  0.460513  1
  Al  Al16  1  0.663446  0.663556  0.039487  1
  Al  Al17  1  0.332089  0.332139  0.945524  1
  Al  Al18  1  0.339948  0.544516  0.250000  1
  Al  Al19  1  0.656445  0.447019  0.750000  1
  Al  Al20  1  0.544132  0.340020  0.250000  1
  Al  Al21  1  0.448664  0.661438  0.750000  1
  Rh  Rh22  1  0.671653  0.328076  0.002055  1
  Rh  Rh23  1  0.329293  0.673822  0.001775  1
  Rh  Rh24  1  0.329293  0.673822  0.498225  1
  Rh  Rh25  1  0.671653  0.328076  0.497945  1
  Rh  Rh26  1  0.998867  0.998134  0.002069  1
  Rh  Rh27  1  0.998867  0.998134  0.497931  1
