# generated using pymatgen
data_Y3ErHfPt3F28
_symmetry_space_group_name_H-M   'P 1'
_cell_length_a   5.58350880
_cell_length_b   8.93615139
_cell_length_c   12.03384185
_cell_angle_alpha   62.52663031
_cell_angle_beta   90.06169714
_cell_angle_gamma   90.03254051
_symmetry_Int_Tables_number   1
_chemical_formula_structural   Y3ErHfPt3F28
_chemical_formula_sum   'Y3 Er1 Hf1 Pt3 F28'
_cell_volume   532.71596443
_cell_formula_units_Z   1
loop_
 _symmetry_equiv_pos_site_id
 _symmetry_equiv_pos_as_xyz
  1  'x, y, z'
loop_
 _atom_site_type_symbol
 _atom_site_label
 _atom_site_symmetry_multiplicity
 _atom_site_fract_x
 _atom_site_fract_y
 _atom_site_fract_z
 _atom_site_occupancy
  Y  Y0  1  0.739815  0.186472  0.735439  1
  Y  Y1  1  0.761242  0.181472  0.237633  1
  Y  Y2  1  0.240066  0.814442  0.762163  1
  Er  Er3  1  0.258886  0.812376  0.269074  1
  Hf  Hf4  1  0.755694  0.725073  0.045026  1
  Pt  Pt5  1  0.240545  0.272183  0.957045  1
  Pt  Pt6  1  0.259820  0.273404  0.456251  1
  Pt  Pt7  1  0.741199  0.726072  0.543426  1
  F  F8  1  0.935450  0.703546  0.415587  1
  F  F9  1  0.064459  0.296562  0.583223  1
  F  F10  1  0.435777  0.296122  0.084285  1
  F  F11  1  0.542036  0.710683  0.917409  1
  F  F12  1  0.475196  0.732209  0.146483  1
  F  F13  1  0.531055  0.275398  0.863727  1
  F  F14  1  0.968461  0.272941  0.364104  1
  F  F15  1  0.034020  0.725779  0.634232  1
  F  F16  1  0.964055  0.750010  0.172856  1
  F  F17  1  0.052682  0.255471  0.824312  1
  F  F18  1  0.450944  0.256848  0.324293  1
  F  F19  1  0.554180  0.742816  0.676113  1
  F  F20  1  0.775214  0.473202  0.141380  1
  F  F21  1  0.223427  0.519646  0.857203  1
  F  F22  1  0.269692  0.521587  0.359117  1
  F  F23  1  0.729123  0.478652  0.641753  1
  F  F24  1  0.942264  0.276203  0.043917  1
  F  F25  1  0.053355  0.722967  0.951329  1
  F  F26  1  0.440971  0.719127  0.458615  1
  F  F27  1  0.558092  0.281346  0.541382  1
  F  F28  1  0.743493  0.973657  0.450932  1
  F  F29  1  0.258968  0.025692  0.548063  1
  F  F30  1  0.245570  0.024553  0.052333  1
  F  F31  1  0.759303  0.976243  0.942503  1
  F  F32  1  0.579588  0.967249  0.234811  1
  F  F33  1  0.414868  0.031932  0.765139  1
  F  F34  1  0.085298  0.026621  0.269719  1
  F  F35  1  0.915187  0.971439  0.729127  1
