# generated using pymatgen
data_YErNiPt
_symmetry_space_group_name_H-M   'P 1'
_cell_length_a   4.34150100
_cell_length_b   5.50533900
_cell_length_c   7.07764600
_cell_angle_alpha   90.00000000
_cell_angle_beta   90.00000000
_cell_angle_gamma   90.00000000
_symmetry_Int_Tables_number   1
_chemical_formula_structural   YErNiPt
_chemical_formula_sum   'Y2 Er2 Ni2 Pt2'
_cell_volume   169.16589422
_cell_formula_units_Z   2
loop_
 _symmetry_equiv_pos_site_id
 _symmetry_equiv_pos_as_xyz
  1  'x, y, z'
loop_
 _atom_site_type_symbol
 _atom_site_label
 _atom_site_symmetry_multiplicity
 _atom_site_fract_x
 _atom_site_fract_y
 _atom_site_fract_z
 _atom_site_occupancy
  Y  Y0  1  0.500000  0.385164  0.319377  1
  Y  Y1  1  0.500000  0.614836  0.819377  1
  Er  Er2  1  0.000000  0.117869  0.679642  1
  Er  Er3  1  0.000000  0.882131  0.179642  1
  Ni  Ni4  1  0.000000  0.613032  0.541388  1
  Ni  Ni5  1  0.000000  0.386968  0.041388  1
  Pt  Pt6  1  0.500000  0.887308  0.459594  1
  Pt  Pt7  1  0.500000  0.112692  0.959594  1
