# generated using pymatgen
data_La6Nd4SnBi5Cl2
_symmetry_space_group_name_H-M   'P 1'
_cell_length_a   9.69482122
_cell_length_b   9.69482127
_cell_length_c   6.74546500
_cell_angle_alpha   90.00000000
_cell_angle_beta   90.00000000
_cell_angle_gamma   119.85880398
_symmetry_Int_Tables_number   1
_chemical_formula_structural   La6Nd4SnBi5Cl2
_chemical_formula_sum   'La6 Nd4 Sn1 Bi5 Cl2'
_cell_volume   549.84247755
_cell_formula_units_Z   1
loop_
 _symmetry_equiv_pos_site_id
 _symmetry_equiv_pos_as_xyz
  1  'x, y, z'
loop_
 _atom_site_type_symbol
 _atom_site_label
 _atom_site_symmetry_multiplicity
 _atom_site_fract_x
 _atom_site_fract_y
 _atom_site_fract_z
 _atom_site_occupancy
  La  La0  1  0.735272  0.999934  0.750000  1
  La  La1  1  0.732761  0.732761  0.250000  1
  La  La2  1  0.003756  0.265620  0.250000  1
  La  La3  1  0.999934  0.735272  0.750000  1
  La  La4  1  0.265715  0.265715  0.750000  1
  La  La5  1  0.265620  0.003756  0.250000  1
  Nd  Nd6  1  0.665194  0.333632  0.000960  1
  Nd  Nd7  1  0.333632  0.665194  0.499040  1
  Nd  Nd8  1  0.665194  0.333632  0.499040  1
  Nd  Nd9  1  0.333632  0.665194  0.000960  1
  Sn  Sn10  1  0.388035  0.388035  0.250000  1
  Bi  Bi11  1  0.611830  0.611830  0.750000  1
  Bi  Bi12  1  0.000851  0.613581  0.250000  1
  Bi  Bi13  1  0.613581  0.000851  0.250000  1
  Bi  Bi14  1  0.387296  0.999940  0.750000  1
  Bi  Bi15  1  0.999940  0.387296  0.750000  1
  Cl  Cl16  1  0.998880  0.998880  0.500547  1
  Cl  Cl17  1  0.998880  0.998880  0.999453  1
