# generated using pymatgen
data_Y5HoTm2(Si3Rh)4
_symmetry_space_group_name_H-M   'P 1'
_cell_length_a   8.17094855
_cell_length_b   8.16582088
_cell_length_c   7.89918700
_cell_angle_alpha   90.00000000
_cell_angle_beta   90.00000000
_cell_angle_gamma   119.97903125
_symmetry_Int_Tables_number   1
_chemical_formula_structural   Y5HoTm2(Si3Rh)4
_chemical_formula_sum   'Y5 Ho1 Tm2 Si12 Rh4'
_cell_volume   456.53815281
_cell_formula_units_Z   1
loop_
 _symmetry_equiv_pos_site_id
 _symmetry_equiv_pos_as_xyz
  1  'x, y, z'
loop_
 _atom_site_type_symbol
 _atom_site_label
 _atom_site_symmetry_multiplicity
 _atom_site_fract_x
 _atom_site_fract_y
 _atom_site_fract_z
 _atom_site_occupancy
  Y  Y0  1  0.000181  0.000090  0.250000  1
  Y  Y1  1  0.999809  0.999905  0.750000  1
  Y  Y2  1  0.508759  0.491140  0.250000  1
  Y  Y3  1  0.508767  0.017625  0.250000  1
  Y  Y4  1  0.982356  0.491182  0.250000  1
  Ho  Ho5  1  0.018736  0.509362  0.750000  1
  Tm  Tm6  1  0.491194  0.509098  0.750000  1
  Tm  Tm7  1  0.491197  0.982098  0.750000  1
  Si  Si8  1  0.167192  0.833184  0.501759  1
  Si  Si9  1  0.167191  0.334011  0.501759  1
  Si  Si10  1  0.665880  0.832940  0.502492  1
  Si  Si11  1  0.832466  0.167339  0.501788  1
  Si  Si12  1  0.832463  0.665123  0.501788  1
  Si  Si13  1  0.334693  0.167346  0.501966  1
  Si  Si14  1  0.832466  0.167339  0.998212  1
  Si  Si15  1  0.832463  0.665123  0.998212  1
  Si  Si16  1  0.334693  0.167346  0.998034  1
  Si  Si17  1  0.167192  0.833184  0.998241  1
  Si  Si18  1  0.167191  0.334011  0.998241  1
  Si  Si19  1  0.665880  0.832940  0.997508  1
  Rh  Rh20  1  0.333679  0.666841  0.471479  1
  Rh  Rh21  1  0.665937  0.332967  0.539655  1
  Rh  Rh22  1  0.665937  0.332967  0.960345  1
  Rh  Rh23  1  0.333679  0.666841  0.028521  1
