# generated using pymatgen
data_Pr10BiPPb5Br
_symmetry_space_group_name_H-M   'P 1'
_cell_length_a   9.63960388
_cell_length_b   9.63960331
_cell_length_c   7.05732447
_cell_angle_alpha   89.97851472
_cell_angle_beta   89.97851230
_cell_angle_gamma   120.14487647
_symmetry_Int_Tables_number   1
_chemical_formula_structural   Pr10BiPPb5Br
_chemical_formula_sum   'Pr10 Bi1 P1 Pb5 Br1'
_cell_volume   567.09142093
_cell_formula_units_Z   1
loop_
 _symmetry_equiv_pos_site_id
 _symmetry_equiv_pos_as_xyz
  1  'x, y, z'
loop_
 _atom_site_type_symbol
 _atom_site_label
 _atom_site_symmetry_multiplicity
 _atom_site_fract_x
 _atom_site_fract_y
 _atom_site_fract_z
 _atom_site_occupancy
  Pr  Pr0  1  0.250161  0.000718  0.732922  1
  Pr  Pr1  1  0.751547  0.002652  0.267521  1
  Pr  Pr2  1  0.000718  0.250161  0.732922  1
  Pr  Pr3  1  0.002652  0.751547  0.267521  1
  Pr  Pr4  1  0.750157  0.750157  0.731716  1
  Pr  Pr5  1  0.248502  0.248502  0.267894  1
  Pr  Pr6  1  0.332083  0.667405  0.500502  1
  Pr  Pr7  1  0.667405  0.332083  0.500502  1
  Pr  Pr8  1  0.667313  0.331209  0.999152  1
  Pr  Pr9  1  0.331209  0.667313  0.999152  1
  Bi  Bi10  1  0.605690  0.605690  0.249535  1
  P  P11  1  0.999322  0.999322  0.499936  1
  Pb  Pb12  1  0.605255  0.999303  0.750455  1
  Pb  Pb13  1  0.395040  0.000149  0.249598  1
  Pb  Pb14  1  0.999303  0.605255  0.750455  1
  Pb  Pb15  1  0.000149  0.395040  0.249598  1
  Pb  Pb16  1  0.394333  0.394333  0.750741  1
  Br  Br17  1  0.999161  0.999161  0.999876  1
