# generated using pymatgen
data_Dy3Er5(B6Os)4
_symmetry_space_group_name_H-M   'P 1'
_cell_length_a   3.63960300
_cell_length_b   9.11852937
_cell_length_c   11.50076091
_cell_angle_alpha   90.00160895
_cell_angle_beta   90.00000000
_cell_angle_gamma   90.00000000
_symmetry_Int_Tables_number   1
_chemical_formula_structural   Dy3Er5(B6Os)4
_chemical_formula_sum   'Dy3 Er5 B24 Os4'
_cell_volume   381.68526178
_cell_formula_units_Z   1
loop_
 _symmetry_equiv_pos_site_id
 _symmetry_equiv_pos_as_xyz
  1  'x, y, z'
loop_
 _atom_site_type_symbol
 _atom_site_label
 _atom_site_symmetry_multiplicity
 _atom_site_fract_x
 _atom_site_fract_y
 _atom_site_fract_z
 _atom_site_occupancy
  Dy  Dy0  1  0.000000  0.321768  0.414049  1
  Dy  Dy1  1  0.000000  0.678293  0.586007  1
  Dy  Dy2  1  0.000000  0.821784  0.085871  1
  Er  Er3  1  0.000000  0.178417  0.914135  1
  Er  Er4  1  0.000000  0.943752  0.372780  1
  Er  Er5  1  0.000000  0.056268  0.627214  1
  Er  Er6  1  0.000000  0.443722  0.126825  1
  Er  Er7  1  0.000000  0.556183  0.873081  1
  B  B8  1  0.500000  0.553893  0.433015  1
  B  B9  1  0.500000  0.445930  0.567213  1
  B  B10  1  0.500000  0.054131  0.066577  1
  B  B11  1  0.500000  0.946534  0.933031  1
  B  B12  1  0.500000  0.748486  0.419644  1
  B  B13  1  0.500000  0.251479  0.580564  1
  B  B14  1  0.500000  0.248331  0.079788  1
  B  B15  1  0.500000  0.751781  0.919644  1
  B  B16  1  0.500000  0.790976  0.266205  1
  B  B17  1  0.500000  0.208764  0.734203  1
  B  B18  1  0.500000  0.290927  0.233450  1
  B  B19  1  0.500000  0.709170  0.766375  1
  B  B20  1  0.500000  0.631035  0.184959  1
  B  B21  1  0.500000  0.368532  0.815317  1
  B  B22  1  0.500000  0.131126  0.314832  1
  B  B23  1  0.500000  0.869150  0.685150  1
  B  B24  1  0.500000  0.982854  0.212999  1
  B  B25  1  0.500000  0.017784  0.787084  1
  B  B26  1  0.500000  0.482699  0.286700  1
  B  B27  1  0.500000  0.517049  0.713409  1
  B  B28  1  0.500000  0.606344  0.029374  1
  B  B29  1  0.500000  0.392986  0.970394  1
  B  B30  1  0.500000  0.106040  0.470674  1
  B  B31  1  0.500000  0.894069  0.529344  1
  Os  Os32  1  0.000000  0.637339  0.321105  1
  Os  Os33  1  0.000000  0.362158  0.679294  1
  Os  Os34  1  0.000000  0.137296  0.178641  1
  Os  Os35  1  0.000000  0.862951  0.821054  1
