# generated using pymatgen
data_LaZn9Au2
_symmetry_space_group_name_H-M   'P 1'
_cell_length_a   8.45152457
_cell_length_b   8.45152479
_cell_length_c   8.45152511
_cell_angle_alpha   99.82003604
_cell_angle_beta   99.82003411
_cell_angle_gamma   131.21541452
_symmetry_Int_Tables_number   1
_chemical_formula_structural   LaZn9Au2
_chemical_formula_sum   'La2 Zn18 Au4'
_cell_volume   413.57505475
_cell_formula_units_Z   2
loop_
 _symmetry_equiv_pos_site_id
 _symmetry_equiv_pos_as_xyz
  1  'x, y, z'
loop_
 _atom_site_type_symbol
 _atom_site_label
 _atom_site_symmetry_multiplicity
 _atom_site_fract_x
 _atom_site_fract_y
 _atom_site_fract_z
 _atom_site_occupancy
  La  La0  1  0.250000  0.750000  0.500000  1
  La  La1  1  0.000000  0.000000  0.000000  1
  Zn  Zn2  1  0.907972  0.578655  0.085652  1
  Zn  Zn3  1  0.421345  0.506997  0.329318  1
  Zn  Zn4  1  0.493003  0.578655  0.670682  1
  Zn  Zn5  1  0.421345  0.092028  0.914348  1
  Zn  Zn6  1  0.756997  0.171345  0.829318  1
  Zn  Zn7  1  0.493003  0.822320  0.914348  1
  Zn  Zn8  1  0.500000  0.500000  0.000000  1
  Zn  Zn9  1  0.756997  0.927680  0.585652  1
  Zn  Zn10  1  0.750000  0.250000  0.500000  1
  Zn  Zn11  1  0.072320  0.657972  0.829318  1
  Zn  Zn12  1  0.342028  0.171345  0.414348  1
  Zn  Zn13  1  0.828655  0.657972  0.585652  1
  Zn  Zn14  1  0.907972  0.822320  0.329318  1
  Zn  Zn15  1  0.177680  0.092028  0.670682  1
  Zn  Zn16  1  0.072320  0.243003  0.414348  1
  Zn  Zn17  1  0.342028  0.927680  0.170682  1
  Zn  Zn18  1  0.828655  0.243003  0.170682  1
  Zn  Zn19  1  0.177680  0.506997  0.085652  1
  Au  Au20  1  0.625000  0.875000  0.250000  1
  Au  Au21  1  0.125000  0.375000  0.750000  1
  Au  Au22  1  0.625000  0.375000  0.250000  1
  Au  Au23  1  0.625000  0.375000  0.750000  1
