# generated using pymatgen
data_PaMn12NbP7
_symmetry_space_group_name_H-M   'P 1'
_cell_length_a   9.11903800
_cell_length_b   9.11903838
_cell_length_c   3.61489300
_cell_angle_alpha   90.00000000
_cell_angle_beta   90.00000000
_cell_angle_gamma   119.99999864
_symmetry_Int_Tables_number   1
_chemical_formula_structural   PaMn12NbP7
_chemical_formula_sum   'Pa1 Mn12 Nb1 P7'
_cell_volume   260.32996099
_cell_formula_units_Z   1
loop_
 _symmetry_equiv_pos_site_id
 _symmetry_equiv_pos_as_xyz
  1  'x, y, z'
loop_
 _atom_site_type_symbol
 _atom_site_label
 _atom_site_symmetry_multiplicity
 _atom_site_fract_x
 _atom_site_fract_y
 _atom_site_fract_z
 _atom_site_occupancy
  Pa  Pa0  1  0.666667  0.333333  0.500000  1
  Mn  Mn1  1  0.712544  0.616968  0.000000  1
  Mn  Mn2  1  0.383032  0.095576  0.000000  1
  Mn  Mn3  1  0.904424  0.287456  0.000000  1
  Mn  Mn4  1  0.208102  0.384532  0.000000  1
  Mn  Mn5  1  0.615468  0.823571  0.000000  1
  Mn  Mn6  1  0.176429  0.791898  0.000000  1
  Mn  Mn7  1  0.283498  0.227860  0.500000  1
  Mn  Mn8  1  0.772140  0.055636  0.500000  1
  Mn  Mn9  1  0.944364  0.716502  0.500000  1
  Mn  Mn10  1  0.456305  0.560412  0.500000  1
  Mn  Mn11  1  0.439588  0.895894  0.500000  1
  Mn  Mn12  1  0.104106  0.543695  0.500000  1
  Nb  Nb13  1  0.000000  0.000000  0.000000  1
  P  P14  1  0.449528  0.376455  0.000000  1
  P  P15  1  0.623545  0.073073  0.000000  1
  P  P16  1  0.926927  0.550472  0.000000  1
  P  P17  1  0.048200  0.251384  0.500000  1
  P  P18  1  0.748616  0.796818  0.500000  1
  P  P19  1  0.203182  0.951800  0.500000  1
  P  P20  1  0.333333  0.666667  0.000000  1
