# generated using pymatgen
data_Dy6Pb5
_symmetry_space_group_name_H-M   'P 1'
_cell_length_a   6.72845945
_cell_length_b   9.42454984
_cell_length_c   11.74552740
_cell_angle_alpha   113.65305277
_cell_angle_beta   106.64413303
_cell_angle_gamma   89.99999391
_symmetry_Int_Tables_number   1
_chemical_formula_structural   Dy6Pb5
_chemical_formula_sum   'Dy12 Pb10'
_cell_volume   648.03264796
_cell_formula_units_Z   2
loop_
 _symmetry_equiv_pos_site_id
 _symmetry_equiv_pos_as_xyz
  1  'x, y, z'
loop_
 _atom_site_type_symbol
 _atom_site_label
 _atom_site_symmetry_multiplicity
 _atom_site_fract_x
 _atom_site_fract_y
 _atom_site_fract_z
 _atom_site_occupancy
  Dy  Dy0  1  0.558596  0.320087  0.117193  1
  Dy  Dy1  1  0.058597  0.797106  0.117193  1
  Dy  Dy2  1  0.637581  0.025870  0.275162  1
  Dy  Dy3  1  0.137581  0.249292  0.275162  1
  Dy  Dy4  1  0.446255  0.696255  0.392509  1
  Dy  Dy5  1  0.946254  0.696255  0.392509  1
  Dy  Dy6  1  0.053745  0.303745  0.607491  1
  Dy  Dy7  1  0.553745  0.303745  0.607491  1
  Dy  Dy8  1  0.862419  0.750708  0.724838  1
  Dy  Dy9  1  0.362419  0.974130  0.724838  1
  Dy  Dy10  1  0.941403  0.202894  0.882807  1
  Dy  Dy11  1  0.441404  0.679913  0.882807  1
  Pb  Pb12  1  0.250000  0.000000  0.000000  1
  Pb  Pb13  1  0.750000  0.000000  0.000000  1
  Pb  Pb14  1  0.075251  0.479298  0.150500  1
  Pb  Pb15  1  0.575251  0.671202  0.150500  1
  Pb  Pb16  1  0.206095  0.009945  0.412190  1
  Pb  Pb17  1  0.706095  0.402244  0.412190  1
  Pb  Pb18  1  0.293905  0.597755  0.587809  1
  Pb  Pb19  1  0.793905  0.990055  0.587809  1
  Pb  Pb20  1  0.424749  0.328798  0.849501  1
  Pb  Pb21  1  0.924749  0.520703  0.849501  1
