# generated using pymatgen
data_PrErU2F15
_symmetry_space_group_name_H-M   'P 1'
_cell_length_a   7.85484204
_cell_length_b   7.74442392
_cell_length_c   7.85484144
_cell_angle_alpha   112.53182410
_cell_angle_beta   113.39226643
_cell_angle_gamma   112.53182390
_symmetry_Int_Tables_number   1
_chemical_formula_structural   PrErU2F15
_chemical_formula_sum   'Pr1 Er1 U2 F15'
_cell_volume   314.08967999
_cell_formula_units_Z   1
loop_
 _symmetry_equiv_pos_site_id
 _symmetry_equiv_pos_as_xyz
  1  'x, y, z'
loop_
 _atom_site_type_symbol
 _atom_site_label
 _atom_site_symmetry_multiplicity
 _atom_site_fract_x
 _atom_site_fract_y
 _atom_site_fract_z
 _atom_site_occupancy
  Pr  Pr0  1  0.494597  0.495867  0.494597  1
  Er  Er1  1  0.852313  0.276788  0.852313  1
  U  U2  1  0.290744  0.853945  0.863153  1
  U  U3  1  0.863153  0.853945  0.290744  1
  F  F4  1  0.607301  0.941573  0.157178  1
  F  F5  1  0.931785  0.136211  0.597090  1
  F  F6  1  0.143907  0.604343  0.928432  1
  F  F7  1  0.928432  0.604343  0.143907  1
  F  F8  1  0.594386  0.583895  0.245472  1
  F  F9  1  0.245472  0.583895  0.594386  1
  F  F10  1  0.606937  0.283222  0.606937  1
  F  F11  1  0.138210  0.135663  0.352338  1
  F  F12  1  0.352338  0.135663  0.138210  1
  F  F13  1  0.153556  0.372592  0.153556  1
  F  F14  1  0.659358  0.676435  0.904785  1
  F  F15  1  0.904785  0.676435  0.659358  1
  F  F16  1  0.665626  0.894569  0.665626  1
  F  F17  1  0.157178  0.941573  0.607301  1
  F  F18  1  0.597090  0.136211  0.931785  1
