# generated using pymatgen
data_Dy5Lu6Th5(MgRu)4
_symmetry_space_group_name_H-M   'P 1'
_cell_length_a   9.66903764
_cell_length_b   9.70596626
_cell_length_c   9.70596506
_cell_angle_alpha   59.80841292
_cell_angle_beta   60.12577125
_cell_angle_gamma   60.12577497
_symmetry_Int_Tables_number   1
_chemical_formula_structural   Dy5Lu6Th5(MgRu)4
_chemical_formula_sum   'Dy5 Lu6 Th5 Mg4 Ru4'
_cell_volume   644.36749187
_cell_formula_units_Z   1
loop_
 _symmetry_equiv_pos_site_id
 _symmetry_equiv_pos_as_xyz
  1  'x, y, z'
loop_
 _atom_site_type_symbol
 _atom_site_label
 _atom_site_symmetry_multiplicity
 _atom_site_fract_x
 _atom_site_fract_y
 _atom_site_fract_z
 _atom_site_occupancy
  Dy  Dy0  1  0.564013  0.935987  0.935987  1
  Dy  Dy1  1  0.562889  0.935212  0.564229  1
  Dy  Dy2  1  0.937670  0.564229  0.935212  1
  Dy  Dy3  1  0.562889  0.564229  0.935212  1
  Dy  Dy4  1  0.937670  0.935212  0.564229  1
  Lu  Lu5  1  0.184849  0.815151  0.815151  1
  Lu  Lu6  1  0.190038  0.810559  0.183950  1
  Lu  Lu7  1  0.815454  0.183950  0.810559  1
  Lu  Lu8  1  0.190038  0.183950  0.810559  1
  Lu  Lu9  1  0.815454  0.810559  0.183950  1
  Lu  Lu10  1  0.933633  0.566367  0.566367  1
  Th  Th11  1  0.341329  0.349716  0.349716  1
  Th  Th12  1  0.346684  0.348147  0.958485  1
  Th  Th13  1  0.346684  0.958485  0.348147  1
  Th  Th14  1  0.959239  0.349716  0.349716  1
  Th  Th15  1  0.817403  0.182597  0.182597  1
  Mg  Mg16  1  0.581960  0.579486  0.579486  1
  Mg  Mg17  1  0.579064  0.582601  0.259269  1
  Mg  Mg18  1  0.579064  0.259269  0.582601  1
  Mg  Mg19  1  0.259068  0.579486  0.579486  1
  Ru  Ru20  1  0.129725  0.146209  0.146209  1
  Ru  Ru21  1  0.143665  0.142109  0.570562  1
  Ru  Ru22  1  0.143665  0.570562  0.142109  1
  Ru  Ru23  1  0.577859  0.146209  0.146209  1
