# generated using pymatgen
data_YBi(PS4)2
_symmetry_space_group_name_H-M   'P 1'
_cell_length_a   6.65765800
_cell_length_b   8.97219399
_cell_length_c   12.88124067
_cell_angle_alpha   59.35654914
_cell_angle_beta   90.00000000
_cell_angle_gamma   90.00000000
_symmetry_Int_Tables_number   1
_chemical_formula_structural   YBi(PS4)2
_chemical_formula_sum   'Y2 Bi2 P4 S16'
_cell_volume   661.99680479
_cell_formula_units_Z   2
loop_
 _symmetry_equiv_pos_site_id
 _symmetry_equiv_pos_as_xyz
  1  'x, y, z'
loop_
 _atom_site_type_symbol
 _atom_site_label
 _atom_site_symmetry_multiplicity
 _atom_site_fract_x
 _atom_site_fract_y
 _atom_site_fract_z
 _atom_site_occupancy
  Y  Y0  1  0.681401  0.448257  0.163361  1
  Y  Y1  1  0.181401  0.551743  0.336638  1
  Bi  Bi2  1  0.327202  0.567458  0.831840  1
  Bi  Bi3  1  0.827202  0.432542  0.668160  1
  P  P4  1  0.230660  0.684974  0.043440  1
  P  P5  1  0.730660  0.315026  0.456560  1
  P  P6  1  0.766271  0.311758  0.963036  1
  P  P7  1  0.266271  0.688242  0.536964  1
  S  S8  1  0.237264  0.428183  0.586191  1
  S  S9  1  0.737264  0.571817  0.913809  1
  S  S10  1  0.772071  0.571754  0.408959  1
  S  S11  1  0.272071  0.428246  0.091041  1
  S  S12  1  0.253480  0.837476  0.356455  1
  S  S13  1  0.753480  0.162524  0.143545  1
  S  S14  1  0.742358  0.154633  0.637487  1
  S  S15  1  0.242358  0.845367  0.862513  1
  S  S16  1  0.529139  0.725504  0.607123  1
  S  S17  1  0.029139  0.274496  0.892877  1
  S  S18  1  0.466007  0.285703  0.384004  1
  S  S19  1  0.966007  0.714297  0.115996  1
  S  S20  1  0.046717  0.740945  0.627146  1
  S  S21  1  0.546717  0.259055  0.872854  1
  S  S22  1  0.947430  0.265146  0.363617  1
  S  S23  1  0.447430  0.734854  0.136383  1
