# generated using pymatgen
data_TmMg(ZnRh)2
_symmetry_space_group_name_H-M   'P 1'
_cell_length_a   5.07430129
_cell_length_b   5.18997028
_cell_length_c   5.18997126
_cell_angle_alpha   66.01352779
_cell_angle_beta   60.73454404
_cell_angle_gamma   60.73455416
_symmetry_Int_Tables_number   1
_chemical_formula_structural   TmMg(ZnRh)2
_chemical_formula_sum   'Tm1 Mg1 Zn2 Rh2'
_cell_volume   101.46439236
_cell_formula_units_Z   1
loop_
 _symmetry_equiv_pos_site_id
 _symmetry_equiv_pos_as_xyz
  1  'x, y, z'
loop_
 _atom_site_type_symbol
 _atom_site_label
 _atom_site_symmetry_multiplicity
 _atom_site_fract_x
 _atom_site_fract_y
 _atom_site_fract_z
 _atom_site_occupancy
  Tm  Tm0  1  0.260757  0.239243  0.239243  1
  Mg  Mg1  1  0.002181  0.997819  0.997819  1
  Zn  Zn2  1  0.122371  0.628938  0.628938  1
  Zn  Zn3  1  0.619753  0.628938  0.628938  1
  Rh  Rh4  1  0.622469  0.627931  0.127132  1
  Rh  Rh5  1  0.622469  0.127132  0.627931  1
