# generated using pymatgen
data_Dy4Lu4B24Rh3W
_symmetry_space_group_name_H-M   'P 1'
_cell_length_a   3.62879700
_cell_length_b   9.12581987
_cell_length_c   11.50836312
_cell_angle_alpha   90.21994258
_cell_angle_beta   90.00000000
_cell_angle_gamma   90.00000000
_symmetry_Int_Tables_number   1
_chemical_formula_structural   Dy4Lu4B24Rh3W
_chemical_formula_sum   'Dy4 Lu4 B24 Rh3 W1'
_cell_volume   381.10524240
_cell_formula_units_Z   1
loop_
 _symmetry_equiv_pos_site_id
 _symmetry_equiv_pos_as_xyz
  1  'x, y, z'
loop_
 _atom_site_type_symbol
 _atom_site_label
 _atom_site_symmetry_multiplicity
 _atom_site_fract_x
 _atom_site_fract_y
 _atom_site_fract_z
 _atom_site_occupancy
  Dy  Dy0  1  0.500000  0.318861  0.411526  1
  Dy  Dy1  1  0.500000  0.677276  0.584729  1
  Dy  Dy2  1  0.500000  0.179464  0.916513  1
  Dy  Dy3  1  0.500000  0.822657  0.086342  1
  Lu  Lu4  1  0.500000  0.445654  0.125603  1
  Lu  Lu5  1  0.500000  0.557273  0.871432  1
  Lu  Lu6  1  0.500000  0.055813  0.629126  1
  Lu  Lu7  1  0.500000  0.944385  0.374539  1
  B  B8  1  0.000000  0.102843  0.474158  1
  B  B9  1  0.000000  0.895604  0.529489  1
  B  B10  1  0.000000  0.399176  0.970170  1
  B  B11  1  0.000000  0.604973  0.027126  1
  B  B12  1  0.000000  0.130925  0.318337  1
  B  B13  1  0.000000  0.867751  0.683193  1
  B  B14  1  0.000000  0.369740  0.816673  1
  B  B15  1  0.000000  0.631901  0.183019  1
  B  B16  1  0.000000  0.051960  0.064688  1
  B  B17  1  0.000000  0.945752  0.932856  1
  B  B18  1  0.000000  0.444210  0.565717  1
  B  B19  1  0.000000  0.553352  0.433497  1
  B  B20  1  0.000000  0.483439  0.286717  1
  B  B21  1  0.000000  0.517250  0.712638  1
  B  B22  1  0.000000  0.017383  0.786890  1
  B  B23  1  0.000000  0.978990  0.214942  1
  B  B24  1  0.000000  0.253372  0.078789  1
  B  B25  1  0.000000  0.750050  0.918763  1
  B  B26  1  0.000000  0.248482  0.580221  1
  B  B27  1  0.000000  0.749894  0.420398  1
  B  B28  1  0.000000  0.296512  0.236217  1
  B  B29  1  0.000000  0.705967  0.763299  1
  B  B30  1  0.000000  0.207567  0.736302  1
  B  B31  1  0.000000  0.792109  0.266052  1
  Rh  Rh32  1  0.500000  0.860570  0.819858  1
  Rh  Rh33  1  0.500000  0.360307  0.679893  1
  Rh  Rh34  1  0.500000  0.639519  0.320301  1
  W  W35  1  0.500000  0.139020  0.179986  1
