# generated using pymatgen
data_Ba3Mn(GaO2)10
_symmetry_space_group_name_H-M   'P 1'
_cell_length_a   9.98030298
_cell_length_b   9.98030279
_cell_length_c   5.15123900
_cell_angle_alpha   75.79225405
_cell_angle_beta   75.79224840
_cell_angle_gamma   71.99151560
_symmetry_Int_Tables_number   1
_chemical_formula_structural   Ba3Mn(GaO2)10
_chemical_formula_sum   'Ba3 Mn1 Ga10 O20'
_cell_volume   464.96538836
_cell_formula_units_Z   1
loop_
 _symmetry_equiv_pos_site_id
 _symmetry_equiv_pos_as_xyz
  1  'x, y, z'
loop_
 _atom_site_type_symbol
 _atom_site_label
 _atom_site_symmetry_multiplicity
 _atom_site_fract_x
 _atom_site_fract_y
 _atom_site_fract_z
 _atom_site_occupancy
  Ba  Ba0  1  0.000000  0.000000  0.000000  1
  Ba  Ba1  1  0.281395  0.281395  0.736315  1
  Ba  Ba2  1  0.718605  0.718605  0.263685  1
  Mn  Mn3  1  0.500000  0.500000  0.000000  1
  Ga  Ga4  1  0.848717  0.425589  0.834305  1
  Ga  Ga5  1  0.574411  0.151283  0.165695  1
  Ga  Ga6  1  0.151283  0.574411  0.165695  1
  Ga  Ga7  1  0.425589  0.848717  0.834305  1
  Ga  Ga8  1  0.366361  0.633639  0.500000  1
  Ga  Ga9  1  0.633639  0.366361  0.500000  1
  Ga  Ga10  1  0.991106  0.715483  0.662450  1
  Ga  Ga11  1  0.284517  0.008894  0.337550  1
  Ga  Ga12  1  0.008894  0.284517  0.337550  1
  Ga  Ga13  1  0.715483  0.991106  0.662450  1
  O  O14  1  0.545997  0.314399  0.893197  1
  O  O15  1  0.685601  0.454003  0.106803  1
  O  O16  1  0.454003  0.685601  0.106803  1
  O  O17  1  0.314399  0.545997  0.893197  1
  O  O18  1  0.713308  0.004668  0.016621  1
  O  O19  1  0.995332  0.286692  0.983379  1
  O  O20  1  0.286692  0.995332  0.983379  1
  O  O21  1  0.004668  0.713308  0.016621  1
  O  O22  1  0.437313  0.437313  0.378898  1
  O  O23  1  0.562687  0.562687  0.621102  1
  O  O24  1  0.901717  0.901717  0.521357  1
  O  O25  1  0.098283  0.098283  0.478643  1
  O  O26  1  0.872380  0.604166  0.675120  1
  O  O27  1  0.395834  0.127620  0.324880  1
  O  O28  1  0.127620  0.395834  0.324880  1
  O  O29  1  0.604166  0.872380  0.675120  1
  O  O30  1  0.171227  0.659429  0.438730  1
  O  O31  1  0.340571  0.828773  0.561270  1
  O  O32  1  0.828773  0.340571  0.561270  1
  O  O33  1  0.659429  0.171227  0.438730  1
