# generated using pymatgen
data_YbY2Pa(Ga3Ir)6
_symmetry_space_group_name_H-M   'P 1'
_cell_length_a   7.61798626
_cell_length_b   7.60649023
_cell_length_c   9.45829100
_cell_angle_alpha   90.00000000
_cell_angle_beta   90.00000000
_cell_angle_gamma   119.78550130
_symmetry_Int_Tables_number   1
_chemical_formula_structural   YbY2Pa(Ga3Ir)6
_chemical_formula_sum   'Yb1 Y2 Pa1 Ga18 Ir6'
_cell_volume   475.66636771
_cell_formula_units_Z   1
loop_
 _symmetry_equiv_pos_site_id
 _symmetry_equiv_pos_as_xyz
  1  'x, y, z'
loop_
 _atom_site_type_symbol
 _atom_site_label
 _atom_site_symmetry_multiplicity
 _atom_site_fract_x
 _atom_site_fract_y
 _atom_site_fract_z
 _atom_site_occupancy
  Yb  Yb0  1  0.670314  0.996888  0.250000  1
  Y  Y1  1  0.002232  0.331491  0.750000  1
  Y  Y2  1  0.330577  0.002764  0.750000  1
  Pa  Pa3  1  0.998903  0.669712  0.250000  1
  Ga  Ga4  1  0.130457  0.129427  0.250000  1
  Ga  Ga5  1  0.871735  0.874824  0.750000  1
  Ga  Ga6  1  0.997055  0.328330  0.080765  1
  Ga  Ga7  1  0.000290  0.665374  0.916955  1
  Ga  Ga8  1  0.000290  0.665374  0.583045  1
  Ga  Ga9  1  0.341369  0.003672  0.419223  1
  Ga  Ga10  1  0.997055  0.328330  0.419235  1
  Ga  Ga11  1  0.665367  0.000369  0.577623  1
  Ga  Ga12  1  0.665367  0.000369  0.922377  1
  Ga  Ga13  1  0.341369  0.003672  0.080777  1
  Ga  Ga14  1  0.331433  0.331728  0.565837  1
  Ga  Ga15  1  0.663721  0.669074  0.434216  1
  Ga  Ga16  1  0.663721  0.669074  0.065784  1
  Ga  Ga17  1  0.331433  0.331728  0.934163  1
  Ga  Ga18  1  0.337944  0.544295  0.250000  1
  Ga  Ga19  1  0.660672  0.453139  0.750000  1
  Ga  Ga20  1  0.546040  0.340846  0.250000  1
  Ga  Ga21  1  0.453296  0.663176  0.750000  1
  Ir  Ir22  1  0.674265  0.332606  0.000744  1
  Ir  Ir23  1  0.324798  0.669927  0.001577  1
  Ir  Ir24  1  0.324798  0.669927  0.498423  1
  Ir  Ir25  1  0.674265  0.332606  0.499256  1
  Ir  Ir26  1  0.000616  0.995639  0.002264  1
  Ir  Ir27  1  0.000616  0.995639  0.497736  1
