# generated using pymatgen
data_Hf4GaTc7
_symmetry_space_group_name_H-M   'P 1'
_cell_length_a   5.21040600
_cell_length_b   5.21040640
_cell_length_c   8.64864400
_cell_angle_alpha   90.00000000
_cell_angle_beta   90.00000000
_cell_angle_gamma   119.99998476
_symmetry_Int_Tables_number   1
_chemical_formula_structural   Hf4GaTc7
_chemical_formula_sum   'Hf4 Ga1 Tc7'
_cell_volume   203.33956173
_cell_formula_units_Z   1
loop_
 _symmetry_equiv_pos_site_id
 _symmetry_equiv_pos_as_xyz
  1  'x, y, z'
loop_
 _atom_site_type_symbol
 _atom_site_label
 _atom_site_symmetry_multiplicity
 _atom_site_fract_x
 _atom_site_fract_y
 _atom_site_fract_z
 _atom_site_occupancy
  Hf  Hf0  1  0.333333  0.666667  0.430635  1
  Hf  Hf1  1  0.666667  0.333333  0.569365  1
  Hf  Hf2  1  0.666667  0.333333  0.937039  1
  Hf  Hf3  1  0.333333  0.666667  0.062961  1
  Ga  Ga4  1  0.000000  0.000000  0.500000  1
  Tc  Tc5  1  0.000000  0.000000  0.000000  1
  Tc  Tc6  1  0.828835  0.171165  0.251195  1
  Tc  Tc7  1  0.828835  0.657669  0.251195  1
  Tc  Tc8  1  0.342331  0.171165  0.251195  1
  Tc  Tc9  1  0.171165  0.828835  0.748805  1
  Tc  Tc10  1  0.171165  0.342331  0.748805  1
  Tc  Tc11  1  0.657669  0.828835  0.748805  1
