# generated using pymatgen
data_Ho2Sc6Ti12Si15Ge
_symmetry_space_group_name_H-M   'P 1'
_cell_length_a   6.92446606
_cell_length_b   6.92396952
_cell_length_c   12.69493408
_cell_angle_alpha   90.00144631
_cell_angle_beta   89.94863202
_cell_angle_gamma   89.88874438
_symmetry_Int_Tables_number   1
_chemical_formula_structural   Ho2Sc6Ti12Si15Ge
_chemical_formula_sum   'Ho2 Sc6 Ti12 Si15 Ge1'
_cell_volume   608.65458026
_cell_formula_units_Z   1
loop_
 _symmetry_equiv_pos_site_id
 _symmetry_equiv_pos_as_xyz
  1  'x, y, z'
loop_
 _atom_site_type_symbol
 _atom_site_label
 _atom_site_symmetry_multiplicity
 _atom_site_fract_x
 _atom_site_fract_y
 _atom_site_fract_z
 _atom_site_occupancy
  Ho  Ho0  1  0.002482  0.341432  0.531788  1
  Ho  Ho1  1  0.995487  0.660218  0.033032  1
  Sc  Sc2  1  0.343875  0.998814  0.464609  1
  Sc  Sc3  1  0.501574  0.840269  0.717377  1
  Sc  Sc4  1  0.500350  0.158720  0.217062  1
  Sc  Sc5  1  0.840783  0.499073  0.283459  1
  Sc  Sc6  1  0.158850  0.502122  0.784304  1
  Sc  Sc7  1  0.657802  0.999646  0.966478  1
  Ti  Ti8  1  0.327648  0.326247  0.000017  1
  Ti  Ti9  1  0.174293  0.827754  0.249901  1
  Ti  Ti10  1  0.822864  0.172398  0.750458  1
  Ti  Ti11  1  0.671949  0.673864  0.499835  1
  Ti  Ti12  1  0.151976  0.005593  0.876782  1
  Ti  Ti13  1  0.494090  0.649036  0.125817  1
  Ti  Ti14  1  0.508005  0.352004  0.626207  1
  Ti  Ti15  1  0.649828  0.492023  0.874677  1
  Ti  Ti16  1  0.350597  0.509049  0.374049  1
  Ti  Ti17  1  0.848071  0.995259  0.375431  1
  Ti  Ti18  1  0.006983  0.150275  0.124354  1
  Ti  Ti19  1  0.990161  0.846652  0.623259  1
  Si  Si20  1  0.368559  0.705586  0.929609  1
  Si  Si21  1  0.630715  0.294702  0.429246  1
  Si  Si22  1  0.700929  0.360112  0.069589  1
  Si  Si23  1  0.299466  0.639867  0.569255  1
  Si  Si24  1  0.791887  0.868640  0.183273  1
  Si  Si25  1  0.136930  0.202087  0.318039  1
  Si  Si26  1  0.863769  0.798347  0.818169  1
  Si  Si27  1  0.299387  0.955713  0.065357  1
  Si  Si28  1  0.546346  0.796421  0.314978  1
  Si  Si29  1  0.456845  0.203344  0.817119  1
  Si  Si30  1  0.793788  0.548875  0.686896  1
  Si  Si31  1  0.206786  0.450823  0.186559  1
  Si  Si32  1  0.700503  0.044403  0.564983  1
  Si  Si33  1  0.952272  0.290930  0.933951  1
  Si  Si34  1  0.047903  0.709720  0.433542  1
  Ge  Ge35  1  0.206246  0.129984  0.680544  1
