# generated using pymatgen
data_Ca20Zn8CdGaHg2
_symmetry_space_group_name_H-M   'P 1'
_cell_length_a   7.98122400
_cell_length_b   7.98122400
_cell_length_c   15.11014000
_cell_angle_alpha   90.00000000
_cell_angle_beta   90.00000000
_cell_angle_gamma   90.00000000
_symmetry_Int_Tables_number   1
_chemical_formula_structural   Ca20Zn8CdGaHg2
_chemical_formula_sum   'Ca20 Zn8 Cd1 Ga1 Hg2'
_cell_volume   962.51495908
_cell_formula_units_Z   1
loop_
 _symmetry_equiv_pos_site_id
 _symmetry_equiv_pos_as_xyz
  1  'x, y, z'
loop_
 _atom_site_type_symbol
 _atom_site_label
 _atom_site_symmetry_multiplicity
 _atom_site_fract_x
 _atom_site_fract_y
 _atom_site_fract_z
 _atom_site_occupancy
  Ca  Ca0  1  0.677399  0.164263  0.102064  1
  Ca  Ca1  1  0.168951  0.671117  0.605695  1
  Ca  Ca2  1  0.322601  0.835737  0.102064  1
  Ca  Ca3  1  0.831049  0.328883  0.605695  1
  Ca  Ca4  1  0.835737  0.677399  0.102064  1
  Ca  Ca5  1  0.328883  0.168951  0.605695  1
  Ca  Ca6  1  0.164263  0.322601  0.102064  1
  Ca  Ca7  1  0.671117  0.831049  0.605695  1
  Ca  Ca8  1  0.835737  0.322601  0.897936  1
  Ca  Ca9  1  0.328883  0.831049  0.394305  1
  Ca  Ca10  1  0.164263  0.677399  0.897936  1
  Ca  Ca11  1  0.671117  0.168951  0.394305  1
  Ca  Ca12  1  0.677399  0.835737  0.897936  1
  Ca  Ca13  1  0.168951  0.328883  0.394305  1
  Ca  Ca14  1  0.322601  0.164263  0.897936  1
  Ca  Ca15  1  0.831049  0.671117  0.394305  1
  Ca  Ca16  1  0.500000  0.500000  0.755464  1
  Ca  Ca17  1  0.000000  0.000000  0.248326  1
  Ca  Ca18  1  0.000000  0.000000  0.751674  1
  Ca  Ca19  1  0.500000  0.500000  0.244536  1
  Zn  Zn20  1  0.617413  0.118583  0.750929  1
  Zn  Zn21  1  0.118583  0.617413  0.249071  1
  Zn  Zn22  1  0.881417  0.382587  0.249071  1
  Zn  Zn23  1  0.382587  0.881417  0.750929  1
  Zn  Zn24  1  0.881417  0.617413  0.750929  1
  Zn  Zn25  1  0.382587  0.118583  0.249071  1
  Zn  Zn26  1  0.118583  0.382587  0.750929  1
  Zn  Zn27  1  0.617413  0.881417  0.249071  1
  Cd  Cd28  1  0.500000  0.500000  0.000000  1
  Ga  Ga29  1  0.000000  0.000000  0.000000  1
  Hg  Hg30  1  0.500000  0.500000  0.500000  1
  Hg  Hg31  1  0.000000  0.000000  0.500000  1
