# generated using pymatgen
data_Sr4Ca2SbRhO12
_symmetry_space_group_name_H-M   'P 1'
_cell_length_a   5.97775882
_cell_length_b   5.84334076
_cell_length_c   10.12601935
_cell_angle_alpha   55.08547349
_cell_angle_beta   89.62642073
_cell_angle_gamma   90.02450497
_symmetry_Int_Tables_number   1
_chemical_formula_structural   Sr4Ca2SbRhO12
_chemical_formula_sum   'Sr4 Ca2 Sb1 Rh1 O12'
_cell_volume   290.02870616
_cell_formula_units_Z   1
loop_
 _symmetry_equiv_pos_site_id
 _symmetry_equiv_pos_as_xyz
  1  'x, y, z'
loop_
 _atom_site_type_symbol
 _atom_site_label
 _atom_site_symmetry_multiplicity
 _atom_site_fract_x
 _atom_site_fract_y
 _atom_site_fract_z
 _atom_site_occupancy
  Sr  Sr0  1  0.452240  0.240517  0.749162  1
  Sr  Sr1  1  0.547760  0.759483  0.250838  1
  Sr  Sr2  1  0.954316  0.761939  0.751420  1
  Sr  Sr3  1  0.045684  0.238061  0.248580  1
  Ca  Ca4  1  0.000000  0.500000  0.500000  1
  Ca  Ca5  1  0.500000  0.500000  0.000000  1
  Sb  Sb6  1  0.500000  0.000000  0.500000  1
  Rh  Rh7  1  0.000000  0.000000  0.000000  1
  O  O8  1  0.732169  0.863170  0.952116  1
  O  O9  1  0.267831  0.136830  0.047884  1
  O  O10  1  0.227208  0.135970  0.553489  1
  O  O11  1  0.772792  0.864030  0.446511  1
  O  O12  1  0.028415  0.310415  0.774077  1
  O  O13  1  0.971585  0.689585  0.225923  1
  O  O14  1  0.530657  0.676658  0.732548  1
  O  O15  1  0.469343  0.323342  0.267452  1
  O  O16  1  0.189795  0.772400  0.959380  1
  O  O17  1  0.810205  0.227600  0.040620  1
  O  O18  1  0.693528  0.229937  0.544332  1
  O  O19  1  0.306472  0.770063  0.455668  1
