# generated using pymatgen
data_AcCo(P4Os)3
_symmetry_space_group_name_H-M   'P 1'
_cell_length_a   7.00506129
_cell_length_b   7.03895845
_cell_length_c   7.00506107
_cell_angle_alpha   109.56926924
_cell_angle_beta   109.37298393
_cell_angle_gamma   109.56927524
_symmetry_Int_Tables_number   1
_chemical_formula_structural   AcCo(P4Os)3
_chemical_formula_sum   'Ac1 Co1 P12 Os3'
_cell_volume   265.57271295
_cell_formula_units_Z   1
loop_
 _symmetry_equiv_pos_site_id
 _symmetry_equiv_pos_as_xyz
  1  'x, y, z'
loop_
 _atom_site_type_symbol
 _atom_site_label
 _atom_site_symmetry_multiplicity
 _atom_site_fract_x
 _atom_site_fract_y
 _atom_site_fract_z
 _atom_site_occupancy
  Ac  Ac0  1  0.000000  0.000000  0.000000  1
  Co  Co1  1  0.000000  0.500000  0.000000  1
  P  P2  1  0.856283  0.642215  0.497750  1
  P  P3  1  0.143717  0.357785  0.502250  1
  P  P4  1  0.141882  0.640694  0.792706  1
  P  P5  1  0.858118  0.359306  0.207294  1
  P  P6  1  0.650824  0.498813  0.858118  1
  P  P7  1  0.349176  0.501187  0.141882  1
  P  P8  1  0.641467  0.785934  0.143717  1
  P  P9  1  0.358533  0.214066  0.856283  1
  P  P10  1  0.497750  0.855534  0.641467  1
  P  P11  1  0.502250  0.144466  0.358533  1
  P  P12  1  0.792706  0.152011  0.650824  1
  P  P13  1  0.207294  0.847989  0.349176  1
  Os  Os14  1  0.500000  0.500000  0.500000  1
  Os  Os15  1  0.500000  0.000000  0.000000  1
  Os  Os16  1  0.000000  0.000000  0.500000  1
