# generated using pymatgen
data_Tb4Nd16Ir7Ru5
_symmetry_space_group_name_H-M   'P 1'
_cell_length_a   11.15008810
_cell_length_b   11.15008810
_cell_length_c   6.57498412
_cell_angle_alpha   89.98453022
_cell_angle_beta   89.98453022
_cell_angle_gamma   90.00014283
_symmetry_Int_Tables_number   1
_chemical_formula_structural   Tb4Nd16Ir7Ru5
_chemical_formula_sum   'Tb4 Nd16 Ir7 Ru5'
_cell_volume   817.43132134
_cell_formula_units_Z   1
loop_
 _symmetry_equiv_pos_site_id
 _symmetry_equiv_pos_as_xyz
  1  'x, y, z'
loop_
 _atom_site_type_symbol
 _atom_site_label
 _atom_site_symmetry_multiplicity
 _atom_site_fract_x
 _atom_site_fract_y
 _atom_site_fract_z
 _atom_site_occupancy
  Tb  Tb0  1  0.999653  0.000756  0.499306  1
  Tb  Tb1  1  0.999244  0.000347  0.000694  1
  Tb  Tb2  1  0.500068  0.500028  0.000104  1
  Tb  Tb3  1  0.499972  0.499932  0.499896  1
  Nd  Nd4  1  0.291915  0.086818  0.380804  1
  Nd  Nd5  1  0.291591  0.912999  0.880917  1
  Nd  Nd6  1  0.708911  0.087266  0.881863  1
  Nd  Nd7  1  0.708439  0.913465  0.380225  1
  Nd  Nd8  1  0.586649  0.792135  0.880933  1
  Nd  Nd9  1  0.587537  0.208115  0.381114  1
  Nd  Nd10  1  0.413145  0.792019  0.381189  1
  Nd  Nd11  1  0.413043  0.207772  0.880453  1
  Nd  Nd12  1  0.207865  0.413351  0.619067  1
  Nd  Nd13  1  0.207981  0.586855  0.118811  1
  Nd  Nd14  1  0.791885  0.412463  0.118886  1
  Nd  Nd15  1  0.792228  0.586957  0.619547  1
  Nd  Nd16  1  0.913182  0.708085  0.119196  1
  Nd  Nd17  1  0.912734  0.291089  0.618137  1
  Nd  Nd18  1  0.087001  0.708409  0.619083  1
  Nd  Nd19  1  0.086535  0.291561  0.119775  1
  Ir  Ir20  1  0.850836  0.850536  0.749966  1
  Ir  Ir21  1  0.149464  0.149164  0.750034  1
  Ir  Ir22  1  0.149309  0.850691  0.250000  1
  Ir  Ir23  1  0.648296  0.351704  0.750000  1
  Ir  Ir24  1  0.649177  0.648938  0.249763  1
  Ir  Ir25  1  0.351062  0.350823  0.250237  1
  Ir  Ir26  1  0.351286  0.648714  0.750000  1
  Ru  Ru27  1  0.851295  0.148705  0.250000  1
  Ru  Ru28  1  0.500130  0.000050  0.119086  1
  Ru  Ru29  1  0.499770  0.000153  0.619318  1
  Ru  Ru30  1  0.999847  0.500230  0.880682  1
  Ru  Ru31  1  0.999950  0.499870  0.380914  1
