# generated using pymatgen
data_Sc4InPd6Pt5
_symmetry_space_group_name_H-M   'P 1'
_cell_length_a   4.09313500
_cell_length_b   5.68723171
_cell_length_c   11.36651700
_cell_angle_alpha   87.19136552
_cell_angle_beta   90.00000000
_cell_angle_gamma   90.00000000
_symmetry_Int_Tables_number   1
_chemical_formula_structural   Sc4InPd6Pt5
_chemical_formula_sum   'Sc4 In1 Pd6 Pt5'
_cell_volume   264.27884090
_cell_formula_units_Z   1
loop_
 _symmetry_equiv_pos_site_id
 _symmetry_equiv_pos_as_xyz
  1  'x, y, z'
loop_
 _atom_site_type_symbol
 _atom_site_label
 _atom_site_symmetry_multiplicity
 _atom_site_fract_x
 _atom_site_fract_y
 _atom_site_fract_z
 _atom_site_occupancy
  Sc  Sc0  1  0.500000  0.752916  0.375586  1
  Sc  Sc1  1  0.500000  0.717274  0.859266  1
  Sc  Sc2  1  0.500000  0.282726  0.140734  1
  Sc  Sc3  1  0.500000  0.247084  0.624414  1
  In  In4  1  0.000000  0.000000  0.000000  1
  Pd  Pd5  1  0.000000  0.500000  0.500000  1
  Pd  Pd6  1  0.500000  0.251714  0.377598  1
  Pd  Pd7  1  0.500000  0.229821  0.881701  1
  Pd  Pd8  1  0.500000  0.770179  0.118299  1
  Pd  Pd9  1  0.500000  0.748286  0.622402  1
  Pd  Pd10  1  0.000000  0.000000  0.500000  1
  Pt  Pt11  1  0.000000  0.011485  0.250715  1
  Pt  Pt12  1  0.000000  0.988515  0.749285  1
  Pt  Pt13  1  0.000000  0.500000  0.000000  1
  Pt  Pt14  1  0.000000  0.514262  0.250685  1
  Pt  Pt15  1  0.000000  0.485738  0.749315  1
