# generated using pymatgen
data_Ag3P10Au4Br
_symmetry_space_group_name_H-M   'P 1'
_cell_length_a   6.26658500
_cell_length_b   6.26658492
_cell_length_c   11.54907000
_cell_angle_alpha   90.00000000
_cell_angle_beta   90.00000000
_cell_angle_gamma   119.99999515
_symmetry_Int_Tables_number   1
_chemical_formula_structural   Ag3P10Au4Br
_chemical_formula_sum   'Ag3 P10 Au4 Br1'
_cell_volume   392.77110505
_cell_formula_units_Z   1
loop_
 _symmetry_equiv_pos_site_id
 _symmetry_equiv_pos_as_xyz
  1  'x, y, z'
loop_
 _atom_site_type_symbol
 _atom_site_label
 _atom_site_symmetry_multiplicity
 _atom_site_fract_x
 _atom_site_fract_y
 _atom_site_fract_z
 _atom_site_occupancy
  Ag  Ag0  1  0.333333  0.666667  0.498323  1
  Ag  Ag1  1  0.000000  0.000000  0.250553  1
  Ag  Ag2  1  0.666667  0.333333  0.498323  1
  P  P3  1  0.666667  0.333333  0.708443  1
  P  P4  1  0.376731  0.000000  0.797930  1
  P  P5  1  0.621324  0.621324  0.200288  1
  P  P6  1  0.000000  0.378676  0.200288  1
  P  P7  1  0.000000  0.376731  0.797930  1
  P  P8  1  0.623269  0.623269  0.797930  1
  P  P9  1  0.378676  0.000000  0.200288  1
  P  P10  1  0.333333  0.666667  0.288060  1
  P  P11  1  0.333333  0.666667  0.708443  1
  P  P12  1  0.666667  0.333333  0.288060  1
  Au  Au13  1  0.000000  0.000000  0.773514  1
  Au  Au14  1  0.000000  0.449456  0.999126  1
  Au  Au15  1  0.550544  0.550544  0.999126  1
  Au  Au16  1  0.449456  0.000000  0.999126  1
  Br  Br17  1  0.000000  0.000000  0.494247  1
