# generated using pymatgen
data_Lu5Fe12Co7P12
_symmetry_space_group_name_H-M   'P 1'
_cell_length_a   11.86388600
_cell_length_b   11.86388679
_cell_length_c   3.65055700
_cell_angle_alpha   90.00000000
_cell_angle_beta   90.00000000
_cell_angle_gamma   120.00000337
_symmetry_Int_Tables_number   1
_chemical_formula_structural   Lu5Fe12Co7P12
_chemical_formula_sum   'Lu5 Fe12 Co7 P12'
_cell_volume   444.98329716
_cell_formula_units_Z   1
loop_
 _symmetry_equiv_pos_site_id
 _symmetry_equiv_pos_as_xyz
  1  'x, y, z'
loop_
 _atom_site_type_symbol
 _atom_site_label
 _atom_site_symmetry_multiplicity
 _atom_site_fract_x
 _atom_site_fract_y
 _atom_site_fract_z
 _atom_site_occupancy
  Lu  Lu0  1  0.666667  0.333333  0.000000  1
  Lu  Lu1  1  0.333333  0.666667  0.000000  1
  Lu  Lu2  1  0.814607  0.814607  0.500000  1
  Lu  Lu3  1  0.185393  0.000000  0.500000  1
  Lu  Lu4  1  0.000000  0.185393  0.500000  1
  Fe  Fe5  1  0.876180  0.358134  0.500000  1
  Fe  Fe6  1  0.641866  0.518046  0.500000  1
  Fe  Fe7  1  0.481954  0.123820  0.500000  1
  Fe  Fe8  1  0.358134  0.876180  0.500000  1
  Fe  Fe9  1  0.518046  0.641866  0.500000  1
  Fe  Fe10  1  0.123820  0.481954  0.500000  1
  Fe  Fe11  1  0.444214  0.444214  0.000000  1
  Fe  Fe12  1  0.555786  0.000000  0.000000  1
  Fe  Fe13  1  0.000000  0.555786  0.000000  1
  Fe  Fe14  1  0.284344  0.284344  0.500000  1
  Fe  Fe15  1  0.715656  0.000000  0.500000  1
  Fe  Fe16  1  0.000000  0.715656  0.500000  1
  Co  Co17  1  0.802145  0.179594  0.000000  1
  Co  Co18  1  0.820406  0.622550  0.000000  1
  Co  Co19  1  0.377450  0.197855  0.000000  1
  Co  Co20  1  0.179594  0.802145  0.000000  1
  Co  Co21  1  0.622550  0.820406  0.000000  1
  Co  Co22  1  0.197855  0.377450  0.000000  1
  Co  Co23  1  0.000000  0.000000  0.000000  1
  P  P24  1  0.684035  0.165584  0.500000  1
  P  P25  1  0.834416  0.518451  0.500000  1
  P  P26  1  0.481549  0.315965  0.500000  1
  P  P27  1  0.165584  0.684035  0.500000  1
  P  P28  1  0.518451  0.834416  0.500000  1
  P  P29  1  0.315965  0.481549  0.500000  1
  P  P30  1  0.181961  0.181961  0.000000  1
  P  P31  1  0.818039  0.000000  0.000000  1
  P  P32  1  0.000000  0.818039  0.000000  1
  P  P33  1  0.629663  0.629663  0.000000  1
  P  P34  1  0.370337  0.000000  0.000000  1
  P  P35  1  0.000000  0.370337  0.000000  1
