# generated using pymatgen
data_ErTm7Sc11Si16Ru
_symmetry_space_group_name_H-M   'P 1'
_cell_length_a   6.96901802
_cell_length_b   7.33016061
_cell_length_c   13.83675006
_cell_angle_alpha   90.01079250
_cell_angle_beta   90.00051203
_cell_angle_gamma   90.10568641
_symmetry_Int_Tables_number   1
_chemical_formula_structural   ErTm7Sc11Si16Ru
_chemical_formula_sum   'Er1 Tm7 Sc11 Si16 Ru1'
_cell_volume   706.83562126
_cell_formula_units_Z   1
loop_
 _symmetry_equiv_pos_site_id
 _symmetry_equiv_pos_as_xyz
  1  'x, y, z'
loop_
 _atom_site_type_symbol
 _atom_site_label
 _atom_site_symmetry_multiplicity
 _atom_site_fract_x
 _atom_site_fract_y
 _atom_site_fract_z
 _atom_site_occupancy
  Er  Er0  1  0.012102  0.178473  0.092708  1
  Tm  Tm1  1  0.992645  0.817197  0.901504  1
  Tm  Tm2  1  0.489392  0.673914  0.903118  1
  Tm  Tm3  1  0.992632  0.817212  0.598375  1
  Tm  Tm4  1  0.510588  0.322846  0.094159  1
  Tm  Tm5  1  0.011862  0.179085  0.407009  1
  Tm  Tm6  1  0.510635  0.322687  0.405920  1
  Tm  Tm7  1  0.489326  0.673862  0.596770  1
  Sc  Sc8  1  0.841046  0.495540  0.250110  1
  Sc  Sc9  1  0.341976  0.004007  0.250112  1
  Sc  Sc10  1  0.656902  0.994854  0.749992  1
  Sc  Sc11  1  0.325743  0.177077  0.627307  1
  Sc  Sc12  1  0.671714  0.824762  0.374364  1
  Sc  Sc13  1  0.172669  0.673835  0.376544  1
  Sc  Sc14  1  0.671769  0.824638  0.125758  1
  Sc  Sc15  1  0.826402  0.330922  0.628660  1
  Sc  Sc16  1  0.325828  0.177017  0.872616  1
  Sc  Sc17  1  0.826253  0.331094  0.871309  1
  Sc  Sc18  1  0.172681  0.673712  0.123544  1
  Si  Si19  1  0.028138  0.111944  0.749978  1
  Si  Si20  1  0.973064  0.887833  0.250142  1
  Si  Si21  1  0.469393  0.612870  0.250041  1
  Si  Si22  1  0.515229  0.398097  0.749966  1
  Si  Si23  1  0.284268  0.859113  0.750005  1
  Si  Si24  1  0.716327  0.131555  0.250254  1
  Si  Si25  1  0.215180  0.369078  0.250242  1
  Si  Si26  1  0.794724  0.631651  0.749965  1
  Si  Si27  1  0.158508  0.465988  0.546762  1
  Si  Si28  1  0.841879  0.535439  0.463503  1
  Si  Si29  1  0.343545  0.965130  0.463243  1
  Si  Si30  1  0.841771  0.535864  0.036374  1
  Si  Si31  1  0.660336  0.034381  0.539718  1
  Si  Si32  1  0.158549  0.466369  0.953104  1
  Si  Si33  1  0.660185  0.034318  0.960227  1
  Si  Si34  1  0.344239  0.964764  0.036648  1
  Ru  Ru35  1  0.152495  0.502871  0.749947  1
