# generated using pymatgen
data_Y7ErTi11Si16Au
_symmetry_space_group_name_H-M   'P 1'
_cell_length_a   7.07381683
_cell_length_b   7.07364393
_cell_length_c   12.89644754
_cell_angle_alpha   90.15336250
_cell_angle_beta   89.86603922
_cell_angle_gamma   89.61131768
_symmetry_Int_Tables_number   1
_chemical_formula_structural   Y7ErTi11Si16Au
_chemical_formula_sum   'Y7 Er1 Ti11 Si16 Au1'
_cell_volume   645.28912407
_cell_formula_units_Z   1
loop_
 _symmetry_equiv_pos_site_id
 _symmetry_equiv_pos_as_xyz
  1  'x, y, z'
loop_
 _atom_site_type_symbol
 _atom_site_label
 _atom_site_symmetry_multiplicity
 _atom_site_fract_x
 _atom_site_fract_y
 _atom_site_fract_z
 _atom_site_occupancy
  Y  Y0  1  0.340792  0.002347  0.466703  1
  Y  Y1  1  0.497238  0.841005  0.716888  1
  Y  Y2  1  0.501451  0.157547  0.214141  1
  Y  Y3  1  0.841158  0.497372  0.282961  1
  Y  Y4  1  0.157390  0.501552  0.785895  1
  Y  Y5  1  0.656677  0.000715  0.968910  1
  Y  Y6  1  0.002414  0.340856  0.533296  1
  Er  Er7  1  0.001588  0.656203  0.031454  1
  Ti  Ti8  1  0.174715  0.825771  0.249158  1
  Ti  Ti9  1  0.826162  0.174908  0.750576  1
  Ti  Ti10  1  0.672736  0.672708  0.500028  1
  Ti  Ti11  1  0.147368  0.007912  0.877256  1
  Ti  Ti12  1  0.494392  0.650846  0.122824  1
  Ti  Ti13  1  0.508087  0.350641  0.625614  1
  Ti  Ti14  1  0.651196  0.494796  0.877398  1
  Ti  Ti15  1  0.350525  0.508089  0.374292  1
  Ti  Ti16  1  0.850021  0.990933  0.374200  1
  Ti  Ti17  1  0.008190  0.147263  0.122979  1
  Ti  Ti18  1  0.991090  0.849832  0.625759  1
  Si  Si19  1  0.201785  0.132081  0.685013  1
  Si  Si20  1  0.373107  0.719670  0.929480  1
  Si  Si21  1  0.630824  0.293995  0.432957  1
  Si  Si22  1  0.720998  0.375156  0.070836  1
  Si  Si23  1  0.293997  0.630762  0.567068  1
  Si  Si24  1  0.798685  0.866677  0.182498  1
  Si  Si25  1  0.132076  0.201768  0.314968  1
  Si  Si26  1  0.867793  0.797667  0.817281  1
  Si  Si27  1  0.284546  0.936658  0.065698  1
  Si  Si28  1  0.547191  0.790175  0.314257  1
  Si  Si29  1  0.454299  0.208807  0.809593  1
  Si  Si30  1  0.790194  0.547173  0.685671  1
  Si  Si31  1  0.208216  0.455079  0.189863  1
  Si  Si32  1  0.709496  0.048117  0.564360  1
  Si  Si33  1  0.938206  0.286491  0.934541  1
  Si  Si34  1  0.048136  0.709516  0.435597  1
  Au  Au35  1  0.327263  0.328916  0.999985  1
