# generated using pymatgen
data_Ac2HoTm(AsPt)4
_symmetry_space_group_name_H-M   'P 1'
_cell_length_a   4.35980200
_cell_length_b   4.35980225
_cell_length_c   16.23883200
_cell_angle_alpha   90.00000000
_cell_angle_beta   90.00000000
_cell_angle_gamma   120.00001327
_symmetry_Int_Tables_number   1
_chemical_formula_structural   Ac2HoTm(AsPt)4
_chemical_formula_sum   'Ac2 Ho1 Tm1 As4 Pt4'
_cell_volume   267.31228604
_cell_formula_units_Z   1
loop_
 _symmetry_equiv_pos_site_id
 _symmetry_equiv_pos_as_xyz
  1  'x, y, z'
loop_
 _atom_site_type_symbol
 _atom_site_label
 _atom_site_symmetry_multiplicity
 _atom_site_fract_x
 _atom_site_fract_y
 _atom_site_fract_z
 _atom_site_occupancy
  Ac  Ac0  1  0.000000  0.000000  0.500840  1
  Ac  Ac1  1  0.000000  0.000000  0.999160  1
  Ho  Ho2  1  0.000000  0.000000  0.250000  1
  Tm  Tm3  1  0.000000  0.000000  0.750000  1
  As  As4  1  0.333333  0.666667  0.872870  1
  As  As5  1  0.666667  0.333333  0.125911  1
  As  As6  1  0.666667  0.333333  0.374089  1
  As  As7  1  0.333333  0.666667  0.627130  1
  Pt  Pt8  1  0.333333  0.666667  0.354046  1
  Pt  Pt9  1  0.666667  0.333333  0.648441  1
  Pt  Pt10  1  0.666667  0.333333  0.851559  1
  Pt  Pt11  1  0.333333  0.666667  0.145954  1
