# generated using pymatgen
data_NbZn2Si5Ru8
_symmetry_space_group_name_H-M   'P 1'
_cell_length_a   5.90116800
_cell_length_b   5.94948500
_cell_length_c   5.90116800
_cell_angle_alpha   90.00000000
_cell_angle_beta   90.00000000
_cell_angle_gamma   90.00000000
_symmetry_Int_Tables_number   1
_chemical_formula_structural   NbZn2Si5Ru8
_chemical_formula_sum   'Nb1 Zn2 Si5 Ru8'
_cell_volume   207.18357915
_cell_formula_units_Z   1
loop_
 _symmetry_equiv_pos_site_id
 _symmetry_equiv_pos_as_xyz
  1  'x, y, z'
loop_
 _atom_site_type_symbol
 _atom_site_label
 _atom_site_symmetry_multiplicity
 _atom_site_fract_x
 _atom_site_fract_y
 _atom_site_fract_z
 _atom_site_occupancy
  Nb  Nb0  1  0.000000  0.500000  0.000000  1
  Zn  Zn1  1  0.500000  0.000000  0.000000  1
  Zn  Zn2  1  0.000000  0.000000  0.500000  1
  Si  Si3  1  0.500000  0.500000  0.500000  1
  Si  Si4  1  0.000000  0.500000  0.500000  1
  Si  Si5  1  0.500000  0.000000  0.500000  1
  Si  Si6  1  0.500000  0.500000  0.000000  1
  Si  Si7  1  0.000000  0.000000  0.000000  1
  Ru  Ru8  1  0.257317  0.747427  0.742683  1
  Ru  Ru9  1  0.742683  0.252573  0.742683  1
  Ru  Ru10  1  0.742683  0.747427  0.742683  1
  Ru  Ru11  1  0.742683  0.747427  0.257317  1
  Ru  Ru12  1  0.742683  0.252573  0.257317  1
  Ru  Ru13  1  0.257317  0.252573  0.742683  1
  Ru  Ru14  1  0.257317  0.747427  0.257317  1
  Ru  Ru15  1  0.257317  0.252573  0.257317  1
