# generated using pymatgen
data_Ho2Si6SnRh12
_symmetry_space_group_name_H-M   'P 1'
_cell_length_a   9.89030100
_cell_length_b   9.89030232
_cell_length_c   3.84000600
_cell_angle_alpha   90.00000000
_cell_angle_beta   90.00000000
_cell_angle_gamma   120.00000072
_symmetry_Int_Tables_number   1
_chemical_formula_structural   Ho2Si6SnRh12
_chemical_formula_sum   'Ho2 Si6 Sn1 Rh12'
_cell_volume   325.29816067
_cell_formula_units_Z   1
loop_
 _symmetry_equiv_pos_site_id
 _symmetry_equiv_pos_as_xyz
  1  'x, y, z'
loop_
 _atom_site_type_symbol
 _atom_site_label
 _atom_site_symmetry_multiplicity
 _atom_site_fract_x
 _atom_site_fract_y
 _atom_site_fract_z
 _atom_site_occupancy
  Ho  Ho0  1  0.333333  0.666667  0.746669  1
  Ho  Ho1  1  0.000000  0.000000  0.245154  1
  Si  Si2  1  0.957396  0.222963  0.744359  1
  Si  Si3  1  0.777037  0.734433  0.744359  1
  Si  Si4  1  0.265567  0.042604  0.744359  1
  Si  Si5  1  0.372520  0.441825  0.246232  1
  Si  Si6  1  0.558175  0.930696  0.246232  1
  Si  Si7  1  0.069304  0.627480  0.246232  1
  Sn  Sn8  1  0.666667  0.333333  0.698849  1
  Rh  Rh9  1  0.737654  0.956005  0.745229  1
  Rh  Rh10  1  0.043995  0.781650  0.745229  1
  Rh  Rh11  1  0.218350  0.262346  0.745229  1
  Rh  Rh12  1  0.607791  0.720889  0.245468  1
  Rh  Rh13  1  0.279111  0.886903  0.245468  1
  Rh  Rh14  1  0.113097  0.392209  0.245468  1
  Rh  Rh15  1  0.960977  0.468081  0.746520  1
  Rh  Rh16  1  0.531919  0.492897  0.746520  1
  Rh  Rh17  1  0.507103  0.039023  0.746520  1
  Rh  Rh18  1  0.404927  0.214131  0.243363  1
  Rh  Rh19  1  0.785869  0.190796  0.243363  1
  Rh  Rh20  1  0.809204  0.595073  0.243363  1
