# generated using pymatgen
data_LaPa6Cd3O20
_symmetry_space_group_name_H-M   'P 1'
_cell_length_a   10.14367012
_cell_length_b   10.14367179
_cell_length_c   6.69807158
_cell_angle_alpha   83.41618291
_cell_angle_beta   83.41618838
_cell_angle_gamma   141.29094137
_symmetry_Int_Tables_number   1
_chemical_formula_structural   LaPa6Cd3O20
_chemical_formula_sum   'La1 Pa6 Cd3 O20'
_cell_volume   404.38223162
_cell_formula_units_Z   1
loop_
 _symmetry_equiv_pos_site_id
 _symmetry_equiv_pos_as_xyz
  1  'x, y, z'
loop_
 _atom_site_type_symbol
 _atom_site_label
 _atom_site_symmetry_multiplicity
 _atom_site_fract_x
 _atom_site_fract_y
 _atom_site_fract_z
 _atom_site_occupancy
  La  La0  1  0.000000  0.000000  0.500000  1
  Pa  Pa1  1  0.900537  0.099463  0.000000  1
  Pa  Pa2  1  0.399799  0.600201  0.500000  1
  Pa  Pa3  1  0.099463  0.900537  0.000000  1
  Pa  Pa4  1  0.699242  0.300758  0.000000  1
  Pa  Pa5  1  0.600201  0.399799  0.500000  1
  Pa  Pa6  1  0.300758  0.699242  0.000000  1
  Cd  Cd7  1  0.500000  0.500000  0.000000  1
  Cd  Cd8  1  0.202599  0.797401  0.500000  1
  Cd  Cd9  1  0.797401  0.202599  0.500000  1
  O  O10  1  0.268487  0.472770  0.876236  1
  O  O11  1  0.882028  0.882028  0.889147  1
  O  O12  1  0.760614  0.963661  0.359270  1
  O  O13  1  0.036339  0.239386  0.640730  1
  O  O14  1  0.472770  0.268487  0.876236  1
  O  O15  1  0.388960  0.388960  0.382925  1
  O  O16  1  0.611040  0.611040  0.617075  1
  O  O17  1  0.066269  0.667342  0.898995  1
  O  O18  1  0.527230  0.731513  0.123764  1
  O  O19  1  0.963661  0.760614  0.359270  1
  O  O20  1  0.239386  0.036339  0.640730  1
  O  O21  1  0.667342  0.066269  0.898995  1
  O  O22  1  0.117972  0.117972  0.110853  1
  O  O23  1  0.582457  0.192046  0.355865  1
  O  O24  1  0.807954  0.417543  0.644135  1
  O  O25  1  0.417543  0.807954  0.644135  1
  O  O26  1  0.731513  0.527230  0.123764  1
  O  O27  1  0.192046  0.582457  0.355865  1
  O  O28  1  0.332658  0.933731  0.101005  1
  O  O29  1  0.933731  0.332658  0.101005  1
