# generated using pymatgen
data_Tb9Eu8Er3Pb16
_symmetry_space_group_name_H-M   'P 1'
_cell_length_a   8.28938100
_cell_length_b   8.36084071
_cell_length_c   15.85570700
_cell_angle_alpha   90.00000000
_cell_angle_beta   90.00000000
_cell_angle_gamma   89.97637815
_symmetry_Int_Tables_number   1
_chemical_formula_structural   Tb9Eu8Er3Pb16
_chemical_formula_sum   'Tb9 Eu8 Er3 Pb16'
_cell_volume   1098.89861402
_cell_formula_units_Z   1
loop_
 _symmetry_equiv_pos_site_id
 _symmetry_equiv_pos_as_xyz
  1  'x, y, z'
loop_
 _atom_site_type_symbol
 _atom_site_label
 _atom_site_symmetry_multiplicity
 _atom_site_fract_x
 _atom_site_fract_y
 _atom_site_fract_z
 _atom_site_occupancy
  Tb  Tb0  1  0.356282  0.845798  0.878304  1
  Tb  Tb1  1  0.856296  0.654219  0.621200  1
  Tb  Tb2  1  0.644038  0.153971  0.377864  1
  Tb  Tb3  1  0.143473  0.346169  0.121702  1
  Tb  Tb4  1  0.644038  0.153971  0.122136  1
  Tb  Tb5  1  0.143473  0.346169  0.378298  1
  Tb  Tb6  1  0.356282  0.845798  0.621696  1
  Tb  Tb7  1  0.856296  0.654219  0.878800  1
  Tb  Tb8  1  0.196062  0.499950  0.750000  1
  Eu  Eu9  1  0.518006  0.322782  0.906428  1
  Eu  Eu10  1  0.017565  0.177281  0.593419  1
  Eu  Eu11  1  0.481974  0.677045  0.405949  1
  Eu  Eu12  1  0.981978  0.822357  0.093991  1
  Eu  Eu13  1  0.481974  0.677045  0.094051  1
  Eu  Eu14  1  0.981978  0.822357  0.406009  1
  Eu  Eu15  1  0.518006  0.322782  0.593572  1
  Eu  Eu16  1  0.017565  0.177281  0.906581  1
  Er  Er17  1  0.695621  0.999143  0.750000  1
  Er  Er18  1  0.804351  0.499610  0.250000  1
  Er  Er19  1  0.304407  0.001268  0.250000  1
  Pb  Pb20  1  0.307977  0.043082  0.045018  1
  Pb  Pb21  1  0.806193  0.456758  0.454848  1
  Pb  Pb22  1  0.692122  0.957203  0.544714  1
  Pb  Pb23  1  0.193451  0.543419  0.955693  1
  Pb  Pb24  1  0.692122  0.957203  0.955286  1
  Pb  Pb25  1  0.193451  0.543419  0.544307  1
  Pb  Pb26  1  0.307977  0.043082  0.454982  1
  Pb  Pb27  1  0.806193  0.456758  0.045152  1
  Pb  Pb28  1  0.553189  0.628241  0.750000  1
  Pb  Pb29  1  0.050959  0.873002  0.750000  1
  Pb  Pb30  1  0.448480  0.372544  0.250000  1
  Pb  Pb31  1  0.948881  0.127819  0.250000  1
  Pb  Pb32  1  0.327588  0.144188  0.750000  1
  Pb  Pb33  1  0.825678  0.354385  0.750000  1
  Pb  Pb34  1  0.672185  0.854016  0.250000  1
  Pb  Pb35  1  0.173886  0.645666  0.250000  1
