# generated using pymatgen
data_Ho3Sc2Tl2Bi
_symmetry_space_group_name_H-M   'P 1'
_cell_length_a   8.86976000
_cell_length_b   8.83060720
_cell_length_c   6.34109100
_cell_angle_alpha   90.00000000
_cell_angle_beta   90.00000000
_cell_angle_gamma   119.85408232
_symmetry_Int_Tables_number   1
_chemical_formula_structural   Ho3Sc2Tl2Bi
_chemical_formula_sum   'Ho6 Sc4 Tl4 Bi2'
_cell_volume   430.75839272
_cell_formula_units_Z   2
loop_
 _symmetry_equiv_pos_site_id
 _symmetry_equiv_pos_as_xyz
  1  'x, y, z'
loop_
 _atom_site_type_symbol
 _atom_site_label
 _atom_site_symmetry_multiplicity
 _atom_site_fract_x
 _atom_site_fract_y
 _atom_site_fract_z
 _atom_site_occupancy
  Ho  Ho0  1  0.769095  0.760701  0.750000  1
  Ho  Ho1  1  0.230905  0.991606  0.750000  1
  Ho  Ho2  1  0.000000  0.238541  0.750000  1
  Ho  Ho3  1  0.236597  0.236625  0.250000  1
  Ho  Ho4  1  0.763403  0.000028  0.250000  1
  Ho  Ho5  1  0.000000  0.762636  0.250000  1
  Sc  Sc6  1  0.671011  0.337701  0.008526  1
  Sc  Sc7  1  0.328989  0.666692  0.008526  1
  Sc  Sc8  1  0.328989  0.666692  0.491474  1
  Sc  Sc9  1  0.671011  0.337701  0.491474  1
  Tl  Tl10  1  0.000000  0.592975  0.750000  1
  Tl  Tl11  1  0.598272  0.601750  0.250000  1
  Tl  Tl12  1  0.401728  0.003478  0.250000  1
  Tl  Tl13  1  0.000000  0.402639  0.250000  1
  Bi  Bi14  1  0.400176  0.400206  0.750000  1
  Bi  Bi15  1  0.599824  0.000029  0.750000  1
