# generated using pymatgen
data_Cs12K4HfSnSb8
_symmetry_space_group_name_H-M   'P 1'
_cell_length_a   12.35282986
_cell_length_b   12.35282888
_cell_length_c   12.35283000
_cell_angle_alpha   60.00000234
_cell_angle_beta   60.00000497
_cell_angle_gamma   60.00000533
_symmetry_Int_Tables_number   1
_chemical_formula_structural   Cs12K4HfSnSb8
_chemical_formula_sum   'Cs12 K4 Hf1 Sn1 Sb8'
_cell_volume   1332.85956555
_cell_formula_units_Z   1
loop_
 _symmetry_equiv_pos_site_id
 _symmetry_equiv_pos_as_xyz
  1  'x, y, z'
loop_
 _atom_site_type_symbol
 _atom_site_label
 _atom_site_symmetry_multiplicity
 _atom_site_fract_x
 _atom_site_fract_y
 _atom_site_fract_z
 _atom_site_occupancy
  Cs  Cs0  1  0.022954  0.022954  0.477046  1
  Cs  Cs1  1  0.775567  0.224433  0.224433  1
  Cs  Cs2  1  0.224433  0.775567  0.775567  1
  Cs  Cs3  1  0.775567  0.775567  0.224433  1
  Cs  Cs4  1  0.775567  0.224433  0.775567  1
  Cs  Cs5  1  0.224433  0.775567  0.224433  1
  Cs  Cs6  1  0.477046  0.022954  0.477046  1
  Cs  Cs7  1  0.477046  0.022954  0.022954  1
  Cs  Cs8  1  0.022954  0.477046  0.477046  1
  Cs  Cs9  1  0.022954  0.477046  0.022954  1
  Cs  Cs10  1  0.224433  0.224433  0.775567  1
  Cs  Cs11  1  0.477046  0.477046  0.022954  1
  K  K12  1  0.623540  0.129380  0.623540  1
  K  K13  1  0.623540  0.623540  0.129380  1
  K  K14  1  0.129380  0.623540  0.623540  1
  K  K15  1  0.623540  0.623540  0.623540  1
  Hf  Hf16  1  0.750000  0.750000  0.750000  1
  Sn  Sn17  1  0.500000  0.500000  0.500000  1
  Sb  Sb18  1  0.402594  0.792219  0.402594  1
  Sb  Sb19  1  0.844590  0.844590  0.466230  1
  Sb  Sb20  1  0.466230  0.844590  0.844590  1
  Sb  Sb21  1  0.844590  0.844590  0.844590  1
  Sb  Sb22  1  0.792219  0.402594  0.402594  1
  Sb  Sb23  1  0.402594  0.402594  0.402594  1
  Sb  Sb24  1  0.402594  0.402594  0.792219  1
  Sb  Sb25  1  0.844590  0.466230  0.844590  1
