# generated using pymatgen
data_Ca3YAl8
_symmetry_space_group_name_H-M   'P 1'
_cell_length_a   9.69601131
_cell_length_b   9.69601057
_cell_length_c   9.69600933
_cell_angle_alpha   33.97752101
_cell_angle_beta   33.97752852
_cell_angle_gamma   33.97752438
_symmetry_Int_Tables_number   1
_chemical_formula_structural   Ca3YAl8
_chemical_formula_sum   'Ca3 Y1 Al8'
_cell_volume   253.77096355
_cell_formula_units_Z   1
loop_
 _symmetry_equiv_pos_site_id
 _symmetry_equiv_pos_as_xyz
  1  'x, y, z'
loop_
 _atom_site_type_symbol
 _atom_site_label
 _atom_site_symmetry_multiplicity
 _atom_site_fract_x
 _atom_site_fract_y
 _atom_site_fract_z
 _atom_site_occupancy
  Ca  Ca0  1  0.624545  0.624545  0.624545  1
  Ca  Ca1  1  0.999087  0.999087  0.999087  1
  Ca  Ca2  1  0.500865  0.500865  0.500865  1
  Y  Y3  1  0.125344  0.125344  0.125344  1
  Al  Al4  1  0.562794  0.562794  0.065302  1
  Al  Al5  1  0.062785  0.062785  0.558994  1
  Al  Al6  1  0.562794  0.065302  0.562794  1
  Al  Al7  1  0.062785  0.558994  0.062785  1
  Al  Al8  1  0.812793  0.812793  0.812793  1
  Al  Al9  1  0.311913  0.311913  0.311913  1
  Al  Al10  1  0.065302  0.562794  0.562794  1
  Al  Al11  1  0.558994  0.062785  0.062785  1
