# generated using pymatgen
data_AcLaNi10
_symmetry_space_group_name_H-M   'P 1'
_cell_length_a   3.98003600
_cell_length_b   5.02560400
_cell_length_c   8.70967200
_cell_angle_alpha   90.00000000
_cell_angle_beta   90.00000000
_cell_angle_gamma   90.00000000
_symmetry_Int_Tables_number   1
_chemical_formula_structural   AcLaNi10
_chemical_formula_sum   'Ac1 La1 Ni10'
_cell_volume   174.21159829
_cell_formula_units_Z   1
loop_
 _symmetry_equiv_pos_site_id
 _symmetry_equiv_pos_as_xyz
  1  'x, y, z'
loop_
 _atom_site_type_symbol
 _atom_site_label
 _atom_site_symmetry_multiplicity
 _atom_site_fract_x
 _atom_site_fract_y
 _atom_site_fract_z
 _atom_site_occupancy
  Ac  Ac0  1  0.000000  0.500000  0.500000  1
  La  La1  1  0.000000  0.000000  0.000000  1
  Ni  Ni2  1  0.000000  0.000000  0.327213  1
  Ni  Ni3  1  0.000000  0.500000  0.837808  1
  Ni  Ni4  1  0.000000  0.500000  0.162192  1
  Ni  Ni5  1  0.000000  0.000000  0.672787  1
  Ni  Ni6  1  0.500000  0.000000  0.500000  1
  Ni  Ni7  1  0.500000  0.500000  0.000000  1
  Ni  Ni8  1  0.500000  0.249785  0.246411  1
  Ni  Ni9  1  0.500000  0.750215  0.753589  1
  Ni  Ni10  1  0.500000  0.750215  0.246411  1
  Ni  Ni11  1  0.500000  0.249785  0.753589  1
