# generated using pymatgen
data_Sc4Tc3Mo2Os3
_symmetry_space_group_name_H-M   'P 1'
_cell_length_a   5.24416549
_cell_length_b   5.27050984
_cell_length_c   8.73645900
_cell_angle_alpha   90.00000000
_cell_angle_beta   90.00000000
_cell_angle_gamma   120.92578489
_symmetry_Int_Tables_number   1
_chemical_formula_structural   Sc4Tc3Mo2Os3
_chemical_formula_sum   'Sc4 Tc3 Mo2 Os3'
_cell_volume   207.14171512
_cell_formula_units_Z   1
loop_
 _symmetry_equiv_pos_site_id
 _symmetry_equiv_pos_as_xyz
  1  'x, y, z'
loop_
 _atom_site_type_symbol
 _atom_site_label
 _atom_site_symmetry_multiplicity
 _atom_site_fract_x
 _atom_site_fract_y
 _atom_site_fract_z
 _atom_site_occupancy
  Sc  Sc0  1  0.336282  0.667095  0.435623  1
  Sc  Sc1  1  0.665951  0.334000  0.559522  1
  Sc  Sc2  1  0.665951  0.334000  0.940478  1
  Sc  Sc3  1  0.336282  0.667095  0.064377  1
  Tc  Tc4  1  0.174329  0.824804  0.750000  1
  Tc  Tc5  1  0.830253  0.659492  0.250000  1
  Tc  Tc6  1  0.653772  0.828200  0.750000  1
  Mo  Mo7  1  0.169841  0.340995  0.750000  1
  Mo  Mo8  1  0.339623  0.171550  0.250000  1
  Os  Os9  1  0.001066  0.999043  0.998740  1
  Os  Os10  1  0.825583  0.174682  0.250000  1
  Os  Os11  1  0.001066  0.999043  0.501260  1
