# generated using pymatgen
data_Y3HoSc6(Si5Ir2)4
_symmetry_space_group_name_H-M   'P 1'
_cell_length_a   12.48261046
_cell_length_b   12.48261099
_cell_length_c   4.15711700
_cell_angle_alpha   90.00000000
_cell_angle_beta   90.00000000
_cell_angle_gamma   90.02883469
_symmetry_Int_Tables_number   1
_chemical_formula_structural   Y3HoSc6(Si5Ir2)4
_chemical_formula_sum   'Y3 Ho1 Sc6 Si20 Ir8'
_cell_volume   647.74347531
_cell_formula_units_Z   1
loop_
 _symmetry_equiv_pos_site_id
 _symmetry_equiv_pos_as_xyz
  1  'x, y, z'
loop_
 _atom_site_type_symbol
 _atom_site_label
 _atom_site_symmetry_multiplicity
 _atom_site_fract_x
 _atom_site_fract_y
 _atom_site_fract_z
 _atom_site_occupancy
  Y  Y0  1  0.115755  0.615707  0.500000  1
  Y  Y1  1  0.884293  0.384245  0.500000  1
  Y  Y2  1  0.615442  0.884558  0.500000  1
  Ho  Ho3  1  0.384497  0.115503  0.500000  1
  Sc  Sc4  1  0.673783  0.174035  0.500000  1
  Sc  Sc5  1  0.325965  0.826217  0.500000  1
  Sc  Sc6  1  0.174499  0.325501  0.500000  1
  Sc  Sc7  1  0.825805  0.674195  0.500000  1
  Sc  Sc8  1  0.000312  0.000030  0.000000  1
  Sc  Sc9  1  0.499970  0.499688  0.000000  1
  Si  Si10  1  0.567725  0.067608  0.000000  1
  Si  Si11  1  0.432392  0.932275  0.000000  1
  Si  Si12  1  0.067988  0.432012  0.000000  1
  Si  Si13  1  0.932188  0.567812  0.000000  1
  Si  Si14  1  0.199692  0.165659  0.000000  1
  Si  Si15  1  0.800485  0.834492  0.000000  1
  Si  Si16  1  0.165712  0.800832  0.000000  1
  Si  Si17  1  0.699168  0.334288  0.000000  1
  Si  Si18  1  0.834309  0.199562  0.000000  1
  Si  Si19  1  0.300438  0.665691  0.000000  1
  Si  Si20  1  0.665508  0.699515  0.000000  1
  Si  Si21  1  0.334341  0.300308  0.000000  1
  Si  Si22  1  0.007897  0.150721  0.500000  1
  Si  Si23  1  0.992585  0.849381  0.500000  1
  Si  Si24  1  0.151394  0.993280  0.500000  1
  Si  Si25  1  0.506720  0.348606  0.500000  1
  Si  Si26  1  0.849186  0.008129  0.500000  1
  Si  Si27  1  0.491871  0.650814  0.500000  1
  Si  Si28  1  0.650619  0.507415  0.500000  1
  Si  Si29  1  0.349279  0.492103  0.500000  1
  Ir  Ir30  1  0.020526  0.243840  0.000000  1
  Ir  Ir31  1  0.979646  0.756180  0.000000  1
  Ir  Ir32  1  0.244630  0.979973  0.000000  1
  Ir  Ir33  1  0.520027  0.255370  0.000000  1
  Ir  Ir34  1  0.755851  0.020481  0.000000  1
  Ir  Ir35  1  0.479519  0.744149  0.000000  1
  Ir  Ir36  1  0.743820  0.520354  0.000000  1
  Ir  Ir37  1  0.256160  0.479474  0.000000  1
