# generated using pymatgen
data_Tm9Lu(In2Sb)2
_symmetry_space_group_name_H-M   'P 1'
_cell_length_a   8.87336515
_cell_length_b   8.87366442
_cell_length_c   6.45155906
_cell_angle_alpha   89.98982531
_cell_angle_beta   89.99506583
_cell_angle_gamma   120.01957295
_symmetry_Int_Tables_number   1
_chemical_formula_structural   Tm9Lu(In2Sb)2
_chemical_formula_sum   'Tm9 Lu1 In4 Sb2'
_cell_volume   439.84631517
_cell_formula_units_Z   1
loop_
 _symmetry_equiv_pos_site_id
 _symmetry_equiv_pos_as_xyz
  1  'x, y, z'
loop_
 _atom_site_type_symbol
 _atom_site_label
 _atom_site_symmetry_multiplicity
 _atom_site_fract_x
 _atom_site_fract_y
 _atom_site_fract_z
 _atom_site_occupancy
  Tm  Tm0  1  0.666276  0.334860  0.496379  1
  Tm  Tm1  1  0.666370  0.334909  0.003549  1
  Tm  Tm2  1  0.331469  0.665180  0.496346  1
  Tm  Tm3  1  0.236460  0.999906  0.249944  1
  Tm  Tm4  1  0.760137  0.999922  0.750115  1
  Tm  Tm5  1  0.000064  0.238569  0.249888  1
  Tm  Tm6  1  0.761291  0.761577  0.249961  1
  Tm  Tm7  1  0.239098  0.235368  0.750102  1
  Tm  Tm8  1  0.003907  0.764697  0.750088  1
  Lu  Lu9  1  0.331390  0.665112  0.003754  1
  In  In10  1  0.603055  0.999781  0.249808  1
  In  In11  1  0.400997  0.999671  0.750173  1
  In  In12  1  0.999517  0.605767  0.249674  1
  In  In13  1  0.393451  0.394468  0.249761  1
  Sb  Sb14  1  0.606144  0.606336  0.750226  1
  Sb  Sb15  1  0.000376  0.393877  0.750231  1
