# generated using pymatgen
data_Lu5Si3Ir
_symmetry_space_group_name_H-M   'P 1'
_cell_length_a   7.01538900
_cell_length_b   7.77684800
_cell_length_c   14.29189300
_cell_angle_alpha   90.00000000
_cell_angle_beta   90.00000000
_cell_angle_gamma   90.00000000
_symmetry_Int_Tables_number   1
_chemical_formula_structural   Lu5Si3Ir
_chemical_formula_sum   'Lu20 Si12 Ir4'
_cell_volume   779.73158039
_cell_formula_units_Z   4
loop_
 _symmetry_equiv_pos_site_id
 _symmetry_equiv_pos_as_xyz
  1  'x, y, z'
loop_
 _atom_site_type_symbol
 _atom_site_label
 _atom_site_symmetry_multiplicity
 _atom_site_fract_x
 _atom_site_fract_y
 _atom_site_fract_z
 _atom_site_occupancy
  Lu  Lu0  1  0.689117  0.173652  0.627730  1
  Lu  Lu1  1  0.189117  0.326348  0.872270  1
  Lu  Lu2  1  0.310883  0.826348  0.127730  1
  Lu  Lu3  1  0.810883  0.673652  0.372270  1
  Lu  Lu4  1  0.310883  0.826348  0.372270  1
  Lu  Lu5  1  0.810883  0.673652  0.127730  1
  Lu  Lu6  1  0.689117  0.173652  0.872270  1
  Lu  Lu7  1  0.189117  0.326348  0.627730  1
  Lu  Lu8  1  0.512332  0.682682  0.593987  1
  Lu  Lu9  1  0.012332  0.817318  0.906013  1
  Lu  Lu10  1  0.487668  0.317318  0.093987  1
  Lu  Lu11  1  0.987668  0.182682  0.406013  1
  Lu  Lu12  1  0.487668  0.317318  0.406013  1
  Lu  Lu13  1  0.987668  0.182682  0.093987  1
  Lu  Lu14  1  0.512332  0.682682  0.906013  1
  Lu  Lu15  1  0.012332  0.817318  0.593987  1
  Lu  Lu16  1  0.835832  0.511704  0.750000  1
  Lu  Lu17  1  0.335832  0.988296  0.750000  1
  Lu  Lu18  1  0.164168  0.488296  0.250000  1
  Lu  Lu19  1  0.664168  0.011704  0.250000  1
  Si  Si20  1  0.655609  0.971553  0.461295  1
  Si  Si21  1  0.155609  0.528447  0.038705  1
  Si  Si22  1  0.344391  0.028447  0.961295  1
  Si  Si23  1  0.844391  0.471553  0.538705  1
  Si  Si24  1  0.344391  0.028447  0.538705  1
  Si  Si25  1  0.844391  0.471553  0.961295  1
  Si  Si26  1  0.655609  0.971553  0.038705  1
  Si  Si27  1  0.155609  0.528447  0.461295  1
  Si  Si28  1  0.733551  0.862535  0.750000  1
  Si  Si29  1  0.233551  0.637465  0.750000  1
  Si  Si30  1  0.266449  0.137465  0.250000  1
  Si  Si31  1  0.766449  0.362535  0.250000  1
  Ir  Ir32  1  0.482286  0.404976  0.750000  1
  Ir  Ir33  1  0.982286  0.095024  0.750000  1
  Ir  Ir34  1  0.517714  0.595024  0.250000  1
  Ir  Ir35  1  0.017714  0.904976  0.250000  1
