# generated using pymatgen
data_Li3Tm2LuSn3
_symmetry_space_group_name_H-M   'P 1'
_cell_length_a   7.17287872
_cell_length_b   7.17287764
_cell_length_c   4.58508900
_cell_angle_alpha   90.00000000
_cell_angle_beta   90.00000000
_cell_angle_gamma   119.77589906
_symmetry_Int_Tables_number   1
_chemical_formula_structural   Li3Tm2LuSn3
_chemical_formula_sum   'Li3 Tm2 Lu1 Sn3'
_cell_volume   204.75834385
_cell_formula_units_Z   1
loop_
 _symmetry_equiv_pos_site_id
 _symmetry_equiv_pos_as_xyz
  1  'x, y, z'
loop_
 _atom_site_type_symbol
 _atom_site_label
 _atom_site_symmetry_multiplicity
 _atom_site_fract_x
 _atom_site_fract_y
 _atom_site_fract_z
 _atom_site_occupancy
  Li  Li0  1  0.770469  0.000019  0.500001  1
  Li  Li1  1  0.229666  0.229665  0.500001  1
  Li  Li2  1  0.000019  0.770469  0.500001  1
  Tm  Tm3  1  0.443843  0.999926  0.000000  1
  Tm  Tm4  1  0.999926  0.443843  0.000000  1
  Lu  Lu5  1  0.556476  0.556477  0.000000  1
  Sn  Sn6  1  0.999154  0.999154  0.000000  1
  Sn  Sn7  1  0.666336  0.334113  0.500001  1
  Sn  Sn8  1  0.334113  0.666336  0.500001  1
