# generated using pymatgen
data_Tb17Dy2LuPb16
_symmetry_space_group_name_H-M   'P 1'
_cell_length_a   8.22235200
_cell_length_b   8.31320780
_cell_length_c   15.71152800
_cell_angle_alpha   90.00000000
_cell_angle_beta   90.00000000
_cell_angle_gamma   89.92149163
_symmetry_Int_Tables_number   1
_chemical_formula_structural   Tb17Dy2LuPb16
_chemical_formula_sum   'Tb17 Dy2 Lu1 Pb16'
_cell_volume   1073.94667491
_cell_formula_units_Z   1
loop_
 _symmetry_equiv_pos_site_id
 _symmetry_equiv_pos_as_xyz
  1  'x, y, z'
loop_
 _atom_site_type_symbol
 _atom_site_label
 _atom_site_symmetry_multiplicity
 _atom_site_fract_x
 _atom_site_fract_y
 _atom_site_fract_z
 _atom_site_occupancy
  Tb  Tb0  1  0.376615  0.841523  0.879217  1
  Tb  Tb1  1  0.876554  0.658413  0.620379  1
  Tb  Tb2  1  0.623927  0.158883  0.379440  1
  Tb  Tb3  1  0.122673  0.341865  0.120637  1
  Tb  Tb4  1  0.623927  0.158883  0.120560  1
  Tb  Tb5  1  0.122673  0.341865  0.379363  1
  Tb  Tb6  1  0.376615  0.841523  0.620783  1
  Tb  Tb7  1  0.876554  0.658413  0.879621  1
  Tb  Tb8  1  0.534118  0.323404  0.900290  1
  Tb  Tb9  1  0.034165  0.176570  0.600064  1
  Tb  Tb10  1  0.466370  0.676005  0.400052  1
  Tb  Tb11  1  0.965623  0.822933  0.099907  1
  Tb  Tb12  1  0.466370  0.676005  0.099948  1
  Tb  Tb13  1  0.965623  0.822933  0.400093  1
  Tb  Tb14  1  0.534118  0.323404  0.599710  1
  Tb  Tb15  1  0.034165  0.176570  0.899936  1
  Tb  Tb16  1  0.291469  0.003723  0.250000  1
  Dy  Dy17  1  0.208642  0.503955  0.750000  1
  Dy  Dy18  1  0.708680  0.995832  0.750000  1
  Lu  Lu19  1  0.790980  0.495575  0.250000  1
  Pb  Pb20  1  0.281489  0.033753  0.043143  1
  Pb  Pb21  1  0.781574  0.466801  0.455818  1
  Pb  Pb22  1  0.718468  0.966903  0.543223  1
  Pb  Pb23  1  0.218642  0.533396  0.956807  1
  Pb  Pb24  1  0.718468  0.966903  0.956777  1
  Pb  Pb25  1  0.218642  0.533396  0.543193  1
  Pb  Pb26  1  0.281489  0.033753  0.456857  1
  Pb  Pb27  1  0.781574  0.466801  0.044182  1
  Pb  Pb28  1  0.572335  0.625713  0.750000  1
  Pb  Pb29  1  0.072230  0.873947  0.750000  1
  Pb  Pb30  1  0.428845  0.375351  0.250000  1
  Pb  Pb31  1  0.926716  0.127057  0.250000  1
  Pb  Pb32  1  0.346253  0.154010  0.750000  1
  Pb  Pb33  1  0.845704  0.346721  0.750000  1
  Pb  Pb34  1  0.654442  0.845081  0.250000  1
  Pb  Pb35  1  0.153271  0.652135  0.250000  1
