# generated using pymatgen
data_Ba3Sr(U2Te5)4
_symmetry_space_group_name_H-M   'P 1'
_cell_length_a   8.46973867
_cell_length_b   9.38666250
_cell_length_c   13.34923879
_cell_angle_alpha   89.65558860
_cell_angle_beta   89.78997263
_cell_angle_gamma   89.98747398
_symmetry_Int_Tables_number   1
_chemical_formula_structural   Ba3Sr(U2Te5)4
_chemical_formula_sum   'Ba3 Sr1 U8 Te20'
_cell_volume   1061.27257774
_cell_formula_units_Z   1
loop_
 _symmetry_equiv_pos_site_id
 _symmetry_equiv_pos_as_xyz
  1  'x, y, z'
loop_
 _atom_site_type_symbol
 _atom_site_label
 _atom_site_symmetry_multiplicity
 _atom_site_fract_x
 _atom_site_fract_y
 _atom_site_fract_z
 _atom_site_occupancy
  Ba  Ba0  1  0.550890  0.507448  0.170905  1
  Ba  Ba1  1  0.949158  0.505356  0.667494  1
  Ba  Ba2  1  0.449358  0.492587  0.830210  1
  Sr  Sr3  1  0.048740  0.495579  0.328682  1
  U  U4  1  0.023405  0.999496  0.316911  1
  U  U5  1  0.521428  0.001757  0.185375  1
  U  U6  1  0.978017  0.002115  0.681504  1
  U  U7  1  0.475796  0.996623  0.815346  1
  U  U8  1  0.070237  0.755464  0.007618  1
  U  U9  1  0.574678  0.244882  0.488229  1
  U  U10  1  0.927974  0.243917  0.994694  1
  U  U11  1  0.428373  0.752728  0.508692  1
  Te  Te12  1  0.666910  0.952449  0.402044  1
  Te  Te13  1  0.166464  0.045581  0.098380  1
  Te  Te14  1  0.334586  0.046061  0.596828  1
  Te  Te15  1  0.832886  0.955056  0.901175  1
  Te  Te16  1  0.449876  0.789612  0.001841  1
  Te  Te17  1  0.956416  0.213105  0.495347  1
  Te  Te18  1  0.548172  0.208897  0.999317  1
  Te  Te19  1  0.048545  0.788753  0.500392  1
  Te  Te20  1  0.835939  0.781410  0.186832  1
  Te  Te21  1  0.331309  0.223940  0.315055  1
  Te  Te22  1  0.163320  0.218858  0.815236  1
  Te  Te23  1  0.665758  0.779691  0.685422  1
  Te  Te24  1  0.307749  0.768510  0.286958  1
  Te  Te25  1  0.810054  0.231238  0.218231  1
  Te  Te26  1  0.688521  0.226959  0.711569  1
  Te  Te27  1  0.189829  0.771472  0.783704  1
  Te  Te28  1  0.171249  0.458965  0.081718  1
  Te  Te29  1  0.686109  0.543708  0.425557  1
  Te  Te30  1  0.823532  0.541257  0.925107  1
  Te  Te31  1  0.324721  0.456528  0.573625  1
