# generated using pymatgen
data_Tb5Y5(SnBi)4
_symmetry_space_group_name_H-M   'P 1'
_cell_length_a   8.20003900
_cell_length_b   8.24004806
_cell_length_c   15.68133411
_cell_angle_alpha   90.01334330
_cell_angle_beta   90.00000000
_cell_angle_gamma   90.00000000
_symmetry_Int_Tables_number   1
_chemical_formula_structural   Tb5Y5(SnBi)4
_chemical_formula_sum   'Tb10 Y10 Sn8 Bi8'
_cell_volume   1059.56757290
_cell_formula_units_Z   2
loop_
 _symmetry_equiv_pos_site_id
 _symmetry_equiv_pos_as_xyz
  1  'x, y, z'
loop_
 _atom_site_type_symbol
 _atom_site_label
 _atom_site_symmetry_multiplicity
 _atom_site_fract_x
 _atom_site_fract_y
 _atom_site_fract_z
 _atom_site_occupancy
  Tb  Tb0  1  0.386174  0.838264  0.623375  1
  Tb  Tb1  1  0.886174  0.661736  0.876625  1
  Tb  Tb2  1  0.552899  0.328059  0.889929  1
  Tb  Tb3  1  0.052899  0.171941  0.610071  1
  Tb  Tb4  1  0.447104  0.671917  0.389878  1
  Tb  Tb5  1  0.947104  0.828083  0.110122  1
  Tb  Tb6  1  0.447097  0.671900  0.110103  1
  Tb  Tb7  1  0.947097  0.828100  0.389897  1
  Tb  Tb8  1  0.552901  0.328074  0.610100  1
  Tb  Tb9  1  0.052901  0.171926  0.889900  1
  Y  Y10  1  0.386027  0.838353  0.876527  1
  Y  Y11  1  0.886027  0.661647  0.623473  1
  Y  Y12  1  0.613940  0.161631  0.376540  1
  Y  Y13  1  0.113940  0.338369  0.123460  1
  Y  Y14  1  0.613948  0.161653  0.123489  1
  Y  Y15  1  0.113948  0.338347  0.376511  1
  Y  Y16  1  0.217477  0.498044  0.749999  1
  Y  Y17  1  0.717477  0.001956  0.750001  1
  Y  Y18  1  0.782501  0.501906  0.250008  1
  Y  Y19  1  0.282501  0.998094  0.249992  1
  Sn  Sn20  1  0.582680  0.626266  0.750043  1
  Sn  Sn21  1  0.082680  0.873734  0.749957  1
  Sn  Sn22  1  0.417332  0.373658  0.250016  1
  Sn  Sn23  1  0.917332  0.126342  0.249984  1
  Sn  Sn24  1  0.356354  0.143758  0.749998  1
  Sn  Sn25  1  0.856354  0.356242  0.750002  1
  Sn  Sn26  1  0.643610  0.856283  0.249998  1
  Sn  Sn27  1  0.143610  0.643717  0.250002  1
  Bi  Bi28  1  0.270473  0.020861  0.044172  1
  Bi  Bi29  1  0.770473  0.479139  0.455828  1
  Bi  Bi30  1  0.729605  0.979189  0.544163  1
  Bi  Bi31  1  0.229605  0.520811  0.955837  1
  Bi  Bi32  1  0.729417  0.979268  0.955839  1
  Bi  Bi33  1  0.229417  0.520732  0.544161  1
  Bi  Bi34  1  0.270461  0.020959  0.455743  1
  Bi  Bi35  1  0.770461  0.479041  0.044257  1
