# generated using pymatgen
data_Tb4Y6BiPb7
_symmetry_space_group_name_H-M   'P 1'
_cell_length_a   8.23630300
_cell_length_b   8.28196955
_cell_length_c   15.54460100
_cell_angle_alpha   90.26643908
_cell_angle_beta   90.00000000
_cell_angle_gamma   90.00000000
_symmetry_Int_Tables_number   1
_chemical_formula_structural   Tb4Y6BiPb7
_chemical_formula_sum   'Tb8 Y12 Bi2 Pb14'
_cell_volume   1060.32945956
_cell_formula_units_Z   2
loop_
 _symmetry_equiv_pos_site_id
 _symmetry_equiv_pos_as_xyz
  1  'x, y, z'
loop_
 _atom_site_type_symbol
 _atom_site_label
 _atom_site_symmetry_multiplicity
 _atom_site_fract_x
 _atom_site_fract_y
 _atom_site_fract_z
 _atom_site_occupancy
  Tb  Tb0  1  0.543941  0.330065  0.897294  1
  Tb  Tb1  1  0.043941  0.169935  0.602706  1
  Tb  Tb2  1  0.455276  0.675536  0.397589  1
  Tb  Tb3  1  0.955276  0.824464  0.102411  1
  Tb  Tb4  1  0.459796  0.669672  0.101308  1
  Tb  Tb5  1  0.959796  0.830328  0.398692  1
  Tb  Tb6  1  0.536893  0.322692  0.601755  1
  Tb  Tb7  1  0.036893  0.177308  0.898245  1
  Y  Y8  1  0.379520  0.840100  0.878886  1
  Y  Y9  1  0.879520  0.659900  0.621114  1
  Y  Y10  1  0.621212  0.155526  0.378700  1
  Y  Y11  1  0.121212  0.344474  0.121300  1
  Y  Y12  1  0.625404  0.158289  0.120825  1
  Y  Y13  1  0.125404  0.341711  0.379175  1
  Y  Y14  1  0.377251  0.842608  0.620946  1
  Y  Y15  1  0.877251  0.657392  0.879054  1
  Y  Y16  1  0.210010  0.502335  0.749613  1
  Y  Y17  1  0.710010  0.997665  0.750387  1
  Y  Y18  1  0.789665  0.498013  0.248568  1
  Y  Y19  1  0.289665  0.001987  0.251432  1
  Bi  Bi20  1  0.278572  0.029579  0.044631  1
  Bi  Bi21  1  0.778572  0.470421  0.455369  1
  Pb  Pb22  1  0.720215  0.969314  0.543557  1
  Pb  Pb23  1  0.220215  0.530686  0.956443  1
  Pb  Pb24  1  0.721005  0.968564  0.956520  1
  Pb  Pb25  1  0.221005  0.531436  0.543480  1
  Pb  Pb26  1  0.281559  0.032307  0.456753  1
  Pb  Pb27  1  0.781559  0.467693  0.043247  1
  Pb  Pb28  1  0.573008  0.627068  0.748410  1
  Pb  Pb29  1  0.073008  0.872932  0.751590  1
  Pb  Pb30  1  0.428181  0.371941  0.249756  1
  Pb  Pb31  1  0.928181  0.128059  0.250244  1
  Pb  Pb32  1  0.350361  0.152197  0.751439  1
  Pb  Pb33  1  0.850361  0.347803  0.748561  1
  Pb  Pb34  1  0.648131  0.846911  0.249573  1
  Pb  Pb35  1  0.148131  0.653089  0.250427  1
