# generated using pymatgen
data_Tb11Tl(Hg2Pd)4
_symmetry_space_group_name_H-M   'P 1'
_cell_length_a   13.16664200
_cell_length_b   13.16664119
_cell_length_c   3.70003400
_cell_angle_alpha   90.00000000
_cell_angle_beta   90.00000000
_cell_angle_gamma   112.48812892
_symmetry_Int_Tables_number   1
_chemical_formula_structural   Tb11Tl(Hg2Pd)4
_chemical_formula_sum   'Tb11 Tl1 Hg8 Pd4'
_cell_volume   592.66372878
_cell_formula_units_Z   1
loop_
 _symmetry_equiv_pos_site_id
 _symmetry_equiv_pos_as_xyz
  1  'x, y, z'
loop_
 _atom_site_type_symbol
 _atom_site_label
 _atom_site_symmetry_multiplicity
 _atom_site_fract_x
 _atom_site_fract_y
 _atom_site_fract_z
 _atom_site_occupancy
  Tb  Tb0  1  0.415427  0.074743  0.000000  1
  Tb  Tb1  1  0.584573  0.925257  0.000000  1
  Tb  Tb2  1  0.074743  0.415427  0.000000  1
  Tb  Tb3  1  0.925257  0.584573  0.000000  1
  Tb  Tb4  1  0.167220  0.832780  0.000000  1
  Tb  Tb5  1  0.832780  0.167220  0.000000  1
  Tb  Tb6  1  0.371455  0.628545  0.000000  1
  Tb  Tb7  1  0.628545  0.371455  0.000000  1
  Tb  Tb8  1  0.293536  0.293536  0.000000  1
  Tb  Tb9  1  0.706464  0.706464  0.000000  1
  Tb  Tb10  1  0.000000  0.000000  0.000000  1
  Tl  Tl11  1  0.500000  0.500000  0.500000  1
  Hg  Hg12  1  0.369881  0.843780  0.500000  1
  Hg  Hg13  1  0.630119  0.156220  0.500000  1
  Hg  Hg14  1  0.843782  0.369881  0.500000  1
  Hg  Hg15  1  0.156218  0.630119  0.500000  1
  Hg  Hg16  1  0.212923  0.064640  0.500000  1
  Hg  Hg17  1  0.787077  0.935360  0.500000  1
  Hg  Hg18  1  0.064639  0.212922  0.500000  1
  Hg  Hg19  1  0.935361  0.787078  0.500000  1
  Pd  Pd20  1  0.447374  0.248193  0.500000  1
  Pd  Pd21  1  0.552626  0.751807  0.500000  1
  Pd  Pd22  1  0.248194  0.447374  0.500000  1
  Pd  Pd23  1  0.751806  0.552626  0.500000  1
