# generated using pymatgen
data_Ca3CeEr4(B6Os)4
_symmetry_space_group_name_H-M   'P 1'
_cell_length_a   3.64425700
_cell_length_b   9.16224521
_cell_length_c   11.57234158
_cell_angle_alpha   89.83771304
_cell_angle_beta   90.00000000
_cell_angle_gamma   90.00000000
_symmetry_Int_Tables_number   1
_chemical_formula_structural   Ca3CeEr4(B6Os)4
_chemical_formula_sum   'Ca3 Ce1 Er4 B24 Os4'
_cell_volume   386.39403144
_cell_formula_units_Z   1
loop_
 _symmetry_equiv_pos_site_id
 _symmetry_equiv_pos_as_xyz
  1  'x, y, z'
loop_
 _atom_site_type_symbol
 _atom_site_label
 _atom_site_symmetry_multiplicity
 _atom_site_fract_x
 _atom_site_fract_y
 _atom_site_fract_z
 _atom_site_occupancy
  Ca  Ca0  1  0.000000  0.324337  0.414216  1
  Ca  Ca1  1  0.000000  0.676266  0.584028  1
  Ca  Ca2  1  0.000000  0.821113  0.087111  1
  Ce  Ce3  1  0.000000  0.175729  0.914889  1
  Er  Er4  1  0.000000  0.941543  0.368936  1
  Er  Er5  1  0.000000  0.056691  0.628337  1
  Er  Er6  1  0.000000  0.445042  0.131396  1
  Er  Er7  1  0.000000  0.558252  0.870163  1
  B  B8  1  0.500000  0.554077  0.432884  1
  B  B9  1  0.500000  0.445161  0.568254  1
  B  B10  1  0.500000  0.054777  0.068284  1
  B  B11  1  0.500000  0.945064  0.931705  1
  B  B12  1  0.500000  0.748480  0.417474  1
  B  B13  1  0.500000  0.251432  0.582290  1
  B  B14  1  0.500000  0.249435  0.082398  1
  B  B15  1  0.500000  0.751103  0.917505  1
  B  B16  1  0.500000  0.791186  0.265427  1
  B  B17  1  0.500000  0.208675  0.734327  1
  B  B18  1  0.500000  0.291395  0.235118  1
  B  B19  1  0.500000  0.709372  0.765468  1
  B  B20  1  0.500000  0.631435  0.186449  1
  B  B21  1  0.500000  0.368648  0.814874  1
  B  B22  1  0.500000  0.130909  0.313449  1
  B  B23  1  0.500000  0.868855  0.684980  1
  B  B24  1  0.500000  0.983918  0.212327  1
  B  B25  1  0.500000  0.015361  0.787331  1
  B  B26  1  0.500000  0.484233  0.288519  1
  B  B27  1  0.500000  0.515832  0.712172  1
  B  B28  1  0.500000  0.601466  0.027907  1
  B  B29  1  0.500000  0.400367  0.972793  1
  B  B30  1  0.500000  0.098429  0.472051  1
  B  B31  1  0.500000  0.901257  0.526441  1
  Os  Os32  1  0.000000  0.639140  0.319803  1
  Os  Os33  1  0.000000  0.358559  0.683025  1
  Os  Os34  1  0.000000  0.139514  0.177676  1
  Os  Os35  1  0.000000  0.862951  0.819995  1
