# generated using pymatgen
data_Eu4Tm(SnO4)3
_symmetry_space_group_name_H-M   'P 1'
_cell_length_a   5.72027201
_cell_length_b   5.88554926
_cell_length_c   8.19227265
_cell_angle_alpha   90.38497989
_cell_angle_beta   89.78892844
_cell_angle_gamma   90.04148816
_symmetry_Int_Tables_number   1
_chemical_formula_structural   Eu4Tm(SnO4)3
_chemical_formula_sum   'Eu4 Tm1 Sn3 O12'
_cell_volume   275.80060904
_cell_formula_units_Z   1
loop_
 _symmetry_equiv_pos_site_id
 _symmetry_equiv_pos_as_xyz
  1  'x, y, z'
loop_
 _atom_site_type_symbol
 _atom_site_label
 _atom_site_symmetry_multiplicity
 _atom_site_fract_x
 _atom_site_fract_y
 _atom_site_fract_z
 _atom_site_occupancy
  Eu  Eu0  1  0.988201  0.047741  0.248398  1
  Eu  Eu1  1  0.513456  0.548383  0.248284  1
  Eu  Eu2  1  0.486544  0.451617  0.751718  1
  Eu  Eu3  1  0.011798  0.952257  0.751604  1
  Tm  Tm4  1  0.500000  0.000000  0.000000  1
  Sn  Sn5  1  0.000000  0.500000  0.000000  1
  Sn  Sn6  1  0.500000  0.000000  0.500000  1
  Sn  Sn7  1  0.000000  0.500000  0.500000  1
  O  O8  1  0.710394  0.304234  0.049268  1
  O  O9  1  0.805899  0.788397  0.049174  1
  O  O10  1  0.093130  0.471395  0.252449  1
  O  O11  1  0.407396  0.971009  0.259319  1
  O  O12  1  0.704047  0.295819  0.450989  1
  O  O13  1  0.797482  0.793643  0.451367  1
  O  O14  1  0.202518  0.206357  0.548633  1
  O  O15  1  0.295953  0.704181  0.549011  1
  O  O16  1  0.592604  0.028990  0.740683  1
  O  O17  1  0.906871  0.528605  0.747553  1
  O  O18  1  0.194101  0.211603  0.950825  1
  O  O19  1  0.289606  0.695766  0.950731  1
