# generated using pymatgen
data_Nd15DyCd3Co4Hg
_symmetry_space_group_name_H-M   'P 1'
_cell_length_a   9.76790938
_cell_length_b   9.76578336
_cell_length_c   9.80224700
_cell_angle_alpha   59.87640590
_cell_angle_beta   59.88364146
_cell_angle_gamma   60.21919751
_symmetry_Int_Tables_number   1
_chemical_formula_structural   Nd15DyCd3Co4Hg
_chemical_formula_sum   'Nd15 Dy1 Cd3 Co4 Hg1'
_cell_volume   661.06025398
_cell_formula_units_Z   1
loop_
 _symmetry_equiv_pos_site_id
 _symmetry_equiv_pos_as_xyz
  1  'x, y, z'
loop_
 _atom_site_type_symbol
 _atom_site_label
 _atom_site_symmetry_multiplicity
 _atom_site_fract_x
 _atom_site_fract_y
 _atom_site_fract_z
 _atom_site_occupancy
  Nd  Nd0  1  0.151719  0.541049  0.153616  1
  Nd  Nd1  1  0.687497  0.310238  0.689743  1
  Nd  Nd2  1  0.687497  0.310238  0.312522  1
  Nd  Nd3  1  0.940752  0.559106  0.562394  1
  Nd  Nd4  1  0.542388  0.151388  0.153112  1
  Nd  Nd5  1  0.154297  0.154254  0.541908  1
  Nd  Nd6  1  0.941131  0.940262  0.559303  1
  Nd  Nd7  1  0.311770  0.686698  0.312731  1
  Nd  Nd8  1  0.559958  0.940141  0.937372  1
  Nd  Nd9  1  0.559958  0.940141  0.562529  1
  Nd  Nd10  1  0.690061  0.690015  0.309962  1
  Nd  Nd11  1  0.560159  0.558934  0.940453  1
  Nd  Nd12  1  0.940752  0.559106  0.937749  1
  Nd  Nd13  1  0.311770  0.686698  0.688802  1
  Nd  Nd14  1  0.154297  0.154254  0.149541  1
  Dy  Dy15  1  0.309456  0.309049  0.690748  1
  Cd  Cd16  1  0.921019  0.920548  0.920469  1
  Cd  Cd17  1  0.921019  0.920548  0.237964  1
  Cd  Cd18  1  0.238724  0.921765  0.919756  1
  Co  Co19  1  0.358233  0.358143  0.921234  1
  Co  Co20  1  0.358136  0.922230  0.359817  1
  Co  Co21  1  0.922714  0.357844  0.359721  1
  Co  Co22  1  0.358233  0.358143  0.362391  1
  Hg  Hg23  1  0.918462  0.249212  0.916163  1
