# generated using pymatgen
data_Yb3(SiRh)2
_symmetry_space_group_name_H-M   'P 1'
_cell_length_a   5.66964400
_cell_length_b   7.58892700
_cell_length_c   13.34785000
_cell_angle_alpha   90.00000000
_cell_angle_beta   90.00000000
_cell_angle_gamma   90.00000000
_symmetry_Int_Tables_number   1
_chemical_formula_structural   Yb3(SiRh)2
_chemical_formula_sum   'Yb12 Si8 Rh8'
_cell_volume   574.31146066
_cell_formula_units_Z   4
loop_
 _symmetry_equiv_pos_site_id
 _symmetry_equiv_pos_as_xyz
  1  'x, y, z'
loop_
 _atom_site_type_symbol
 _atom_site_label
 _atom_site_symmetry_multiplicity
 _atom_site_fract_x
 _atom_site_fract_y
 _atom_site_fract_z
 _atom_site_occupancy
  Yb  Yb0  1  0.142765  0.395474  0.097102  1
  Yb  Yb1  1  0.857236  0.895473  0.097102  1
  Yb  Yb2  1  0.637710  0.234991  0.250000  1
  Yb  Yb3  1  0.362290  0.734990  0.250000  1
  Yb  Yb4  1  0.142765  0.395474  0.402898  1
  Yb  Yb5  1  0.857236  0.895473  0.402898  1
  Yb  Yb6  1  0.142765  0.104526  0.597102  1
  Yb  Yb7  1  0.857236  0.604527  0.597102  1
  Yb  Yb8  1  0.637710  0.265009  0.750000  1
  Yb  Yb9  1  0.362290  0.765010  0.750000  1
  Yb  Yb10  1  0.142765  0.104526  0.902898  1
  Yb  Yb11  1  0.857236  0.604527  0.902898  1
  Si  Si12  1  0.603192  0.250000  0.000000  1
  Si  Si13  1  0.396806  0.750000  0.000000  1
  Si  Si14  1  0.155788  0.087877  0.250000  1
  Si  Si15  1  0.844210  0.587876  0.250000  1
  Si  Si16  1  0.603192  0.250000  0.500000  1
  Si  Si17  1  0.396806  0.750000  0.500000  1
  Si  Si18  1  0.155788  0.412124  0.750000  1
  Si  Si19  1  0.844210  0.912124  0.750000  1
  Rh  Rh20  1  0.363352  0.028992  0.091575  1
  Rh  Rh21  1  0.636650  0.528991  0.091575  1
  Rh  Rh22  1  0.363352  0.028992  0.408425  1
  Rh  Rh23  1  0.636650  0.528991  0.408425  1
  Rh  Rh24  1  0.363352  0.471009  0.591575  1
  Rh  Rh25  1  0.636650  0.971008  0.591575  1
  Rh  Rh26  1  0.363352  0.471009  0.908425  1
  Rh  Rh27  1  0.636650  0.971008  0.908425  1
