# generated using pymatgen
data_Th3Si3Pd
_symmetry_space_group_name_H-M   'P 1'
_cell_length_a   5.83731929
_cell_length_b   5.83731893
_cell_length_c   14.39488920
_cell_angle_alpha   70.56274332
_cell_angle_beta   70.56274571
_cell_angle_gamma   43.80531685
_symmetry_Int_Tables_number   1
_chemical_formula_structural   Th3Si3Pd
_chemical_formula_sum   'Th6 Si6 Pd2'
_cell_volume   316.93643811
_cell_formula_units_Z   2
loop_
 _symmetry_equiv_pos_site_id
 _symmetry_equiv_pos_as_xyz
  1  'x, y, z'
loop_
 _atom_site_type_symbol
 _atom_site_label
 _atom_site_symmetry_multiplicity
 _atom_site_fract_x
 _atom_site_fract_y
 _atom_site_fract_z
 _atom_site_occupancy
  Th  Th0  1  0.604373  0.604373  0.077602  1
  Th  Th1  1  0.395627  0.395627  0.922398  1
  Th  Th2  1  0.531404  0.531404  0.620445  1
  Th  Th3  1  0.468596  0.468596  0.379555  1
  Th  Th4  1  0.254204  0.254204  0.227095  1
  Th  Th5  1  0.745796  0.745796  0.772905  1
  Si  Si6  1  0.963780  0.963780  0.231079  1
  Si  Si7  1  0.036220  0.036220  0.768921  1
  Si  Si8  1  0.873708  0.873708  0.543499  1
  Si  Si9  1  0.126292  0.126292  0.456501  1
  Si  Si10  1  0.110416  0.110416  0.924553  1
  Si  Si11  1  0.889584  0.889584  0.075447  1
  Pd  Pd12  1  0.753855  0.753855  0.397545  1
  Pd  Pd13  1  0.246145  0.246145  0.602455  1
