# generated using pymatgen
data_Eu4CuH12Rh
_symmetry_space_group_name_H-M   'P 1'
_cell_length_a   7.32239390
_cell_length_b   7.32239251
_cell_length_c   5.32237658
_cell_angle_alpha   90.01232511
_cell_angle_beta   90.01232699
_cell_angle_gamma   137.42514549
_symmetry_Int_Tables_number   1
_chemical_formula_structural   Eu4CuH12Rh
_chemical_formula_sum   'Eu4 Cu1 H12 Rh1'
_cell_volume   193.06935495
_cell_formula_units_Z   1
loop_
 _symmetry_equiv_pos_site_id
 _symmetry_equiv_pos_as_xyz
  1  'x, y, z'
loop_
 _atom_site_type_symbol
 _atom_site_label
 _atom_site_symmetry_multiplicity
 _atom_site_fract_x
 _atom_site_fract_y
 _atom_site_fract_z
 _atom_site_occupancy
  Eu  Eu0  1  0.146504  0.853496  0.500000  1
  Eu  Eu1  1  0.645527  0.354473  0.000000  1
  Eu  Eu2  1  0.853496  0.146504  0.500000  1
  Eu  Eu3  1  0.354473  0.645527  0.000000  1
  Cu  Cu4  1  0.000000  0.000000  0.000000  1
  H  H5  1  0.999883  0.500112  0.752050  1
  H  H6  1  0.499888  0.000117  0.247950  1
  H  H7  1  0.000117  0.499888  0.247950  1
  H  H8  1  0.500112  0.999883  0.752050  1
  H  H9  1  0.375083  0.624917  0.500000  1
  H  H10  1  0.881365  0.118635  0.000000  1
  H  H11  1  0.624917  0.375083  0.500000  1
  H  H12  1  0.118635  0.881365  0.000000  1
  H  H13  1  0.268603  0.268603  0.731458  1
  H  H14  1  0.731397  0.731397  0.268542  1
  H  H15  1  0.268248  0.268248  0.268484  1
  H  H16  1  0.731752  0.731752  0.731516  1
  Rh  Rh17  1  0.500000  0.500000  0.500000  1
