# generated using pymatgen
data_Dy5Y14Er(CoBi2)4
_symmetry_space_group_name_H-M   'P 1'
_cell_length_a   8.04501906
_cell_length_b   8.87260888
_cell_length_c   12.47280076
_cell_angle_alpha   90.00448425
_cell_angle_beta   89.98684119
_cell_angle_gamma   89.98885743
_symmetry_Int_Tables_number   1
_chemical_formula_structural   Dy5Y14Er(CoBi2)4
_chemical_formula_sum   'Dy5 Y14 Er1 Co4 Bi8'
_cell_volume   890.31231021
_cell_formula_units_Z   1
loop_
 _symmetry_equiv_pos_site_id
 _symmetry_equiv_pos_as_xyz
  1  'x, y, z'
loop_
 _atom_site_type_symbol
 _atom_site_label
 _atom_site_symmetry_multiplicity
 _atom_site_fract_x
 _atom_site_fract_y
 _atom_site_fract_z
 _atom_site_occupancy
  Dy  Dy0  1  0.325507  0.534864  0.563990  1
  Dy  Dy1  1  0.174241  0.965232  0.064148  1
  Dy  Dy2  1  0.674448  0.465683  0.436323  1
  Dy  Dy3  1  0.825674  0.034751  0.935769  1
  Dy  Dy4  1  0.674309  0.034585  0.436467  1
  Y  Y5  1  0.653731  0.749913  0.699284  1
  Y  Y6  1  0.346115  0.250172  0.300717  1
  Y  Y7  1  0.154180  0.249462  0.800521  1
  Y  Y8  1  0.845830  0.750521  0.199313  1
  Y  Y9  1  0.122591  0.750395  0.811246  1
  Y  Y10  1  0.877285  0.249527  0.188734  1
  Y  Y11  1  0.622447  0.250067  0.688618  1
  Y  Y12  1  0.376554  0.750158  0.311412  1
  Y  Y13  1  0.547436  0.751432  0.997658  1
  Y  Y14  1  0.452546  0.248593  0.002325  1
  Y  Y15  1  0.048792  0.249659  0.502451  1
  Y  Y16  1  0.953211  0.750170  0.497589  1
  Y  Y17  1  0.824710  0.465105  0.935550  1
  Y  Y18  1  0.175211  0.534992  0.064371  1
  Er  Er19  1  0.327469  0.964815  0.563768  1
  Co  Co20  1  0.939433  0.751624  0.992300  1
  Co  Co21  1  0.060494  0.248395  0.007595  1
  Co  Co22  1  0.439865  0.249665  0.507571  1
  Co  Co23  1  0.558235  0.750463  0.492787  1
  Bi  Bi24  1  0.932496  0.007196  0.673525  1
  Bi  Bi25  1  0.067973  0.992705  0.326061  1
  Bi  Bi26  1  0.431903  0.992533  0.825230  1
  Bi  Bi27  1  0.067465  0.507255  0.325847  1
  Bi  Bi28  1  0.567811  0.007363  0.174639  1
  Bi  Bi29  1  0.932236  0.492614  0.674016  1
  Bi  Bi30  1  0.568027  0.492718  0.173606  1
  Bi  Bi31  1  0.431774  0.507372  0.826567  1
