# generated using pymatgen
data_ScVFe4(BO5)2
_symmetry_space_group_name_H-M   'P 1'
_cell_length_a   3.14817400
_cell_length_b   9.66239700
_cell_length_c   12.57358400
_cell_angle_alpha   89.99707935
_cell_angle_beta   90.00000000
_cell_angle_gamma   90.00000000
_symmetry_Int_Tables_number   1
_chemical_formula_structural   ScVFe4(BO5)2
_chemical_formula_sum   'Sc2 V2 Fe8 B4 O20'
_cell_volume   382.47468227
_cell_formula_units_Z   2
loop_
 _symmetry_equiv_pos_site_id
 _symmetry_equiv_pos_as_xyz
  1  'x, y, z'
loop_
 _atom_site_type_symbol
 _atom_site_label
 _atom_site_symmetry_multiplicity
 _atom_site_fract_x
 _atom_site_fract_y
 _atom_site_fract_z
 _atom_site_occupancy
  Sc  Sc0  1  0.000000  0.243329  0.384374  1
  Sc  Sc1  1  0.000000  0.756671  0.615626  1
  V  V2  1  0.000000  0.255785  0.886177  1
  V  V3  1  0.000000  0.744215  0.113823  1
  Fe  Fe4  1  0.500000  0.000000  0.500000  1
  Fe  Fe5  1  0.500000  0.500000  0.000000  1
  Fe  Fe6  1  0.500000  0.998402  0.223027  1
  Fe  Fe7  1  0.500000  0.001598  0.776973  1
  Fe  Fe8  1  0.500000  0.496571  0.724567  1
  Fe  Fe9  1  0.500000  0.503429  0.275433  1
  Fe  Fe10  1  0.000000  0.000000  0.000000  1
  Fe  Fe11  1  0.000000  0.500000  0.500000  1
  B  B12  1  0.000000  0.269714  0.135566  1
  B  B13  1  0.000000  0.730286  0.864434  1
  B  B14  1  0.000000  0.230643  0.639906  1
  B  B15  1  0.000000  0.769357  0.360094  1
  O  O16  1  0.500000  0.106990  0.358454  1
  O  O17  1  0.500000  0.893010  0.641546  1
  O  O18  1  0.500000  0.386911  0.860398  1
  O  O19  1  0.500000  0.613089  0.139602  1
  O  O20  1  0.000000  0.125600  0.137613  1
  O  O21  1  0.000000  0.874400  0.862387  1
  O  O22  1  0.000000  0.374307  0.640231  1
  O  O23  1  0.000000  0.625693  0.359769  1
  O  O24  1  0.500000  0.386551  0.416964  1
  O  O25  1  0.500000  0.613449  0.583036  1
  O  O26  1  0.500000  0.117689  0.917173  1
  O  O27  1  0.500000  0.882311  0.082827  1
  O  O28  1  0.000000  0.343304  0.230915  1
  O  O29  1  0.000000  0.656696  0.769085  1
  O  O30  1  0.000000  0.159025  0.736058  1
  O  O31  1  0.000000  0.840975  0.263942  1
  O  O32  1  0.000000  0.342779  0.040055  1
  O  O33  1  0.000000  0.657221  0.959945  1
  O  O34  1  0.000000  0.156885  0.544487  1
  O  O35  1  0.000000  0.843115  0.455513  1
