# generated using pymatgen
data_Nb4Co7P12Ru13
_symmetry_space_group_name_H-M   'P 1'
_cell_length_a   3.75266600
_cell_length_b   10.49223494
_cell_length_c   11.94125228
_cell_angle_alpha   90.30963032
_cell_angle_beta   90.00000000
_cell_angle_gamma   90.00000000
_symmetry_Int_Tables_number   1
_chemical_formula_structural   Nb4Co7P12Ru13
_chemical_formula_sum   'Nb4 Co7 P12 Ru13'
_cell_volume   470.16625059
_cell_formula_units_Z   1
loop_
 _symmetry_equiv_pos_site_id
 _symmetry_equiv_pos_as_xyz
  1  'x, y, z'
loop_
 _atom_site_type_symbol
 _atom_site_label
 _atom_site_symmetry_multiplicity
 _atom_site_fract_x
 _atom_site_fract_y
 _atom_site_fract_z
 _atom_site_occupancy
  Nb  Nb0  1  0.250000  0.581411  0.708049  1
  Nb  Nb1  1  0.250000  0.917187  0.205922  1
  Nb  Nb2  1  0.750000  0.419343  0.296234  1
  Nb  Nb3  1  0.750000  0.083194  0.796135  1
  Co  Co4  1  0.250000  0.606654  0.204197  1
  Co  Co5  1  0.750000  0.109229  0.295401  1
  Co  Co6  1  0.750000  0.388814  0.796677  1
  Co  Co7  1  0.250000  0.461681  0.928943  1
  Co  Co8  1  0.250000  0.038511  0.424753  1
  Co  Co9  1  0.750000  0.533791  0.073297  1
  Co  Co10  1  0.750000  0.966424  0.565157  1
  P  P11  1  0.250000  0.427570  0.112852  1
  P  P12  1  0.250000  0.076982  0.607023  1
  P  P13  1  0.750000  0.566384  0.889336  1
  P  P14  1  0.750000  0.929178  0.384399  1
  P  P15  1  0.250000  0.267072  0.869504  1
  P  P16  1  0.250000  0.233940  0.369461  1
  P  P17  1  0.750000  0.729484  0.130320  1
  P  P18  1  0.750000  0.769693  0.630991  1
  P  P19  1  0.250000  0.599491  0.385103  1
  P  P20  1  0.250000  0.898804  0.891781  1
  P  P21  1  0.750000  0.403122  0.615020  1
  P  P22  1  0.750000  0.099285  0.114660  1
  Ru  Ru23  1  0.250000  0.712520  0.997210  1
  Ru  Ru24  1  0.250000  0.788328  0.486667  1
  Ru  Ru25  1  0.750000  0.284658  0.006455  1
  Ru  Ru26  1  0.750000  0.217514  0.504202  1
  Ru  Ru27  1  0.250000  0.410539  0.481293  1
  Ru  Ru28  1  0.250000  0.091937  0.981938  1
  Ru  Ru29  1  0.750000  0.594415  0.519984  1
  Ru  Ru30  1  0.750000  0.906966  0.021564  1
  Ru  Ru31  1  0.250000  0.229926  0.180768  1
  Ru  Ru32  1  0.250000  0.272493  0.680004  1
  Ru  Ru33  1  0.750000  0.763223  0.823562  1
  Ru  Ru34  1  0.750000  0.729029  0.318297  1
  Ru  Ru35  1  0.250000  0.891211  0.702841  1
