# generated using pymatgen
data_Tb3Nd2Ho3(WO6)4
_symmetry_space_group_name_H-M   'P 1'
_cell_length_a   5.45344320
_cell_length_b   7.76856633
_cell_length_c   11.54456038
_cell_angle_alpha   75.65091068
_cell_angle_beta   90.00300705
_cell_angle_gamma   90.03050524
_symmetry_Int_Tables_number   1
_chemical_formula_structural   Tb3Nd2Ho3(WO6)4
_chemical_formula_sum   'Tb3 Nd2 Ho3 W4 O24'
_cell_volume   473.83247410
_cell_formula_units_Z   1
loop_
 _symmetry_equiv_pos_site_id
 _symmetry_equiv_pos_as_xyz
  1  'x, y, z'
loop_
 _atom_site_type_symbol
 _atom_site_label
 _atom_site_symmetry_multiplicity
 _atom_site_fract_x
 _atom_site_fract_y
 _atom_site_fract_z
 _atom_site_occupancy
  Tb  Tb0  1  0.740597  0.000300  0.750503  1
  Tb  Tb1  1  0.259499  0.000271  0.249580  1
  Tb  Tb2  1  0.187765  0.798084  0.576683  1
  Nd  Nd3  1  0.685100  0.499573  0.750378  1
  Nd  Nd4  1  0.315089  0.499869  0.249947  1
  Ho  Ho5  1  0.812602  0.797633  0.077005  1
  Ho  Ho6  1  0.187316  0.202404  0.922878  1
  Ho  Ho7  1  0.812354  0.202834  0.422727  1
  W  W8  1  0.253058  0.726436  0.885461  1
  W  W9  1  0.747456  0.726297  0.384641  1
  W  W10  1  0.252786  0.273186  0.614912  1
  W  W11  1  0.747215  0.273425  0.114881  1
  O  O12  1  0.042150  0.940992  0.896660  1
  O  O13  1  0.530262  0.846978  0.932110  1
  O  O14  1  0.957655  0.941291  0.396058  1
  O  O15  1  0.456493  0.792313  0.728803  1
  O  O16  1  0.471356  0.847878  0.430333  1
  O  O17  1  0.986354  0.717521  0.770739  1
  O  O18  1  0.545137  0.792458  0.227345  1
  O  O19  1  0.854268  0.639909  0.545910  1
  O  O20  1  0.350566  0.492379  0.888398  1
  O  O21  1  0.013694  0.717748  0.269784  1
  O  O22  1  0.352054  0.506708  0.611726  1
  O  O23  1  0.856718  0.359021  0.953968  1
  O  O24  1  0.143290  0.640782  0.046304  1
  O  O25  1  0.648895  0.492119  0.388014  1
  O  O26  1  0.987014  0.282606  0.730401  1
  O  O27  1  0.649350  0.507438  0.111630  1
  O  O28  1  0.143494  0.359267  0.453833  1
  O  O29  1  0.454818  0.206986  0.772411  1
  O  O30  1  0.013175  0.282240  0.230085  1
  O  O31  1  0.529714  0.152662  0.568418  1
  O  O32  1  0.545008  0.207334  0.272247  1
  O  O33  1  0.039962  0.060658  0.603481  1
  O  O34  1  0.469708  0.153276  0.068396  1
  O  O35  1  0.958028  0.059124  0.103351  1
