# generated using pymatgen
data_Li4Ho3ErSn3Bi
_symmetry_space_group_name_H-M   'P 1'
_cell_length_a   9.41828716
_cell_length_b   9.41805467
_cell_length_c   7.21916900
_cell_angle_alpha   90.00014295
_cell_angle_beta   90.10254757
_cell_angle_gamma   119.99876127
_symmetry_Int_Tables_number   1
_chemical_formula_structural   Li4Ho3ErSn3Bi
_chemical_formula_sum   'Li8 Ho6 Er2 Sn6 Bi2'
_cell_volume   554.56884467
_cell_formula_units_Z   2
loop_
 _symmetry_equiv_pos_site_id
 _symmetry_equiv_pos_as_xyz
  1  'x, y, z'
loop_
 _atom_site_type_symbol
 _atom_site_label
 _atom_site_symmetry_multiplicity
 _atom_site_fract_x
 _atom_site_fract_y
 _atom_site_fract_z
 _atom_site_occupancy
  Li  Li0  1  0.168008  0.334155  0.282472  1
  Li  Li1  1  0.168001  0.833841  0.282459  1
  Li  Li2  1  0.664667  0.832328  0.286322  1
  Li  Li3  1  0.828982  0.664363  0.786492  1
  Li  Li4  1  0.828984  0.164636  0.786472  1
  Li  Li5  1  0.338164  0.169082  0.791307  1
  Li  Li6  1  0.338178  0.669091  0.670059  1
  Li  Li7  1  0.665308  0.332651  0.174713  1
  Ho  Ho8  1  0.972347  0.486182  0.488655  1
  Ho  Ho9  1  0.493377  0.978733  0.997205  1
  Ho  Ho10  1  0.493367  0.514645  0.997208  1
  Ho  Ho11  1  0.017030  0.508516  0.999745  1
  Ho  Ho12  1  0.994740  0.997367  0.494768  1
  Ho  Ho13  1  0.995227  0.997614  0.005222  1
  Er  Er14  1  0.516894  0.026412  0.490836  1
  Er  Er15  1  0.516893  0.490486  0.490837  1
  Sn  Sn16  1  0.666878  0.833438  0.731825  1
  Sn  Sn17  1  0.833537  0.666714  0.232791  1
  Sn  Sn18  1  0.833564  0.166812  0.232819  1
  Sn  Sn19  1  0.333182  0.166575  0.233063  1
  Sn  Sn20  1  0.332250  0.666132  0.260121  1
  Sn  Sn21  1  0.667524  0.333776  0.759163  1
  Bi  Bi22  1  0.166451  0.333536  0.733711  1
  Bi  Bi23  1  0.166450  0.832918  0.733706  1
