# generated using pymatgen
data_Er4ScZn2Bi
_symmetry_space_group_name_H-M   'P 1'
_cell_length_a   8.46883468
_cell_length_b   8.46883489
_cell_length_c   8.46883402
_cell_angle_alpha   123.54594674
_cell_angle_beta   123.54594838
_cell_angle_gamma   83.96067050
_symmetry_Int_Tables_number   1
_chemical_formula_structural   Er4ScZn2Bi
_chemical_formula_sum   'Er8 Sc2 Zn4 Bi2'
_cell_volume   404.01656418
_cell_formula_units_Z   2
loop_
 _symmetry_equiv_pos_site_id
 _symmetry_equiv_pos_as_xyz
  1  'x, y, z'
loop_
 _atom_site_type_symbol
 _atom_site_label
 _atom_site_symmetry_multiplicity
 _atom_site_fract_x
 _atom_site_fract_y
 _atom_site_fract_z
 _atom_site_occupancy
  Er  Er0  1  0.511633  0.011633  0.806222  1
  Er  Er1  1  0.205410  0.705410  0.193778  1
  Er  Er2  1  0.011633  0.205410  0.500000  1
  Er  Er3  1  0.705410  0.511633  0.500000  1
  Er  Er4  1  0.488367  0.988367  0.193778  1
  Er  Er5  1  0.794590  0.294590  0.806222  1
  Er  Er6  1  0.988367  0.794590  0.500000  1
  Er  Er7  1  0.294590  0.488367  0.500000  1
  Sc  Sc8  1  0.500000  0.500000  0.000000  1
  Sc  Sc9  1  0.000000  0.000000  0.000000  1
  Zn  Zn10  1  0.141368  0.641368  0.782737  1
  Zn  Zn11  1  0.858632  0.358632  0.217263  1
  Zn  Zn12  1  0.641368  0.858632  0.500000  1
  Zn  Zn13  1  0.358632  0.141368  0.500000  1
  Bi  Bi14  1  0.250000  0.250000  0.000000  1
  Bi  Bi15  1  0.750000  0.750000  0.000000  1
