# generated using pymatgen
data_Ce4Er6TlAg2Pb5
_symmetry_space_group_name_H-M   'P 1'
_cell_length_a   9.48392452
_cell_length_b   9.48392533
_cell_length_c   6.40736600
_cell_angle_alpha   90.00000000
_cell_angle_beta   90.00000000
_cell_angle_gamma   119.93513336
_symmetry_Int_Tables_number   1
_chemical_formula_structural   Ce4Er6TlAg2Pb5
_chemical_formula_sum   'Ce4 Er6 Tl1 Ag2 Pb5'
_cell_volume   499.42454213
_cell_formula_units_Z   1
loop_
 _symmetry_equiv_pos_site_id
 _symmetry_equiv_pos_as_xyz
  1  'x, y, z'
loop_
 _atom_site_type_symbol
 _atom_site_label
 _atom_site_symmetry_multiplicity
 _atom_site_fract_x
 _atom_site_fract_y
 _atom_site_fract_z
 _atom_site_occupancy
  Ce  Ce0  1  0.665843  0.333052  0.499054  1
  Ce  Ce1  1  0.333052  0.665843  0.499054  1
  Ce  Ce2  1  0.333052  0.665843  0.000946  1
  Ce  Ce3  1  0.665843  0.333052  0.000946  1
  Er  Er4  1  0.724015  0.724015  0.250000  1
  Er  Er5  1  0.276483  0.001868  0.250000  1
  Er  Er6  1  0.001868  0.276483  0.250000  1
  Er  Er7  1  0.276364  0.276364  0.750000  1
  Er  Er8  1  0.723646  0.999309  0.750000  1
  Er  Er9  1  0.999309  0.723646  0.750000  1
  Tl  Tl10  1  0.371726  0.371726  0.250000  1
  Ag  Ag11  1  0.000852  0.000852  0.499543  1
  Ag  Ag12  1  0.000852  0.000852  0.000457  1
  Pb  Pb13  1  0.627906  0.999126  0.250000  1
  Pb  Pb14  1  0.999126  0.627906  0.250000  1
  Pb  Pb15  1  0.627816  0.627816  0.750000  1
  Pb  Pb16  1  0.371718  0.000528  0.750000  1
  Pb  Pb17  1  0.000528  0.371718  0.750000  1
