# generated using pymatgen
data_Tb4Sm2CuRh17
_symmetry_space_group_name_H-M   'P 1'
_cell_length_a   5.26430100
_cell_length_b   5.26434532
_cell_length_c   17.34188800
_cell_angle_alpha   90.00000000
_cell_angle_beta   90.00000000
_cell_angle_gamma   120.00034358
_symmetry_Int_Tables_number   1
_chemical_formula_structural   Tb4Sm2CuRh17
_chemical_formula_sum   'Tb4 Sm2 Cu1 Rh17'
_cell_volume   416.20815772
_cell_formula_units_Z   1
loop_
 _symmetry_equiv_pos_site_id
 _symmetry_equiv_pos_as_xyz
  1  'x, y, z'
loop_
 _atom_site_type_symbol
 _atom_site_label
 _atom_site_symmetry_multiplicity
 _atom_site_fract_x
 _atom_site_fract_y
 _atom_site_fract_z
 _atom_site_occupancy
  Tb  Tb0  1  0.333328  0.666667  0.958467  1
  Tb  Tb1  1  0.666667  0.333335  0.040618  1
  Tb  Tb2  1  0.666667  0.333335  0.459382  1
  Tb  Tb3  1  0.333328  0.666667  0.541533  1
  Sm  Sm4  1  0.333331  0.666660  0.750000  1
  Sm  Sm5  1  0.666664  0.333334  0.250000  1
  Cu  Cu6  1  0.333337  0.666651  0.250000  1
  Rh  Rh7  1  0.168895  0.831117  0.373574  1
  Rh  Rh8  1  0.168893  0.337781  0.373578  1
  Rh  Rh9  1  0.662221  0.831111  0.373579  1
  Rh  Rh10  1  0.832804  0.167205  0.624345  1
  Rh  Rh11  1  0.832802  0.665597  0.624345  1
  Rh  Rh12  1  0.334402  0.167201  0.624338  1
  Rh  Rh13  1  0.832804  0.167205  0.875655  1
  Rh  Rh14  1  0.832802  0.665597  0.875655  1
  Rh  Rh15  1  0.334402  0.167201  0.875662  1
  Rh  Rh16  1  0.168895  0.831117  0.126426  1
  Rh  Rh17  1  0.168893  0.337781  0.126422  1
  Rh  Rh18  1  0.662221  0.831111  0.126421  1
  Rh  Rh19  1  0.666644  0.333322  0.750000  1
  Rh  Rh20  1  0.999992  0.000007  0.250000  1
  Rh  Rh21  1  0.999988  0.999991  0.750000  1
  Rh  Rh22  1  0.000009  0.000003  0.497425  1
  Rh  Rh23  1  0.000009  0.000003  0.002575  1
