# generated using pymatgen
data_Ho2Lu5Sn23Ru6
_symmetry_space_group_name_H-M   'P 1'
_cell_length_a   9.80722787
_cell_length_b   9.80722589
_cell_length_c   10.03004497
_cell_angle_alpha   89.88327877
_cell_angle_beta   90.11672022
_cell_angle_gamma   119.76978978
_symmetry_Int_Tables_number   1
_chemical_formula_structural   Ho2Lu5Sn23Ru6
_chemical_formula_sum   'Ho2 Lu5 Sn23 Ru6'
_cell_volume   837.38955690
_cell_formula_units_Z   1
loop_
 _symmetry_equiv_pos_site_id
 _symmetry_equiv_pos_as_xyz
  1  'x, y, z'
loop_
 _atom_site_type_symbol
 _atom_site_label
 _atom_site_symmetry_multiplicity
 _atom_site_fract_x
 _atom_site_fract_y
 _atom_site_fract_z
 _atom_site_occupancy
  Ho  Ho0  1  0.000581  0.999419  0.999923  1
  Ho  Ho1  1  0.485757  0.514243  0.303078  1
  Lu  Lu2  1  0.512251  0.487749  0.698593  1
  Lu  Lu3  1  0.512281  0.024124  0.698829  1
  Lu  Lu4  1  0.975876  0.487719  0.698829  1
  Lu  Lu5  1  0.024137  0.511846  0.301120  1
  Lu  Lu6  1  0.488154  0.975863  0.301120  1
  Sn  Sn7  1  0.666436  0.333564  0.173671  1
  Sn  Sn8  1  0.666779  0.333221  0.863871  1
  Sn  Sn9  1  0.331732  0.668268  0.134644  1
  Sn  Sn10  1  0.349164  0.349068  0.000205  1
  Sn  Sn11  1  0.000444  0.650858  0.999527  1
  Sn  Sn12  1  0.651219  0.000513  0.000121  1
  Sn  Sn13  1  0.650932  0.650836  0.000205  1
  Sn  Sn14  1  0.333328  0.666672  0.826268  1
  Sn  Sn15  1  0.442226  0.221134  0.465440  1
  Sn  Sn16  1  0.221674  0.778326  0.534838  1
  Sn  Sn17  1  0.220778  0.441879  0.535234  1
  Sn  Sn18  1  0.558121  0.779222  0.535234  1
  Sn  Sn19  1  0.119920  0.880080  0.275137  1
  Sn  Sn20  1  0.778866  0.557774  0.465440  1
  Sn  Sn21  1  0.778732  0.221268  0.465294  1
  Sn  Sn22  1  0.349142  0.999556  0.999527  1
  Sn  Sn23  1  0.118829  0.237430  0.275110  1
  Sn  Sn24  1  0.762570  0.881171  0.275110  1
  Sn  Sn25  1  0.239026  0.119960  0.724392  1
  Sn  Sn26  1  0.880040  0.760974  0.724392  1
  Sn  Sn27  1  0.880774  0.119226  0.725141  1
  Sn  Sn28  1  0.000268  0.999732  0.500273  1
  Sn  Sn29  1  0.999487  0.348781  0.000121  1
  Ru  Ru30  1  0.170505  0.829495  0.796190  1
  Ru  Ru31  1  0.170592  0.342087  0.796798  1
  Ru  Ru32  1  0.657913  0.829408  0.796798  1
  Ru  Ru33  1  0.341484  0.169176  0.202953  1
  Ru  Ru34  1  0.830824  0.658516  0.202953  1
  Ru  Ru35  1  0.829157  0.170843  0.203623  1
