# generated using pymatgen
data_LiAcH6Os
_symmetry_space_group_name_H-M   'P 1'
_cell_length_a   5.20715071
_cell_length_b   5.20715076
_cell_length_c   5.20715100
_cell_angle_alpha   60.00000480
_cell_angle_beta   60.00000450
_cell_angle_gamma   60.00000330
_symmetry_Int_Tables_number   1
_chemical_formula_structural   LiAcH6Os
_chemical_formula_sum   'Li1 Ac1 H6 Os1'
_cell_volume   99.83561882
_cell_formula_units_Z   1
loop_
 _symmetry_equiv_pos_site_id
 _symmetry_equiv_pos_as_xyz
  1  'x, y, z'
loop_
 _atom_site_type_symbol
 _atom_site_label
 _atom_site_symmetry_multiplicity
 _atom_site_fract_x
 _atom_site_fract_y
 _atom_site_fract_z
 _atom_site_occupancy
  Li  Li0  1  0.250000  0.250000  0.250000  1
  Ac  Ac1  1  0.750000  0.750000  0.750000  1
  H  H2  1  0.766100  0.233900  0.233900  1
  H  H3  1  0.233900  0.766100  0.766100  1
  H  H4  1  0.233900  0.766100  0.233900  1
  H  H5  1  0.766100  0.233900  0.766100  1
  H  H6  1  0.233900  0.233900  0.766100  1
  H  H7  1  0.766100  0.766100  0.233900  1
  Os  Os8  1  0.000000  0.000000  0.000000  1
