# generated using pymatgen
data_SrFeSb12MoPt2
_symmetry_space_group_name_H-M   'P 1'
_cell_length_a   8.14133192
_cell_length_b   8.23749447
_cell_length_c   8.24228892
_cell_angle_alpha   109.70797658
_cell_angle_beta   109.09117068
_cell_angle_gamma   109.13982781
_symmetry_Int_Tables_number   1
_chemical_formula_structural   SrFeSb12MoPt2
_chemical_formula_sum   'Sr1 Fe1 Sb12 Mo1 Pt2'
_cell_volume   427.97973439
_cell_formula_units_Z   1
loop_
 _symmetry_equiv_pos_site_id
 _symmetry_equiv_pos_as_xyz
  1  'x, y, z'
loop_
 _atom_site_type_symbol
 _atom_site_label
 _atom_site_symmetry_multiplicity
 _atom_site_fract_x
 _atom_site_fract_y
 _atom_site_fract_z
 _atom_site_occupancy
  Sr  Sr0  1  0.000000  0.000000  0.000000  1
  Fe  Fe1  1  0.500000  0.500000  0.500000  1
  Sb  Sb2  1  0.347065  0.188828  0.847747  1
  Sb  Sb3  1  0.652935  0.811172  0.152253  1
  Sb  Sb4  1  0.648938  0.501330  0.828981  1
  Sb  Sb5  1  0.351062  0.498670  0.171019  1
  Sb  Sb6  1  0.195797  0.846342  0.346730  1
  Sb  Sb7  1  0.804203  0.153658  0.653270  1
  Sb  Sb8  1  0.504395  0.830587  0.660124  1
  Sb  Sb9  1  0.495605  0.169413  0.339876  1
  Sb  Sb10  1  0.842064  0.341204  0.188670  1
  Sb  Sb11  1  0.157936  0.658796  0.811330  1
  Sb  Sb12  1  0.832451  0.652153  0.502574  1
  Sb  Sb13  1  0.167549  0.347847  0.497426  1
  Mo  Mo14  1  0.500000  0.000000  0.000000  1
  Pt  Pt15  1  0.000000  0.000000  0.500000  1
  Pt  Pt16  1  0.000000  0.500000  0.000000  1
