# generated using pymatgen
data_Ho5Fe5Co6(P3Ru2)4
_symmetry_space_group_name_H-M   'P 1'
_cell_length_a   12.13962816
_cell_length_b   12.18548685
_cell_length_c   3.75871100
_cell_angle_alpha   90.00000000
_cell_angle_beta   90.00000000
_cell_angle_gamma   119.87457221
_symmetry_Int_Tables_number   1
_chemical_formula_structural   Ho5Fe5Co6(P3Ru2)4
_chemical_formula_sum   'Ho5 Fe5 Co6 P12 Ru8'
_cell_volume   482.13132815
_cell_formula_units_Z   1
loop_
 _symmetry_equiv_pos_site_id
 _symmetry_equiv_pos_as_xyz
  1  'x, y, z'
loop_
 _atom_site_type_symbol
 _atom_site_label
 _atom_site_symmetry_multiplicity
 _atom_site_fract_x
 _atom_site_fract_y
 _atom_site_fract_z
 _atom_site_occupancy
  Ho  Ho0  1  0.667030  0.333429  0.000000  1
  Ho  Ho1  1  0.328238  0.662525  0.000000  1
  Ho  Ho2  1  0.820199  0.820144  0.500000  1
  Ho  Ho3  1  0.179327  0.000057  0.500000  1
  Ho  Ho4  1  0.999442  0.180891  0.500000  1
  Fe  Fe5  1  0.126926  0.480007  0.500000  1
  Fe  Fe6  1  0.803136  0.175569  0.000000  1
  Fe  Fe7  1  0.278779  0.281981  0.500000  1
  Fe  Fe8  1  0.718517  0.998202  0.500000  1
  Fe  Fe9  1  0.001082  0.718631  0.500000  1
  Co  Co10  1  0.827225  0.629005  0.000000  1
  Co  Co11  1  0.369637  0.197004  0.000000  1
  Co  Co12  1  0.174952  0.804189  0.000000  1
  Co  Co13  1  0.629099  0.824394  0.000000  1
  Co  Co14  1  0.195302  0.373492  0.000000  1
  Co  Co15  1  0.000200  0.999576  0.000000  1
  P  P16  1  0.688985  0.161305  0.500000  1
  P  P17  1  0.842086  0.525291  0.500000  1
  P  P18  1  0.473660  0.315793  0.500000  1
  P  P19  1  0.158022  0.678095  0.500000  1
  P  P20  1  0.524256  0.840098  0.500000  1
  P  P21  1  0.308134  0.474928  0.500000  1
  P  P22  1  0.179515  0.181566  0.000000  1
  P  P23  1  0.819648  0.001696  0.000000  1
  P  P24  1  0.000690  0.819230  0.000000  1
  P  P25  1  0.636478  0.636740  0.000000  1
  P  P26  1  0.362817  0.999740  0.000000  1
  P  P27  1  0.005168  0.365632  0.000000  1
  Ru  Ru28  1  0.878282  0.356131  0.500000  1
  Ru  Ru29  1  0.647590  0.519207  0.500000  1
  Ru  Ru30  1  0.481717  0.128640  0.500000  1
  Ru  Ru31  1  0.350960  0.870148  0.500000  1
  Ru  Ru32  1  0.515504  0.645836  0.500000  1
  Ru  Ru33  1  0.443472  0.443701  0.000000  1
  Ru  Ru34  1  0.556401  0.998718  0.000000  1
  Ru  Ru35  1  0.007525  0.558408  0.000000  1
