# generated using pymatgen
data_HoCu3PtAu
_symmetry_space_group_name_H-M   'P 1'
_cell_length_a   5.19779513
_cell_length_b   5.19779531
_cell_length_c   5.19779528
_cell_angle_alpha   58.70237875
_cell_angle_beta   58.70238043
_cell_angle_gamma   58.70237592
_symmetry_Int_Tables_number   1
_chemical_formula_structural   HoCu3PtAu
_chemical_formula_sum   'Ho1 Cu3 Pt1 Au1'
_cell_volume   96.35423465
_cell_formula_units_Z   1
loop_
 _symmetry_equiv_pos_site_id
 _symmetry_equiv_pos_as_xyz
  1  'x, y, z'
loop_
 _atom_site_type_symbol
 _atom_site_label
 _atom_site_symmetry_multiplicity
 _atom_site_fract_x
 _atom_site_fract_y
 _atom_site_fract_z
 _atom_site_occupancy
  Ho  Ho0  1  0.252094  0.252094  0.252094  1
  Cu  Cu1  1  0.622721  0.622721  0.120130  1
  Cu  Cu2  1  0.622721  0.120130  0.622721  1
  Cu  Cu3  1  0.120130  0.622721  0.622721  1
  Pt  Pt4  1  0.621655  0.621655  0.621655  1
  Au  Au5  1  0.010678  0.010678  0.010678  1
