# generated using pymatgen
data_Ho2B(PdPt)3
_symmetry_space_group_name_H-M   'P 1'
_cell_length_a   5.81112349
_cell_length_b   5.81112360
_cell_length_c   6.08779271
_cell_angle_alpha   61.49231428
_cell_angle_beta   61.49231881
_cell_angle_gamma   60.00000627
_symmetry_Int_Tables_number   1
_chemical_formula_structural   Ho2B(PdPt)3
_chemical_formula_sum   'Ho2 B1 Pd3 Pt3'
_cell_volume   148.55985146
_cell_formula_units_Z   1
loop_
 _symmetry_equiv_pos_site_id
 _symmetry_equiv_pos_as_xyz
  1  'x, y, z'
loop_
 _atom_site_type_symbol
 _atom_site_label
 _atom_site_symmetry_multiplicity
 _atom_site_fract_x
 _atom_site_fract_y
 _atom_site_fract_z
 _atom_site_occupancy
  Ho  Ho0  1  0.248129  0.248129  0.255613  1
  Ho  Ho1  1  0.750872  0.750872  0.747383  1
  B  B2  1  0.502214  0.502214  0.493355  1
  Pd  Pd3  1  0.244769  0.244769  0.762035  1
  Pd  Pd4  1  0.748426  0.244769  0.762035  1
  Pd  Pd5  1  0.244769  0.748426  0.762035  1
  Pt  Pt6  1  0.757162  0.246494  0.239180  1
  Pt  Pt7  1  0.246494  0.757162  0.239180  1
  Pt  Pt8  1  0.757162  0.757162  0.239180  1
