# generated using pymatgen
data_Li2Dy5P12IrRh16
_symmetry_space_group_name_H-M   'P 1'
_cell_length_a   12.71650700
_cell_length_b   12.72689085
_cell_length_c   3.91851200
_cell_angle_alpha   90.00000000
_cell_angle_beta   90.00000000
_cell_angle_gamma   119.97301138
_symmetry_Int_Tables_number   1
_chemical_formula_structural   Li2Dy5P12IrRh16
_chemical_formula_sum   'Li2 Dy5 P12 Ir1 Rh16'
_cell_volume   549.36376554
_cell_formula_units_Z   1
loop_
 _symmetry_equiv_pos_site_id
 _symmetry_equiv_pos_as_xyz
  1  'x, y, z'
loop_
 _atom_site_type_symbol
 _atom_site_label
 _atom_site_symmetry_multiplicity
 _atom_site_fract_x
 _atom_site_fract_y
 _atom_site_fract_z
 _atom_site_occupancy
  Li  Li0  1  0.999619  0.442455  0.500000  1
  Li  Li1  1  0.557164  0.557545  0.500000  1
  Dy  Dy2  1  0.333023  0.665142  0.500000  1
  Dy  Dy3  1  0.667882  0.334858  0.500000  1
  Dy  Dy4  1  0.001242  0.808997  0.000000  1
  Dy  Dy5  1  0.192245  0.191003  0.000000  1
  Dy  Dy6  1  0.811548  0.000000  0.000000  1
  P  P7  1  0.000707  0.631957  0.500000  1
  P  P8  1  0.368750  0.368043  0.500000  1
  P  P9  1  0.634996  0.000000  0.500000  1
  P  P10  1  0.513751  0.685662  0.000000  1
  P  P11  1  0.311174  0.829222  0.000000  1
  P  P12  1  0.171754  0.481884  0.000000  1
  P  P13  1  0.481951  0.170778  0.000000  1
  P  P14  1  0.689870  0.518116  0.000000  1
  P  P15  1  0.828089  0.314338  0.000000  1
  P  P16  1  0.998247  0.180088  0.500000  1
  P  P17  1  0.818159  0.819912  0.500000  1
  P  P18  1  0.178598  0.000000  0.500000  1
  Ir  Ir19  1  0.998003  0.000000  0.500000  1
  Rh  Rh20  1  0.508038  0.868633  0.000000  1
  Rh  Rh21  1  0.131089  0.640384  0.000000  1
  Rh  Rh22  1  0.358389  0.486180  0.000000  1
  Rh  Rh23  1  0.490705  0.359616  0.000000  1
  Rh  Rh24  1  0.872211  0.513820  0.000000  1
  Rh  Rh25  1  0.639406  0.131367  0.000000  1
  Rh  Rh26  1  0.454341  0.000000  0.500000  1
  Rh  Rh27  1  0.997155  0.280109  0.000000  1
  Rh  Rh28  1  0.717046  0.719891  0.000000  1
  Rh  Rh29  1  0.282271  0.000000  0.000000  1
  Rh  Rh30  1  0.621292  0.804101  0.500000  1
  Rh  Rh31  1  0.197868  0.821986  0.500000  1
  Rh  Rh32  1  0.177274  0.374204  0.500000  1
  Rh  Rh33  1  0.375882  0.178014  0.500000  1
  Rh  Rh34  1  0.803070  0.625796  0.500000  1
  Rh  Rh35  1  0.817192  0.195899  0.500000  1
