# generated using pymatgen
data_TbTm3ZnCo
_symmetry_space_group_name_H-M   'P 1'
_cell_length_a   9.23625125
_cell_length_b   9.23625177
_cell_length_c   9.23625200
_cell_angle_alpha   59.99999918
_cell_angle_beta   59.99999731
_cell_angle_gamma   60.00000008
_symmetry_Int_Tables_number   1
_chemical_formula_structural   TbTm3ZnCo
_chemical_formula_sum   'Tb4 Tm12 Zn4 Co4'
_cell_volume   557.15016772
_cell_formula_units_Z   4
loop_
 _symmetry_equiv_pos_site_id
 _symmetry_equiv_pos_as_xyz
  1  'x, y, z'
loop_
 _atom_site_type_symbol
 _atom_site_label
 _atom_site_symmetry_multiplicity
 _atom_site_fract_x
 _atom_site_fract_y
 _atom_site_fract_z
 _atom_site_occupancy
  Tb  Tb0  1  0.350952  0.350952  0.350952  1
  Tb  Tb1  1  0.350952  0.350952  0.947144  1
  Tb  Tb2  1  0.350952  0.947144  0.350952  1
  Tb  Tb3  1  0.947144  0.350952  0.350952  1
  Tm  Tm4  1  0.810163  0.189837  0.189837  1
  Tm  Tm5  1  0.189837  0.810163  0.810163  1
  Tm  Tm6  1  0.189837  0.810163  0.189837  1
  Tm  Tm7  1  0.810163  0.189837  0.810163  1
  Tm  Tm8  1  0.189837  0.189837  0.810163  1
  Tm  Tm9  1  0.810163  0.810163  0.189837  1
  Tm  Tm10  1  0.937170  0.562830  0.562830  1
  Tm  Tm11  1  0.562830  0.937170  0.937170  1
  Tm  Tm12  1  0.562830  0.937170  0.562830  1
  Tm  Tm13  1  0.937170  0.562830  0.937170  1
  Tm  Tm14  1  0.562830  0.562830  0.937170  1
  Tm  Tm15  1  0.937170  0.937170  0.562830  1
  Zn  Zn16  1  0.577696  0.577696  0.577696  1
  Zn  Zn17  1  0.577696  0.577696  0.266911  1
  Zn  Zn18  1  0.577696  0.266911  0.577696  1
  Zn  Zn19  1  0.266911  0.577696  0.577696  1
  Co  Co20  1  0.141445  0.141445  0.141445  1
  Co  Co21  1  0.141445  0.141445  0.575668  1
  Co  Co22  1  0.141445  0.575668  0.141445  1
  Co  Co23  1  0.575668  0.141445  0.141445  1
