# generated using pymatgen
data_Tb3Tm5CdHgIr2
_symmetry_space_group_name_H-M   'P 1'
_cell_length_a   9.56391347
_cell_length_b   9.56391443
_cell_length_c   9.57006800
_cell_angle_alpha   59.97870678
_cell_angle_beta   59.97870345
_cell_angle_gamma   59.99235598
_symmetry_Int_Tables_number   1
_chemical_formula_structural   Tb3Tm5CdHgIr2
_chemical_formula_sum   'Tb6 Tm10 Cd2 Hg2 Ir4'
_cell_volume   618.73745128
_cell_formula_units_Z   2
loop_
 _symmetry_equiv_pos_site_id
 _symmetry_equiv_pos_as_xyz
  1  'x, y, z'
loop_
 _atom_site_type_symbol
 _atom_site_label
 _atom_site_symmetry_multiplicity
 _atom_site_fract_x
 _atom_site_fract_y
 _atom_site_fract_z
 _atom_site_occupancy
  Tb  Tb0  1  0.188570  0.810401  0.810603  1
  Tb  Tb1  1  0.810401  0.188570  0.190427  1
  Tb  Tb2  1  0.810401  0.188570  0.810603  1
  Tb  Tb3  1  0.188570  0.810401  0.190427  1
  Tb  Tb4  1  0.810293  0.810293  0.189707  1
  Tb  Tb5  1  0.189376  0.189376  0.810624  1
  Tm  Tm6  1  0.599036  0.599036  0.597787  1
  Tm  Tm7  1  0.599036  0.599036  0.204142  1
  Tm  Tm8  1  0.600302  0.201704  0.598997  1
  Tm  Tm9  1  0.201704  0.600302  0.598997  1
  Tm  Tm10  1  0.060881  0.437651  0.439394  1
  Tm  Tm11  1  0.437651  0.060881  0.062073  1
  Tm  Tm12  1  0.437651  0.060881  0.439394  1
  Tm  Tm13  1  0.060881  0.437651  0.062073  1
  Tm  Tm14  1  0.438370  0.438370  0.061630  1
  Tm  Tm15  1  0.061184  0.061184  0.438816  1
  Cd  Cd16  1  0.830222  0.508154  0.830812  1
  Cd  Cd17  1  0.508154  0.830222  0.830812  1
  Hg  Hg18  1  0.832899  0.832899  0.834485  1
  Hg  Hg19  1  0.832899  0.832899  0.499717  1
  Ir  Ir20  1  0.392093  0.392093  0.391389  1
  Ir  Ir21  1  0.392093  0.392093  0.824426  1
  Ir  Ir22  1  0.392111  0.825223  0.391333  1
  Ir  Ir23  1  0.825223  0.392111  0.391333  1
