# generated using pymatgen
data_Er7Sn22Os6Au
_symmetry_space_group_name_H-M   'P 1'
_cell_length_a   9.82139400
_cell_length_b   9.82139339
_cell_length_c   10.05500600
_cell_angle_alpha   90.00000000
_cell_angle_beta   90.00000000
_cell_angle_gamma   120.00000206
_symmetry_Int_Tables_number   1
_chemical_formula_structural   Er7Sn22Os6Au
_chemical_formula_sum   'Er7 Sn22 Os6 Au1'
_cell_volume   839.96114587
_cell_formula_units_Z   1
loop_
 _symmetry_equiv_pos_site_id
 _symmetry_equiv_pos_as_xyz
  1  'x, y, z'
loop_
 _atom_site_type_symbol
 _atom_site_label
 _atom_site_symmetry_multiplicity
 _atom_site_fract_x
 _atom_site_fract_y
 _atom_site_fract_z
 _atom_site_occupancy
  Er  Er0  1  0.486253  0.513747  0.302573  1
  Er  Er1  1  0.513747  0.486253  0.697427  1
  Er  Er2  1  0.486253  0.972508  0.302573  1
  Er  Er3  1  0.513747  0.027492  0.697427  1
  Er  Er4  1  0.027492  0.513747  0.302573  1
  Er  Er5  1  0.972508  0.486253  0.697427  1
  Er  Er6  1  0.000000  0.000000  0.000000  1
  Sn  Sn7  1  0.118192  0.881808  0.279047  1
  Sn  Sn8  1  0.881808  0.118192  0.720953  1
  Sn  Sn9  1  0.118192  0.236383  0.279047  1
  Sn  Sn10  1  0.881808  0.763617  0.720953  1
  Sn  Sn11  1  0.763617  0.881808  0.279047  1
  Sn  Sn12  1  0.236383  0.118192  0.720953  1
  Sn  Sn13  1  0.778685  0.221315  0.465231  1
  Sn  Sn14  1  0.221315  0.778685  0.534769  1
  Sn  Sn15  1  0.778685  0.557371  0.465231  1
  Sn  Sn16  1  0.221315  0.442629  0.534769  1
  Sn  Sn17  1  0.442629  0.221315  0.465231  1
  Sn  Sn18  1  0.557371  0.778685  0.534769  1
  Sn  Sn19  1  0.349907  0.000000  0.000000  1
  Sn  Sn20  1  0.650093  0.000000  0.000000  1
  Sn  Sn21  1  0.000000  0.349907  0.000000  1
  Sn  Sn22  1  0.000000  0.650093  0.000000  1
  Sn  Sn23  1  0.650093  0.650093  0.000000  1
  Sn  Sn24  1  0.349907  0.349907  0.000000  1
  Sn  Sn25  1  0.333333  0.666667  0.133902  1
  Sn  Sn26  1  0.666667  0.333333  0.866098  1
  Sn  Sn27  1  0.333333  0.666667  0.829903  1
  Sn  Sn28  1  0.666667  0.333333  0.170097  1
  Os  Os29  1  0.830728  0.169272  0.204837  1
  Os  Os30  1  0.169272  0.830728  0.795163  1
  Os  Os31  1  0.830728  0.661459  0.204837  1
  Os  Os32  1  0.169272  0.338541  0.795163  1
  Os  Os33  1  0.338541  0.169272  0.204837  1
  Os  Os34  1  0.661459  0.830728  0.795163  1
  Au  Au35  1  0.000000  0.000000  0.500000  1
