# generated using pymatgen
data_Nd12IrPd2Pt
_symmetry_space_group_name_H-M   'P 1'
_cell_length_a   6.61395329
_cell_length_b   7.32393802
_cell_length_c   10.04801500
_cell_angle_alpha   90.00000000
_cell_angle_beta   90.00000000
_cell_angle_gamma   89.97860410
_symmetry_Int_Tables_number   1
_chemical_formula_structural   Nd12IrPd2Pt
_chemical_formula_sum   'Nd12 Ir1 Pd2 Pt1'
_cell_volume   486.72766121
_cell_formula_units_Z   1
loop_
 _symmetry_equiv_pos_site_id
 _symmetry_equiv_pos_as_xyz
  1  'x, y, z'
loop_
 _atom_site_type_symbol
 _atom_site_label
 _atom_site_symmetry_multiplicity
 _atom_site_fract_x
 _atom_site_fract_y
 _atom_site_fract_z
 _atom_site_occupancy
  Nd  Nd0  1  0.330229  0.679464  0.059299  1
  Nd  Nd1  1  0.166781  0.176212  0.439015  1
  Nd  Nd2  1  0.666962  0.327776  0.564748  1
  Nd  Nd3  1  0.827559  0.818749  0.936944  1
  Nd  Nd4  1  0.666962  0.327776  0.935252  1
  Nd  Nd5  1  0.827559  0.818749  0.563056  1
  Nd  Nd6  1  0.330229  0.679464  0.440701  1
  Nd  Nd7  1  0.166781  0.176212  0.060985  1
  Nd  Nd8  1  0.862339  0.530436  0.250000  1
  Nd  Nd9  1  0.639149  0.027752  0.250000  1
  Nd  Nd10  1  0.146087  0.472902  0.750000  1
  Nd  Nd11  1  0.367936  0.961303  0.750000  1
  Ir  Ir12  1  0.567793  0.618064  0.750000  1
  Pd  Pd13  1  0.428272  0.385888  0.250000  1
  Pd  Pd14  1  0.935889  0.115557  0.750000  1
  Pt  Pt15  1  0.069475  0.883695  0.250000  1
