# generated using pymatgen
data_Sr4IrRhO8
_symmetry_space_group_name_H-M   'P 1'
_cell_length_a   5.51938675
_cell_length_b   5.51970680
_cell_length_c   13.64751003
_cell_angle_alpha   101.43440985
_cell_angle_beta   101.44324366
_cell_angle_gamma   90.03708712
_symmetry_Int_Tables_number   1
_chemical_formula_structural   Sr4IrRhO8
_chemical_formula_sum   'Sr8 Ir2 Rh2 O16'
_cell_volume   399.07767721
_cell_formula_units_Z   2
loop_
 _symmetry_equiv_pos_site_id
 _symmetry_equiv_pos_as_xyz
  1  'x, y, z'
loop_
 _atom_site_type_symbol
 _atom_site_label
 _atom_site_symmetry_multiplicity
 _atom_site_fract_x
 _atom_site_fract_y
 _atom_site_fract_z
 _atom_site_occupancy
  Sr  Sr0  1  0.828159  0.829818  0.649389  1
  Sr  Sr1  1  0.079574  0.577945  0.148868  1
  Sr  Sr2  1  0.173786  0.173739  0.350631  1
  Sr  Sr3  1  0.423839  0.924030  0.851172  1
  Sr  Sr4  1  0.326675  0.326089  0.650293  1
  Sr  Sr5  1  0.576008  0.076438  0.149794  1
  Sr  Sr6  1  0.671355  0.670488  0.349693  1
  Sr  Sr7  1  0.920568  0.421516  0.850151  1
  Ir  Ir8  1  0.999775  0.999908  0.000014  1
  Ir  Ir9  1  0.250008  0.749830  0.500028  1
  Rh  Rh10  1  0.500150  0.500149  0.000000  1
  Rh  Rh11  1  0.750191  0.250233  0.500003  1
  O  O12  1  0.062437  0.443540  0.500035  1
  O  O13  1  0.917886  0.926444  0.842409  1
  O  O14  1  0.081150  0.072520  0.157629  1
  O  O15  1  0.176517  0.667978  0.342423  1
  O  O16  1  0.322574  0.831172  0.657639  1
  O  O17  1  0.185190  0.690280  0.995541  1
  O  O18  1  0.307208  0.187190  0.999883  1
  O  O19  1  0.437982  0.056074  0.499853  1
  O  O20  1  0.558646  0.564181  0.504495  1
  O  O21  1  0.425298  0.417481  0.838592  1
  O  O22  1  0.575243  0.583405  0.161340  1
  O  O23  1  0.667635  0.175590  0.338499  1
  O  O24  1  0.833458  0.325133  0.661455  1
  O  O25  1  0.692262  0.813021  0.000003  1
  O  O26  1  0.814852  0.309749  0.004539  1
  O  O27  1  0.941574  0.936061  0.495630  1
