# generated using pymatgen
data_Dy6Y2Re(B8Os)3
_symmetry_space_group_name_H-M   'P 1'
_cell_length_a   3.66901300
_cell_length_b   9.16798120
_cell_length_c   11.55262401
_cell_angle_alpha   90.07864481
_cell_angle_beta   90.00000000
_cell_angle_gamma   90.00000000
_symmetry_Int_Tables_number   1
_chemical_formula_structural   Dy6Y2Re(B8Os)3
_chemical_formula_sum   'Dy6 Y2 Re1 B24 Os3'
_cell_volume   388.60035643
_cell_formula_units_Z   1
loop_
 _symmetry_equiv_pos_site_id
 _symmetry_equiv_pos_as_xyz
  1  'x, y, z'
loop_
 _atom_site_type_symbol
 _atom_site_label
 _atom_site_symmetry_multiplicity
 _atom_site_fract_x
 _atom_site_fract_y
 _atom_site_fract_z
 _atom_site_occupancy
  Dy  Dy0  1  0.000000  0.823030  0.083779  1
  Dy  Dy1  1  0.000000  0.176032  0.913112  1
  Dy  Dy2  1  0.000000  0.943201  0.371970  1
  Dy  Dy3  1  0.000000  0.056022  0.627564  1
  Dy  Dy4  1  0.000000  0.442922  0.127632  1
  Dy  Dy5  1  0.000000  0.556518  0.873018  1
  Y  Y6  1  0.000000  0.322553  0.414808  1
  Y  Y7  1  0.000000  0.679979  0.588222  1
  Re  Re8  1  0.000000  0.862618  0.821724  1
  B  B9  1  0.500000  0.553837  0.432974  1
  B  B10  1  0.500000  0.446363  0.567383  1
  B  B11  1  0.500000  0.053533  0.067431  1
  B  B12  1  0.500000  0.947171  0.932968  1
  B  B13  1  0.500000  0.747975  0.419289  1
  B  B14  1  0.500000  0.252202  0.580572  1
  B  B15  1  0.500000  0.247588  0.080624  1
  B  B16  1  0.500000  0.752055  0.919385  1
  B  B17  1  0.500000  0.790191  0.266390  1
  B  B18  1  0.500000  0.209295  0.732862  1
  B  B19  1  0.500000  0.290534  0.233449  1
  B  B20  1  0.500000  0.708823  0.766560  1
  B  B21  1  0.500000  0.631411  0.185717  1
  B  B22  1  0.500000  0.368099  0.813939  1
  B  B23  1  0.500000  0.131864  0.314279  1
  B  B24  1  0.500000  0.868472  0.685967  1
  B  B25  1  0.500000  0.983615  0.212635  1
  B  B26  1  0.500000  0.017432  0.787210  1
  B  B27  1  0.500000  0.483464  0.287635  1
  B  B28  1  0.500000  0.516531  0.712940  1
  B  B29  1  0.500000  0.606954  0.030341  1
  B  B30  1  0.500000  0.391492  0.970320  1
  B  B31  1  0.500000  0.108159  0.469623  1
  B  B32  1  0.500000  0.892460  0.529288  1
  Os  Os33  1  0.000000  0.637390  0.321549  1
  Os  Os34  1  0.000000  0.362600  0.678027  1
  Os  Os35  1  0.000000  0.137617  0.178811  1
