# generated using pymatgen
data_Ti5Re17Tc7
_symmetry_space_group_name_H-M   'P 1'
_cell_length_a   8.36262276
_cell_length_b   8.36262209
_cell_length_c   8.35519992
_cell_angle_alpha   109.48009013
_cell_angle_beta   109.48008743
_cell_angle_gamma   109.54190017
_symmetry_Int_Tables_number   1
_chemical_formula_structural   Ti5Re17Tc7
_chemical_formula_sum   'Ti5 Re17 Tc7'
_cell_volume   449.30888890
_cell_formula_units_Z   1
loop_
 _symmetry_equiv_pos_site_id
 _symmetry_equiv_pos_as_xyz
  1  'x, y, z'
loop_
 _atom_site_type_symbol
 _atom_site_label
 _atom_site_symmetry_multiplicity
 _atom_site_fract_x
 _atom_site_fract_y
 _atom_site_fract_z
 _atom_site_occupancy
  Ti  Ti0  1  0.999852  0.999852  0.999944  1
  Ti  Ti1  1  0.630858  0.999763  0.999850  1
  Ti  Ti2  1  0.999763  0.630858  0.999850  1
  Ti  Ti3  1  0.000664  0.000664  0.632190  1
  Ti  Ti4  1  0.367705  0.367705  0.368001  1
  Re  Re5  1  0.000553  0.681446  0.400036  1
  Re  Re6  1  0.681446  0.000553  0.400036  1
  Re  Re7  1  0.599936  0.599936  0.280851  1
  Re  Re8  1  0.281172  0.600612  0.600241  1
  Re  Re9  1  0.600612  0.281172  0.600241  1
  Re  Re10  1  0.375436  0.193728  0.000391  1
  Re  Re11  1  0.181170  0.806913  0.806506  1
  Re  Re12  1  0.374587  0.000281  0.193354  1
  Re  Re13  1  0.193728  0.375436  0.000391  1
  Re  Re14  1  0.000281  0.374587  0.193354  1
  Re  Re15  1  0.806913  0.181170  0.806506  1
  Re  Re16  1  0.806908  0.806908  0.181613  1
  Re  Re17  1  0.000593  0.193344  0.375833  1
  Re  Re18  1  0.193344  0.000593  0.375833  1
  Re  Re19  1  0.624074  0.624074  0.817006  1
  Re  Re20  1  0.817170  0.624434  0.624222  1
  Re  Re21  1  0.624434  0.817170  0.624222  1
  Tc  Tc22  1  0.400115  0.682163  0.000147  1
  Tc  Tc23  1  0.718361  0.317971  0.317611  1
  Tc  Tc24  1  0.400829  0.001154  0.682716  1
  Tc  Tc25  1  0.682163  0.400115  0.000147  1
  Tc  Tc26  1  0.001154  0.400829  0.682716  1
  Tc  Tc27  1  0.317971  0.718361  0.317611  1
  Tc  Tc28  1  0.318208  0.318208  0.718585  1
