# generated using pymatgen
data_Tm3TaZn2Ir3
_symmetry_space_group_name_H-M   'P 1'
_cell_length_a   6.99655071
_cell_length_b   6.82995250
_cell_length_c   4.18566900
_cell_angle_alpha   90.00000000
_cell_angle_beta   90.00000000
_cell_angle_gamma   119.21541420
_symmetry_Int_Tables_number   1
_chemical_formula_structural   Tm3TaZn2Ir3
_chemical_formula_sum   'Tm3 Ta1 Zn2 Ir3'
_cell_volume   174.57285295
_cell_formula_units_Z   1
loop_
 _symmetry_equiv_pos_site_id
 _symmetry_equiv_pos_as_xyz
  1  'x, y, z'
loop_
 _atom_site_type_symbol
 _atom_site_label
 _atom_site_symmetry_multiplicity
 _atom_site_fract_x
 _atom_site_fract_y
 _atom_site_fract_z
 _atom_site_occupancy
  Tm  Tm0  1  0.000000  0.394478  0.500000  1
  Tm  Tm1  1  0.573714  0.581028  0.500000  1
  Tm  Tm2  1  0.426286  0.007313  0.500000  1
  Ta  Ta3  1  0.000000  0.759946  0.000000  1
  Zn  Zn4  1  0.242753  0.247456  0.000000  1
  Zn  Zn5  1  0.757247  0.004702  0.000000  1
  Ir  Ir6  1  0.323105  0.677430  0.000000  1
  Ir  Ir7  1  0.676895  0.354324  0.000000  1
  Ir  Ir8  1  0.000000  0.973322  0.500000  1
