# generated using pymatgen
data_LuSeBrO3
_symmetry_space_group_name_H-M   'P 1'
_cell_length_a   6.81664500
_cell_length_b   7.48024300
_cell_length_c   8.88501200
_cell_angle_alpha   90.00000000
_cell_angle_beta   90.00000000
_cell_angle_gamma   90.00000000
_symmetry_Int_Tables_number   1
_chemical_formula_structural   LuSeBrO3
_chemical_formula_sum   'Lu4 Se4 Br4 O12'
_cell_volume   453.04819276
_cell_formula_units_Z   4
loop_
 _symmetry_equiv_pos_site_id
 _symmetry_equiv_pos_as_xyz
  1  'x, y, z'
loop_
 _atom_site_type_symbol
 _atom_site_label
 _atom_site_symmetry_multiplicity
 _atom_site_fract_x
 _atom_site_fract_y
 _atom_site_fract_z
 _atom_site_occupancy
  Lu  Lu0  1  0.250000  0.901012  0.027155  1
  Lu  Lu1  1  0.750000  0.098988  0.972845  1
  Lu  Lu2  1  0.750000  0.598988  0.527155  1
  Lu  Lu3  1  0.250000  0.401012  0.472845  1
  Se  Se4  1  0.250000  0.787844  0.629517  1
  Se  Se5  1  0.750000  0.212156  0.370483  1
  Se  Se6  1  0.750000  0.712156  0.129517  1
  Se  Se7  1  0.250000  0.287844  0.870483  1
  Br  Br8  1  0.250000  0.558801  0.179770  1
  Br  Br9  1  0.750000  0.441199  0.820230  1
  Br  Br10  1  0.750000  0.941199  0.679770  1
  Br  Br11  1  0.250000  0.058801  0.320230  1
  O  O12  1  0.069941  0.636716  0.566560  1
  O  O13  1  0.930059  0.363284  0.433440  1
  O  O14  1  0.930059  0.863284  0.066560  1
  O  O15  1  0.569941  0.363284  0.433440  1
  O  O16  1  0.069941  0.136716  0.933440  1
  O  O17  1  0.430059  0.636716  0.566560  1
  O  O18  1  0.430059  0.136716  0.933440  1
  O  O19  1  0.569941  0.863284  0.066560  1
  O  O20  1  0.250000  0.754909  0.819009  1
  O  O21  1  0.750000  0.245091  0.180991  1
  O  O22  1  0.750000  0.745091  0.319009  1
  O  O23  1  0.250000  0.254909  0.680991  1
