# generated using pymatgen
data_Tb16Cd4CoOs3
_symmetry_space_group_name_H-M   'P 1'
_cell_length_a   9.72595590
_cell_length_b   9.72595680
_cell_length_c   9.55624037
_cell_angle_alpha   59.41075404
_cell_angle_beta   59.41074272
_cell_angle_gamma   60.00000444
_symmetry_Int_Tables_number   1
_chemical_formula_structural   Tb16Cd4CoOs3
_chemical_formula_sum   'Tb16 Cd4 Co1 Os3'
_cell_volume   633.44758162
_cell_formula_units_Z   1
loop_
 _symmetry_equiv_pos_site_id
 _symmetry_equiv_pos_as_xyz
  1  'x, y, z'
loop_
 _atom_site_type_symbol
 _atom_site_label
 _atom_site_symmetry_multiplicity
 _atom_site_fract_x
 _atom_site_fract_y
 _atom_site_fract_z
 _atom_site_occupancy
  Tb  Tb0  1  0.438867  0.438867  0.056666  1
  Tb  Tb1  1  0.594226  0.594226  0.600310  1
  Tb  Tb2  1  0.188414  0.815020  0.808153  1
  Tb  Tb3  1  0.060102  0.060102  0.437246  1
  Tb  Tb4  1  0.438867  0.065600  0.056666  1
  Tb  Tb5  1  0.815020  0.188414  0.808153  1
  Tb  Tb6  1  0.442550  0.060102  0.437246  1
  Tb  Tb7  1  0.594226  0.211237  0.600310  1
  Tb  Tb8  1  0.810285  0.810285  0.188591  1
  Tb  Tb9  1  0.211237  0.594226  0.600310  1
  Tb  Tb10  1  0.810285  0.190839  0.188591  1
  Tb  Tb11  1  0.060102  0.442550  0.437246  1
  Tb  Tb12  1  0.190839  0.810285  0.188591  1
  Tb  Tb13  1  0.594808  0.594808  0.215575  1
  Tb  Tb14  1  0.188414  0.188414  0.808153  1
  Tb  Tb15  1  0.065600  0.438867  0.056666  1
  Cd  Cd16  1  0.830699  0.830699  0.507902  1
  Cd  Cd17  1  0.829971  0.829971  0.829048  1
  Cd  Cd18  1  0.511008  0.829971  0.829048  1
  Cd  Cd19  1  0.829971  0.511008  0.829048  1
  Co  Co20  1  0.388865  0.388865  0.833407  1
  Os  Os21  1  0.386616  0.386616  0.394359  1
  Os  Os22  1  0.832409  0.386616  0.394359  1
  Os  Os23  1  0.386616  0.832409  0.394359  1
