# generated using pymatgen
data_Ho2Fe9Ni3P7
_symmetry_space_group_name_H-M   'P 1'
_cell_length_a   9.02239900
_cell_length_b   9.02239861
_cell_length_c   3.62541700
_cell_angle_alpha   90.00000000
_cell_angle_beta   90.00000000
_cell_angle_gamma   120.00000509
_symmetry_Int_Tables_number   1
_chemical_formula_structural   Ho2Fe9Ni3P7
_chemical_formula_sum   'Ho2 Fe9 Ni3 P7'
_cell_volume   255.58338388
_cell_formula_units_Z   1
loop_
 _symmetry_equiv_pos_site_id
 _symmetry_equiv_pos_as_xyz
  1  'x, y, z'
loop_
 _atom_site_type_symbol
 _atom_site_label
 _atom_site_symmetry_multiplicity
 _atom_site_fract_x
 _atom_site_fract_y
 _atom_site_fract_z
 _atom_site_occupancy
  Ho  Ho0  1  0.000000  0.000000  0.000000  1
  Ho  Ho1  1  0.333333  0.666667  0.500000  1
  Fe  Fe2  1  0.784753  0.178444  0.000000  1
  Fe  Fe3  1  0.393691  0.215247  0.000000  1
  Fe  Fe4  1  0.821556  0.606309  0.000000  1
  Fe  Fe5  1  0.713824  0.945398  0.500000  1
  Fe  Fe6  1  0.231575  0.286176  0.500000  1
  Fe  Fe7  1  0.054602  0.768425  0.500000  1
  Fe  Fe8  1  0.543326  0.113184  0.500000  1
  Fe  Fe9  1  0.569858  0.456674  0.500000  1
  Fe  Fe10  1  0.886816  0.430142  0.500000  1
  Ni  Ni11  1  0.299559  0.902372  0.000000  1
  Ni  Ni12  1  0.602813  0.700441  0.000000  1
  Ni  Ni13  1  0.097628  0.397187  0.000000  1
  P  P14  1  0.559579  0.927026  0.000000  1
  P  P15  1  0.367447  0.440421  0.000000  1
  P  P16  1  0.072974  0.632553  0.000000  1
  P  P17  1  0.950323  0.214228  0.500000  1
  P  P18  1  0.263905  0.049677  0.500000  1
  P  P19  1  0.785772  0.736095  0.500000  1
  P  P20  1  0.666667  0.333333  0.000000  1
