# generated using pymatgen
data_Nb3CrReSi3Mo
_symmetry_space_group_name_H-M   'P 1'
_cell_length_a   6.79202403
_cell_length_b   6.85214215
_cell_length_c   3.33715600
_cell_angle_alpha   90.00000000
_cell_angle_beta   90.00000000
_cell_angle_gamma   119.83438568
_symmetry_Int_Tables_number   1
_chemical_formula_structural   Nb3CrReSi3Mo
_chemical_formula_sum   'Nb3 Cr1 Re1 Si3 Mo1'
_cell_volume   134.72713362
_cell_formula_units_Z   1
loop_
 _symmetry_equiv_pos_site_id
 _symmetry_equiv_pos_as_xyz
  1  'x, y, z'
loop_
 _atom_site_type_symbol
 _atom_site_label
 _atom_site_symmetry_multiplicity
 _atom_site_fract_x
 _atom_site_fract_y
 _atom_site_fract_z
 _atom_site_occupancy
  Nb  Nb0  1  0.407194  0.993892  0.500000  1
  Nb  Nb1  1  0.995444  0.401335  0.500000  1
  Nb  Nb2  1  0.604765  0.604369  0.500000  1
  Cr  Cr3  1  0.742062  0.999973  0.000000  1
  Re  Re4  1  0.256604  0.256305  0.000000  1
  Si  Si5  1  0.337676  0.665343  0.000000  1
  Si  Si6  1  0.664046  0.328024  0.000000  1
  Si  Si7  1  0.991218  0.004423  0.500000  1
  Mo  Mo8  1  0.000991  0.746337  0.000000  1
