# generated using pymatgen
data_Ho7Er13(CoBi2)4
_symmetry_space_group_name_H-M   'P 1'
_cell_length_a   7.93389705
_cell_length_b   8.87762000
_cell_length_c   12.35695608
_cell_angle_alpha   90.00000000
_cell_angle_beta   89.98708178
_cell_angle_gamma   90.00000000
_symmetry_Int_Tables_number   1
_chemical_formula_structural   Ho7Er13(CoBi2)4
_chemical_formula_sum   'Ho7 Er13 Co4 Bi8'
_cell_volume   870.35134386
_cell_formula_units_Z   1
loop_
 _symmetry_equiv_pos_site_id
 _symmetry_equiv_pos_as_xyz
  1  'x, y, z'
loop_
 _atom_site_type_symbol
 _atom_site_label
 _atom_site_symmetry_multiplicity
 _atom_site_fract_x
 _atom_site_fract_y
 _atom_site_fract_z
 _atom_site_occupancy
  Ho  Ho0  1  0.114614  0.250000  0.188947  1
  Ho  Ho1  1  0.385399  0.250000  0.688912  1
  Ho  Ho2  1  0.614586  0.750000  0.311017  1
  Ho  Ho3  1  0.053284  0.750000  0.498142  1
  Ho  Ho4  1  0.946642  0.250000  0.501929  1
  Ho  Ho5  1  0.553407  0.250000  0.001887  1
  Ho  Ho6  1  0.446658  0.750000  0.998106  1
  Er  Er7  1  0.346266  0.750000  0.699750  1
  Er  Er8  1  0.653624  0.250000  0.300262  1
  Er  Er9  1  0.846441  0.250000  0.800377  1
  Er  Er10  1  0.153646  0.750000  0.199702  1
  Er  Er11  1  0.886044  0.750000  0.811445  1
  Er  Er12  1  0.674531  0.538579  0.563039  1
  Er  Er13  1  0.325469  0.461553  0.437003  1
  Er  Er14  1  0.174358  0.461700  0.936920  1
  Er  Er15  1  0.325469  0.038447  0.437003  1
  Er  Er16  1  0.825440  0.538613  0.062847  1
  Er  Er17  1  0.674531  0.961421  0.563039  1
  Er  Er18  1  0.825440  0.961387  0.062847  1
  Er  Er19  1  0.174358  0.038300  0.936920  1
  Co  Co20  1  0.066505  0.750000  0.991790  1
  Co  Co21  1  0.933315  0.250000  0.007975  1
  Co  Co22  1  0.566690  0.250000  0.507974  1
  Co  Co23  1  0.433275  0.750000  0.491998  1
  Bi  Bi24  1  0.571741  0.510240  0.826326  1
  Bi  Bi25  1  0.428523  0.489958  0.173659  1
  Bi  Bi26  1  0.071231  0.490168  0.673771  1
  Bi  Bi27  1  0.428523  0.010042  0.173659  1
  Bi  Bi28  1  0.928510  0.510032  0.326330  1
  Bi  Bi29  1  0.571741  0.989760  0.826326  1
  Bi  Bi30  1  0.928510  0.989968  0.326330  1
  Bi  Bi31  1  0.071231  0.009832  0.673771  1
