# generated using pymatgen
data_LiLaYb2Cd2Sn3
_symmetry_space_group_name_H-M   'P 1'
_cell_length_a   7.66980579
_cell_length_b   7.55793326
_cell_length_c   4.72965900
_cell_angle_alpha   90.00000000
_cell_angle_beta   90.00000000
_cell_angle_gamma   119.51864795
_symmetry_Int_Tables_number   1
_chemical_formula_structural   LiLaYb2Cd2Sn3
_chemical_formula_sum   'Li1 La1 Yb2 Cd2 Sn3'
_cell_volume   238.57999450
_cell_formula_units_Z   1
loop_
 _symmetry_equiv_pos_site_id
 _symmetry_equiv_pos_as_xyz
  1  'x, y, z'
loop_
 _atom_site_type_symbol
 _atom_site_label
 _atom_site_symmetry_multiplicity
 _atom_site_fract_x
 _atom_site_fract_y
 _atom_site_fract_z
 _atom_site_occupancy
  Li  Li0  1  0.000000  0.765269  0.000000  1
  La  La1  1  0.000000  0.428233  0.500000  1
  Yb  Yb2  1  0.566545  0.568431  0.500000  1
  Yb  Yb3  1  0.433455  0.001886  0.500000  1
  Cd  Cd4  1  0.246866  0.244299  0.000000  1
  Cd  Cd5  1  0.753134  0.997433  0.000000  1
  Sn  Sn6  1  0.328728  0.669711  0.000000  1
  Sn  Sn7  1  0.671272  0.340983  0.000000  1
  Sn  Sn8  1  0.000000  0.983754  0.500000  1
