# generated using pymatgen
data_Dy4Al12Ga6Ir5Pt
_symmetry_space_group_name_H-M   'P 1'
_cell_length_a   7.55554766
_cell_length_b   7.55554855
_cell_length_c   9.55523430
_cell_angle_alpha   90.08001469
_cell_angle_beta   90.08001262
_cell_angle_gamma   119.84208488
_symmetry_Int_Tables_number   1
_chemical_formula_structural   Dy4Al12Ga6Ir5Pt
_chemical_formula_sum   'Dy4 Al12 Ga6 Ir5 Pt1'
_cell_volume   473.14157780
_cell_formula_units_Z   1
loop_
 _symmetry_equiv_pos_site_id
 _symmetry_equiv_pos_as_xyz
  1  'x, y, z'
loop_
 _atom_site_type_symbol
 _atom_site_label
 _atom_site_symmetry_multiplicity
 _atom_site_fract_x
 _atom_site_fract_y
 _atom_site_fract_z
 _atom_site_occupancy
  Dy  Dy0  1  0.997216  0.669745  0.750737  1
  Dy  Dy1  1  0.002784  0.330255  0.249263  1
  Dy  Dy2  1  0.669745  0.997216  0.750737  1
  Dy  Dy3  1  0.330255  0.002784  0.249263  1
  Al  Al4  1  0.001673  0.337611  0.575262  1
  Al  Al5  1  0.998327  0.662389  0.424738  1
  Al  Al6  1  0.999069  0.665774  0.072870  1
  Al  Al7  1  0.334226  0.000931  0.927130  1
  Al  Al8  1  0.000931  0.334226  0.927130  1
  Al  Al9  1  0.665774  0.999069  0.072870  1
  Al  Al10  1  0.662389  0.998327  0.424738  1
  Al  Al11  1  0.337611  0.001673  0.575262  1
  Al  Al12  1  0.333905  0.333905  0.056770  1
  Al  Al13  1  0.666095  0.666095  0.943230  1
  Al  Al14  1  0.662656  0.662656  0.559242  1
  Al  Al15  1  0.337344  0.337344  0.440758  1
  Ga  Ga16  1  0.130175  0.130175  0.752288  1
  Ga  Ga17  1  0.869825  0.869825  0.247712  1
  Ga  Ga18  1  0.339057  0.548408  0.750388  1
  Ga  Ga19  1  0.660943  0.451592  0.249612  1
  Ga  Ga20  1  0.548408  0.339057  0.750388  1
  Ga  Ga21  1  0.451592  0.660943  0.249612  1
  Ir  Ir22  1  0.671584  0.328416  0.500000  1
  Ir  Ir23  1  0.328416  0.671584  0.500000  1
  Ir  Ir24  1  0.328334  0.671666  0.000000  1
  Ir  Ir25  1  0.671666  0.328334  0.000000  1
  Ir  Ir26  1  0.000000  0.000000  0.000000  1
  Pt  Pt27  1  0.000000  0.000000  0.500000  1
