# generated using pymatgen
data_La8Yb12Sn15Pb
_symmetry_space_group_name_H-M   'P 1'
_cell_length_a   8.26085901
_cell_length_b   8.41243485
_cell_length_c   15.87656700
_cell_angle_alpha   90.02547256
_cell_angle_beta   89.99788458
_cell_angle_gamma   90.00406020
_symmetry_Int_Tables_number   1
_chemical_formula_structural   La8Yb12Sn15Pb
_chemical_formula_sum   'La8 Yb12 Sn15 Pb1'
_cell_volume   1103.32505353
_cell_formula_units_Z   1
loop_
 _symmetry_equiv_pos_site_id
 _symmetry_equiv_pos_as_xyz
  1  'x, y, z'
loop_
 _atom_site_type_symbol
 _atom_site_label
 _atom_site_symmetry_multiplicity
 _atom_site_fract_x
 _atom_site_fract_y
 _atom_site_fract_z
 _atom_site_occupancy
  La  La0  1  0.488920  0.317483  0.903603  1
  La  La1  1  0.988419  0.183125  0.595499  1
  La  La2  1  0.511794  0.682736  0.404673  1
  La  La3  1  0.009033  0.815152  0.095924  1
  La  La4  1  0.512511  0.681769  0.095895  1
  La  La5  1  0.012059  0.816865  0.404476  1
  La  La6  1  0.488103  0.317006  0.595576  1
  La  La7  1  0.986975  0.183433  0.903191  1
  Yb  Yb8  1  0.328874  0.830234  0.875750  1
  Yb  Yb9  1  0.828342  0.669950  0.623828  1
  Yb  Yb10  1  0.672212  0.169792  0.376057  1
  Yb  Yb11  1  0.170082  0.332968  0.124853  1
  Yb  Yb12  1  0.672878  0.169186  0.124015  1
  Yb  Yb13  1  0.171957  0.330077  0.376035  1
  Yb  Yb14  1  0.328382  0.830209  0.623962  1
  Yb  Yb15  1  0.829021  0.669685  0.875542  1
  Yb  Yb16  1  0.155369  0.506004  0.749813  1
  Yb  Yb17  1  0.655354  0.994153  0.749820  1
  Yb  Yb18  1  0.844523  0.493986  0.250333  1
  Yb  Yb19  1  0.345224  0.005489  0.251596  1
  Sn  Sn20  1  0.837733  0.463877  0.459424  1
  Sn  Sn21  1  0.662685  0.964012  0.540500  1
  Sn  Sn22  1  0.162610  0.536135  0.959245  1
  Sn  Sn23  1  0.664826  0.963400  0.959029  1
  Sn  Sn24  1  0.162742  0.536015  0.540516  1
  Sn  Sn25  1  0.337729  0.036027  0.459739  1
  Sn  Sn26  1  0.837067  0.463510  0.040258  1
  Sn  Sn27  1  0.525902  0.602745  0.749728  1
  Sn  Sn28  1  0.026131  0.897670  0.749434  1
  Sn  Sn29  1  0.474310  0.397054  0.250109  1
  Sn  Sn30  1  0.974652  0.101900  0.250085  1
  Sn  Sn31  1  0.281136  0.139118  0.749738  1
  Sn  Sn32  1  0.780977  0.361260  0.749468  1
  Sn  Sn33  1  0.718674  0.860636  0.250287  1
  Sn  Sn34  1  0.219310  0.639367  0.250308  1
  Pb  Pb35  1  0.333485  0.037971  0.041690  1
