# generated using pymatgen
data_Th6ZnGa5Pt6
_symmetry_space_group_name_H-M   'P 1'
_cell_length_a   7.35653000
_cell_length_b   7.34887129
_cell_length_c   8.27306190
_cell_angle_alpha   90.00148147
_cell_angle_beta   90.00000000
_cell_angle_gamma   120.03447142
_symmetry_Int_Tables_number   1
_chemical_formula_structural   Th6ZnGa5Pt6
_chemical_formula_sum   'Th6 Zn1 Ga5 Pt6'
_cell_volume   387.20378754
_cell_formula_units_Z   1
loop_
 _symmetry_equiv_pos_site_id
 _symmetry_equiv_pos_as_xyz
  1  'x, y, z'
loop_
 _atom_site_type_symbol
 _atom_site_label
 _atom_site_symmetry_multiplicity
 _atom_site_fract_x
 _atom_site_fract_y
 _atom_site_fract_z
 _atom_site_occupancy
  Th  Th0  1  0.414254  0.413094  0.750940  1
  Th  Th1  1  0.001272  0.586690  0.750878  1
  Th  Th2  1  0.583965  0.999370  0.751165  1
  Th  Th3  1  0.584594  0.000630  0.248835  1
  Th  Th4  1  0.001160  0.586906  0.249060  1
  Th  Th5  1  0.414581  0.413310  0.249122  1
  Zn  Zn6  1  0.242214  0.000000  0.000000  1
  Ga  Ga7  1  0.765372  0.763071  0.999986  1
  Ga  Ga8  1  0.002300  0.236929  0.000014  1
  Ga  Ga9  1  0.756322  0.756370  0.500027  1
  Ga  Ga10  1  0.239980  0.000000  0.500000  1
  Ga  Ga11  1  0.999952  0.243630  0.499973  1
  Pt  Pt12  1  0.669791  0.336129  0.999589  1
  Pt  Pt13  1  0.997268  0.999887  0.747357  1
  Pt  Pt14  1  0.664220  0.332503  0.500245  1
  Pt  Pt15  1  0.331716  0.667497  0.499755  1
  Pt  Pt16  1  0.333661  0.663871  0.000411  1
  Pt  Pt17  1  0.997381  0.000113  0.252643  1
