# generated using pymatgen
data_Yb2Dy2HoIr2
_symmetry_space_group_name_H-M   'P 1'
_cell_length_a   6.52111362
_cell_length_b   7.26786170
_cell_length_c   8.48774728
_cell_angle_alpha   97.02968113
_cell_angle_beta   112.59090410
_cell_angle_gamma   90.00000283
_symmetry_Int_Tables_number   1
_chemical_formula_structural   Yb2Dy2HoIr2
_chemical_formula_sum   'Yb4 Dy4 Ho2 Ir4'
_cell_volume   368.12967403
_cell_formula_units_Z   2
loop_
 _symmetry_equiv_pos_site_id
 _symmetry_equiv_pos_as_xyz
  1  'x, y, z'
loop_
 _atom_site_type_symbol
 _atom_site_label
 _atom_site_symmetry_multiplicity
 _atom_site_fract_x
 _atom_site_fract_y
 _atom_site_fract_z
 _atom_site_occupancy
  Yb  Yb0  1  0.973666  0.920975  0.182795  1
  Yb  Yb1  1  0.790870  0.579025  0.817205  1
  Yb  Yb2  1  0.026334  0.079025  0.817205  1
  Yb  Yb3  1  0.209130  0.420975  0.182795  1
  Dy  Dy4  1  0.650771  0.817669  0.439749  1
  Dy  Dy5  1  0.211021  0.682331  0.560251  1
  Dy  Dy6  1  0.349229  0.182331  0.560251  1
  Dy  Dy7  1  0.788979  0.317669  0.439749  1
  Ho  Ho8  1  0.431262  0.750000  0.000000  1
  Ho  Ho9  1  0.568738  0.250000  0.000000  1
  Ir  Ir10  1  0.815122  0.572158  0.225914  1
  Ir  Ir11  1  0.589207  0.927842  0.774086  1
  Ir  Ir12  1  0.184878  0.427842  0.774086  1
  Ir  Ir13  1  0.410793  0.072158  0.225914  1
