# generated using pymatgen
data_Dy3Er7AlSb5
_symmetry_space_group_name_H-M   'P 1'
_cell_length_a   8.89330650
_cell_length_b   8.86694714
_cell_length_c   6.33310400
_cell_angle_alpha   90.00000000
_cell_angle_beta   90.00000000
_cell_angle_gamma   119.91420925
_symmetry_Int_Tables_number   1
_chemical_formula_structural   Dy3Er7AlSb5
_chemical_formula_sum   'Dy3 Er7 Al1 Sb5'
_cell_volume   432.87192883
_cell_formula_units_Z   1
loop_
 _symmetry_equiv_pos_site_id
 _symmetry_equiv_pos_as_xyz
  1  'x, y, z'
loop_
 _atom_site_type_symbol
 _atom_site_label
 _atom_site_symmetry_multiplicity
 _atom_site_fract_x
 _atom_site_fract_y
 _atom_site_fract_z
 _atom_site_occupancy
  Dy  Dy0  1  0.009306  0.763735  0.750000  1
  Dy  Dy1  1  0.998983  0.243629  0.250000  1
  Dy  Dy2  1  0.754820  0.755951  0.250000  1
  Er  Er3  1  0.752177  0.000055  0.750000  1
  Er  Er4  1  0.246456  0.237121  0.750000  1
  Er  Er5  1  0.242853  0.999938  0.250000  1
  Er  Er6  1  0.334538  0.673258  0.501214  1
  Er  Er7  1  0.661588  0.326806  0.999052  1
  Er  Er8  1  0.661588  0.326806  0.500948  1
  Er  Er9  1  0.334538  0.673258  0.998786  1
  Al  Al10  1  0.396522  0.999834  0.750000  1
  Sb  Sb11  1  0.389351  0.391262  0.250000  1
  Sb  Sb12  1  0.997502  0.608075  0.250000  1
  Sb  Sb13  1  0.001884  0.389954  0.750000  1
  Sb  Sb14  1  0.611539  0.610394  0.750000  1
  Sb  Sb15  1  0.606355  0.999923  0.250000  1
