# generated using pymatgen
data_Rb3WS4
_symmetry_space_group_name_H-M   'P 1'
_cell_length_a   9.69384400
_cell_length_b   9.81259100
_cell_length_c   11.20122400
_cell_angle_alpha   90.00000000
_cell_angle_beta   90.00000000
_cell_angle_gamma   90.00000000
_symmetry_Int_Tables_number   1
_chemical_formula_structural   Rb3WS4
_chemical_formula_sum   'Rb12 W4 S16'
_cell_volume   1065.47976456
_cell_formula_units_Z   4
loop_
 _symmetry_equiv_pos_site_id
 _symmetry_equiv_pos_as_xyz
  1  'x, y, z'
loop_
 _atom_site_type_symbol
 _atom_site_label
 _atom_site_symmetry_multiplicity
 _atom_site_fract_x
 _atom_site_fract_y
 _atom_site_fract_z
 _atom_site_occupancy
  Rb  Rb0  1  0.856538  0.921248  0.750000  1
  Rb  Rb1  1  0.356538  0.578752  0.750000  1
  Rb  Rb2  1  0.143462  0.078752  0.250000  1
  Rb  Rb3  1  0.643462  0.421248  0.250000  1
  Rb  Rb4  1  0.052169  0.290150  0.543958  1
  Rb  Rb5  1  0.552169  0.209850  0.956042  1
  Rb  Rb6  1  0.947831  0.709850  0.043958  1
  Rb  Rb7  1  0.447831  0.790150  0.456042  1
  Rb  Rb8  1  0.947831  0.709850  0.456042  1
  Rb  Rb9  1  0.447831  0.790150  0.043958  1
  Rb  Rb10  1  0.052169  0.290150  0.956042  1
  Rb  Rb11  1  0.552169  0.209850  0.543958  1
  W  W12  1  0.778197  0.484466  0.750000  1
  W  W13  1  0.278197  0.015534  0.750000  1
  W  W14  1  0.221803  0.515534  0.250000  1
  W  W15  1  0.721803  0.984466  0.250000  1
  S  S16  1  0.797210  0.255458  0.750000  1
  S  S17  1  0.297210  0.244542  0.750000  1
  S  S18  1  0.202790  0.744542  0.250000  1
  S  S19  1  0.702790  0.755458  0.250000  1
  S  S20  1  0.991078  0.577893  0.750000  1
  S  S21  1  0.491078  0.922107  0.750000  1
  S  S22  1  0.008922  0.422107  0.250000  1
  S  S23  1  0.508922  0.077893  0.250000  1
  S  S24  1  0.834517  0.048163  0.416456  1
  S  S25  1  0.334517  0.451837  0.083544  1
  S  S26  1  0.165483  0.951837  0.916456  1
  S  S27  1  0.665483  0.548163  0.583544  1
  S  S28  1  0.165483  0.951837  0.583544  1
  S  S29  1  0.665483  0.548163  0.916456  1
  S  S30  1  0.834517  0.048163  0.083544  1
  S  S31  1  0.334517  0.451837  0.416456  1
