# generated using pymatgen
data_Y4Nb2Ir5Ru
_symmetry_space_group_name_H-M   'P 1'
_cell_length_a   5.63723637
_cell_length_b   5.63723694
_cell_length_c   8.31381700
_cell_angle_alpha   90.00000000
_cell_angle_beta   90.00000000
_cell_angle_gamma   119.95850279
_symmetry_Int_Tables_number   1
_chemical_formula_structural   Y4Nb2Ir5Ru
_chemical_formula_sum   'Y4 Nb2 Ir5 Ru1'
_cell_volume   228.89962273
_cell_formula_units_Z   1
loop_
 _symmetry_equiv_pos_site_id
 _symmetry_equiv_pos_as_xyz
  1  'x, y, z'
loop_
 _atom_site_type_symbol
 _atom_site_label
 _atom_site_symmetry_multiplicity
 _atom_site_fract_x
 _atom_site_fract_y
 _atom_site_fract_z
 _atom_site_occupancy
  Y  Y0  1  0.332995  0.667005  0.438134  1
  Y  Y1  1  0.667031  0.332969  0.562560  1
  Y  Y2  1  0.667031  0.332969  0.937440  1
  Y  Y3  1  0.332995  0.667005  0.061866  1
  Nb  Nb4  1  0.998676  0.001324  0.002970  1
  Nb  Nb5  1  0.998676  0.001324  0.497030  1
  Ir  Ir6  1  0.172076  0.343502  0.750000  1
  Ir  Ir7  1  0.171734  0.828266  0.750000  1
  Ir  Ir8  1  0.346687  0.172378  0.250000  1
  Ir  Ir9  1  0.827622  0.653313  0.250000  1
  Ir  Ir10  1  0.656498  0.827924  0.750000  1
  Ru  Ru11  1  0.827977  0.172023  0.250000  1
