# generated using pymatgen
data_Zr6Al16FeCoCu4Ru
_symmetry_space_group_name_H-M   'P 1'
_cell_length_a   8.68690026
_cell_length_b   8.62676978
_cell_length_c   8.68690200
_cell_angle_alpha   60.22871988
_cell_angle_beta   59.43772410
_cell_angle_gamma   60.22871962
_symmetry_Int_Tables_number   1
_chemical_formula_structural   Zr6Al16FeCoCu4Ru
_chemical_formula_sum   'Zr6 Al16 Fe1 Co1 Cu4 Ru1'
_cell_volume   459.90031997
_cell_formula_units_Z   1
loop_
 _symmetry_equiv_pos_site_id
 _symmetry_equiv_pos_as_xyz
  1  'x, y, z'
loop_
 _atom_site_type_symbol
 _atom_site_label
 _atom_site_symmetry_multiplicity
 _atom_site_fract_x
 _atom_site_fract_y
 _atom_site_fract_z
 _atom_site_occupancy
  Zr  Zr0  1  0.192173  0.809625  0.807827  1
  Zr  Zr1  1  0.807827  0.190375  0.192173  1
  Zr  Zr2  1  0.798557  0.201443  0.798557  1
  Zr  Zr3  1  0.807827  0.809625  0.192173  1
  Zr  Zr4  1  0.201443  0.798557  0.201443  1
  Zr  Zr5  1  0.192173  0.190375  0.807827  1
  Al  Al6  1  0.836492  0.830436  0.836492  1
  Al  Al7  1  0.829610  0.836609  0.497171  1
  Al  Al8  1  0.497171  0.836609  0.829610  1
  Al  Al9  1  0.836492  0.496579  0.836492  1
  Al  Al10  1  0.163508  0.169564  0.163508  1
  Al  Al11  1  0.170390  0.163391  0.502829  1
  Al  Al12  1  0.163508  0.503421  0.163508  1
  Al  Al13  1  0.502829  0.163391  0.170390  1
  Al  Al14  1  0.613701  0.629956  0.613701  1
  Al  Al15  1  0.628274  0.614108  0.143511  1
  Al  Al16  1  0.143511  0.614108  0.628274  1
  Al  Al17  1  0.613701  0.142643  0.613701  1
  Al  Al18  1  0.386299  0.370044  0.386299  1
  Al  Al19  1  0.371726  0.385892  0.856489  1
  Al  Al20  1  0.386299  0.857357  0.386299  1
  Al  Al21  1  0.856489  0.385892  0.371726  1
  Fe  Fe22  1  0.500000  0.000000  0.500000  1
  Co  Co23  1  0.000000  0.500000  0.000000  1
  Cu  Cu24  1  0.000000  0.500000  0.500000  1
  Cu  Cu25  1  0.500000  0.000000  0.000000  1
  Cu  Cu26  1  0.500000  0.500000  0.000000  1
  Cu  Cu27  1  0.000000  0.000000  0.500000  1
  Ru  Ru28  1  0.500000  0.500000  0.500000  1
