# generated using pymatgen
data_K4Ba(NbSe4)2
_symmetry_space_group_name_H-M   'P 1'
_cell_length_a   12.30346045
_cell_length_b   12.30346057
_cell_length_c   12.30346058
_cell_angle_alpha   133.82400810
_cell_angle_beta   128.98742416
_cell_angle_gamma   71.24056624
_symmetry_Int_Tables_number   1
_chemical_formula_structural   K4Ba(NbSe4)2
_chemical_formula_sum   'K8 Ba2 Nb4 Se16'
_cell_volume   1022.60135407
_cell_formula_units_Z   2
loop_
 _symmetry_equiv_pos_site_id
 _symmetry_equiv_pos_as_xyz
  1  'x, y, z'
loop_
 _atom_site_type_symbol
 _atom_site_label
 _atom_site_symmetry_multiplicity
 _atom_site_fract_x
 _atom_site_fract_y
 _atom_site_fract_z
 _atom_site_occupancy
  K  K0  1  0.499680  0.249680  0.250000  1
  K  K1  1  0.000320  0.750320  0.250000  1
  K  K2  1  0.576985  0.700923  0.123938  1
  K  K3  1  0.423015  0.299077  0.876062  1
  K  K4  1  0.500320  0.750320  0.750000  1
  K  K5  1  0.076985  0.453047  0.376062  1
  K  K6  1  0.923015  0.546953  0.623938  1
  K  K7  1  0.999680  0.249680  0.750000  1
  Ba  Ba8  1  0.250000  0.000000  0.250000  1
  Ba  Ba9  1  0.750000  0.000000  0.750000  1
  Nb  Nb10  1  0.132745  0.925984  0.793240  1
  Nb  Nb11  1  0.867255  0.074016  0.206760  1
  Nb  Nb12  1  0.367255  0.660495  0.293240  1
  Nb  Nb13  1  0.632745  0.339505  0.706760  1
  Se  Se14  1  0.600649  0.602390  0.373537  1
  Se  Se15  1  0.747035  0.975119  0.228084  1
  Se  Se16  1  0.896517  0.859813  0.963296  1
  Se  Se17  1  0.771148  0.397610  0.998260  1
  Se  Se18  1  0.728852  0.227112  0.126463  1
  Se  Se19  1  0.752965  0.481048  0.728084  1
  Se  Se20  1  0.252965  0.024881  0.771916  1
  Se  Se21  1  0.228852  0.602390  0.001740  1
  Se  Se22  1  0.247035  0.518952  0.271916  1
  Se  Se23  1  0.271148  0.772888  0.873537  1
  Se  Se24  1  0.103483  0.140187  0.036704  1
  Se  Se25  1  0.899351  0.772888  0.501740  1
  Se  Se26  1  0.100649  0.227112  0.498260  1
  Se  Se27  1  0.603483  0.066779  0.463296  1
  Se  Se28  1  0.399351  0.397610  0.626463  1
  Se  Se29  1  0.396517  0.933221  0.536704  1
