# generated using pymatgen
data_Tb10Si5P
_symmetry_space_group_name_H-M   'P 1'
_cell_length_a   8.44662100
_cell_length_b   8.45822610
_cell_length_c   6.37200600
_cell_angle_alpha   90.00000000
_cell_angle_beta   90.00000000
_cell_angle_gamma   119.95461946
_symmetry_Int_Tables_number   1
_chemical_formula_structural   Tb10Si5P
_chemical_formula_sum   'Tb10 Si5 P1'
_cell_volume   394.42780276
_cell_formula_units_Z   1
loop_
 _symmetry_equiv_pos_site_id
 _symmetry_equiv_pos_as_xyz
  1  'x, y, z'
loop_
 _atom_site_type_symbol
 _atom_site_label
 _atom_site_symmetry_multiplicity
 _atom_site_fract_x
 _atom_site_fract_y
 _atom_site_fract_z
 _atom_site_occupancy
  Tb  Tb0  1  0.001437  0.756627  0.750000  1
  Tb  Tb1  1  0.000797  0.244704  0.250000  1
  Tb  Tb2  1  0.756093  0.755296  0.250000  1
  Tb  Tb3  1  0.754611  0.000000  0.750000  1
  Tb  Tb4  1  0.244810  0.243373  0.750000  1
  Tb  Tb5  1  0.244213  0.000000  0.250000  1
  Tb  Tb6  1  0.333687  0.667429  0.500498  1
  Tb  Tb7  1  0.666259  0.332571  0.999502  1
  Tb  Tb8  1  0.666259  0.332571  0.500498  1
  Tb  Tb9  1  0.333687  0.667429  0.999502  1
  Si  Si10  1  0.393839  0.393485  0.250000  1
  Si  Si11  1  0.000354  0.606515  0.250000  1
  Si  Si12  1  0.000074  0.393197  0.750000  1
  Si  Si13  1  0.606877  0.606803  0.750000  1
  Si  Si14  1  0.607373  0.000000  0.250000  1
  P  P15  1  0.389629  0.000000  0.750000  1
