# generated using pymatgen
data_Y2Ho3Lu3(ReB6)4
_symmetry_space_group_name_H-M   'P 1'
_cell_length_a   3.65207500
_cell_length_b   9.12115604
_cell_length_c   11.50613100
_cell_angle_alpha   89.99505338
_cell_angle_beta   90.00000000
_cell_angle_gamma   90.00000000
_symmetry_Int_Tables_number   1
_chemical_formula_structural   Y2Ho3Lu3(ReB6)4
_chemical_formula_sum   'Y2 Ho3 Lu3 Re4 B24'
_cell_volume   383.28240752
_cell_formula_units_Z   1
loop_
 _symmetry_equiv_pos_site_id
 _symmetry_equiv_pos_as_xyz
  1  'x, y, z'
loop_
 _atom_site_type_symbol
 _atom_site_label
 _atom_site_symmetry_multiplicity
 _atom_site_fract_x
 _atom_site_fract_y
 _atom_site_fract_z
 _atom_site_occupancy
  Y  Y0  1  0.000000  0.322597  0.414182  1
  Y  Y1  1  0.000000  0.676849  0.586148  1
  Ho  Ho2  1  0.000000  0.822796  0.085639  1
  Ho  Ho3  1  0.000000  0.177146  0.913965  1
  Ho  Ho4  1  0.000000  0.943218  0.370456  1
  Lu  Lu5  1  0.000000  0.057158  0.630827  1
  Lu  Lu6  1  0.000000  0.443080  0.129122  1
  Lu  Lu7  1  0.000000  0.557127  0.870406  1
  Re  Re8  1  0.000000  0.637820  0.319338  1
  Re  Re9  1  0.000000  0.360760  0.681025  1
  Re  Re10  1  0.000000  0.139589  0.178747  1
  Re  Re11  1  0.000000  0.861334  0.820510  1
  B  B12  1  0.500000  0.552600  0.432315  1
  B  B13  1  0.500000  0.446241  0.567920  1
  B  B14  1  0.500000  0.053686  0.066548  1
  B  B15  1  0.500000  0.946677  0.932860  1
  B  B16  1  0.500000  0.748962  0.417832  1
  B  B17  1  0.500000  0.249447  0.582573  1
  B  B18  1  0.500000  0.250951  0.080868  1
  B  B19  1  0.500000  0.749492  0.918675  1
  B  B20  1  0.500000  0.791662  0.264323  1
  B  B21  1  0.500000  0.207322  0.735543  1
  B  B22  1  0.500000  0.293129  0.233819  1
  B  B23  1  0.500000  0.707450  0.765804  1
  B  B24  1  0.500000  0.629413  0.183936  1
  B  B25  1  0.500000  0.370342  0.815809  1
  B  B26  1  0.500000  0.130780  0.314225  1
  B  B27  1  0.500000  0.870507  0.685399  1
  B  B28  1  0.500000  0.981890  0.211405  1
  B  B29  1  0.500000  0.018787  0.787901  1
  B  B30  1  0.500000  0.481062  0.286574  1
  B  B31  1  0.500000  0.518588  0.713172  1
  B  B32  1  0.500000  0.598006  0.027036  1
  B  B33  1  0.500000  0.402280  0.972562  1
  B  B34  1  0.500000  0.099242  0.473873  1
  B  B35  1  0.500000  0.902008  0.528664  1
