# generated using pymatgen
data_Cs3Tm2Br9
_symmetry_space_group_name_H-M   'P 1'
_cell_length_a   10.44840504
_cell_length_b   10.44840516
_cell_length_c   10.44840465
_cell_angle_alpha   83.21073506
_cell_angle_beta   83.21073505
_cell_angle_gamma   83.21072917
_symmetry_Int_Tables_number   1
_chemical_formula_structural   Cs3Tm2Br9
_chemical_formula_sum   'Cs6 Tm4 Br18'
_cell_volume   1118.39970759
_cell_formula_units_Z   2
loop_
 _symmetry_equiv_pos_site_id
 _symmetry_equiv_pos_as_xyz
  1  'x, y, z'
loop_
 _atom_site_type_symbol
 _atom_site_label
 _atom_site_symmetry_multiplicity
 _atom_site_fract_x
 _atom_site_fract_y
 _atom_site_fract_z
 _atom_site_occupancy
  Cs  Cs0  1  0.589712  0.910288  0.250000  1
  Cs  Cs1  1  0.250000  0.589712  0.910288  1
  Cs  Cs2  1  0.910288  0.250000  0.589712  1
  Cs  Cs3  1  0.750000  0.410288  0.089712  1
  Cs  Cs4  1  0.089712  0.750000  0.410288  1
  Cs  Cs5  1  0.410288  0.089712  0.750000  1
  Tm  Tm6  1  0.846247  0.846247  0.846247  1
  Tm  Tm7  1  0.346247  0.346247  0.346247  1
  Tm  Tm8  1  0.153753  0.153753  0.153753  1
  Tm  Tm9  1  0.653753  0.653753  0.653753  1
  Br  Br10  1  0.096267  0.403733  0.250000  1
  Br  Br11  1  0.250000  0.096267  0.403733  1
  Br  Br12  1  0.403733  0.250000  0.096267  1
  Br  Br13  1  0.750000  0.903733  0.596267  1
  Br  Br14  1  0.596267  0.750000  0.903733  1
  Br  Br15  1  0.903733  0.596267  0.750000  1
  Br  Br16  1  0.236005  0.415081  0.577331  1
  Br  Br17  1  0.577331  0.236005  0.415081  1
  Br  Br18  1  0.415081  0.577331  0.236005  1
  Br  Br19  1  0.077331  0.915081  0.736005  1
  Br  Br20  1  0.736005  0.077331  0.915081  1
  Br  Br21  1  0.915081  0.736005  0.077331  1
  Br  Br22  1  0.763995  0.584919  0.422669  1
  Br  Br23  1  0.422669  0.763995  0.584919  1
  Br  Br24  1  0.584919  0.422669  0.763995  1
  Br  Br25  1  0.922669  0.084919  0.263995  1
  Br  Br26  1  0.263995  0.922669  0.084919  1
  Br  Br27  1  0.084919  0.263995  0.922669  1
