# generated using pymatgen
data_Er2Co12Si2GeP4
_symmetry_space_group_name_H-M   'P 1'
_cell_length_a   9.10017678
_cell_length_b   9.09790536
_cell_length_c   3.58107000
_cell_angle_alpha   90.00000000
_cell_angle_beta   90.00000000
_cell_angle_gamma   119.84012586
_symmetry_Int_Tables_number   1
_chemical_formula_structural   Er2Co12Si2GeP4
_chemical_formula_sum   'Er2 Co12 Si2 Ge1 P4'
_cell_volume   257.17697385
_cell_formula_units_Z   1
loop_
 _symmetry_equiv_pos_site_id
 _symmetry_equiv_pos_as_xyz
  1  'x, y, z'
loop_
 _atom_site_type_symbol
 _atom_site_label
 _atom_site_symmetry_multiplicity
 _atom_site_fract_x
 _atom_site_fract_y
 _atom_site_fract_z
 _atom_site_occupancy
  Er  Er0  1  0.664444  0.332844  0.500000  1
  Er  Er1  1  0.332592  0.667909  0.000000  1
  Co  Co2  1  0.130883  0.845997  0.000000  1
  Co  Co3  1  0.383346  0.438018  0.500000  1
  Co  Co4  1  0.711518  0.866229  0.000000  1
  Co  Co5  1  0.558387  0.941912  0.500000  1
  Co  Co6  1  0.252618  0.114342  0.500000  1
  Co  Co7  1  0.859189  0.750157  0.500000  1
  Co  Co8  1  0.891593  0.136540  0.500000  1
  Co  Co9  1  0.946288  0.379583  0.000000  1
  Co  Co10  1  0.615470  0.559790  0.000000  1
  Co  Co11  1  0.435821  0.061413  0.000000  1
  Co  Co12  1  0.058985  0.618156  0.500000  1
  Co  Co13  1  0.160920  0.286735  0.000000  1
  Si  Si14  1  0.710950  0.112765  0.000000  1
  Si  Si15  1  0.887060  0.597426  0.000000  1
  Ge  Ge16  1  0.998164  0.999739  0.000000  1
  P  P17  1  0.595291  0.706606  0.500000  1
  P  P18  1  0.403871  0.291152  0.000000  1
  P  P19  1  0.292461  0.890197  0.500000  1
  P  P20  1  0.110149  0.402489  0.500000  1
