# generated using pymatgen
data_Mo2P2RuRh
_symmetry_space_group_name_H-M   'P 1'
_cell_length_a   3.92958000
_cell_length_b   6.01712200
_cell_length_c   7.00042900
_cell_angle_alpha   90.00000000
_cell_angle_beta   90.00000000
_cell_angle_gamma   90.00000000
_symmetry_Int_Tables_number   1
_chemical_formula_structural   Mo2P2RuRh
_chemical_formula_sum   'Mo4 P4 Ru2 Rh2'
_cell_volume   165.52347948
_cell_formula_units_Z   2
loop_
 _symmetry_equiv_pos_site_id
 _symmetry_equiv_pos_as_xyz
  1  'x, y, z'
loop_
 _atom_site_type_symbol
 _atom_site_label
 _atom_site_symmetry_multiplicity
 _atom_site_fract_x
 _atom_site_fract_y
 _atom_site_fract_z
 _atom_site_occupancy
  Mo  Mo0  1  0.250000  0.028333  0.168581  1
  Mo  Mo1  1  0.250000  0.528333  0.331419  1
  Mo  Mo2  1  0.750000  0.968852  0.836749  1
  Mo  Mo3  1  0.750000  0.468852  0.663251  1
  P  P4  1  0.250000  0.751302  0.610514  1
  P  P5  1  0.250000  0.251302  0.889486  1
  P  P6  1  0.750000  0.248257  0.379814  1
  P  P7  1  0.750000  0.748257  0.120186  1
  Ru  Ru8  1  0.750000  0.863423  0.433160  1
  Ru  Ru9  1  0.750000  0.363423  0.066840  1
  Rh  Rh10  1  0.250000  0.139833  0.575874  1
  Rh  Rh11  1  0.250000  0.639833  0.924126  1
