# generated using pymatgen
data_Y7HoCd2IrPt
_symmetry_space_group_name_H-M   'P 1'
_cell_length_a   9.68735783
_cell_length_b   9.68735724
_cell_length_c   9.67804700
_cell_angle_alpha   60.03179032
_cell_angle_beta   60.03179232
_cell_angle_gamma   60.09730216
_symmetry_Int_Tables_number   1
_chemical_formula_structural   Y7HoCd2IrPt
_chemical_formula_sum   'Y14 Ho2 Cd4 Ir2 Pt2'
_cell_volume   642.99939181
_cell_formula_units_Z   2
loop_
 _symmetry_equiv_pos_site_id
 _symmetry_equiv_pos_as_xyz
  1  'x, y, z'
loop_
 _atom_site_type_symbol
 _atom_site_label
 _atom_site_symmetry_multiplicity
 _atom_site_fract_x
 _atom_site_fract_y
 _atom_site_fract_z
 _atom_site_occupancy
  Y  Y0  1  0.355807  0.944067  0.350063  1
  Y  Y1  1  0.944067  0.355807  0.350063  1
  Y  Y2  1  0.806412  0.190481  0.190699  1
  Y  Y3  1  0.190481  0.806412  0.812409  1
  Y  Y4  1  0.190481  0.806412  0.190699  1
  Y  Y5  1  0.806412  0.190481  0.812409  1
  Y  Y6  1  0.191756  0.191756  0.808244  1
  Y  Y7  1  0.811100  0.811100  0.188900  1
  Y  Y8  1  0.937474  0.564786  0.561821  1
  Y  Y9  1  0.564786  0.937474  0.935919  1
  Y  Y10  1  0.564786  0.937474  0.561821  1
  Y  Y11  1  0.937474  0.564786  0.935919  1
  Y  Y12  1  0.563278  0.563278  0.936722  1
  Y  Y13  1  0.936791  0.936791  0.563209  1
  Ho  Ho14  1  0.350177  0.350177  0.345878  1
  Ho  Ho15  1  0.350177  0.350177  0.953768  1
  Cd  Cd16  1  0.580956  0.580956  0.581940  1
  Cd  Cd17  1  0.580956  0.580956  0.256151  1
  Cd  Cd18  1  0.580457  0.256239  0.581652  1
  Cd  Cd19  1  0.256239  0.580457  0.581652  1
  Ir  Ir20  1  0.142438  0.572314  0.142624  1
  Ir  Ir21  1  0.572314  0.142438  0.142624  1
  Pt  Pt22  1  0.142593  0.142593  0.143670  1
  Pt  Pt23  1  0.142593  0.142593  0.571145  1
