# generated using pymatgen
data_SrNd5(GePd)6
_symmetry_space_group_name_H-M   'P 1'
_cell_length_a   4.56385000
_cell_length_b   7.75379542
_cell_length_c   22.34956700
_cell_angle_alpha   90.01893160
_cell_angle_beta   90.00000000
_cell_angle_gamma   90.00000000
_symmetry_Int_Tables_number   1
_chemical_formula_structural   SrNd5(GePd)6
_chemical_formula_sum   'Sr2 Nd10 Ge12 Pd12'
_cell_volume   790.88764326
_cell_formula_units_Z   2
loop_
 _symmetry_equiv_pos_site_id
 _symmetry_equiv_pos_as_xyz
  1  'x, y, z'
loop_
 _atom_site_type_symbol
 _atom_site_label
 _atom_site_symmetry_multiplicity
 _atom_site_fract_x
 _atom_site_fract_y
 _atom_site_fract_z
 _atom_site_occupancy
  Sr  Sr0  1  0.750000  0.226292  0.498289  1
  Sr  Sr1  1  0.250000  0.773708  0.501711  1
  Nd  Nd2  1  0.250000  0.707980  0.327259  1
  Nd  Nd3  1  0.750000  0.292020  0.672741  1
  Nd  Nd4  1  0.750000  0.208798  0.163378  1
  Nd  Nd5  1  0.250000  0.791202  0.836622  1
  Nd  Nd6  1  0.250000  0.794592  0.163447  1
  Nd  Nd7  1  0.750000  0.205408  0.836553  1
  Nd  Nd8  1  0.750000  0.289560  0.327491  1
  Nd  Nd9  1  0.250000  0.710440  0.672509  1
  Nd  Nd10  1  0.250000  0.716066  0.001731  1
  Nd  Nd11  1  0.750000  0.283934  0.998269  1
  Ge  Ge12  1  0.250000  0.091798  0.069236  1
  Ge  Ge13  1  0.750000  0.908202  0.930764  1
  Ge  Ge14  1  0.750000  0.593180  0.416312  1
  Ge  Ge15  1  0.250000  0.406820  0.583688  1
  Ge  Ge16  1  0.250000  0.084496  0.264253  1
  Ge  Ge17  1  0.750000  0.915504  0.735747  1
  Ge  Ge18  1  0.750000  0.584720  0.225088  1
  Ge  Ge19  1  0.250000  0.415280  0.774912  1
  Ge  Ge20  1  0.250000  0.081217  0.388443  1
  Ge  Ge21  1  0.750000  0.918783  0.611557  1
  Ge  Ge22  1  0.750000  0.587749  0.101067  1
  Ge  Ge23  1  0.250000  0.412251  0.898933  1
  Pd  Pd24  1  0.250000  0.418519  0.231663  1
  Pd  Pd25  1  0.750000  0.581481  0.768337  1
  Pd  Pd26  1  0.750000  0.917386  0.257505  1
  Pd  Pd27  1  0.250000  0.082614  0.742495  1
  Pd  Pd28  1  0.250000  0.415782  0.419000  1
  Pd  Pd29  1  0.750000  0.584218  0.581000  1
  Pd  Pd30  1  0.750000  0.918385  0.063563  1
  Pd  Pd31  1  0.250000  0.081615  0.936437  1
  Pd  Pd32  1  0.250000  0.422344  0.092136  1
  Pd  Pd33  1  0.750000  0.577656  0.907864  1
  Pd  Pd34  1  0.750000  0.918935  0.396434  1
  Pd  Pd35  1  0.250000  0.081065  0.603566  1
