# generated using pymatgen
data_Ta6GaFeS12
_symmetry_space_group_name_H-M   'P 1'
_cell_length_a   5.76538100
_cell_length_b   5.76538040
_cell_length_c   13.37487700
_cell_angle_alpha   90.00000000
_cell_angle_beta   90.00000000
_cell_angle_gamma   119.99999773
_symmetry_Int_Tables_number   1
_chemical_formula_structural   Ta6GaFeS12
_chemical_formula_sum   'Ta6 Ga1 Fe1 S12'
_cell_volume   385.01390805
_cell_formula_units_Z   1
loop_
 _symmetry_equiv_pos_site_id
 _symmetry_equiv_pos_as_xyz
  1  'x, y, z'
loop_
 _atom_site_type_symbol
 _atom_site_label
 _atom_site_symmetry_multiplicity
 _atom_site_fract_x
 _atom_site_fract_y
 _atom_site_fract_z
 _atom_site_occupancy
  Ta  Ta0  1  0.000000  0.000000  0.535134  1
  Ta  Ta1  1  0.000000  0.000000  0.964866  1
  Ta  Ta2  1  0.333333  0.666667  0.535728  1
  Ta  Ta3  1  0.666667  0.333333  0.531646  1
  Ta  Ta4  1  0.666667  0.333333  0.968354  1
  Ta  Ta5  1  0.333333  0.666667  0.964272  1
  Ga  Ga6  1  0.333333  0.666667  0.250000  1
  Fe  Fe7  1  0.666667  0.333333  0.750000  1
  S  S8  1  0.331019  0.333512  0.084029  1
  S  S9  1  0.666488  0.997508  0.084029  1
  S  S10  1  0.002492  0.668981  0.084029  1
  S  S11  1  0.336969  0.332945  0.849187  1
  S  S12  1  0.995976  0.663031  0.849187  1
  S  S13  1  0.667055  0.004024  0.849187  1
  S  S14  1  0.667055  0.663031  0.650813  1
  S  S15  1  0.336969  0.004024  0.650813  1
  S  S16  1  0.995976  0.332945  0.650813  1
  S  S17  1  0.666488  0.668981  0.415971  1
  S  S18  1  0.002492  0.333512  0.415971  1
  S  S19  1  0.331019  0.997508  0.415971  1
