# generated using pymatgen
data_Pr2AgRhPb
_symmetry_space_group_name_H-M   'P 1'
_cell_length_a   8.23244073
_cell_length_b   8.23243955
_cell_length_c   3.81666500
_cell_angle_alpha   90.00000000
_cell_angle_beta   90.00000000
_cell_angle_gamma   89.02844338
_symmetry_Int_Tables_number   1
_chemical_formula_structural   Pr2AgRhPb
_chemical_formula_sum   'Pr4 Ag2 Rh2 Pb2'
_cell_volume   258.62991967
_cell_formula_units_Z   2
loop_
 _symmetry_equiv_pos_site_id
 _symmetry_equiv_pos_as_xyz
  1  'x, y, z'
loop_
 _atom_site_type_symbol
 _atom_site_label
 _atom_site_symmetry_multiplicity
 _atom_site_fract_x
 _atom_site_fract_y
 _atom_site_fract_z
 _atom_site_occupancy
  Pr  Pr0  1  0.658930  0.158930  0.500000  1
  Pr  Pr1  1  0.341070  0.841070  0.500000  1
  Pr  Pr2  1  0.192023  0.307977  0.500000  1
  Pr  Pr3  1  0.807977  0.692023  0.500000  1
  Ag  Ag4  1  0.121153  0.621153  0.000000  1
  Ag  Ag5  1  0.878847  0.378847  0.000000  1
  Rh  Rh6  1  0.626318  0.873682  0.000000  1
  Rh  Rh7  1  0.373682  0.126318  0.000000  1
  Pb  Pb8  1  0.000000  0.000000  0.000000  1
  Pb  Pb9  1  0.500000  0.500000  0.000000  1
