# generated using pymatgen
data_Y2Er2Al4IrPt3
_symmetry_space_group_name_H-M   'P 1'
_cell_length_a   4.42611500
_cell_length_b   6.81700364
_cell_length_c   7.77447849
_cell_angle_alpha   90.28596568
_cell_angle_beta   90.00000000
_cell_angle_gamma   90.00000000
_symmetry_Int_Tables_number   1
_chemical_formula_structural   Y2Er2Al4IrPt3
_chemical_formula_sum   'Y2 Er2 Al4 Ir1 Pt3'
_cell_volume   234.57518978
_cell_formula_units_Z   1
loop_
 _symmetry_equiv_pos_site_id
 _symmetry_equiv_pos_as_xyz
  1  'x, y, z'
loop_
 _atom_site_type_symbol
 _atom_site_label
 _atom_site_symmetry_multiplicity
 _atom_site_fract_x
 _atom_site_fract_y
 _atom_site_fract_z
 _atom_site_occupancy
  Y  Y0  1  0.250000  0.471880  0.182031  1
  Y  Y1  1  0.750000  0.529461  0.815825  1
  Er  Er2  1  0.750000  0.022973  0.680738  1
  Er  Er3  1  0.250000  0.969145  0.320732  1
  Al  Al4  1  0.250000  0.852525  0.935459  1
  Al  Al5  1  0.750000  0.146271  0.062450  1
  Al  Al6  1  0.750000  0.646882  0.437927  1
  Al  Al7  1  0.250000  0.358507  0.563997  1
  Ir  Ir8  1  0.250000  0.734057  0.615407  1
  Pt  Pt9  1  0.750000  0.269096  0.384371  1
  Pt  Pt10  1  0.750000  0.773538  0.118345  1
  Pt  Pt11  1  0.250000  0.225664  0.882719  1
