# generated using pymatgen
data_Sc6TcHgTe
_symmetry_space_group_name_H-M   'P 1'
_cell_length_a   3.87563600
_cell_length_b   7.75371994
_cell_length_c   7.75372000
_cell_angle_alpha   119.99999173
_cell_angle_beta   90.00000000
_cell_angle_gamma   90.00000000
_symmetry_Int_Tables_number   1
_chemical_formula_structural   Sc6TcHgTe
_chemical_formula_sum   'Sc6 Tc1 Hg1 Te1'
_cell_volume   201.78732050
_cell_formula_units_Z   1
loop_
 _symmetry_equiv_pos_site_id
 _symmetry_equiv_pos_as_xyz
  1  'x, y, z'
loop_
 _atom_site_type_symbol
 _atom_site_label
 _atom_site_symmetry_multiplicity
 _atom_site_fract_x
 _atom_site_fract_y
 _atom_site_fract_z
 _atom_site_occupancy
  Sc  Sc0  1  0.500000  0.761474  0.755604  1
  Sc  Sc1  1  0.500000  0.994131  0.238526  1
  Sc  Sc2  1  0.500000  0.244396  0.005869  1
  Sc  Sc3  1  0.000000  0.389301  0.390675  1
  Sc  Sc4  1  0.000000  0.001373  0.610699  1
  Sc  Sc5  1  0.000000  0.609325  0.998627  1
  Tc  Tc6  1  0.000000  0.000000  0.000000  1
  Hg  Hg7  1  0.500000  0.666667  0.333333  1
  Te  Te8  1  0.500000  0.333333  0.666667  1
