# generated using pymatgen
data_SmGdIn4(TeO6)3
_symmetry_space_group_name_H-M   'P 1'
_cell_length_a   9.08700562
_cell_length_b   9.08896007
_cell_length_c   5.11005394
_cell_angle_alpha   89.73456751
_cell_angle_beta   90.23642836
_cell_angle_gamma   119.88589582
_symmetry_Int_Tables_number   1
_chemical_formula_structural   SmGdIn4(TeO6)3
_chemical_formula_sum   'Sm1 Gd1 In4 Te3 O18'
_cell_volume   365.91793181
_cell_formula_units_Z   1
loop_
 _symmetry_equiv_pos_site_id
 _symmetry_equiv_pos_as_xyz
  1  'x, y, z'
loop_
 _atom_site_type_symbol
 _atom_site_label
 _atom_site_symmetry_multiplicity
 _atom_site_fract_x
 _atom_site_fract_y
 _atom_site_fract_z
 _atom_site_occupancy
  Sm  Sm0  1  0.619491  0.001764  0.000285  1
  Gd  Gd1  1  0.001819  0.620923  0.999504  1
  In  In2  1  0.371839  0.371745  0.000049  1
  In  In3  1  0.288177  0.998491  0.502895  1
  In  In4  1  0.998842  0.288633  0.496799  1
  In  In5  1  0.712582  0.712343  0.500386  1
  Te  Te6  1  0.004587  0.004195  0.000030  1
  Te  Te7  1  0.333657  0.660880  0.504652  1
  Te  Te8  1  0.661817  0.335017  0.495304  1
  O  O9  1  0.090934  0.886657  0.786876  1
  O  O10  1  0.120842  0.209779  0.786631  1
  O  O11  1  0.801184  0.916218  0.783386  1
  O  O12  1  0.210254  0.120433  0.213080  1
  O  O13  1  0.916401  0.800097  0.216008  1
  O  O14  1  0.887553  0.090349  0.214083  1
  O  O15  1  0.461161  0.587936  0.731789  1
  O  O16  1  0.398490  0.858744  0.723227  1
  O  O17  1  0.128558  0.532799  0.708807  1
  O  O18  1  0.859321  0.400514  0.273187  1
  O  O19  1  0.532465  0.130198  0.292980  1
  O  O20  1  0.587701  0.462070  0.269986  1
  O  O21  1  0.230388  0.763640  0.285486  1
  O  O22  1  0.237415  0.459040  0.277961  1
  O  O23  1  0.542077  0.775739  0.301710  1
  O  O24  1  0.460342  0.237792  0.723944  1
  O  O25  1  0.777152  0.542815  0.700007  1
  O  O26  1  0.764950  0.231190  0.710950  1
