# generated using pymatgen
data_Li8I5
_symmetry_space_group_name_H-M   'P 1'
_cell_length_a   11.74943936
_cell_length_b   13.22194400
_cell_length_c   17.33260134
_cell_angle_alpha   110.47493469
_cell_angle_beta   96.95273030
_cell_angle_gamma   105.78487654
_symmetry_Int_Tables_number   1
_chemical_formula_structural   Li8I5
_chemical_formula_sum   'Li8 I5'
_cell_volume   2356.55370206
_cell_formula_units_Z   1
loop_
 _symmetry_equiv_pos_site_id
 _symmetry_equiv_pos_as_xyz
  1  'x, y, z'
loop_
 _atom_site_type_symbol
 _atom_site_label
 _atom_site_symmetry_multiplicity
 _atom_site_fract_x
 _atom_site_fract_y
 _atom_site_fract_z
 _atom_site_occupancy
  Li  Li0  1  0.295350  0.897043  0.214440  1
  Li  Li1  1  0.214781  0.618246  0.473884  1
  Li  Li2  1  0.629679  0.782470  0.073407  1
  Li  Li3  1  0.862992  0.338620  0.162296  1
  Li  Li4  1  0.594961  0.080759  0.871064  1
  Li  Li5  1  0.263242  0.269382  0.944276  1
  Li  Li6  1  0.448652  0.424709  0.622144  1
  Li  Li7  1  0.796378  0.198311  0.998852  1
  I  I8  1  0.678663  0.633246  0.744736  1
  I  I9  1  0.535645  0.530242  0.397048  1
  I  I10  1  0.209010  0.013596  0.134933  1
  I  I11  1  0.639392  0.168318  0.883757  1
  I  I12  1  0.899534  0.406457  0.452572  1
