# generated using pymatgen
data_Dy3Ho5Si12Ir3Rh
_symmetry_space_group_name_H-M   'P 1'
_cell_length_a   8.16780001
_cell_length_b   8.16779987
_cell_length_c   7.89091300
_cell_angle_alpha   89.99862178
_cell_angle_beta   90.00137726
_cell_angle_gamma   120.00504610
_symmetry_Int_Tables_number   1
_chemical_formula_structural   Dy3Ho5Si12Ir3Rh
_chemical_formula_sum   'Dy3 Ho5 Si12 Ir3 Rh1'
_cell_volume   455.87521893
_cell_formula_units_Z   1
loop_
 _symmetry_equiv_pos_site_id
 _symmetry_equiv_pos_as_xyz
  1  'x, y, z'
loop_
 _atom_site_type_symbol
 _atom_site_label
 _atom_site_symmetry_multiplicity
 _atom_site_fract_x
 _atom_site_fract_y
 _atom_site_fract_z
 _atom_site_occupancy
  Dy  Dy0  1  0.999994  0.000006  0.249036  1
  Dy  Dy1  1  0.000009  0.999991  0.750337  1
  Dy  Dy2  1  0.509789  0.490211  0.250109  1
  Ho  Ho3  1  0.509783  0.019538  0.250118  1
  Ho  Ho4  1  0.980462  0.490217  0.250118  1
  Ho  Ho5  1  0.490739  0.509261  0.749868  1
  Ho  Ho6  1  0.490733  0.981478  0.749870  1
  Ho  Ho7  1  0.018522  0.509267  0.749870  1
  Si  Si8  1  0.166801  0.833199  0.498945  1
  Si  Si9  1  0.166768  0.333584  0.498959  1
  Si  Si10  1  0.666416  0.833232  0.498959  1
  Si  Si11  1  0.833255  0.166745  0.500617  1
  Si  Si12  1  0.833306  0.666541  0.500662  1
  Si  Si13  1  0.333459  0.166694  0.500662  1
  Si  Si14  1  0.833349  0.166651  0.999378  1
  Si  Si15  1  0.833398  0.666728  0.999334  1
  Si  Si16  1  0.333272  0.166602  0.999334  1
  Si  Si17  1  0.167220  0.832780  0.000067  1
  Si  Si18  1  0.167183  0.334416  0.000051  1
  Si  Si19  1  0.665584  0.832817  0.000051  1
  Ir  Ir20  1  0.333277  0.666723  0.468233  1
  Ir  Ir21  1  0.666696  0.333304  0.533662  1
  Ir  Ir22  1  0.666695  0.333305  0.965346  1
  Rh  Rh23  1  0.333287  0.666713  0.036414  1
