# generated using pymatgen
data_Tm4ReMoOs6
_symmetry_space_group_name_H-M   'P 1'
_cell_length_a   5.48079965
_cell_length_b   5.21918561
_cell_length_c   8.89154300
_cell_angle_alpha   90.00000000
_cell_angle_beta   90.00000000
_cell_angle_gamma   121.51956627
_symmetry_Int_Tables_number   1
_chemical_formula_structural   Tm4ReMoOs6
_chemical_formula_sum   'Tm4 Re1 Mo1 Os6'
_cell_volume   216.81966509
_cell_formula_units_Z   1
loop_
 _symmetry_equiv_pos_site_id
 _symmetry_equiv_pos_as_xyz
  1  'x, y, z'
loop_
 _atom_site_type_symbol
 _atom_site_label
 _atom_site_symmetry_multiplicity
 _atom_site_fract_x
 _atom_site_fract_y
 _atom_site_fract_z
 _atom_site_occupancy
  Tm  Tm0  1  0.669399  0.339051  0.563392  1
  Tm  Tm1  1  0.330724  0.661780  0.434681  1
  Tm  Tm2  1  0.330724  0.661780  0.065319  1
  Tm  Tm3  1  0.669399  0.339051  0.936608  1
  Re  Re4  1  0.830173  0.660971  0.250000  1
  Mo  Mo5  1  0.169054  0.338287  0.750000  1
  Os  Os6  1  0.999407  0.997612  0.498703  1
  Os  Os7  1  0.999407  0.997612  0.001297  1
  Os  Os8  1  0.173168  0.828026  0.750000  1
  Os  Os9  1  0.655308  0.828776  0.750000  1
  Os  Os10  1  0.827245  0.173466  0.250000  1
  Os  Os11  1  0.345989  0.173589  0.250000  1
