# generated using pymatgen
data_Er4Al18(NiIr)3
_symmetry_space_group_name_H-M   'P 1'
_cell_length_a   7.47277115
_cell_length_b   7.47277066
_cell_length_c   9.28334600
_cell_angle_alpha   89.99191373
_cell_angle_beta   89.99191986
_cell_angle_gamma   119.58420923
_symmetry_Int_Tables_number   1
_chemical_formula_structural   Er4Al18(NiIr)3
_chemical_formula_sum   'Er4 Al18 Ni3 Ir3'
_cell_volume   450.81969730
_cell_formula_units_Z   1
loop_
 _symmetry_equiv_pos_site_id
 _symmetry_equiv_pos_as_xyz
  1  'x, y, z'
loop_
 _atom_site_type_symbol
 _atom_site_label
 _atom_site_symmetry_multiplicity
 _atom_site_fract_x
 _atom_site_fract_y
 _atom_site_fract_z
 _atom_site_occupancy
  Er  Er0  1  0.994744  0.670772  0.249843  1
  Er  Er1  1  0.005256  0.329228  0.750157  1
  Er  Er2  1  0.670772  0.994744  0.249843  1
  Er  Er3  1  0.329228  0.005256  0.750157  1
  Al  Al4  1  0.125910  0.125910  0.245351  1
  Al  Al5  1  0.874090  0.874090  0.754649  1
  Al  Al6  1  0.997147  0.334578  0.073807  1
  Al  Al7  1  0.002853  0.665422  0.926193  1
  Al  Al8  1  0.999267  0.665039  0.574929  1
  Al  Al9  1  0.334961  0.000733  0.425071  1
  Al  Al10  1  0.000733  0.334961  0.425071  1
  Al  Al11  1  0.665039  0.999267  0.574929  1
  Al  Al12  1  0.665422  0.002853  0.926193  1
  Al  Al13  1  0.334578  0.997147  0.073807  1
  Al  Al14  1  0.333382  0.333382  0.552854  1
  Al  Al15  1  0.666618  0.666618  0.447146  1
  Al  Al16  1  0.668393  0.668393  0.052270  1
  Al  Al17  1  0.331607  0.331607  0.947730  1
  Al  Al18  1  0.339343  0.550764  0.245736  1
  Al  Al19  1  0.660657  0.449236  0.754264  1
  Al  Al20  1  0.550764  0.339343  0.245736  1
  Al  Al21  1  0.449236  0.660657  0.754264  1
  Ni  Ni22  1  0.671791  0.328209  0.000000  1
  Ni  Ni23  1  0.328209  0.671791  0.000000  1
  Ni  Ni24  1  0.000000  0.000000  0.000000  1
  Ir  Ir25  1  0.328234  0.671766  0.500000  1
  Ir  Ir26  1  0.671766  0.328234  0.500000  1
  Ir  Ir27  1  0.000000  0.000000  0.500000  1
