# generated using pymatgen
data_Th(Al5Tc)2
_symmetry_space_group_name_H-M   'P 1'
_cell_length_a   6.93408515
_cell_length_b   6.93408602
_cell_length_c   9.22930700
_cell_angle_alpha   90.00000000
_cell_angle_beta   90.00000000
_cell_angle_gamma   96.99604699
_symmetry_Int_Tables_number   1
_chemical_formula_structural   Th(Al5Tc)2
_chemical_formula_sum   'Th2 Al20 Tc4'
_cell_volume   440.45533600
_cell_formula_units_Z   2
loop_
 _symmetry_equiv_pos_site_id
 _symmetry_equiv_pos_as_xyz
  1  'x, y, z'
loop_
 _atom_site_type_symbol
 _atom_site_label
 _atom_site_symmetry_multiplicity
 _atom_site_fract_x
 _atom_site_fract_y
 _atom_site_fract_z
 _atom_site_occupancy
  Th  Th0  1  0.874741  0.125259  0.750000  1
  Th  Th1  1  0.125259  0.874741  0.250000  1
  Al  Al2  1  0.520336  0.779047  0.750000  1
  Al  Al3  1  0.479664  0.220953  0.250000  1
  Al  Al4  1  0.593071  0.863621  0.250000  1
  Al  Al5  1  0.771040  0.771040  0.000000  1
  Al  Al6  1  0.159854  0.840146  0.600467  1
  Al  Al7  1  0.228960  0.228960  0.000000  1
  Al  Al8  1  0.136379  0.406929  0.250000  1
  Al  Al9  1  0.621638  0.378362  0.952274  1
  Al  Al10  1  0.840146  0.159854  0.100467  1
  Al  Al11  1  0.378362  0.621638  0.452274  1
  Al  Al12  1  0.159854  0.840146  0.899533  1
  Al  Al13  1  0.220953  0.479664  0.750000  1
  Al  Al14  1  0.378362  0.621638  0.047726  1
  Al  Al15  1  0.840146  0.159854  0.399533  1
  Al  Al16  1  0.621638  0.378362  0.547726  1
  Al  Al17  1  0.406929  0.136379  0.750000  1
  Al  Al18  1  0.779047  0.520336  0.250000  1
  Al  Al19  1  0.771040  0.771040  0.500000  1
  Al  Al20  1  0.228960  0.228960  0.500000  1
  Al  Al21  1  0.863621  0.593071  0.750000  1
  Tc  Tc22  1  0.000000  0.500000  0.500000  1
  Tc  Tc23  1  0.000000  0.500000  0.000000  1
  Tc  Tc24  1  0.500000  0.000000  0.000000  1
  Tc  Tc25  1  0.500000  0.000000  0.500000  1
