# generated using pymatgen
data_Nd3Al4Cl
_symmetry_space_group_name_H-M   'P 1'
_cell_length_a   8.09948169
_cell_length_b   8.09948115
_cell_length_c   8.09948101
_cell_angle_alpha   91.38255159
_cell_angle_beta   119.20501583
_cell_angle_gamma   119.20502012
_symmetry_Int_Tables_number   1
_chemical_formula_structural   Nd3Al4Cl
_chemical_formula_sum   'Nd6 Al8 Cl2'
_cell_volume   380.10821556
_cell_formula_units_Z   2
loop_
 _symmetry_equiv_pos_site_id
 _symmetry_equiv_pos_as_xyz
  1  'x, y, z'
loop_
 _atom_site_type_symbol
 _atom_site_label
 _atom_site_symmetry_multiplicity
 _atom_site_fract_x
 _atom_site_fract_y
 _atom_site_fract_z
 _atom_site_occupancy
  Nd  Nd0  1  0.820425  0.660213  0.160213  1
  Nd  Nd1  1  0.000000  0.250000  0.250000  1
  Nd  Nd2  1  0.500000  0.160213  0.339788  1
  Nd  Nd3  1  0.500000  0.839788  0.660213  1
  Nd  Nd4  1  0.000000  0.750000  0.750000  1
  Nd  Nd5  1  0.179576  0.339787  0.839788  1
  Al  Al6  1  0.500000  0.841457  0.054166  1
  Al  Al7  1  0.212709  0.658544  0.158543  1
  Al  Al8  1  0.500000  0.554167  0.341457  1
  Al  Al9  1  0.787292  0.945834  0.445834  1
  Al  Al10  1  0.212709  0.054166  0.554167  1
  Al  Al11  1  0.500000  0.445834  0.658544  1
  Al  Al12  1  0.787292  0.341457  0.841457  1
  Al  Al13  1  0.500000  0.158543  0.945834  1
  Cl  Cl14  1  0.000000  0.000000  0.000000  1
  Cl  Cl15  1  0.000000  0.500000  0.500000  1
