# generated using pymatgen
data_La8Mg(SnAu4)5
_symmetry_space_group_name_H-M   'P 1'
_cell_length_a   8.92551408
_cell_length_b   8.92551342
_cell_length_c   10.40436507
_cell_angle_alpha   90.09304517
_cell_angle_beta   90.09304622
_cell_angle_gamma   108.57901328
_symmetry_Int_Tables_number   1
_chemical_formula_structural   La8Mg(SnAu4)5
_chemical_formula_sum   'La8 Mg1 Sn5 Au20'
_cell_volume   785.66259953
_cell_formula_units_Z   1
loop_
 _symmetry_equiv_pos_site_id
 _symmetry_equiv_pos_as_xyz
  1  'x, y, z'
loop_
 _atom_site_type_symbol
 _atom_site_label
 _atom_site_symmetry_multiplicity
 _atom_site_fract_x
 _atom_site_fract_y
 _atom_site_fract_z
 _atom_site_occupancy
  La  La0  1  0.703298  0.296702  0.000000  1
  La  La1  1  0.296702  0.703298  0.000000  1
  La  La2  1  0.796189  0.203811  0.500000  1
  La  La3  1  0.203811  0.796189  0.500000  1
  La  La4  1  0.297526  0.297526  0.203351  1
  La  La5  1  0.702474  0.702474  0.796649  1
  La  La6  1  0.200332  0.200332  0.703972  1
  La  La7  1  0.799668  0.799668  0.296028  1
  Mg  Mg8  1  0.500000  0.500000  0.500000  1
  Sn  Sn9  1  0.010733  0.510278  0.248835  1
  Sn  Sn10  1  0.989267  0.489722  0.751165  1
  Sn  Sn11  1  0.489722  0.989267  0.751165  1
  Sn  Sn12  1  0.510278  0.010733  0.248835  1
  Sn  Sn13  1  0.000000  0.000000  0.000000  1
  Au  Au14  1  0.094801  0.094801  0.406696  1
  Au  Au15  1  0.905199  0.905199  0.593304  1
  Au  Au16  1  0.405506  0.405506  0.905105  1
  Au  Au17  1  0.594494  0.594494  0.094895  1
  Au  Au18  1  0.898206  0.169691  0.209310  1
  Au  Au19  1  0.101794  0.830309  0.790690  1
  Au  Au20  1  0.598448  0.335013  0.702320  1
  Au  Au21  1  0.664987  0.401552  0.297680  1
  Au  Au22  1  0.401552  0.664987  0.297680  1
  Au  Au23  1  0.335013  0.598448  0.702320  1
  Au  Au24  1  0.830309  0.101794  0.790690  1
  Au  Au25  1  0.169691  0.898206  0.209310  1
  Au  Au26  1  0.925977  0.658685  0.028169  1
  Au  Au27  1  0.074023  0.341315  0.971831  1
  Au  Au28  1  0.572313  0.832312  0.528559  1
  Au  Au29  1  0.167688  0.427687  0.471441  1
  Au  Au30  1  0.427687  0.167688  0.471441  1
  Au  Au31  1  0.832312  0.572313  0.528559  1
  Au  Au32  1  0.341315  0.074023  0.971831  1
  Au  Au33  1  0.658685  0.925977  0.028169  1
