# generated using pymatgen
data_La2InSn7Rh4
_symmetry_space_group_name_H-M   'P 1'
_cell_length_a   4.59704700
_cell_length_b   7.20763200
_cell_length_c   18.75853700
_cell_angle_alpha   90.00000000
_cell_angle_beta   90.00000000
_cell_angle_gamma   90.00000000
_symmetry_Int_Tables_number   1
_chemical_formula_structural   La2InSn7Rh4
_chemical_formula_sum   'La4 In2 Sn14 Rh8'
_cell_volume   621.54204587
_cell_formula_units_Z   2
loop_
 _symmetry_equiv_pos_site_id
 _symmetry_equiv_pos_as_xyz
  1  'x, y, z'
loop_
 _atom_site_type_symbol
 _atom_site_label
 _atom_site_symmetry_multiplicity
 _atom_site_fract_x
 _atom_site_fract_y
 _atom_site_fract_z
 _atom_site_occupancy
  La  La0  1  0.250000  0.999016  0.858610  1
  La  La1  1  0.250000  0.500984  0.358610  1
  La  La2  1  0.750000  0.999630  0.141110  1
  La  La3  1  0.750000  0.500370  0.641110  1
  In  In4  1  0.250000  0.305133  0.181817  1
  In  In5  1  0.250000  0.194867  0.681817  1
  Sn  Sn6  1  0.750000  0.694406  0.818214  1
  Sn  Sn7  1  0.750000  0.805594  0.318214  1
  Sn  Sn8  1  0.250000  0.719420  0.194730  1
  Sn  Sn9  1  0.250000  0.780580  0.694730  1
  Sn  Sn10  1  0.750000  0.278502  0.802782  1
  Sn  Sn11  1  0.750000  0.221498  0.302782  1
  Sn  Sn12  1  0.250000  0.862776  0.031323  1
  Sn  Sn13  1  0.250000  0.637224  0.531323  1
  Sn  Sn14  1  0.750000  0.136918  0.968558  1
  Sn  Sn15  1  0.750000  0.363082  0.468558  1
  Sn  Sn16  1  0.250000  0.517698  0.931542  1
  Sn  Sn17  1  0.250000  0.982302  0.431542  1
  Sn  Sn18  1  0.750000  0.480522  0.070115  1
  Sn  Sn19  1  0.750000  0.019478  0.570115  1
  Rh  Rh20  1  0.250000  0.250838  0.033663  1
  Rh  Rh21  1  0.250000  0.249162  0.533663  1
  Rh  Rh22  1  0.750000  0.747097  0.965799  1
  Rh  Rh23  1  0.750000  0.752903  0.465799  1
  Rh  Rh24  1  0.250000  0.014803  0.286665  1
  Rh  Rh25  1  0.250000  0.485197  0.786665  1
  Rh  Rh26  1  0.750000  0.974747  0.715071  1
  Rh  Rh27  1  0.750000  0.525253  0.215071  1
