# generated using pymatgen
data_DyY2Hg5
_symmetry_space_group_name_H-M   'P 1'
_cell_length_a   6.39221300
_cell_length_b   6.39221239
_cell_length_c   10.18214300
_cell_angle_alpha   90.00000000
_cell_angle_beta   90.00000000
_cell_angle_gamma   105.07689784
_symmetry_Int_Tables_number   1
_chemical_formula_structural   DyY2Hg5
_chemical_formula_sum   'Dy2 Y4 Hg10'
_cell_volume   401.72494932
_cell_formula_units_Z   2
loop_
 _symmetry_equiv_pos_site_id
 _symmetry_equiv_pos_as_xyz
  1  'x, y, z'
loop_
 _atom_site_type_symbol
 _atom_site_label
 _atom_site_symmetry_multiplicity
 _atom_site_fract_x
 _atom_site_fract_y
 _atom_site_fract_z
 _atom_site_occupancy
  Dy  Dy0  1  0.569220  0.569220  0.250000  1
  Dy  Dy1  1  0.430780  0.430780  0.750000  1
  Y  Y2  1  0.787385  0.212615  0.000000  1
  Y  Y3  1  0.212615  0.787385  0.000000  1
  Y  Y4  1  0.212615  0.787385  0.500000  1
  Y  Y5  1  0.787385  0.212615  0.500000  1
  Hg  Hg6  1  0.037027  0.477106  0.250000  1
  Hg  Hg7  1  0.962973  0.522894  0.750000  1
  Hg  Hg8  1  0.477106  0.037027  0.250000  1
  Hg  Hg9  1  0.522894  0.962973  0.750000  1
  Hg  Hg10  1  0.970850  0.970850  0.250000  1
  Hg  Hg11  1  0.029150  0.029150  0.750000  1
  Hg  Hg12  1  0.293899  0.293899  0.029106  1
  Hg  Hg13  1  0.706101  0.706101  0.970894  1
  Hg  Hg14  1  0.706101  0.706101  0.529106  1
  Hg  Hg15  1  0.293899  0.293899  0.470894  1
