# generated using pymatgen
data_Lu3Co2Sn3Au
_symmetry_space_group_name_H-M   'P 1'
_cell_length_a   7.51414000
_cell_length_b   7.51414076
_cell_length_c   3.68964400
_cell_angle_alpha   90.00000000
_cell_angle_beta   90.00000000
_cell_angle_gamma   119.99999667
_symmetry_Int_Tables_number   1
_chemical_formula_structural   Lu3Co2Sn3Au
_chemical_formula_sum   'Lu3 Co2 Sn3 Au1'
_cell_volume   180.41544730
_cell_formula_units_Z   1
loop_
 _symmetry_equiv_pos_site_id
 _symmetry_equiv_pos_as_xyz
  1  'x, y, z'
loop_
 _atom_site_type_symbol
 _atom_site_label
 _atom_site_symmetry_multiplicity
 _atom_site_fract_x
 _atom_site_fract_y
 _atom_site_fract_z
 _atom_site_occupancy
  Lu  Lu0  1  0.411615  0.390310  0.500000  1
  Lu  Lu1  1  0.609690  0.021305  0.500000  1
  Lu  Lu2  1  0.978695  0.588385  0.500000  1
  Co  Co3  1  0.666667  0.333333  0.000000  1
  Co  Co4  1  0.000000  0.000000  0.500000  1
  Sn  Sn5  1  0.746702  0.741144  0.000000  1
  Sn  Sn6  1  0.258856  0.005557  0.000000  1
  Sn  Sn7  1  0.994443  0.253298  0.000000  1
  Au  Au8  1  0.333333  0.666667  0.000000  1
