# generated using pymatgen
data_Ho12Co5Sn
_symmetry_space_group_name_H-M   'P 1'
_cell_length_a   8.21415867
_cell_length_b   8.21415885
_cell_length_c   8.21415800
_cell_angle_alpha   106.89485809
_cell_angle_beta   110.75095094
_cell_angle_gamma   110.79817033
_symmetry_Int_Tables_number   1
_chemical_formula_structural   Ho12Co5Sn
_chemical_formula_sum   'Ho12 Co5 Sn1'
_cell_volume   426.00226973
_cell_formula_units_Z   1
loop_
 _symmetry_equiv_pos_site_id
 _symmetry_equiv_pos_as_xyz
  1  'x, y, z'
loop_
 _atom_site_type_symbol
 _atom_site_label
 _atom_site_symmetry_multiplicity
 _atom_site_fract_x
 _atom_site_fract_y
 _atom_site_fract_z
 _atom_site_occupancy
  Ho  Ho0  1  0.474969  0.289787  0.185182  1
  Ho  Ho1  1  0.104605  0.289787  0.814818  1
  Ho  Ho2  1  0.895395  0.710213  0.185182  1
  Ho  Ho3  1  0.525031  0.710213  0.814818  1
  Ho  Ho4  1  0.305387  0.619564  0.314177  1
  Ho  Ho5  1  0.305387  0.991211  0.685823  1
  Ho  Ho6  1  0.694613  0.380436  0.685823  1
  Ho  Ho7  1  0.694613  0.008789  0.314177  1
  Ho  Ho8  1  0.193464  0.210386  0.403850  1
  Ho  Ho9  1  0.806536  0.789614  0.596150  1
  Ho  Ho10  1  0.193464  0.789614  0.983077  1
  Ho  Ho11  1  0.806536  0.210386  0.016923  1
  Co  Co12  1  0.500000  0.612612  0.112612  1
  Co  Co13  1  0.500000  0.387388  0.887388  1
  Co  Co14  1  0.375893  0.000000  0.375893  1
  Co  Co15  1  0.624107  0.000000  0.624107  1
  Co  Co16  1  0.000000  0.000000  0.000000  1
  Sn  Sn17  1  0.000000  0.500000  0.500000  1
