# generated using pymatgen
data_SrPr2Sm4FeI12
_symmetry_space_group_name_H-M   'P 1'
_cell_length_a   10.00132445
_cell_length_b   9.96966576
_cell_length_c   9.96124883
_cell_angle_alpha   106.34771532
_cell_angle_beta   106.41455410
_cell_angle_gamma   106.84456244
_symmetry_Int_Tables_number   1
_chemical_formula_structural   SrPr2Sm4FeI12
_chemical_formula_sum   'Sr1 Pr2 Sm4 Fe1 I12'
_cell_volume   837.41870079
_cell_formula_units_Z   1
loop_
 _symmetry_equiv_pos_site_id
 _symmetry_equiv_pos_as_xyz
  1  'x, y, z'
loop_
 _atom_site_type_symbol
 _atom_site_label
 _atom_site_symmetry_multiplicity
 _atom_site_fract_x
 _atom_site_fract_y
 _atom_site_fract_z
 _atom_site_occupancy
  Sr  Sr0  1  0.000000  0.000000  0.000000  1
  Pr  Pr1  1  0.593901  0.791104  0.521913  1
  Pr  Pr2  1  0.406099  0.208896  0.478087  1
  Sm  Sm3  1  0.804302  0.524528  0.598621  1
  Sm  Sm4  1  0.522253  0.591937  0.785619  1
  Sm  Sm5  1  0.195698  0.475472  0.401379  1
  Sm  Sm6  1  0.477747  0.408063  0.214381  1
  Fe  Fe7  1  0.500000  0.500000  0.500000  1
  I  I8  1  0.729891  0.186505  0.576769  1
  I  I9  1  0.956594  0.872367  0.642904  1
  I  I10  1  0.572476  0.720504  0.177500  1
  I  I11  1  0.129784  0.359602  0.048917  1
  I  I12  1  0.641354  0.950630  0.876149  1
  I  I13  1  0.870216  0.640398  0.951083  1
  I  I14  1  0.043406  0.127633  0.357096  1
  I  I15  1  0.816253  0.426652  0.275625  1
  I  I16  1  0.358646  0.049370  0.123851  1
  I  I17  1  0.270109  0.813495  0.423231  1
  I  I18  1  0.183747  0.573348  0.724375  1
  I  I19  1  0.427524  0.279496  0.822500  1
