# generated using pymatgen
data_U2TaReC3N
_symmetry_space_group_name_H-M   'P 1'
_cell_length_a   3.22466900
_cell_length_b   5.62686100
_cell_length_c   11.08867500
_cell_angle_alpha   90.00000000
_cell_angle_beta   90.00000000
_cell_angle_gamma   90.00000000
_symmetry_Int_Tables_number   1
_chemical_formula_structural   U2TaReC3N
_chemical_formula_sum   'U4 Ta2 Re2 C6 N2'
_cell_volume   201.20139354
_cell_formula_units_Z   2
loop_
 _symmetry_equiv_pos_site_id
 _symmetry_equiv_pos_as_xyz
  1  'x, y, z'
loop_
 _atom_site_type_symbol
 _atom_site_label
 _atom_site_symmetry_multiplicity
 _atom_site_fract_x
 _atom_site_fract_y
 _atom_site_fract_z
 _atom_site_occupancy
  U  U0  1  0.250000  0.079268  0.856476  1
  U  U1  1  0.250000  0.579268  0.643524  1
  U  U2  1  0.750000  0.918039  0.141037  1
  U  U3  1  0.750000  0.418039  0.358963  1
  Ta  Ta4  1  0.250000  0.422275  0.099800  1
  Ta  Ta5  1  0.250000  0.922275  0.400200  1
  Re  Re6  1  0.750000  0.577999  0.895490  1
  Re  Re7  1  0.750000  0.077999  0.604510  1
  C  C8  1  0.750000  0.840075  0.754083  1
  C  C9  1  0.750000  0.340075  0.745917  1
  C  C10  1  0.250000  0.752558  0.991257  1
  C  C11  1  0.250000  0.252558  0.508743  1
  C  C12  1  0.750000  0.247014  0.003271  1
  C  C13  1  0.750000  0.747014  0.496729  1
  N  N14  1  0.250000  0.162773  0.242751  1
  N  N15  1  0.250000  0.662773  0.257249  1
