# generated using pymatgen
data_Tb14Dy6(Ir3Rh)3
_symmetry_space_group_name_H-M   'P 1'
_cell_length_a   10.91230004
_cell_length_b   10.91253401
_cell_length_c   6.40482903
_cell_angle_alpha   90.00426966
_cell_angle_beta   89.98999557
_cell_angle_gamma   89.99888708
_symmetry_Int_Tables_number   1
_chemical_formula_structural   Tb14Dy6(Ir3Rh)3
_chemical_formula_sum   'Tb14 Dy6 Ir9 Rh3'
_cell_volume   762.69244097
_cell_formula_units_Z   1
loop_
 _symmetry_equiv_pos_site_id
 _symmetry_equiv_pos_as_xyz
  1  'x, y, z'
loop_
 _atom_site_type_symbol
 _atom_site_label
 _atom_site_symmetry_multiplicity
 _atom_site_fract_x
 _atom_site_fract_y
 _atom_site_fract_z
 _atom_site_occupancy
  Tb  Tb0  1  0.290399  0.088816  0.379840  1
  Tb  Tb1  1  0.290261  0.910739  0.879650  1
  Tb  Tb2  1  0.709692  0.089199  0.879743  1
  Tb  Tb3  1  0.709557  0.911242  0.379931  1
  Tb  Tb4  1  0.589196  0.790311  0.879720  1
  Tb  Tb5  1  0.588751  0.209551  0.379915  1
  Tb  Tb6  1  0.411208  0.790440  0.379950  1
  Tb  Tb7  1  0.410762  0.209692  0.879760  1
  Tb  Tb8  1  0.208777  0.411249  0.619042  1
  Tb  Tb9  1  0.209200  0.589068  0.121391  1
  Tb  Tb10  1  0.790805  0.410864  0.121413  1
  Tb  Tb11  1  0.791229  0.588815  0.619075  1
  Tb  Tb12  1  0.910971  0.709292  0.121410  1
  Tb  Tb13  1  0.911289  0.291130  0.619067  1
  Dy  Dy14  1  0.088772  0.708750  0.618895  1
  Dy  Dy15  1  0.089083  0.290831  0.121337  1
  Dy  Dy16  1  0.000049  0.999904  0.500311  1
  Dy  Dy17  1  0.000049  0.000096  0.000105  1
  Dy  Dy18  1  0.499994  0.499984  0.000065  1
  Dy  Dy19  1  0.499994  0.500016  0.500272  1
  Ir  Ir20  1  0.845987  0.152979  0.249731  1
  Ir  Ir21  1  0.846227  0.846591  0.749692  1
  Ir  Ir22  1  0.153833  0.153455  0.750137  1
  Ir  Ir23  1  0.154066  0.846982  0.250168  1
  Ir  Ir24  1  0.653343  0.346102  0.749781  1
  Ir  Ir25  1  0.652911  0.654136  0.249816  1
  Ir  Ir26  1  0.346895  0.345818  0.249738  1
  Ir  Ir27  1  0.346465  0.653947  0.749707  1
  Ir  Ir28  1  0.000137  0.500029  0.375210  1
  Rh  Rh29  1  0.499994  0.000009  0.124340  1
  Rh  Rh30  1  0.499997  0.999990  0.624624  1
  Rh  Rh31  1  0.000107  0.499973  0.876165  1
