# generated using pymatgen
data_Sm5HoNiBr10
_symmetry_space_group_name_H-M   'P 1'
_cell_length_a   7.41754472
_cell_length_b   9.32067430
_cell_length_c   9.34466979
_cell_angle_alpha   108.39226062
_cell_angle_beta   96.53503268
_cell_angle_gamma   105.50116851
_symmetry_Int_Tables_number   1
_chemical_formula_structural   Sm5HoNiBr10
_chemical_formula_sum   'Sm5 Ho1 Ni1 Br10'
_cell_volume   576.72118449
_cell_formula_units_Z   1
loop_
 _symmetry_equiv_pos_site_id
 _symmetry_equiv_pos_as_xyz
  1  'x, y, z'
loop_
 _atom_site_type_symbol
 _atom_site_label
 _atom_site_symmetry_multiplicity
 _atom_site_fract_x
 _atom_site_fract_y
 _atom_site_fract_z
 _atom_site_occupancy
  Sm  Sm0  1  0.028345  0.702503  0.403830  1
  Sm  Sm1  1  0.968419  0.296177  0.594027  1
  Sm  Sm2  1  0.871686  0.952788  0.744565  1
  Sm  Sm3  1  0.123640  0.044539  0.254462  1
  Sm  Sm4  1  0.358243  0.133924  0.678021  1
  Ho  Ho5  1  0.648373  0.869538  0.326488  1
  Ni  Ni6  1  0.999886  0.999394  0.500666  1
  Br  Br7  1  0.452172  0.819807  0.579409  1
  Br  Br8  1  0.549122  0.174421  0.412675  1
  Br  Br9  1  0.912152  0.630521  0.672733  1
  Br  Br10  1  0.085407  0.367723  0.324832  1
  Br  Br11  1  0.251587  0.082054  0.956474  1
  Br  Br12  1  0.741231  0.913796  0.047104  1
  Br  Br13  1  0.354700  0.456271  0.771105  1
  Br  Br14  1  0.640012  0.551709  0.226630  1
  Br  Br15  1  0.786103  0.257976  0.851477  1
  Br  Br16  1  0.228924  0.746859  0.155503  1
