# generated using pymatgen
data_Hf4Cd(AsO4)6
_symmetry_space_group_name_H-M   'P 1'
_cell_length_a   9.17091299
_cell_length_b   9.17091272
_cell_length_c   9.36329235
_cell_angle_alpha   60.67736055
_cell_angle_beta   60.67736238
_cell_angle_gamma   60.00000682
_symmetry_Int_Tables_number   1
_chemical_formula_structural   Hf4Cd(AsO4)6
_chemical_formula_sum   'Hf4 Cd1 As6 O24'
_cell_volume   562.48393913
_cell_formula_units_Z   1
loop_
 _symmetry_equiv_pos_site_id
 _symmetry_equiv_pos_as_xyz
  1  'x, y, z'
loop_
 _atom_site_type_symbol
 _atom_site_label
 _atom_site_symmetry_multiplicity
 _atom_site_fract_x
 _atom_site_fract_y
 _atom_site_fract_z
 _atom_site_occupancy
  Hf  Hf0  1  0.139005  0.139005  0.582983  1
  Hf  Hf1  1  0.860995  0.860995  0.417017  1
  Hf  Hf2  1  0.645313  0.645313  0.064061  1
  Hf  Hf3  1  0.354687  0.354687  0.935939  1
  Cd  Cd4  1  0.500000  0.500000  0.500000  1
  As  As5  1  0.957999  0.257088  0.259701  1
  As  As6  1  0.257088  0.525212  0.259701  1
  As  As7  1  0.525212  0.957999  0.259701  1
  As  As8  1  0.042001  0.742912  0.740299  1
  As  As9  1  0.742912  0.474788  0.740299  1
  As  As10  1  0.474788  0.042001  0.740299  1
  O  O11  1  0.982635  0.262116  0.425287  1
  O  O12  1  0.262116  0.329962  0.425287  1
  O  O13  1  0.329962  0.982635  0.425287  1
  O  O14  1  0.017365  0.737884  0.574713  1
  O  O15  1  0.737884  0.670038  0.574713  1
  O  O16  1  0.670038  0.017365  0.574713  1
  O  O17  1  0.507665  0.882834  0.930263  1
  O  O18  1  0.882834  0.679240  0.930263  1
  O  O19  1  0.679240  0.507665  0.930263  1
  O  O20  1  0.492335  0.117166  0.069737  1
  O  O21  1  0.117166  0.320760  0.069737  1
  O  O22  1  0.320760  0.492335  0.069737  1
  O  O23  1  0.027872  0.942432  0.722776  1
  O  O24  1  0.942432  0.306920  0.722776  1
  O  O25  1  0.306920  0.027872  0.722776  1
  O  O26  1  0.972128  0.057568  0.277224  1
  O  O27  1  0.057568  0.693080  0.277224  1
  O  O28  1  0.693080  0.972128  0.277224  1
  O  O29  1  0.587141  0.747554  0.256150  1
  O  O30  1  0.747554  0.409155  0.256150  1
  O  O31  1  0.409155  0.587141  0.256150  1
  O  O32  1  0.412859  0.252446  0.743850  1
  O  O33  1  0.252446  0.590845  0.743850  1
  O  O34  1  0.590845  0.412859  0.743850  1
