# generated using pymatgen
data_La15Mg(CdCo)4
_symmetry_space_group_name_H-M   'P 1'
_cell_length_a   9.91496316
_cell_length_b   9.91496243
_cell_length_c   9.88870400
_cell_angle_alpha   60.08756856
_cell_angle_beta   60.08757101
_cell_angle_gamma   60.10287134
_symmetry_Int_Tables_number   1
_chemical_formula_structural   La15Mg(CdCo)4
_chemical_formula_sum   'La15 Mg1 Cd4 Co4'
_cell_volume   688.83868332
_cell_formula_units_Z   1
loop_
 _symmetry_equiv_pos_site_id
 _symmetry_equiv_pos_as_xyz
  1  'x, y, z'
loop_
 _atom_site_type_symbol
 _atom_site_label
 _atom_site_symmetry_multiplicity
 _atom_site_fract_x
 _atom_site_fract_y
 _atom_site_fract_z
 _atom_site_occupancy
  La  La0  1  0.569024  0.937654  0.560128  1
  La  La1  1  0.569024  0.937654  0.933194  1
  La  La2  1  0.685242  0.685242  0.314758  1
  La  La3  1  0.151779  0.151779  0.535078  1
  La  La4  1  0.299817  0.692490  0.691056  1
  La  La5  1  0.151779  0.151779  0.161363  1
  La  La6  1  0.539448  0.152716  0.153917  1
  La  La7  1  0.299817  0.692490  0.316637  1
  La  La8  1  0.312412  0.312412  0.687588  1
  La  La9  1  0.692490  0.299817  0.691056  1
  La  La10  1  0.937654  0.569024  0.560128  1
  La  La11  1  0.556705  0.556705  0.943295  1
  La  La12  1  0.152716  0.539448  0.153917  1
  La  La13  1  0.692490  0.299817  0.316637  1
  La  La14  1  0.937654  0.569024  0.933194  1
  Mg  Mg15  1  0.934795  0.934795  0.565205  1
  Cd  Cd16  1  0.238569  0.922121  0.919654  1
  Cd  Cd17  1  0.922773  0.922773  0.917888  1
  Cd  Cd18  1  0.922773  0.922773  0.236564  1
  Cd  Cd19  1  0.922121  0.238569  0.919654  1
  Co  Co20  1  0.918713  0.371151  0.355068  1
  Co  Co21  1  0.360526  0.360526  0.916512  1
  Co  Co22  1  0.371151  0.918713  0.355068  1
  Co  Co23  1  0.360526  0.360526  0.362436  1
