# generated using pymatgen
data_YEr15(Tl3Fe)2
_symmetry_space_group_name_H-M   'P 1'
_cell_length_a   10.14321600
_cell_length_b   10.14321673
_cell_length_c   7.05478700
_cell_angle_alpha   90.00000000
_cell_angle_beta   90.00000000
_cell_angle_gamma   120.00000414
_symmetry_Int_Tables_number   1
_chemical_formula_structural   YEr15(Tl3Fe)2
_chemical_formula_sum   'Y1 Er15 Tl6 Fe2'
_cell_volume   628.58772902
_cell_formula_units_Z   1
loop_
 _symmetry_equiv_pos_site_id
 _symmetry_equiv_pos_as_xyz
  1  'x, y, z'
loop_
 _atom_site_type_symbol
 _atom_site_label
 _atom_site_symmetry_multiplicity
 _atom_site_fract_x
 _atom_site_fract_y
 _atom_site_fract_z
 _atom_site_occupancy
  Y  Y0  1  0.000000  0.000000  0.274639  1
  Er  Er1  1  0.000000  0.000000  0.774070  1
  Er  Er2  1  0.178861  0.821139  0.989488  1
  Er  Er3  1  0.820863  0.179137  0.490414  1
  Er  Er4  1  0.178861  0.357720  0.989488  1
  Er  Er5  1  0.642280  0.821139  0.989488  1
  Er  Er6  1  0.358274  0.179137  0.490414  1
  Er  Er7  1  0.820863  0.641726  0.490414  1
  Er  Er8  1  0.333333  0.666667  0.677842  1
  Er  Er9  1  0.666667  0.333333  0.177578  1
  Er  Er10  1  0.462352  0.537648  0.289249  1
  Er  Er11  1  0.537595  0.462405  0.789311  1
  Er  Er12  1  0.462352  0.924704  0.289249  1
  Er  Er13  1  0.075296  0.537648  0.289249  1
  Er  Er14  1  0.924812  0.462405  0.789311  1
  Er  Er15  1  0.537595  0.075188  0.789311  1
  Tl  Tl16  1  0.163385  0.836615  0.541593  1
  Tl  Tl17  1  0.836522  0.163478  0.041031  1
  Tl  Tl18  1  0.163385  0.326769  0.541593  1
  Tl  Tl19  1  0.673231  0.836615  0.541593  1
  Tl  Tl20  1  0.326958  0.163478  0.041031  1
  Tl  Tl21  1  0.836522  0.673042  0.041031  1
  Fe  Fe22  1  0.333333  0.666667  0.059343  1
  Fe  Fe23  1  0.666667  0.333333  0.559390  1
