# generated using pymatgen
data_Tm9Hf11Si15Rh
_symmetry_space_group_name_H-M   'P 1'
_cell_length_a   7.26630805
_cell_length_b   7.26247697
_cell_length_c   13.37356289
_cell_angle_alpha   89.94655908
_cell_angle_beta   89.89951842
_cell_angle_gamma   89.80742623
_symmetry_Int_Tables_number   1
_chemical_formula_structural   Tm9Hf11Si15Rh
_chemical_formula_sum   'Tm9 Hf11 Si15 Rh1'
_cell_volume   705.73619378
_cell_formula_units_Z   1
loop_
 _symmetry_equiv_pos_site_id
 _symmetry_equiv_pos_as_xyz
  1  'x, y, z'
loop_
 _atom_site_type_symbol
 _atom_site_label
 _atom_site_symmetry_multiplicity
 _atom_site_fract_x
 _atom_site_fract_y
 _atom_site_fract_z
 _atom_site_occupancy
  Tm  Tm0  1  0.495081  0.155249  0.534959  1
  Tm  Tm1  1  0.500751  0.843868  0.034795  1
  Tm  Tm2  1  0.654512  0.003628  0.289907  1
  Tm  Tm3  1  0.342334  0.992663  0.781739  1
  Tm  Tm4  1  0.854803  0.506788  0.961840  1
  Tm  Tm5  1  0.152180  0.496536  0.465961  1
  Tm  Tm6  1  0.003596  0.653573  0.714858  1
  Tm  Tm7  1  0.997615  0.344007  0.214345  1
  Tm  Tm8  1  0.515085  0.345881  0.122881  1
  Hf  Hf9  1  0.675588  0.324509  0.748086  1
  Hf  Hf10  1  0.322034  0.673991  0.252188  1
  Hf  Hf11  1  0.823263  0.824989  0.500986  1
  Hf  Hf12  1  0.170526  0.174336  0.001212  1
  Hf  Hf13  1  0.500860  0.648072  0.625901  1
  Hf  Hf14  1  0.849342  0.003506  0.872511  1
  Hf  Hf15  1  0.146119  0.997855  0.377135  1
  Hf  Hf16  1  0.646241  0.502597  0.377155  1
  Hf  Hf17  1  0.348730  0.500523  0.872581  1
  Hf  Hf18  1  0.000726  0.856471  0.129171  1
  Hf  Hf19  1  0.995646  0.146460  0.623721  1
  Si  Si20  1  0.204499  0.858852  0.569537  1
  Si  Si21  1  0.640062  0.702149  0.817053  1
  Si  Si22  1  0.356766  0.294901  0.322378  1
  Si  Si23  1  0.858150  0.204667  0.433599  1
  Si  Si24  1  0.142307  0.798499  0.931968  1
  Si  Si25  1  0.702922  0.650665  0.188468  1
  Si  Si26  1  0.294891  0.357920  0.681663  1
  Si  Si27  1  0.544363  0.200944  0.927802  1
  Si  Si28  1  0.448168  0.795614  0.437039  1
  Si  Si29  1  0.701966  0.950157  0.684010  1
  Si  Si30  1  0.297325  0.045233  0.189430  1
  Si  Si31  1  0.795495  0.452527  0.564879  1
  Si  Si32  1  0.206909  0.554608  0.063359  1
  Si  Si33  1  0.949868  0.704383  0.316729  1
  Si  Si34  1  0.051658  0.294846  0.810940  1
  Rh  Rh35  1  0.809617  0.138531  0.059214  1
