# generated using pymatgen
data_TbYb3Al14(Si2Ir3)2
_symmetry_space_group_name_H-M   'P 1'
_cell_length_a   7.50171565
_cell_length_b   7.47483201
_cell_length_c   9.45991010
_cell_angle_alpha   89.97680766
_cell_angle_beta   90.06329951
_cell_angle_gamma   119.85931992
_symmetry_Int_Tables_number   1
_chemical_formula_structural   TbYb3Al14(Si2Ir3)2
_chemical_formula_sum   'Tb1 Yb3 Al14 Si4 Ir6'
_cell_volume   460.03758021
_cell_formula_units_Z   1
loop_
 _symmetry_equiv_pos_site_id
 _symmetry_equiv_pos_as_xyz
  1  'x, y, z'
loop_
 _atom_site_type_symbol
 _atom_site_label
 _atom_site_symmetry_multiplicity
 _atom_site_fract_x
 _atom_site_fract_y
 _atom_site_fract_z
 _atom_site_occupancy
  Tb  Tb0  1  0.001052  0.668570  0.249898  1
  Yb  Yb1  1  0.006183  0.342321  0.754851  1
  Yb  Yb2  1  0.670478  0.001605  0.249996  1
  Yb  Yb3  1  0.319315  0.990434  0.745015  1
  Al  Al4  1  0.130452  0.127100  0.250054  1
  Al  Al5  1  0.872107  0.871280  0.749996  1
  Al  Al6  1  0.000403  0.328495  0.429801  1
  Al  Al7  1  0.669219  0.000346  0.575898  1
  Al  Al8  1  0.663176  0.998325  0.923755  1
  Al  Al9  1  0.340684  0.005112  0.070628  1
  Al  Al10  1  0.332692  0.334045  0.557107  1
  Al  Al11  1  0.663059  0.668437  0.442107  1
  Al  Al12  1  0.662510  0.668170  0.057816  1
  Al  Al13  1  0.335890  0.332283  0.942924  1
  Al  Al14  1  0.337301  0.546350  0.250249  1
  Al  Al15  1  0.660087  0.450168  0.751443  1
  Al  Al16  1  0.548063  0.343908  0.249691  1
  Al  Al17  1  0.455967  0.660570  0.748839  1
  Si  Si18  1  0.001590  0.327251  0.075165  1
  Si  Si19  1  0.996897  0.670766  0.931232  1
  Si  Si20  1  0.991331  0.659037  0.568623  1
  Si  Si21  1  0.341382  0.007899  0.424658  1
  Ir  Ir22  1  0.688864  0.338575  0.003773  1
  Ir  Ir23  1  0.311225  0.662161  0.998928  1
  Ir  Ir24  1  0.319358  0.678018  0.498679  1
  Ir  Ir25  1  0.672277  0.330103  0.498942  1
  Ir  Ir26  1  0.000684  0.998254  0.001479  1
  Ir  Ir27  1  0.007756  0.990416  0.498452  1
