# generated using pymatgen
data_Tb3Al2CdSi2Au
_symmetry_space_group_name_H-M   'P 1'
_cell_length_a   7.17884900
_cell_length_b   6.98811012
_cell_length_c   4.32534100
_cell_angle_alpha   90.00000000
_cell_angle_beta   90.00000000
_cell_angle_gamma   120.90707288
_symmetry_Int_Tables_number   1
_chemical_formula_structural   Tb3Al2CdSi2Au
_chemical_formula_sum   'Tb3 Al2 Cd1 Si2 Au1'
_cell_volume   186.17568486
_cell_formula_units_Z   1
loop_
 _symmetry_equiv_pos_site_id
 _symmetry_equiv_pos_as_xyz
  1  'x, y, z'
loop_
 _atom_site_type_symbol
 _atom_site_label
 _atom_site_symmetry_multiplicity
 _atom_site_fract_x
 _atom_site_fract_y
 _atom_site_fract_z
 _atom_site_occupancy
  Tb  Tb0  1  0.577518  0.000000  0.000000  1
  Tb  Tb1  1  0.005308  0.582066  0.000000  1
  Tb  Tb2  1  0.423243  0.417934  0.000000  1
  Al  Al3  1  0.994103  0.241413  0.500000  1
  Al  Al4  1  0.752690  0.758587  0.500000  1
  Cd  Cd5  1  0.250020  0.000000  0.500000  1
  Si  Si6  1  0.334693  0.650846  0.500000  1
  Si  Si7  1  0.683849  0.349154  0.500000  1
  Au  Au8  1  0.978577  0.000000  0.000000  1
