# generated using pymatgen
data_Dy4Si10(IrOs)3
_symmetry_space_group_name_H-M   'P 1'
_cell_length_a   8.10618137
_cell_length_b   8.10094933
_cell_length_c   5.79351541
_cell_angle_alpha   70.98619085
_cell_angle_beta   70.95571527
_cell_angle_gamma   93.90015250
_symmetry_Int_Tables_number   1
_chemical_formula_structural   Dy4Si10(IrOs)3
_chemical_formula_sum   'Dy4 Si10 Ir3 Os3'
_cell_volume   333.47190601
_cell_formula_units_Z   1
loop_
 _symmetry_equiv_pos_site_id
 _symmetry_equiv_pos_as_xyz
  1  'x, y, z'
loop_
 _atom_site_type_symbol
 _atom_site_label
 _atom_site_symmetry_multiplicity
 _atom_site_fract_x
 _atom_site_fract_y
 _atom_site_fract_z
 _atom_site_occupancy
  Dy  Dy0  1  0.867108  0.599096  0.755666  1
  Dy  Dy1  1  0.401419  0.132915  0.741538  1
  Dy  Dy2  1  0.132295  0.400450  0.244600  1
  Dy  Dy3  1  0.599641  0.869343  0.254379  1
  Si  Si4  1  0.064183  0.260410  0.838463  1
  Si  Si5  1  0.739749  0.936909  0.661811  1
  Si  Si6  1  0.937019  0.738299  0.162768  1
  Si  Si7  1  0.262823  0.065753  0.335498  1
  Si  Si8  1  0.207378  0.792039  0.750946  1
  Si  Si9  1  0.790919  0.205456  0.252240  1
  Si  Si10  1  0.513933  0.484504  0.752934  1
  Si  Si11  1  0.485867  0.512799  0.249153  1
  Si  Si12  1  0.773303  0.224569  0.751541  1
  Si  Si13  1  0.223150  0.775695  0.249020  1
  Ir  Ir14  1  0.256771  0.542329  0.629336  1
  Ir  Ir15  1  0.458742  0.744100  0.869454  1
  Ir  Ir16  1  0.742785  0.458528  0.368616  1
  Os  Os17  1  0.542140  0.257828  0.130745  1
  Os  Os18  1  0.004066  0.995339  0.750826  1
  Os  Os19  1  0.996709  0.003638  0.250465  1
