# generated using pymatgen
data_HfZr4Pa(SnRh)6
_symmetry_space_group_name_H-M   'P 1'
_cell_length_a   7.42371071
_cell_length_b   7.38286818
_cell_length_c   7.51811400
_cell_angle_alpha   90.00000000
_cell_angle_beta   90.00000000
_cell_angle_gamma   120.40554421
_symmetry_Int_Tables_number   1
_chemical_formula_structural   HfZr4Pa(SnRh)6
_chemical_formula_sum   'Hf1 Zr4 Pa1 Sn6 Rh6'
_cell_volume   355.38278717
_cell_formula_units_Z   1
loop_
 _symmetry_equiv_pos_site_id
 _symmetry_equiv_pos_as_xyz
  1  'x, y, z'
loop_
 _atom_site_type_symbol
 _atom_site_label
 _atom_site_symmetry_multiplicity
 _atom_site_fract_x
 _atom_site_fract_y
 _atom_site_fract_z
 _atom_site_occupancy
  Hf  Hf0  1  0.613666  0.020980  0.250000  1
  Zr  Zr1  1  0.387360  0.407153  0.750000  1
  Zr  Zr2  1  0.019210  0.612569  0.750000  1
  Zr  Zr3  1  0.407615  0.395451  0.250000  1
  Zr  Zr4  1  0.981494  0.589471  0.250000  1
  Pa  Pa5  1  0.580155  0.978029  0.750000  1
  Sn  Sn6  1  0.258262  0.000665  0.011145  1
  Sn  Sn7  1  0.735343  0.723362  0.498397  1
  Sn  Sn8  1  0.008698  0.275084  0.498836  1
  Sn  Sn9  1  0.008698  0.275084  0.001164  1
  Sn  Sn10  1  0.735343  0.723362  0.001603  1
  Sn  Sn11  1  0.258262  0.000665  0.488855  1
  Rh  Rh12  1  0.664885  0.320243  0.962708  1
  Rh  Rh13  1  0.664885  0.320243  0.537292  1
  Rh  Rh14  1  0.343514  0.677838  0.036008  1
  Rh  Rh15  1  0.343514  0.677838  0.463992  1
  Rh  Rh16  1  0.998844  0.000234  0.750000  1
  Rh  Rh17  1  0.990250  0.001729  0.250000  1
