# generated using pymatgen
data_Tb3Y9Er8(CoSb2)4
_symmetry_space_group_name_H-M   'P 1'
_cell_length_a   7.88778988
_cell_length_b   8.74540000
_cell_length_c   12.20053449
_cell_angle_alpha   90.00000000
_cell_angle_beta   90.06522256
_cell_angle_gamma   90.00000000
_symmetry_Int_Tables_number   1
_chemical_formula_structural   Tb3Y9Er8(CoSb2)4
_chemical_formula_sum   'Tb3 Y9 Er8 Co4 Sb8'
_cell_volume   841.61523218
_cell_formula_units_Z   1
loop_
 _symmetry_equiv_pos_site_id
 _symmetry_equiv_pos_as_xyz
  1  'x, y, z'
loop_
 _atom_site_type_symbol
 _atom_site_label
 _atom_site_symmetry_multiplicity
 _atom_site_fract_x
 _atom_site_fract_y
 _atom_site_fract_z
 _atom_site_occupancy
  Tb  Tb0  1  0.123151  0.250000  0.193243  1
  Tb  Tb1  1  0.376974  0.250000  0.693149  1
  Tb  Tb2  1  0.877004  0.750000  0.806729  1
  Y  Y3  1  0.153932  0.750000  0.203227  1
  Y  Y4  1  0.653806  0.250000  0.296810  1
  Y  Y5  1  0.845814  0.250000  0.796558  1
  Y  Y6  1  0.345771  0.750000  0.703589  1
  Y  Y7  1  0.455747  0.750000  0.998162  1
  Y  Y8  1  0.955138  0.250000  0.501940  1
  Y  Y9  1  0.544561  0.250000  0.001945  1
  Y  Y10  1  0.044436  0.750000  0.498185  1
  Y  Y11  1  0.623522  0.750000  0.306452  1
  Er  Er12  1  0.823742  0.965644  0.064668  1
  Er  Er13  1  0.323647  0.034006  0.435093  1
  Er  Er14  1  0.176513  0.465281  0.935097  1
  Er  Er15  1  0.676172  0.534831  0.564876  1
  Er  Er16  1  0.176513  0.034719  0.935097  1
  Er  Er17  1  0.676172  0.965169  0.564876  1
  Er  Er18  1  0.823742  0.534356  0.064668  1
  Er  Er19  1  0.323647  0.465994  0.435093  1
  Co  Co20  1  0.437746  0.750000  0.491098  1
  Co  Co21  1  0.938594  0.250000  0.009471  1
  Co  Co22  1  0.561593  0.250000  0.509404  1
  Co  Co23  1  0.061640  0.750000  0.990387  1
  Sb  Sb24  1  0.928862  0.991894  0.327096  1
  Sb  Sb25  1  0.429485  0.007749  0.172794  1
  Sb  Sb26  1  0.070802  0.491890  0.672784  1
  Sb  Sb27  1  0.571063  0.507963  0.827417  1
  Sb  Sb28  1  0.070802  0.008110  0.672784  1
  Sb  Sb29  1  0.571063  0.992037  0.827417  1
  Sb  Sb30  1  0.928862  0.508106  0.327096  1
  Sb  Sb31  1  0.429485  0.492251  0.172794  1
