# generated using pymatgen
data_Nd3MgCd2Ge2Au
_symmetry_space_group_name_H-M   'P 1'
_cell_length_a   7.47909889
_cell_length_b   7.47909946
_cell_length_c   4.48098500
_cell_angle_alpha   90.00000000
_cell_angle_beta   90.00000000
_cell_angle_gamma   120.64339514
_symmetry_Int_Tables_number   1
_chemical_formula_structural   Nd3MgCd2Ge2Au
_chemical_formula_sum   'Nd3 Mg1 Cd2 Ge2 Au1'
_cell_volume   215.65045889
_cell_formula_units_Z   1
loop_
 _symmetry_equiv_pos_site_id
 _symmetry_equiv_pos_as_xyz
  1  'x, y, z'
loop_
 _atom_site_type_symbol
 _atom_site_label
 _atom_site_symmetry_multiplicity
 _atom_site_fract_x
 _atom_site_fract_y
 _atom_site_fract_z
 _atom_site_occupancy
  Nd  Nd0  1  0.583771  0.002068  0.000000  1
  Nd  Nd1  1  0.002068  0.583771  0.000000  1
  Nd  Nd2  1  0.412919  0.412919  0.000000  1
  Mg  Mg3  1  0.763583  0.763583  0.500000  1
  Cd  Cd4  1  0.246497  0.998807  0.500000  1
  Cd  Cd5  1  0.998807  0.246497  0.500000  1
  Ge  Ge6  1  0.338584  0.666771  0.500000  1
  Ge  Ge7  1  0.666771  0.338584  0.500000  1
  Au  Au8  1  0.987001  0.987001  0.000000  1
