# generated using pymatgen
data_Ho5Co2Pt
_symmetry_space_group_name_H-M   'P 1'
_cell_length_a   7.14018179
_cell_length_b   7.14018194
_cell_length_c   8.68143386
_cell_angle_alpha   114.28229510
_cell_angle_beta   114.28230091
_cell_angle_gamma   90.00000746
_symmetry_Int_Tables_number   1
_chemical_formula_structural   Ho5Co2Pt
_chemical_formula_sum   'Ho10 Co4 Pt2'
_cell_volume   360.05202074
_cell_formula_units_Z   2
loop_
 _symmetry_equiv_pos_site_id
 _symmetry_equiv_pos_as_xyz
  1  'x, y, z'
loop_
 _atom_site_type_symbol
 _atom_site_label
 _atom_site_symmetry_multiplicity
 _atom_site_fract_x
 _atom_site_fract_y
 _atom_site_fract_z
 _atom_site_occupancy
  Ho  Ho0  1  0.000000  0.000000  0.000000  1
  Ho  Ho1  1  0.500000  0.500000  0.000000  1
  Ho  Ho2  1  0.465043  0.315557  0.280600  1
  Ho  Ho3  1  0.965044  0.465043  0.280600  1
  Ho  Ho4  1  0.315557  0.815556  0.280600  1
  Ho  Ho5  1  0.815556  0.965044  0.280600  1
  Ho  Ho6  1  0.184443  0.034957  0.719399  1
  Ho  Ho7  1  0.684442  0.184443  0.719399  1
  Ho  Ho8  1  0.034957  0.534956  0.719399  1
  Ho  Ho9  1  0.534956  0.684442  0.719399  1
  Co  Co10  1  0.612957  0.112957  0.000000  1
  Co  Co11  1  0.112957  0.387044  0.000000  1
  Co  Co12  1  0.887043  0.612957  0.000000  1
  Co  Co13  1  0.387044  0.887043  0.000000  1
  Pt  Pt14  1  0.250000  0.250000  0.500000  1
  Pt  Pt15  1  0.750000  0.750000  0.500000  1
