# generated using pymatgen
data_Ho6Ga2Tc14O
_symmetry_space_group_name_H-M   'P 1'
_cell_length_a   8.06648176
_cell_length_b   8.06648105
_cell_length_c   8.02414700
_cell_angle_alpha   110.14612012
_cell_angle_beta   110.14612363
_cell_angle_gamma   108.34778131
_symmetry_Int_Tables_number   1
_chemical_formula_structural   Ho6Ga2Tc14O
_chemical_formula_sum   'Ho6 Ga2 Tc14 O1'
_cell_volume   400.70032678
_cell_formula_units_Z   1
loop_
 _symmetry_equiv_pos_site_id
 _symmetry_equiv_pos_as_xyz
  1  'x, y, z'
loop_
 _atom_site_type_symbol
 _atom_site_label
 _atom_site_symmetry_multiplicity
 _atom_site_fract_x
 _atom_site_fract_y
 _atom_site_fract_z
 _atom_site_occupancy
  Ho  Ho0  1  0.739917  0.739917  0.000000  1
  Ho  Ho1  1  0.265834  0.002055  0.267890  1
  Ho  Ho2  1  0.734165  0.997945  0.732110  1
  Ho  Ho3  1  0.997945  0.734165  0.732111  1
  Ho  Ho4  1  0.002055  0.265834  0.267890  1
  Ho  Ho5  1  0.260082  0.260082  0.000000  1
  Ga  Ga6  1  0.346140  0.346140  0.692280  1
  Ga  Ga7  1  0.653860  0.653860  0.307720  1
  Tc  Tc8  1  0.000000  0.500000  0.000000  1
  Tc  Tc9  1  0.500000  0.000000  0.000000  1
  Tc  Tc10  1  0.000000  0.000000  0.500000  1
  Tc  Tc11  1  0.500000  0.500000  0.500000  1
  Tc  Tc12  1  0.000566  0.341978  0.659302  1
  Tc  Tc13  1  0.317323  0.658736  0.659302  1
  Tc  Tc14  1  0.658736  0.317323  0.659302  1
  Tc  Tc15  1  0.341978  0.000566  0.659302  1
  Tc  Tc16  1  0.662851  0.337149  0.000000  1
  Tc  Tc17  1  0.337149  0.662851  0.000000  1
  Tc  Tc18  1  0.341264  0.682677  0.340698  1
  Tc  Tc19  1  0.999434  0.658022  0.340698  1
  Tc  Tc20  1  0.658022  0.999434  0.340698  1
  Tc  Tc21  1  0.682677  0.341264  0.340698  1
  O  O22  1  0.000000  0.000000  0.000000  1
