# generated using pymatgen
data_Ba5Au
_symmetry_space_group_name_H-M   'P 1'
_cell_length_a   12.25567052
_cell_length_b   8.02357699
_cell_length_c   6.60050294
_cell_angle_alpha   65.97530175
_cell_angle_beta   122.94097827
_cell_angle_gamma   140.01791121
_symmetry_Int_Tables_number   1
_chemical_formula_structural   Ba5Au
_chemical_formula_sum   'Ba5 Au1'
_cell_volume   349.94636439
_cell_formula_units_Z   1
loop_
 _symmetry_equiv_pos_site_id
 _symmetry_equiv_pos_as_xyz
  1  'x, y, z'
loop_
 _atom_site_type_symbol
 _atom_site_label
 _atom_site_symmetry_multiplicity
 _atom_site_fract_x
 _atom_site_fract_y
 _atom_site_fract_z
 _atom_site_occupancy
  Ba  Ba0  1  0.653437  0.371379  0.487720  1
  Ba  Ba1  1  0.454111  0.574214  0.686331  1
  Ba  Ba2  1  0.055301  0.974323  0.086428  1
  Ba  Ba3  1  0.857159  0.173284  0.289673  1
  Ba  Ba4  1  0.256123  0.779719  0.884509  1
  Au  Au5  1  0.856522  0.175773  0.787691  1
