# generated using pymatgen
data_Tb4Y6Cd3Fe
_symmetry_space_group_name_H-M   'P 1'
_cell_length_a   9.62246353
_cell_length_b   9.62827001
_cell_length_c   9.85107434
_cell_angle_alpha   90.00000045
_cell_angle_beta   90.10356458
_cell_angle_gamma   120.01995647
_symmetry_Int_Tables_number   1
_chemical_formula_structural   Tb4Y6Cd3Fe
_chemical_formula_sum   'Tb8 Y12 Cd6 Fe2'
_cell_volume   790.24261712
_cell_formula_units_Z   2
loop_
 _symmetry_equiv_pos_site_id
 _symmetry_equiv_pos_as_xyz
  1  'x, y, z'
loop_
 _atom_site_type_symbol
 _atom_site_label
 _atom_site_symmetry_multiplicity
 _atom_site_fract_x
 _atom_site_fract_y
 _atom_site_fract_z
 _atom_site_occupancy
  Tb  Tb0  1  0.212125  0.787807  0.435684  1
  Tb  Tb1  1  0.212125  0.424320  0.435684  1
  Tb  Tb2  1  0.575467  0.787734  0.435895  1
  Tb  Tb3  1  0.787961  0.211935  0.564096  1
  Tb  Tb4  1  0.787961  0.576023  0.564096  1
  Tb  Tb5  1  0.424698  0.212348  0.564205  1
  Tb  Tb6  1  0.787631  0.212373  0.935603  1
  Tb  Tb7  1  0.787631  0.575256  0.935603  1
  Y  Y8  1  0.000086  0.000043  0.500086  1
  Y  Y9  1  0.999835  0.999918  0.999757  1
  Y  Y10  1  0.541686  0.458152  0.250104  1
  Y  Y11  1  0.541686  0.083534  0.250104  1
  Y  Y12  1  0.916545  0.458272  0.250105  1
  Y  Y13  1  0.458262  0.541756  0.749916  1
  Y  Y14  1  0.458262  0.916505  0.749916  1
  Y  Y15  1  0.083351  0.541675  0.749950  1
  Y  Y16  1  0.423280  0.211639  0.937048  1
  Y  Y17  1  0.211807  0.787927  0.063664  1
  Y  Y18  1  0.211807  0.423882  0.063664  1
  Y  Y19  1  0.576107  0.788055  0.063326  1
  Cd  Cd20  1  0.885560  0.114627  0.249730  1
  Cd  Cd21  1  0.885560  0.770933  0.249730  1
  Cd  Cd22  1  0.229180  0.114590  0.249470  1
  Cd  Cd23  1  0.114611  0.885437  0.750460  1
  Cd  Cd24  1  0.114611  0.229174  0.750460  1
  Cd  Cd25  1  0.770847  0.885424  0.750393  1
  Fe  Fe26  1  0.333304  0.666653  0.252327  1
  Fe  Fe27  1  0.668013  0.334006  0.748922  1
