# generated using pymatgen
data_Pr5Cu5Ni14
_symmetry_space_group_name_H-M   'P 1'
_cell_length_a   5.05916273
_cell_length_b   5.05916222
_cell_length_c   16.52480297
_cell_angle_alpha   81.19466994
_cell_angle_beta   81.19466945
_cell_angle_gamma   60.00000441
_symmetry_Int_Tables_number   1
_chemical_formula_structural   Pr5Cu5Ni14
_chemical_formula_sum   'Pr5 Cu5 Ni14'
_cell_volume   360.52173801
_cell_formula_units_Z   1
loop_
 _symmetry_equiv_pos_site_id
 _symmetry_equiv_pos_as_xyz
  1  'x, y, z'
loop_
 _atom_site_type_symbol
 _atom_site_label
 _atom_site_symmetry_multiplicity
 _atom_site_fract_x
 _atom_site_fract_y
 _atom_site_fract_z
 _atom_site_occupancy
  Pr  Pr0  1  0.000204  0.000204  0.999389  1
  Pr  Pr1  1  0.922145  0.922145  0.233566  1
  Pr  Pr2  1  0.078651  0.078651  0.764047  1
  Pr  Pr3  1  0.848218  0.848218  0.455346  1
  Pr  Pr4  1  0.151749  0.151749  0.544753  1
  Cu  Cu5  1  0.749103  0.749104  0.752690  1
  Cu  Cu6  1  0.250910  0.250910  0.247269  1
  Cu  Cu7  1  0.666567  0.666567  0.000300  1
  Cu  Cu8  1  0.333190  0.333190  0.000430  1
  Cu  Cu9  1  0.584314  0.584314  0.247058  1
  Ni  Ni10  1  0.499983  0.499983  0.500051  1
  Ni  Ni11  1  0.415494  0.415494  0.753516  1
  Ni  Ni12  1  0.377029  0.377029  0.370238  1
  Ni  Ni13  1  0.875703  0.377029  0.370238  1
  Ni  Ni14  1  0.377029  0.875703  0.370238  1
  Ni  Ni15  1  0.621698  0.621698  0.630288  1
  Ni  Ni16  1  0.126317  0.621698  0.630288  1
  Ni  Ni17  1  0.621698  0.126317  0.630288  1
  Ni  Ni18  1  0.459076  0.459076  0.123172  1
  Ni  Ni19  1  0.958676  0.459076  0.123172  1
  Ni  Ni20  1  0.459076  0.958676  0.123172  1
  Ni  Ni21  1  0.540372  0.540372  0.876831  1
  Ni  Ni22  1  0.042426  0.540372  0.876831  1
  Ni  Ni23  1  0.540372  0.042426  0.876831  1
