# generated using pymatgen
data_CeEr2TmSb10
_symmetry_space_group_name_H-M   'P 1'
_cell_length_a   4.20894700
_cell_length_b   13.17788280
_cell_length_c   14.60444800
_cell_angle_alpha   78.36664368
_cell_angle_beta   90.00000000
_cell_angle_gamma   90.00000000
_symmetry_Int_Tables_number   1
_chemical_formula_structural   CeEr2TmSb10
_chemical_formula_sum   'Ce2 Er4 Tm2 Sb20'
_cell_volume   793.39611832
_cell_formula_units_Z   2
loop_
 _symmetry_equiv_pos_site_id
 _symmetry_equiv_pos_as_xyz
  1  'x, y, z'
loop_
 _atom_site_type_symbol
 _atom_site_label
 _atom_site_symmetry_multiplicity
 _atom_site_fract_x
 _atom_site_fract_y
 _atom_site_fract_z
 _atom_site_occupancy
  Ce  Ce0  1  0.250000  0.952685  0.359317  1
  Ce  Ce1  1  0.750000  0.047315  0.640683  1
  Er  Er2  1  0.250000  0.660913  0.856726  1
  Er  Er3  1  0.750000  0.339087  0.143274  1
  Er  Er4  1  0.250000  0.665642  0.576495  1
  Er  Er5  1  0.750000  0.334358  0.423505  1
  Tm  Tm6  1  0.250000  0.395334  0.770736  1
  Tm  Tm7  1  0.750000  0.604666  0.229264  1
  Sb  Sb8  1  0.250000  0.145810  0.780977  1
  Sb  Sb9  1  0.750000  0.854190  0.219023  1
  Sb  Sb10  1  0.250000  0.147088  0.481058  1
  Sb  Sb11  1  0.750000  0.852912  0.518942  1
  Sb  Sb12  1  0.250000  0.153376  0.170399  1
  Sb  Sb13  1  0.750000  0.846624  0.829601  1
  Sb  Sb14  1  0.250000  0.420673  0.975305  1
  Sb  Sb15  1  0.750000  0.579327  0.024695  1
  Sb  Sb16  1  0.750000  0.030184  0.908741  1
  Sb  Sb17  1  0.250000  0.969816  0.091259  1
  Sb  Sb18  1  0.750000  0.144984  0.320160  1
  Sb  Sb19  1  0.250000  0.855016  0.679840  1
  Sb  Sb20  1  0.750000  0.278873  0.936610  1
  Sb  Sb21  1  0.250000  0.721127  0.063390  1
  Sb  Sb22  1  0.750000  0.287026  0.653842  1
  Sb  Sb23  1  0.250000  0.712974  0.346158  1
  Sb  Sb24  1  0.750000  0.575655  0.734449  1
  Sb  Sb25  1  0.250000  0.424345  0.265551  1
  Sb  Sb26  1  0.750000  0.572191  0.447078  1
  Sb  Sb27  1  0.250000  0.427809  0.552922  1
