# generated using pymatgen
data_Ta12IrRh3
_symmetry_space_group_name_H-M   'P 1'
_cell_length_a   5.17278400
_cell_length_b   5.17571900
_cell_length_c   10.34874600
_cell_angle_alpha   90.00000000
_cell_angle_beta   90.00000000
_cell_angle_gamma   90.00000000
_symmetry_Int_Tables_number   1
_chemical_formula_structural   Ta12IrRh3
_chemical_formula_sum   'Ta12 Ir1 Rh3'
_cell_volume   277.06569788
_cell_formula_units_Z   1
loop_
 _symmetry_equiv_pos_site_id
 _symmetry_equiv_pos_as_xyz
  1  'x, y, z'
loop_
 _atom_site_type_symbol
 _atom_site_label
 _atom_site_symmetry_multiplicity
 _atom_site_fract_x
 _atom_site_fract_y
 _atom_site_fract_z
 _atom_site_occupancy
  Ta  Ta0  1  0.500000  0.000000  0.375105  1
  Ta  Ta1  1  0.500000  0.000000  0.875011  1
  Ta  Ta2  1  0.749742  0.500000  0.000000  1
  Ta  Ta3  1  0.750263  0.500000  0.500000  1
  Ta  Ta4  1  0.000000  0.750268  0.250565  1
  Ta  Ta5  1  0.000000  0.750268  0.749435  1
  Ta  Ta6  1  0.500000  0.000000  0.124989  1
  Ta  Ta7  1  0.500000  0.000000  0.624895  1
  Ta  Ta8  1  0.250258  0.500000  0.000000  1
  Ta  Ta9  1  0.249737  0.500000  0.500000  1
  Ta  Ta10  1  0.000000  0.249732  0.250565  1
  Ta  Ta11  1  0.000000  0.249732  0.749435  1
  Ir  Ir12  1  0.000000  0.000000  0.500000  1
  Rh  Rh13  1  0.500000  0.500000  0.249893  1
  Rh  Rh14  1  0.500000  0.500000  0.750107  1
  Rh  Rh15  1  0.000000  0.000000  0.000000  1
