# generated using pymatgen
data_Er3In3Ag2Au
_symmetry_space_group_name_H-M   'P 1'
_cell_length_a   7.80236900
_cell_length_b   7.80236945
_cell_length_c   3.94405100
_cell_angle_alpha   90.00000000
_cell_angle_beta   90.00000000
_cell_angle_gamma   120.00000231
_symmetry_Int_Tables_number   1
_chemical_formula_structural   Er3In3Ag2Au
_chemical_formula_sum   'Er3 In3 Ag2 Au1'
_cell_volume   207.93430272
_cell_formula_units_Z   1
loop_
 _symmetry_equiv_pos_site_id
 _symmetry_equiv_pos_as_xyz
  1  'x, y, z'
loop_
 _atom_site_type_symbol
 _atom_site_label
 _atom_site_symmetry_multiplicity
 _atom_site_fract_x
 _atom_site_fract_y
 _atom_site_fract_z
 _atom_site_occupancy
  Er  Er0  1  0.590058  0.994898  0.500000  1
  Er  Er1  1  0.404840  0.409942  0.500000  1
  Er  Er2  1  0.005102  0.595160  0.500000  1
  In  In3  1  0.996594  0.258968  0.000000  1
  In  In4  1  0.741032  0.737625  0.000000  1
  In  In5  1  0.262375  0.003406  0.000000  1
  Ag  Ag6  1  0.666667  0.333333  0.000000  1
  Ag  Ag7  1  0.000000  0.000000  0.500000  1
  Au  Au8  1  0.333333  0.666667  0.000000  1
