# generated using pymatgen
data_Th3GeRh3Au2
_symmetry_space_group_name_H-M   'P 1'
_cell_length_a   7.42391200
_cell_length_b   7.59362943
_cell_length_c   3.89834200
_cell_angle_alpha   90.00000000
_cell_angle_beta   90.00000000
_cell_angle_gamma   119.26339090
_symmetry_Int_Tables_number   1
_chemical_formula_structural   Th3GeRh3Au2
_chemical_formula_sum   'Th3 Ge1 Rh3 Au2'
_cell_volume   191.72058312
_cell_formula_units_Z   1
loop_
 _symmetry_equiv_pos_site_id
 _symmetry_equiv_pos_as_xyz
  1  'x, y, z'
loop_
 _atom_site_type_symbol
 _atom_site_label
 _atom_site_symmetry_multiplicity
 _atom_site_fract_x
 _atom_site_fract_y
 _atom_site_fract_z
 _atom_site_occupancy
  Th  Th0  1  0.003788  0.397064  0.500000  1
  Th  Th1  1  0.606725  0.602936  0.500000  1
  Th  Th2  1  0.399351  0.000000  0.500000  1
  Ge  Ge3  1  0.738002  0.000000  0.000000  1
  Rh  Rh4  1  0.359405  0.681694  0.000000  1
  Rh  Rh5  1  0.677713  0.318306  0.000000  1
  Rh  Rh6  1  0.947449  0.000000  0.500000  1
  Au  Au7  1  0.006779  0.745993  0.000000  1
  Au  Au8  1  0.260786  0.254007  0.000000  1
