# generated using pymatgen
data_Ho3ErCo12(Ni2P3)4
_symmetry_space_group_name_H-M   'P 1'
_cell_length_a   3.67147000
_cell_length_b   10.24547015
_cell_length_c   11.81427233
_cell_angle_alpha   89.94567981
_cell_angle_beta   90.00000000
_cell_angle_gamma   90.00000000
_symmetry_Int_Tables_number   1
_chemical_formula_structural   Ho3ErCo12(Ni2P3)4
_chemical_formula_sum   'Ho3 Er1 Co12 Ni8 P12'
_cell_volume   444.40471552
_cell_formula_units_Z   1
loop_
 _symmetry_equiv_pos_site_id
 _symmetry_equiv_pos_as_xyz
  1  'x, y, z'
loop_
 _atom_site_type_symbol
 _atom_site_label
 _atom_site_symmetry_multiplicity
 _atom_site_fract_x
 _atom_site_fract_y
 _atom_site_fract_z
 _atom_site_occupancy
  Ho  Ho0  1  0.250000  0.919047  0.203454  1
  Ho  Ho1  1  0.750000  0.418764  0.296550  1
  Ho  Ho2  1  0.750000  0.081090  0.796508  1
  Er  Er3  1  0.250000  0.581126  0.703428  1
  Co  Co4  1  0.250000  0.222261  0.175686  1
  Co  Co5  1  0.250000  0.277693  0.675746  1
  Co  Co6  1  0.750000  0.777626  0.824037  1
  Co  Co7  1  0.750000  0.722157  0.324318  1
  Co  Co8  1  0.250000  0.880124  0.697867  1
  Co  Co9  1  0.250000  0.619471  0.197788  1
  Co  Co10  1  0.750000  0.119683  0.302196  1
  Co  Co11  1  0.750000  0.380792  0.801870  1
  Co  Co12  1  0.250000  0.467171  0.932210  1
  Co  Co13  1  0.250000  0.032960  0.432645  1
  Co  Co14  1  0.750000  0.533517  0.067018  1
  Co  Co15  1  0.750000  0.966319  0.567392  1
  Ni  Ni16  1  0.250000  0.714223  0.990505  1
  Ni  Ni17  1  0.250000  0.785654  0.490537  1
  Ni  Ni18  1  0.750000  0.287551  0.009876  1
  Ni  Ni19  1  0.750000  0.212580  0.510525  1
  Ni  Ni20  1  0.250000  0.408678  0.485136  1
  Ni  Ni21  1  0.250000  0.092261  0.984935  1
  Ni  Ni22  1  0.750000  0.591243  0.515964  1
  Ni  Ni23  1  0.750000  0.908131  0.014937  1
  P  P24  1  0.250000  0.420700  0.112736  1
  P  P25  1  0.250000  0.079236  0.612870  1
  P  P26  1  0.750000  0.579465  0.886465  1
  P  P27  1  0.750000  0.920430  0.387125  1
  P  P28  1  0.250000  0.271567  0.865251  1
  P  P29  1  0.250000  0.228573  0.365305  1
  P  P30  1  0.750000  0.728648  0.134673  1
  P  P31  1  0.750000  0.770818  0.634839  1
  P  P32  1  0.250000  0.605272  0.387612  1
  P  P33  1  0.250000  0.894785  0.887556  1
  P  P34  1  0.750000  0.394650  0.612293  1
  P  P35  1  0.750000  0.105736  0.112148  1
