# generated using pymatgen
data_Ba6YHoIn2O12
_symmetry_space_group_name_H-M   'P 1'
_cell_length_a   7.30809924
_cell_length_b   7.30810030
_cell_length_c   7.30810101
_cell_angle_alpha   92.99488635
_cell_angle_beta   92.99488287
_cell_angle_gamma   92.99489430
_symmetry_Int_Tables_number   1
_chemical_formula_structural   Ba6YHoIn2O12
_chemical_formula_sum   'Ba6 Y1 Ho1 In2 O12'
_cell_volume   388.65605109
_cell_formula_units_Z   1
loop_
 _symmetry_equiv_pos_site_id
 _symmetry_equiv_pos_as_xyz
  1  'x, y, z'
loop_
 _atom_site_type_symbol
 _atom_site_label
 _atom_site_symmetry_multiplicity
 _atom_site_fract_x
 _atom_site_fract_y
 _atom_site_fract_z
 _atom_site_occupancy
  Ba  Ba0  1  0.250000  0.887955  0.612045  1
  Ba  Ba1  1  0.887955  0.612045  0.250000  1
  Ba  Ba2  1  0.750000  0.111588  0.388412  1
  Ba  Ba3  1  0.388412  0.750000  0.111588  1
  Ba  Ba4  1  0.111588  0.388412  0.750000  1
  Ba  Ba5  1  0.612045  0.250000  0.887955  1
  Y  Y6  1  0.250000  0.250000  0.250000  1
  Ho  Ho7  1  0.750000  0.750000  0.750000  1
  In  In8  1  0.500522  0.500522  0.500522  1
  In  In9  1  0.999478  0.999478  0.999478  1
  O  O10  1  0.599556  0.790623  0.469189  1
  O  O11  1  0.469189  0.599556  0.790623  1
  O  O12  1  0.790623  0.469189  0.599556  1
  O  O13  1  0.900444  0.030811  0.709377  1
  O  O14  1  0.709377  0.900444  0.030811  1
  O  O15  1  0.030811  0.709377  0.900444  1
  O  O16  1  0.401812  0.209835  0.532603  1
  O  O17  1  0.532603  0.401812  0.209835  1
  O  O18  1  0.209835  0.532603  0.401812  1
  O  O19  1  0.098188  0.967397  0.290165  1
  O  O20  1  0.967397  0.290165  0.098188  1
  O  O21  1  0.290165  0.098188  0.967397  1
