# generated using pymatgen
data_Dy6LuP12Rh17
_symmetry_space_group_name_H-M   'P 1'
_cell_length_a   3.94834100
_cell_length_b   11.25245900
_cell_length_c   12.89036700
_cell_angle_alpha   90.00000000
_cell_angle_beta   90.00000000
_cell_angle_gamma   90.00000000
_symmetry_Int_Tables_number   1
_chemical_formula_structural   Dy6LuP12Rh17
_chemical_formula_sum   'Dy6 Lu1 P12 Rh17'
_cell_volume   572.70025317
_cell_formula_units_Z   1
loop_
 _symmetry_equiv_pos_site_id
 _symmetry_equiv_pos_as_xyz
  1  'x, y, z'
loop_
 _atom_site_type_symbol
 _atom_site_label
 _atom_site_symmetry_multiplicity
 _atom_site_fract_x
 _atom_site_fract_y
 _atom_site_fract_z
 _atom_site_occupancy
  Dy  Dy0  1  0.000000  0.500000  0.522092  1
  Dy  Dy1  1  0.500000  0.000000  0.477809  1
  Dy  Dy2  1  0.500000  0.817954  0.206590  1
  Dy  Dy3  1  0.500000  0.182046  0.206590  1
  Dy  Dy4  1  0.000000  0.683019  0.796648  1
  Dy  Dy5  1  0.000000  0.316981  0.796648  1
  Lu  Lu6  1  0.500000  0.500000  0.156355  1
  P  P7  1  0.500000  0.500000  0.877686  1
  P  P8  1  0.000000  0.000000  0.121554  1
  P  P9  1  0.500000  0.500000  0.363620  1
  P  P10  1  0.000000  0.000000  0.647343  1
  P  P11  1  0.500000  0.314508  0.619509  1
  P  P12  1  0.500000  0.685492  0.619509  1
  P  P13  1  0.000000  0.185573  0.384424  1
  P  P14  1  0.000000  0.814427  0.384424  1
  P  P15  1  0.500000  0.851262  0.888418  1
  P  P16  1  0.500000  0.148738  0.888418  1
  P  P17  1  0.000000  0.663864  0.105328  1
  P  P18  1  0.000000  0.336136  0.105328  1
  Rh  Rh19  1  0.000000  0.000000  0.827763  1
  Rh  Rh20  1  0.500000  0.500000  0.700965  1
  Rh  Rh21  1  0.000000  0.000000  0.299156  1
  Rh  Rh22  1  0.000000  0.500000  0.982077  1
  Rh  Rh23  1  0.500000  0.000000  0.022151  1
  Rh  Rh24  1  0.500000  0.328141  0.986622  1
  Rh  Rh25  1  0.500000  0.671859  0.986622  1
  Rh  Rh26  1  0.000000  0.162593  0.003881  1
  Rh  Rh27  1  0.000000  0.837407  0.003881  1
  Rh  Rh28  1  0.500000  0.288097  0.435216  1
  Rh  Rh29  1  0.500000  0.711903  0.435216  1
  Rh  Rh30  1  0.000000  0.203609  0.572062  1
  Rh  Rh31  1  0.000000  0.796391  0.572062  1
  Rh  Rh32  1  0.500000  0.874832  0.709153  1
  Rh  Rh33  1  0.500000  0.125168  0.709153  1
  Rh  Rh34  1  0.000000  0.628357  0.292864  1
  Rh  Rh35  1  0.000000  0.371643  0.292864  1
