# generated using pymatgen
data_Th8Re(Si4Ni)3
_symmetry_space_group_name_H-M   'P 1'
_cell_length_a   8.11800300
_cell_length_b   8.11800290
_cell_length_c   8.42869300
_cell_angle_alpha   90.00000000
_cell_angle_beta   90.00000000
_cell_angle_gamma   119.99999633
_symmetry_Int_Tables_number   1
_chemical_formula_structural   Th8Re(Si4Ni)3
_chemical_formula_sum   'Th8 Re1 Si12 Ni3'
_cell_volume   481.04897446
_cell_formula_units_Z   1
loop_
 _symmetry_equiv_pos_site_id
 _symmetry_equiv_pos_as_xyz
  1  'x, y, z'
loop_
 _atom_site_type_symbol
 _atom_site_label
 _atom_site_symmetry_multiplicity
 _atom_site_fract_x
 _atom_site_fract_y
 _atom_site_fract_z
 _atom_site_occupancy
  Th  Th0  1  0.000000  0.000000  0.747963  1
  Th  Th1  1  0.000000  0.000000  0.252194  1
  Th  Th2  1  0.497436  0.502564  0.753865  1
  Th  Th3  1  0.497436  0.994872  0.753865  1
  Th  Th4  1  0.005128  0.502564  0.753865  1
  Th  Th5  1  0.497910  0.502090  0.246259  1
  Th  Th6  1  0.004180  0.502090  0.246259  1
  Th  Th7  1  0.497910  0.995820  0.246259  1
  Re  Re8  1  0.333333  0.666667  0.000826  1
  Si  Si9  1  0.829072  0.170928  0.999730  1
  Si  Si10  1  0.829072  0.658145  0.999730  1
  Si  Si11  1  0.341855  0.170928  0.999730  1
  Si  Si12  1  0.828780  0.171220  0.500339  1
  Si  Si13  1  0.828780  0.657561  0.500339  1
  Si  Si14  1  0.342439  0.171220  0.500339  1
  Si  Si15  1  0.170482  0.829518  0.499809  1
  Si  Si16  1  0.659034  0.829518  0.499809  1
  Si  Si17  1  0.170482  0.340966  0.499809  1
  Si  Si18  1  0.163796  0.836204  0.000206  1
  Si  Si19  1  0.672408  0.836204  0.000206  1
  Si  Si20  1  0.163796  0.327592  0.000206  1
  Ni  Ni21  1  0.666667  0.333333  0.998312  1
  Ni  Ni22  1  0.666667  0.333333  0.501755  1
  Ni  Ni23  1  0.333333  0.666667  0.498331  1
