# generated using pymatgen
data_Rb4MnHgTe4
_symmetry_space_group_name_H-M   'P 1'
_cell_length_a   9.19377671
_cell_length_b   9.19377627
_cell_length_c   9.19377612
_cell_angle_alpha   133.03908743
_cell_angle_beta   129.95366626
_cell_angle_gamma   71.05471485
_symmetry_Int_Tables_number   1
_chemical_formula_structural   Rb4MnHgTe4
_chemical_formula_sum   'Rb4 Mn1 Hg1 Te4'
_cell_volume   426.34709777
_cell_formula_units_Z   1
loop_
 _symmetry_equiv_pos_site_id
 _symmetry_equiv_pos_as_xyz
  1  'x, y, z'
loop_
 _atom_site_type_symbol
 _atom_site_label
 _atom_site_symmetry_multiplicity
 _atom_site_fract_x
 _atom_site_fract_y
 _atom_site_fract_z
 _atom_site_occupancy
  Rb  Rb0  1  0.461282  0.136693  0.315456  1
  Rb  Rb1  1  0.821238  0.645826  0.184544  1
  Rb  Rb2  1  0.538718  0.854174  0.675411  1
  Rb  Rb3  1  0.178762  0.363307  0.824589  1
  Mn  Mn4  1  0.000000  0.250000  0.250000  1
  Hg  Hg5  1  0.000000  0.750000  0.750000  1
  Te  Te6  1  0.087147  0.909780  0.207961  1
  Te  Te7  1  0.912853  0.120813  0.822632  1
  Te  Te8  1  0.298181  0.590220  0.677368  1
  Te  Te9  1  0.701819  0.379187  0.292039  1
