# generated using pymatgen
data_NaSr3USe6
_symmetry_space_group_name_H-M   'P 1'
_cell_length_a   8.61786651
_cell_length_b   8.61786727
_cell_length_c   8.61786754
_cell_angle_alpha   90.73903390
_cell_angle_beta   90.73903345
_cell_angle_gamma   90.73904386
_symmetry_Int_Tables_number   1
_chemical_formula_structural   NaSr3USe6
_chemical_formula_sum   'Na2 Sr6 U2 Se12'
_cell_volume   639.86748381
_cell_formula_units_Z   2
loop_
 _symmetry_equiv_pos_site_id
 _symmetry_equiv_pos_as_xyz
  1  'x, y, z'
loop_
 _atom_site_type_symbol
 _atom_site_label
 _atom_site_symmetry_multiplicity
 _atom_site_fract_x
 _atom_site_fract_y
 _atom_site_fract_z
 _atom_site_occupancy
  Na  Na0  1  0.250000  0.250000  0.250000  1
  Na  Na1  1  0.750000  0.750000  0.750000  1
  Sr  Sr2  1  0.873176  0.626824  0.250000  1
  Sr  Sr3  1  0.250000  0.873176  0.626824  1
  Sr  Sr4  1  0.626824  0.250000  0.873176  1
  Sr  Sr5  1  0.750000  0.126824  0.373176  1
  Sr  Sr6  1  0.373176  0.750000  0.126824  1
  Sr  Sr7  1  0.126824  0.373176  0.750000  1
  U  U8  1  0.500000  0.500000  0.500000  1
  U  U9  1  0.000000  0.000000  0.000000  1
  Se  Se10  1  0.196513  0.557980  0.420769  1
  Se  Se11  1  0.420769  0.196513  0.557980  1
  Se  Se12  1  0.557980  0.420769  0.196513  1
  Se  Se13  1  0.920769  0.057980  0.696513  1
  Se  Se14  1  0.696513  0.920769  0.057980  1
  Se  Se15  1  0.057980  0.696513  0.920769  1
  Se  Se16  1  0.803487  0.442020  0.579231  1
  Se  Se17  1  0.579231  0.803487  0.442020  1
  Se  Se18  1  0.442020  0.579231  0.803487  1
  Se  Se19  1  0.079231  0.942020  0.303487  1
  Se  Se20  1  0.303487  0.079231  0.942020  1
  Se  Se21  1  0.942020  0.303487  0.079231  1
