# generated using pymatgen
data_Ca(Eu3Si2)3
_symmetry_space_group_name_H-M   'P 1'
_cell_length_a   9.28692489
_cell_length_b   9.28692442
_cell_length_c   9.28692482
_cell_angle_alpha   130.22116268
_cell_angle_beta   130.22116099
_cell_angle_gamma   73.05344486
_symmetry_Int_Tables_number   1
_chemical_formula_structural   Ca(Eu3Si2)3
_chemical_formula_sum   'Ca1 Eu9 Si6'
_cell_volume   456.03373058
_cell_formula_units_Z   1
loop_
 _symmetry_equiv_pos_site_id
 _symmetry_equiv_pos_as_xyz
  1  'x, y, z'
loop_
 _atom_site_type_symbol
 _atom_site_label
 _atom_site_symmetry_multiplicity
 _atom_site_fract_x
 _atom_site_fract_y
 _atom_site_fract_z
 _atom_site_occupancy
  Ca  Ca0  1  0.500000  0.500000  0.000000  1
  Eu  Eu1  1  0.531835  0.032782  0.854173  1
  Eu  Eu2  1  0.178608  0.677662  0.145827  1
  Eu  Eu3  1  0.032782  0.178608  0.500946  1
  Eu  Eu4  1  0.677662  0.531835  0.499054  1
  Eu  Eu5  1  0.468165  0.967218  0.145827  1
  Eu  Eu6  1  0.821392  0.322338  0.854173  1
  Eu  Eu7  1  0.967218  0.821392  0.499054  1
  Eu  Eu8  1  0.322338  0.468165  0.500946  1
  Eu  Eu9  1  0.000000  0.000000  0.000000  1
  Si  Si10  1  0.250207  0.250207  0.000000  1
  Si  Si11  1  0.749793  0.749793  0.000000  1
  Si  Si12  1  0.888400  0.389874  0.278274  1
  Si  Si13  1  0.111600  0.610126  0.721726  1
  Si  Si14  1  0.389874  0.111600  0.501474  1
  Si  Si15  1  0.610126  0.888400  0.498526  1
