# generated using pymatgen
data_DyNi2(AsRu)3
_symmetry_space_group_name_H-M   'P 1'
_cell_length_a   3.88814600
_cell_length_b   11.16348900
_cell_length_c   12.46439900
_cell_angle_alpha   90.00000000
_cell_angle_beta   90.00000000
_cell_angle_gamma   90.00000000
_symmetry_Int_Tables_number   1
_chemical_formula_structural   DyNi2(AsRu)3
_chemical_formula_sum   'Dy4 Ni8 As12 Ru12'
_cell_volume   541.02066757
_cell_formula_units_Z   4
loop_
 _symmetry_equiv_pos_site_id
 _symmetry_equiv_pos_as_xyz
  1  'x, y, z'
loop_
 _atom_site_type_symbol
 _atom_site_label
 _atom_site_symmetry_multiplicity
 _atom_site_fract_x
 _atom_site_fract_y
 _atom_site_fract_z
 _atom_site_occupancy
  Dy  Dy0  1  0.250000  0.590192  0.704290  1
  Dy  Dy1  1  0.250000  0.909808  0.204290  1
  Dy  Dy2  1  0.750000  0.409808  0.295710  1
  Dy  Dy3  1  0.750000  0.090192  0.795710  1
  Ni  Ni4  1  0.250000  0.890388  0.695321  1
  Ni  Ni5  1  0.250000  0.609612  0.195321  1
  Ni  Ni6  1  0.750000  0.109612  0.304679  1
  Ni  Ni7  1  0.750000  0.390388  0.804679  1
  Ni  Ni8  1  0.250000  0.466594  0.929029  1
  Ni  Ni9  1  0.250000  0.033406  0.429029  1
  Ni  Ni10  1  0.750000  0.533406  0.070971  1
  Ni  Ni11  1  0.750000  0.966594  0.570971  1
  As  As12  1  0.250000  0.416223  0.111234  1
  As  As13  1  0.250000  0.083777  0.611234  1
  As  As14  1  0.750000  0.583777  0.888766  1
  As  As15  1  0.750000  0.916223  0.388766  1
  As  As16  1  0.250000  0.270499  0.877287  1
  As  As17  1  0.250000  0.229501  0.377287  1
  As  As18  1  0.750000  0.729501  0.122713  1
  As  As19  1  0.750000  0.770499  0.622713  1
  As  As20  1  0.250000  0.598477  0.385925  1
  As  As21  1  0.250000  0.901523  0.885925  1
  As  As22  1  0.750000  0.401523  0.614075  1
  As  As23  1  0.750000  0.098477  0.114075  1
  Ru  Ru24  1  0.250000  0.709742  0.985965  1
  Ru  Ru25  1  0.250000  0.790258  0.485965  1
  Ru  Ru26  1  0.750000  0.290258  0.014035  1
  Ru  Ru27  1  0.750000  0.209742  0.514035  1
  Ru  Ru28  1  0.250000  0.407736  0.487269  1
  Ru  Ru29  1  0.250000  0.092264  0.987269  1
  Ru  Ru30  1  0.750000  0.592264  0.512731  1
  Ru  Ru31  1  0.750000  0.907736  0.012731  1
  Ru  Ru32  1  0.250000  0.217839  0.182779  1
  Ru  Ru33  1  0.250000  0.282161  0.682779  1
  Ru  Ru34  1  0.750000  0.782161  0.817221  1
  Ru  Ru35  1  0.750000  0.717839  0.317221  1
