# generated using pymatgen
data_Pr7Er(Si3Rh)4
_symmetry_space_group_name_H-M   'P 1'
_cell_length_a   8.28911300
_cell_length_b   8.28176902
_cell_length_c   8.38736800
_cell_angle_alpha   90.00000000
_cell_angle_beta   90.00000000
_cell_angle_gamma   120.02920813
_symmetry_Int_Tables_number   1
_chemical_formula_structural   Pr7Er(Si3Rh)4
_chemical_formula_sum   'Pr7 Er1 Si12 Rh4'
_cell_volume   498.49362325
_cell_formula_units_Z   1
loop_
 _symmetry_equiv_pos_site_id
 _symmetry_equiv_pos_as_xyz
  1  'x, y, z'
loop_
 _atom_site_type_symbol
 _atom_site_label
 _atom_site_symmetry_multiplicity
 _atom_site_fract_x
 _atom_site_fract_y
 _atom_site_fract_z
 _atom_site_occupancy
  Pr  Pr0  1  0.000044  0.000087  0.250000  1
  Pr  Pr1  1  0.999702  0.999396  0.750000  1
  Pr  Pr2  1  0.495089  0.504953  0.250000  1
  Pr  Pr3  1  0.496910  0.993815  0.250000  1
  Pr  Pr4  1  0.009865  0.504953  0.250000  1
  Pr  Pr5  1  0.506637  0.493332  0.750000  1
  Pr  Pr6  1  0.986699  0.493334  0.750000  1
  Er  Er7  1  0.503922  0.007845  0.750000  1
  Si  Si8  1  0.831871  0.165081  0.506536  1
  Si  Si9  1  0.833653  0.667311  0.500720  1
  Si  Si10  1  0.333207  0.165081  0.506537  1
  Si  Si11  1  0.831871  0.165081  0.993464  1
  Si  Si12  1  0.833653  0.667311  0.999280  1
  Si  Si13  1  0.333207  0.165081  0.993463  1
  Si  Si14  1  0.168457  0.833712  0.000651  1
  Si  Si15  1  0.665254  0.833710  0.000652  1
  Si  Si16  1  0.167554  0.335104  0.001315  1
  Si  Si17  1  0.168457  0.833712  0.499349  1
  Si  Si18  1  0.665254  0.833710  0.499348  1
  Si  Si19  1  0.167554  0.335104  0.498685  1
  Rh  Rh20  1  0.665471  0.330935  0.484282  1
  Rh  Rh21  1  0.665471  0.330935  0.015718  1
  Rh  Rh22  1  0.335099  0.670207  0.966709  1
  Rh  Rh23  1  0.335099  0.670207  0.533291  1
