# generated using pymatgen
data_Tm4ThCr2O12
_symmetry_space_group_name_H-M   'P 1'
_cell_length_a   6.80083761
_cell_length_b   6.80083884
_cell_length_c   7.21792200
_cell_angle_alpha   74.72618480
_cell_angle_beta   74.72619070
_cell_angle_gamma   50.58021763
_symmetry_Int_Tables_number   1
_chemical_formula_structural   Tm4ThCr2O12
_chemical_formula_sum   'Tm4 Th1 Cr2 O12'
_cell_volume   246.70648824
_cell_formula_units_Z   1
loop_
 _symmetry_equiv_pos_site_id
 _symmetry_equiv_pos_as_xyz
  1  'x, y, z'
loop_
 _atom_site_type_symbol
 _atom_site_label
 _atom_site_symmetry_multiplicity
 _atom_site_fract_x
 _atom_site_fract_y
 _atom_site_fract_z
 _atom_site_occupancy
  Tm  Tm0  1  0.307613  0.307613  0.352374  1
  Tm  Tm1  1  0.692387  0.692387  0.647626  1
  Tm  Tm2  1  0.304431  0.304431  0.842274  1
  Tm  Tm3  1  0.695569  0.695569  0.157726  1
  Th  Th4  1  0.000000  0.000000  0.500000  1
  Cr  Cr5  1  0.753235  0.246765  0.000000  1
  Cr  Cr6  1  0.246765  0.753235  0.000000  1
  O  O7  1  0.900837  0.424009  0.917773  1
  O  O8  1  0.424009  0.900837  0.917773  1
  O  O9  1  0.099163  0.575991  0.082227  1
  O  O10  1  0.575991  0.099163  0.082227  1
  O  O11  1  0.094443  0.592145  0.577543  1
  O  O12  1  0.592145  0.094443  0.577543  1
  O  O13  1  0.905557  0.407855  0.422457  1
  O  O14  1  0.407855  0.905557  0.422457  1
  O  O15  1  0.999726  0.999726  0.819966  1
  O  O16  1  0.000274  0.000274  0.180034  1
  O  O17  1  0.498945  0.498945  0.813063  1
  O  O18  1  0.501055  0.501055  0.186937  1
