# generated using pymatgen
data_La9Lu(Ga2Pb)2
_symmetry_space_group_name_H-M   'P 1'
_cell_length_a   8.56220100
_cell_length_b   8.56220100
_cell_length_c   13.15009700
_cell_angle_alpha   90.00000000
_cell_angle_beta   90.00000000
_cell_angle_gamma   90.00000000
_symmetry_Int_Tables_number   1
_chemical_formula_structural   La9Lu(Ga2Pb)2
_chemical_formula_sum   'La18 Lu2 Ga8 Pb4'
_cell_volume   964.05052163
_cell_formula_units_Z   2
loop_
 _symmetry_equiv_pos_site_id
 _symmetry_equiv_pos_as_xyz
  1  'x, y, z'
loop_
 _atom_site_type_symbol
 _atom_site_label
 _atom_site_symmetry_multiplicity
 _atom_site_fract_x
 _atom_site_fract_y
 _atom_site_fract_z
 _atom_site_occupancy
  La  La0  1  0.840903  0.832640  0.896939  1
  La  La1  1  0.164030  0.163224  0.599304  1
  La  La2  1  0.836776  0.164030  0.400696  1
  La  La3  1  0.163224  0.835970  0.400696  1
  La  La4  1  0.335970  0.336776  0.400696  1
  La  La5  1  0.832640  0.159097  0.103061  1
  La  La6  1  0.332640  0.659097  0.896939  1
  La  La7  1  0.167360  0.840903  0.103061  1
  La  La8  1  0.500000  0.000000  0.764408  1
  La  La9  1  0.000000  0.500000  0.235592  1
  La  La10  1  0.336776  0.664030  0.599304  1
  La  La11  1  0.659097  0.667360  0.103061  1
  La  La12  1  0.663224  0.335970  0.599304  1
  La  La13  1  0.835970  0.836776  0.599304  1
  La  La14  1  0.667360  0.340903  0.896939  1
  La  La15  1  0.159097  0.167360  0.896939  1
  La  La16  1  0.664030  0.663224  0.400696  1
  La  La17  1  0.340903  0.332640  0.103061  1
  Lu  Lu18  1  0.000000  0.500000  0.742020  1
  Lu  Lu19  1  0.500000  0.000000  0.257980  1
  Ga  Ga20  1  0.633444  0.360501  0.252746  1
  Ga  Ga21  1  0.366556  0.639499  0.252746  1
  Ga  Ga22  1  0.139499  0.133444  0.252746  1
  Ga  Ga23  1  0.360501  0.366556  0.747254  1
  Ga  Ga24  1  0.133444  0.860501  0.747254  1
  Ga  Ga25  1  0.860501  0.866556  0.252746  1
  Ga  Ga26  1  0.639499  0.633444  0.747254  1
  Ga  Ga27  1  0.866556  0.139499  0.747254  1
  Pb  Pb28  1  0.000000  0.500000  0.985727  1
  Pb  Pb29  1  0.500000  0.000000  0.014273  1
  Pb  Pb30  1  0.500000  0.000000  0.500571  1
  Pb  Pb31  1  0.000000  0.500000  0.499429  1
