# generated using pymatgen
data_CaNb2Fe2(PO4)6
_symmetry_space_group_name_H-M   'P 1'
_cell_length_a   8.71223800
_cell_length_b   8.97431373
_cell_length_c   12.51122576
_cell_angle_alpha   88.10845376
_cell_angle_beta   90.00000000
_cell_angle_gamma   90.00000000
_symmetry_Int_Tables_number   1
_chemical_formula_structural   CaNb2Fe2(PO4)6
_chemical_formula_sum   'Ca2 Nb4 Fe4 P12 O48'
_cell_volume   977.67413741
_cell_formula_units_Z   2
loop_
 _symmetry_equiv_pos_site_id
 _symmetry_equiv_pos_as_xyz
  1  'x, y, z'
loop_
 _atom_site_type_symbol
 _atom_site_label
 _atom_site_symmetry_multiplicity
 _atom_site_fract_x
 _atom_site_fract_y
 _atom_site_fract_z
 _atom_site_occupancy
  Ca  Ca0  1  0.000000  0.000000  0.500000  1
  Ca  Ca1  1  0.500000  0.500000  0.500000  1
  Nb  Nb2  1  0.499171  0.219535  0.854234  1
  Nb  Nb3  1  0.999171  0.280465  0.145766  1
  Nb  Nb4  1  0.500829  0.780465  0.145766  1
  Nb  Nb5  1  0.000829  0.719535  0.854234  1
  Fe  Fe6  1  0.502437  0.795674  0.642370  1
  Fe  Fe7  1  0.002437  0.704326  0.357630  1
  Fe  Fe8  1  0.497563  0.204326  0.357630  1
  Fe  Fe9  1  0.997563  0.295674  0.642370  1
  P  P10  1  0.352661  0.856292  0.397952  1
  P  P11  1  0.285473  0.498732  0.737252  1
  P  P12  1  0.147339  0.356292  0.397952  1
  P  P13  1  0.860747  0.357664  0.890091  1
  P  P14  1  0.360747  0.142336  0.109909  1
  P  P15  1  0.785473  0.001268  0.262748  1
  P  P16  1  0.214527  0.998732  0.737252  1
  P  P17  1  0.639253  0.857664  0.890091  1
  P  P18  1  0.139253  0.642336  0.109909  1
  P  P19  1  0.852661  0.643708  0.602048  1
  P  P20  1  0.714527  0.501268  0.262748  1
  P  P21  1  0.647339  0.143708  0.602048  1
  O  O22  1  0.306919  0.895397  0.667948  1
  O  O23  1  0.176449  0.840833  0.404813  1
  O  O24  1  0.433099  0.759667  0.485606  1
  O  O25  1  0.412069  0.790085  0.290656  1
  O  O26  1  0.396721  0.587600  0.664908  1
  O  O27  1  0.111054  0.522291  0.401507  1
  O  O28  1  0.193081  0.395397  0.667948  1
  O  O29  1  0.382873  0.402378  0.819709  1
  O  O30  1  0.110646  0.472809  0.108694  1
  O  O31  1  0.817698  0.400131  0.194744  1
  O  O32  1  0.323551  0.340833  0.404813  1
  O  O33  1  0.066901  0.259667  0.485606  1
  O  O34  1  0.087931  0.290085  0.290656  1
  O  O35  1  0.683732  0.334311  0.894245  1
  O  O36  1  0.924120  0.285538  0.995852  1
  O  O37  1  0.933294  0.285995  0.794748  1
  O  O38  1  0.433294  0.214005  0.205252  1
  O  O39  1  0.424120  0.214462  0.004148  1
  O  O40  1  0.183732  0.165689  0.105755  1
  O  O41  1  0.882873  0.097622  0.180291  1
  O  O42  1  0.388946  0.022291  0.401507  1
  O  O43  1  0.103279  0.087600  0.664908  1
  O  O44  1  0.317698  0.099869  0.805256  1
  O  O45  1  0.610646  0.027191  0.891306  1
  O  O46  1  0.389354  0.972809  0.108694  1
  O  O47  1  0.682302  0.900131  0.194744  1
  O  O48  1  0.896721  0.912400  0.335092  1
  O  O49  1  0.611054  0.977709  0.598493  1
  O  O50  1  0.117127  0.902378  0.819709  1
  O  O51  1  0.816268  0.834311  0.894245  1
  O  O52  1  0.575880  0.785538  0.995852  1
  O  O53  1  0.566706  0.785995  0.794748  1
  O  O54  1  0.066706  0.714005  0.205252  1
  O  O55  1  0.075880  0.714462  0.004148  1
  O  O56  1  0.316268  0.665689  0.105755  1
  O  O57  1  0.912069  0.709915  0.709344  1
  O  O58  1  0.933099  0.740333  0.514394  1
  O  O59  1  0.676449  0.659167  0.595187  1
  O  O60  1  0.182302  0.599869  0.805256  1
  O  O61  1  0.889354  0.527191  0.891306  1
  O  O62  1  0.617127  0.597622  0.180291  1
  O  O63  1  0.806919  0.604603  0.332052  1
  O  O64  1  0.888946  0.477709  0.598493  1
  O  O65  1  0.603279  0.412400  0.335092  1
  O  O66  1  0.587931  0.209915  0.709344  1
  O  O67  1  0.566901  0.240333  0.514394  1
  O  O68  1  0.823551  0.159167  0.595187  1
  O  O69  1  0.693081  0.104603  0.332052  1
