# generated using pymatgen
data_DyY3Al18(Co2Pt)2
_symmetry_space_group_name_H-M   'P 1'
_cell_length_a   7.47666204
_cell_length_b   7.47657584
_cell_length_c   9.36598600
_cell_angle_alpha   90.00113943
_cell_angle_beta   89.99953759
_cell_angle_gamma   119.52724805
_symmetry_Int_Tables_number   1
_chemical_formula_structural   DyY3Al18(Co2Pt)2
_chemical_formula_sum   'Dy1 Y3 Al18 Co4 Pt2'
_cell_volume   455.55818607
_cell_formula_units_Z   1
loop_
 _symmetry_equiv_pos_site_id
 _symmetry_equiv_pos_as_xyz
  1  'x, y, z'
loop_
 _atom_site_type_symbol
 _atom_site_label
 _atom_site_symmetry_multiplicity
 _atom_site_fract_x
 _atom_site_fract_y
 _atom_site_fract_z
 _atom_site_occupancy
  Dy  Dy0  1  0.993402  0.669741  0.250403  1
  Y  Y1  1  0.006629  0.330255  0.750427  1
  Y  Y2  1  0.669727  0.993367  0.249574  1
  Y  Y3  1  0.330266  0.006630  0.749595  1
  Al  Al4  1  0.121764  0.121706  0.249996  1
  Al  Al5  1  0.878252  0.878253  0.750004  1
  Al  Al6  1  0.331087  0.324992  0.545857  1
  Al  Al7  1  0.668939  0.674979  0.045923  1
  Al  Al8  1  0.324996  0.331092  0.954145  1
  Al  Al9  1  0.675018  0.668909  0.454075  1
  Al  Al10  1  0.341108  0.549660  0.241748  1
  Al  Al11  1  0.658898  0.450342  0.741739  1
  Al  Al12  1  0.549716  0.341215  0.258251  1
  Al  Al13  1  0.450350  0.658902  0.758260  1
  Al  Al14  1  0.006275  0.334367  0.073246  1
  Al  Al15  1  0.993719  0.665670  0.573132  1
  Al  Al16  1  0.334282  0.006236  0.426757  1
  Al  Al17  1  0.665668  0.993726  0.926820  1
  Al  Al18  1  0.009846  0.673712  0.926958  1
  Al  Al19  1  0.990138  0.326336  0.426844  1
  Al  Al20  1  0.673707  0.009850  0.573089  1
  Al  Al21  1  0.326250  0.990098  0.073159  1
  Co  Co22  1  0.000118  0.999843  0.000003  1
  Co  Co23  1  0.999870  0.000092  0.499997  1
  Co  Co24  1  0.329166  0.670805  0.999992  1
  Co  Co25  1  0.670818  0.329208  0.500010  1
  Pt  Pt26  1  0.672008  0.328021  0.999989  1
  Pt  Pt27  1  0.327981  0.671994  0.500005  1
