# generated using pymatgen
data_DyTmUIr3
_symmetry_space_group_name_H-M   'P 1'
_cell_length_a   5.34714319
_cell_length_b   5.34714384
_cell_length_c   5.34714337
_cell_angle_alpha   64.96489593
_cell_angle_beta   64.96489174
_cell_angle_gamma   64.96489463
_symmetry_Int_Tables_number   1
_chemical_formula_structural   DyTmUIr3
_chemical_formula_sum   'Dy1 Tm1 U1 Ir3'
_cell_volume   119.83050309
_cell_formula_units_Z   1
loop_
 _symmetry_equiv_pos_site_id
 _symmetry_equiv_pos_as_xyz
  1  'x, y, z'
loop_
 _atom_site_type_symbol
 _atom_site_label
 _atom_site_symmetry_multiplicity
 _atom_site_fract_x
 _atom_site_fract_y
 _atom_site_fract_z
 _atom_site_occupancy
  Dy  Dy0  1  0.249788  0.249788  0.249788  1
  Tm  Tm1  1  0.998209  0.998209  0.998209  1
  U  U2  1  0.625447  0.625447  0.625447  1
  Ir  Ir3  1  0.625623  0.625623  0.125312  1
  Ir  Ir4  1  0.625623  0.125312  0.625623  1
  Ir  Ir5  1  0.125312  0.625623  0.625623  1
