# generated using pymatgen
data_DyMg2Ni6SnB2
_symmetry_space_group_name_H-M   'P 1'
_cell_length_a   5.18794700
_cell_length_b   5.18794734
_cell_length_c   13.84064200
_cell_angle_alpha   90.00000000
_cell_angle_beta   90.00000000
_cell_angle_gamma   120.00000421
_symmetry_Int_Tables_number   1
_chemical_formula_structural   DyMg2Ni6SnB2
_chemical_formula_sum   'Dy2 Mg4 Ni12 Sn2 B4'
_cell_volume   322.61008424
_cell_formula_units_Z   2
loop_
 _symmetry_equiv_pos_site_id
 _symmetry_equiv_pos_as_xyz
  1  'x, y, z'
loop_
 _atom_site_type_symbol
 _atom_site_label
 _atom_site_symmetry_multiplicity
 _atom_site_fract_x
 _atom_site_fract_y
 _atom_site_fract_z
 _atom_site_occupancy
  Dy  Dy0  1  0.666667  0.333333  0.750000  1
  Dy  Dy1  1  0.333333  0.666667  0.250000  1
  Mg  Mg2  1  0.333333  0.666667  0.474865  1
  Mg  Mg3  1  0.666667  0.333333  0.974865  1
  Mg  Mg4  1  0.666667  0.333333  0.525135  1
  Mg  Mg5  1  0.333333  0.666667  0.025135  1
  Ni  Ni6  1  0.832664  0.665328  0.347890  1
  Ni  Ni7  1  0.334672  0.167336  0.347890  1
  Ni  Ni8  1  0.832664  0.167336  0.152110  1
  Ni  Ni9  1  0.665328  0.832664  0.652110  1
  Ni  Ni10  1  0.167336  0.334672  0.652110  1
  Ni  Ni11  1  0.832664  0.665328  0.152110  1
  Ni  Ni12  1  0.334672  0.167336  0.152110  1
  Ni  Ni13  1  0.665328  0.832664  0.847890  1
  Ni  Ni14  1  0.167336  0.334672  0.847890  1
  Ni  Ni15  1  0.167336  0.832664  0.652110  1
  Ni  Ni16  1  0.167336  0.832664  0.847890  1
  Ni  Ni17  1  0.832664  0.167336  0.347890  1
  Sn  Sn18  1  0.000000  0.000000  0.000000  1
  Sn  Sn19  1  0.000000  0.000000  0.500000  1
  B  B20  1  0.666667  0.333333  0.250000  1
  B  B21  1  0.333333  0.666667  0.750000  1
  B  B22  1  0.000000  0.000000  0.750000  1
  B  B23  1  0.000000  0.000000  0.250000  1
