# generated using pymatgen
data_DyTm2Pa(Al3Rh)6
_symmetry_space_group_name_H-M   'P 1'
_cell_length_a   7.56654141
_cell_length_b   7.56252958
_cell_length_c   9.40950000
_cell_angle_alpha   90.00000000
_cell_angle_beta   90.00000000
_cell_angle_gamma   119.46892237
_symmetry_Int_Tables_number   1
_chemical_formula_structural   DyTm2Pa(Al3Rh)6
_chemical_formula_sum   'Dy1 Tm2 Pa1 Al18 Rh6'
_cell_volume   468.77129899
_cell_formula_units_Z   1
loop_
 _symmetry_equiv_pos_site_id
 _symmetry_equiv_pos_as_xyz
  1  'x, y, z'
loop_
 _atom_site_type_symbol
 _atom_site_label
 _atom_site_symmetry_multiplicity
 _atom_site_fract_x
 _atom_site_fract_y
 _atom_site_fract_z
 _atom_site_occupancy
  Dy  Dy0  1  0.673140  0.994411  0.250000  1
  Tm  Tm1  1  0.005277  0.328238  0.750000  1
  Tm  Tm2  1  0.328249  0.004654  0.750000  1
  Pa  Pa3  1  0.995549  0.671978  0.250000  1
  Al  Al4  1  0.131797  0.130130  0.250000  1
  Al  Al5  1  0.873655  0.875074  0.750000  1
  Al  Al6  1  0.000693  0.333213  0.074890  1
  Al  Al7  1  0.999647  0.664188  0.919946  1
  Al  Al8  1  0.999647  0.664188  0.580054  1
  Al  Al9  1  0.338652  0.003181  0.424807  1
  Al  Al10  1  0.000693  0.333213  0.425110  1
  Al  Al11  1  0.664560  0.000777  0.577504  1
  Al  Al12  1  0.664560  0.000777  0.922496  1
  Al  Al13  1  0.338652  0.003181  0.075193  1
  Al  Al14  1  0.331865  0.331998  0.555872  1
  Al  Al15  1  0.663841  0.665910  0.450842  1
  Al  Al16  1  0.663841  0.665910  0.049158  1
  Al  Al17  1  0.331865  0.331998  0.944128  1
  Al  Al18  1  0.339123  0.548416  0.250000  1
  Al  Al19  1  0.658941  0.447546  0.750000  1
  Al  Al20  1  0.548821  0.342353  0.250000  1
  Al  Al21  1  0.448945  0.660533  0.750000  1
  Rh  Rh22  1  0.673398  0.329072  0.001260  1
  Rh  Rh23  1  0.326036  0.672152  0.001445  1
  Rh  Rh24  1  0.326036  0.672152  0.498555  1
  Rh  Rh25  1  0.673398  0.329072  0.498740  1
  Rh  Rh26  1  0.999562  0.997844  0.002048  1
  Rh  Rh27  1  0.999562  0.997844  0.497952  1
