# generated using pymatgen
data_Pr4Nd4TiZn7Rh8
_symmetry_space_group_name_H-M   'P 1'
_cell_length_a   4.04571900
_cell_length_b   7.37414981
_cell_length_c   16.70507481
_cell_angle_alpha   90.20909921
_cell_angle_beta   90.00000000
_cell_angle_gamma   90.00000000
_symmetry_Int_Tables_number   1
_chemical_formula_structural   Pr4Nd4TiZn7Rh8
_chemical_formula_sum   'Pr4 Nd4 Ti1 Zn7 Rh8'
_cell_volume   498.37150627
_cell_formula_units_Z   1
loop_
 _symmetry_equiv_pos_site_id
 _symmetry_equiv_pos_as_xyz
  1  'x, y, z'
loop_
 _atom_site_type_symbol
 _atom_site_label
 _atom_site_symmetry_multiplicity
 _atom_site_fract_x
 _atom_site_fract_y
 _atom_site_fract_z
 _atom_site_occupancy
  Pr  Pr0  1  0.250000  0.045769  0.718204  1
  Pr  Pr1  1  0.250000  0.168777  0.939399  1
  Pr  Pr2  1  0.250000  0.546052  0.785608  1
  Pr  Pr3  1  0.250000  0.666899  0.567456  1
  Nd  Nd4  1  0.750000  0.448817  0.216698  1
  Nd  Nd5  1  0.750000  0.954783  0.274143  1
  Nd  Nd6  1  0.750000  0.826443  0.058917  1
  Nd  Nd7  1  0.750000  0.354263  0.439741  1
  Ti  Ti8  1  0.250000  0.994222  0.438834  1
  Zn  Zn9  1  0.750000  0.500724  0.940155  1
  Zn  Zn10  1  0.750000  0.002433  0.563755  1
  Zn  Zn11  1  0.250000  0.636415  0.345617  1
  Zn  Zn12  1  0.750000  0.367187  0.649933  1
  Zn  Zn13  1  0.750000  0.874923  0.850645  1
  Zn  Zn14  1  0.250000  0.496873  0.060730  1
  Zn  Zn15  1  0.250000  0.121490  0.145495  1
  Rh  Rh16  1  0.250000  0.233365  0.557451  1
  Rh  Rh17  1  0.750000  0.256430  0.065854  1
  Rh  Rh18  1  0.250000  0.229189  0.324577  1
  Rh  Rh19  1  0.750000  0.252474  0.813375  1
  Rh  Rh20  1  0.250000  0.742260  0.935884  1
  Rh  Rh21  1  0.750000  0.751986  0.689137  1
  Rh  Rh22  1  0.750000  0.785438  0.433057  1
  Rh  Rh23  1  0.250000  0.742788  0.185332  1
