# generated using pymatgen
data_Y3Er(Ga2Ag)4
_symmetry_space_group_name_H-M   'P 1'
_cell_length_a   4.37744300
_cell_length_b   6.96004784
_cell_length_c   10.26947301
_cell_angle_alpha   89.89677646
_cell_angle_beta   90.00000000
_cell_angle_gamma   90.00000000
_symmetry_Int_Tables_number   1
_chemical_formula_structural   Y3Er(Ga2Ag)4
_chemical_formula_sum   'Y3 Er1 Ga8 Ag4'
_cell_volume   312.88171053
_cell_formula_units_Z   1
loop_
 _symmetry_equiv_pos_site_id
 _symmetry_equiv_pos_as_xyz
  1  'x, y, z'
loop_
 _atom_site_type_symbol
 _atom_site_label
 _atom_site_symmetry_multiplicity
 _atom_site_fract_x
 _atom_site_fract_y
 _atom_site_fract_z
 _atom_site_occupancy
  Y  Y0  1  0.250000  0.779277  0.823424  1
  Y  Y1  1  0.750000  0.221137  0.175738  1
  Y  Y2  1  0.750000  0.721081  0.324667  1
  Er  Er3  1  0.250000  0.278890  0.675475  1
  Ga  Ga4  1  0.250000  0.699786  0.535488  1
  Ga  Ga5  1  0.750000  0.299068  0.465149  1
  Ga  Ga6  1  0.750000  0.797691  0.035619  1
  Ga  Ga7  1  0.250000  0.202120  0.963549  1
  Ga  Ga8  1  0.250000  0.928809  0.154537  1
  Ga  Ga9  1  0.750000  0.072104  0.845933  1
  Ga  Ga10  1  0.750000  0.569602  0.653741  1
  Ga  Ga11  1  0.250000  0.428227  0.345429  1
  Ag  Ag12  1  0.250000  0.545239  0.095431  1
  Ag  Ag13  1  0.750000  0.454916  0.903052  1
  Ag  Ag14  1  0.750000  0.956228  0.597021  1
  Ag  Ag15  1  0.250000  0.045828  0.405749  1
