# generated using pymatgen
data_Zr2TiFe(Co2B)2
_symmetry_space_group_name_H-M   'P 1'
_cell_length_a   8.75571403
_cell_length_b   8.75467203
_cell_length_c   3.09445100
_cell_angle_alpha   90.00000000
_cell_angle_beta   90.00000000
_cell_angle_gamma   90.00869070
_symmetry_Int_Tables_number   1
_chemical_formula_structural   Zr2TiFe(Co2B)2
_chemical_formula_sum   'Zr4 Ti2 Fe2 Co8 B4'
_cell_volume   237.20020190
_cell_formula_units_Z   2
loop_
 _symmetry_equiv_pos_site_id
 _symmetry_equiv_pos_as_xyz
  1  'x, y, z'
loop_
 _atom_site_type_symbol
 _atom_site_label
 _atom_site_symmetry_multiplicity
 _atom_site_fract_x
 _atom_site_fract_y
 _atom_site_fract_z
 _atom_site_occupancy
  Zr  Zr0  1  0.825279  0.323204  0.000000  1
  Zr  Zr1  1  0.321034  0.174753  0.000000  1
  Zr  Zr2  1  0.675714  0.823535  0.000000  1
  Zr  Zr3  1  0.176455  0.677225  0.000000  1
  Ti  Ti4  1  0.000585  0.000565  0.000000  1
  Ti  Ti5  1  0.499965  0.499445  0.000000  1
  Fe  Fe6  1  0.068010  0.224451  0.500000  1
  Fe  Fe7  1  0.223507  0.929725  0.500000  1
  Co  Co8  1  0.501619  0.000034  0.500000  1
  Co  Co9  1  0.999699  0.501830  0.500000  1
  Co  Co10  1  0.775762  0.068722  0.500000  1
  Co  Co11  1  0.929462  0.776216  0.500000  1
  Co  Co12  1  0.433326  0.722821  0.500000  1
  Co  Co13  1  0.569274  0.275944  0.500000  1
  Co  Co14  1  0.724026  0.568787  0.500000  1
  Co  Co15  1  0.276856  0.432800  0.500000  1
  B  B16  1  0.618693  0.118430  0.000000  1
  B  B17  1  0.118182  0.381246  0.000000  1
  B  B18  1  0.881716  0.618654  0.000000  1
  B  B19  1  0.380837  0.881615  0.000000  1
