# generated using pymatgen
data_K4HoUSe6
_symmetry_space_group_name_H-M   'P 1'
_cell_length_a   7.51259493
_cell_length_b   7.51259549
_cell_length_c   8.04674117
_cell_angle_alpha   80.94804359
_cell_angle_beta   80.94803567
_cell_angle_gamma   120.00734755
_symmetry_Int_Tables_number   1
_chemical_formula_structural   K4HoUSe6
_chemical_formula_sum   'K4 Ho1 U1 Se6'
_cell_volume   373.29563436
_cell_formula_units_Z   1
loop_
 _symmetry_equiv_pos_site_id
 _symmetry_equiv_pos_as_xyz
  1  'x, y, z'
loop_
 _atom_site_type_symbol
 _atom_site_label
 _atom_site_symmetry_multiplicity
 _atom_site_fract_x
 _atom_site_fract_y
 _atom_site_fract_z
 _atom_site_occupancy
  K  K0  1  0.999985  0.000015  0.000000  1
  K  K1  1  0.501384  0.498616  0.500000  1
  K  K2  1  0.841843  0.158157  0.500000  1
  K  K3  1  0.157061  0.842939  0.500000  1
  Ho  Ho4  1  0.667497  0.332503  0.000000  1
  U  U5  1  0.332481  0.667519  0.000000  1
  Se  Se6  1  0.297013  0.306956  0.205407  1
  Se  Se7  1  0.436193  0.059316  0.792447  1
  Se  Se8  1  0.080224  0.447408  0.793544  1
  Se  Se9  1  0.693044  0.702987  0.794593  1
  Se  Se10  1  0.552592  0.919776  0.206456  1
  Se  Se11  1  0.940684  0.563807  0.207553  1
