# generated using pymatgen
data_Y11Tm5(ScBi3)4
_symmetry_space_group_name_H-M   'P 1'
_cell_length_a   8.11037218
_cell_length_b   9.38660400
_cell_length_c   11.97115726
_cell_angle_alpha   90.00148812
_cell_angle_beta   90.02407488
_cell_angle_gamma   89.99750133
_symmetry_Int_Tables_number   1
_chemical_formula_structural   Y11Tm5(ScBi3)4
_chemical_formula_sum   'Y11 Tm5 Sc4 Bi12'
_cell_volume   911.35037784
_cell_formula_units_Z   1
loop_
 _symmetry_equiv_pos_site_id
 _symmetry_equiv_pos_as_xyz
  1  'x, y, z'
loop_
 _atom_site_type_symbol
 _atom_site_label
 _atom_site_symmetry_multiplicity
 _atom_site_fract_x
 _atom_site_fract_y
 _atom_site_fract_z
 _atom_site_occupancy
  Y  Y0  1  0.184875  0.749623  0.720641  1
  Y  Y1  1  0.685043  0.749889  0.779846  1
  Y  Y2  1  0.815061  0.249634  0.279556  1
  Y  Y3  1  0.314954  0.250337  0.220445  1
  Y  Y4  1  0.196038  0.936834  0.440837  1
  Y  Y5  1  0.305005  0.063283  0.941464  1
  Y  Y6  1  0.803740  0.436997  0.558985  1
  Y  Y7  1  0.355548  0.749541  0.215119  1
  Y  Y8  1  0.853873  0.748895  0.284164  1
  Y  Y9  1  0.644981  0.249893  0.784616  1
  Y  Y10  1  0.145336  0.249572  0.715376  1
  Tm  Tm11  1  0.303704  0.433430  0.941247  1
  Tm  Tm12  1  0.803988  0.066777  0.558843  1
  Tm  Tm13  1  0.695749  0.933621  0.058567  1
  Tm  Tm14  1  0.196202  0.566649  0.441133  1
  Tm  Tm15  1  0.696589  0.565778  0.058608  1
  Sc  Sc16  1  0.023782  0.749893  0.988225  1
  Sc  Sc17  1  0.525164  0.749538  0.512001  1
  Sc  Sc18  1  0.974831  0.250082  0.012067  1
  Sc  Sc19  1  0.474936  0.249248  0.487857  1
  Bi  Bi20  1  0.434533  0.003459  0.668074  1
  Bi  Bi21  1  0.934194  0.495830  0.832458  1
  Bi  Bi22  1  0.565738  0.503580  0.331767  1
  Bi  Bi23  1  0.065470  0.995798  0.167869  1
  Bi  Bi24  1  0.566896  0.995530  0.332150  1
  Bi  Bi25  1  0.065903  0.503972  0.167334  1
  Bi  Bi26  1  0.433248  0.495641  0.667798  1
  Bi  Bi27  1  0.933131  0.004073  0.832463  1
  Bi  Bi28  1  0.403607  0.747035  0.957587  1
  Bi  Bi29  1  0.903530  0.752516  0.542402  1
  Bi  Bi30  1  0.597720  0.250596  0.043086  1
  Bi  Bi31  1  0.096629  0.252456  0.457414  1
