# generated using pymatgen
data_Dy3Y(CrB4)4
_symmetry_space_group_name_H-M   'P 1'
_cell_length_a   5.93419515
_cell_length_b   11.46591429
_cell_length_c   3.44324500
_cell_angle_alpha   90.00000000
_cell_angle_beta   90.00000000
_cell_angle_gamma   90.02565385
_symmetry_Int_Tables_number   1
_chemical_formula_structural   Dy3Y(CrB4)4
_chemical_formula_sum   'Dy3 Y1 Cr4 B16'
_cell_volume   234.28171638
_cell_formula_units_Z   1
loop_
 _symmetry_equiv_pos_site_id
 _symmetry_equiv_pos_as_xyz
  1  'x, y, z'
loop_
 _atom_site_type_symbol
 _atom_site_label
 _atom_site_symmetry_multiplicity
 _atom_site_fract_x
 _atom_site_fract_y
 _atom_site_fract_z
 _atom_site_occupancy
  Dy  Dy0  1  0.375599  0.650632  0.000000  1
  Dy  Dy1  1  0.124494  0.150901  0.000000  1
  Dy  Dy2  1  0.875473  0.849127  0.000000  1
  Y  Y3  1  0.624234  0.349350  0.000000  1
  Cr  Cr4  1  0.624294  0.081030  0.000000  1
  Cr  Cr5  1  0.375640  0.918936  0.000000  1
  Cr  Cr6  1  0.123588  0.419633  0.000000  1
  Cr  Cr7  1  0.876746  0.580200  0.000000  1
  B  B8  1  0.781032  0.184150  0.500000  1
  B  B9  1  0.219036  0.815739  0.500000  1
  B  B10  1  0.280404  0.316082  0.500000  1
  B  B11  1  0.719407  0.683982  0.500000  1
  B  B12  1  0.862669  0.032357  0.500000  1
  B  B13  1  0.137276  0.967594  0.500000  1
  B  B14  1  0.362440  0.467736  0.500000  1
  B  B15  1  0.637416  0.532516  0.500000  1
  B  B16  1  0.886872  0.453259  0.500000  1
  B  B17  1  0.113354  0.546828  0.500000  1
  B  B18  1  0.386774  0.046742  0.500000  1
  B  B19  1  0.613205  0.953246  0.500000  1
  B  B20  1  0.975236  0.308668  0.500000  1
  B  B21  1  0.024931  0.691373  0.500000  1
  B  B22  1  0.474707  0.191422  0.500000  1
  B  B23  1  0.525173  0.808497  0.500000  1
