# generated using pymatgen
data_Sm6ThP12Pd17
_symmetry_space_group_name_H-M   'P 1'
_cell_length_a   12.40839400
_cell_length_b   12.40839490
_cell_length_c   13.65952500
_cell_angle_alpha   68.36524610
_cell_angle_beta   68.36524444
_cell_angle_gamma   18.98626623
_symmetry_Int_Tables_number   1
_chemical_formula_structural   Sm6ThP12Pd17
_chemical_formula_sum   'Sm6 Th1 P12 Pd17'
_cell_volume   634.63365321
_cell_formula_units_Z   1
loop_
 _symmetry_equiv_pos_site_id
 _symmetry_equiv_pos_as_xyz
  1  'x, y, z'
loop_
 _atom_site_type_symbol
 _atom_site_label
 _atom_site_symmetry_multiplicity
 _atom_site_fract_x
 _atom_site_fract_y
 _atom_site_fract_z
 _atom_site_occupancy
  Sm  Sm0  1  0.364741  0.364741  0.000836  1
  Sm  Sm1  1  0.635259  0.635259  0.999164  1
  Sm  Sm2  1  0.233325  0.233325  0.313518  1
  Sm  Sm3  1  0.766675  0.766675  0.686482  1
  Sm  Sm4  1  0.418298  0.418298  0.261741  1
  Sm  Sm5  1  0.581702  0.581702  0.738259  1
  Th  Th6  1  0.500000  0.500000  0.500000  1
  P  P7  1  0.061539  0.061539  0.924322  1
  P  P8  1  0.938461  0.938461  0.075678  1
  P  P9  1  0.886214  0.886214  0.829608  1
  P  P10  1  0.113786  0.113786  0.170392  1
  P  P11  1  0.188315  0.188315  0.620510  1
  P  P12  1  0.811685  0.811685  0.379490  1
  P  P13  1  0.364830  0.364830  0.579642  1
  P  P14  1  0.635170  0.635170  0.420358  1
  P  P15  1  0.011443  0.011443  0.667598  1
  P  P16  1  0.988557  0.988557  0.332402  1
  P  P17  1  0.232384  0.232384  0.882460  1
  P  P18  1  0.767616  0.767616  0.117540  1
  Pd  Pd19  1  0.838834  0.838834  0.194211  1
  Pd  Pd20  1  0.161166  0.161166  0.805789  1
  Pd  Pd21  1  0.026369  0.026369  0.124233  1
  Pd  Pd22  1  0.973631  0.973631  0.875767  1
  Pd  Pd23  1  0.889704  0.889704  0.457907  1
  Pd  Pd24  1  0.110296  0.110296  0.542093  1
  Pd  Pd25  1  0.500000  0.500000  0.000000  1
  Pd  Pd26  1  0.546247  0.546247  0.253436  1
  Pd  Pd27  1  0.453753  0.453753  0.746564  1
  Pd  Pd28  1  0.296410  0.296410  0.487493  1
  Pd  Pd29  1  0.703590  0.703590  0.512507  1
  Pd  Pd30  1  0.666564  0.666564  0.224166  1
  Pd  Pd31  1  0.333436  0.333436  0.775834  1
  Pd  Pd32  1  0.907810  0.907810  0.644006  1
  Pd  Pd33  1  0.092190  0.092190  0.355994  1
  Pd  Pd34  1  0.217151  0.217151  0.069843  1
  Pd  Pd35  1  0.782849  0.782849  0.930157  1
