# generated using pymatgen
data_Sr5GeOsN7
_symmetry_space_group_name_H-M   'P 1'
_cell_length_a   6.46191327
_cell_length_b   9.06480120
_cell_length_c   9.34603001
_cell_angle_alpha   113.98697884
_cell_angle_beta   98.64450389
_cell_angle_gamma   89.85448214
_symmetry_Int_Tables_number   1
_chemical_formula_structural   Sr5GeOsN7
_chemical_formula_sum   'Sr10 Ge2 Os2 N14'
_cell_volume   493.45107399
_cell_formula_units_Z   2
loop_
 _symmetry_equiv_pos_site_id
 _symmetry_equiv_pos_as_xyz
  1  'x, y, z'
loop_
 _atom_site_type_symbol
 _atom_site_label
 _atom_site_symmetry_multiplicity
 _atom_site_fract_x
 _atom_site_fract_y
 _atom_site_fract_z
 _atom_site_occupancy
  Sr  Sr0  1  0.853749  0.584018  0.348871  1
  Sr  Sr1  1  0.272349  0.979658  0.562606  1
  Sr  Sr2  1  0.694112  0.407808  0.841288  1
  Sr  Sr3  1  0.305888  0.592192  0.158712  1
  Sr  Sr4  1  0.399551  0.785177  0.897081  1
  Sr  Sr5  1  0.600449  0.214823  0.102919  1
  Sr  Sr6  1  0.146251  0.415982  0.651129  1
  Sr  Sr7  1  0.881406  0.837003  0.751265  1
  Sr  Sr8  1  0.118594  0.162997  0.248735  1
  Sr  Sr9  1  0.727651  0.020342  0.437394  1
  Ge  Ge10  1  0.578670  0.356823  0.475453  1
  Ge  Ge11  1  0.421330  0.643177  0.524547  1
  Os  Os12  1  0.119726  0.222138  0.915769  1
  Os  Os13  1  0.880274  0.777862  0.084231  1
  N  N14  1  0.560118  0.554804  0.667380  1
  N  N15  1  0.439882  0.445196  0.332620  1
  N  N16  1  0.161364  0.704038  0.589672  1
  N  N17  1  0.838636  0.295962  0.410328  1
  N  N18  1  0.412850  0.195760  0.489723  1
  N  N19  1  0.587150  0.804240  0.510277  1
  N  N20  1  0.955715  0.150457  0.719614  1
  N  N21  1  0.044285  0.849543  0.280386  1
  N  N22  1  0.225203  0.054328  0.963026  1
  N  N23  1  0.774797  0.945672  0.036974  1
  N  N24  1  0.355222  0.333291  0.910835  1
  N  N25  1  0.973284  0.349518  0.070726  1
  N  N26  1  0.026716  0.650482  0.929274  1
  N  N27  1  0.644778  0.666709  0.089165  1
