# generated using pymatgen
data_Ca3Be8Cd(PO4)8
_symmetry_space_group_name_H-M   'P 1'
_cell_length_a   8.41053953
_cell_length_b   8.84553555
_cell_length_c   7.86460693
_cell_angle_alpha   90.08441131
_cell_angle_beta   89.54891266
_cell_angle_gamma   90.01973934
_symmetry_Int_Tables_number   1
_chemical_formula_structural   Ca3Be8Cd(PO4)8
_chemical_formula_sum   'Ca3 Be8 Cd1 P8 O32'
_cell_volume   585.07434488
_cell_formula_units_Z   1
loop_
 _symmetry_equiv_pos_site_id
 _symmetry_equiv_pos_as_xyz
  1  'x, y, z'
loop_
 _atom_site_type_symbol
 _atom_site_label
 _atom_site_symmetry_multiplicity
 _atom_site_fract_x
 _atom_site_fract_y
 _atom_site_fract_z
 _atom_site_occupancy
  Ca  Ca0  1  0.113771  0.585802  0.244467  1
  Ca  Ca1  1  0.886105  0.414023  0.755762  1
  Ca  Ca2  1  0.387110  0.085626  0.756284  1
  Be  Be3  1  0.731139  0.579364  0.069864  1
  Be  Be4  1  0.231616  0.921456  0.069152  1
  Be  Be5  1  0.555358  0.304358  0.429455  1
  Be  Be6  1  0.056382  0.195046  0.429444  1
  Be  Be7  1  0.444368  0.695537  0.570722  1
  Be  Be8  1  0.944682  0.804753  0.570130  1
  Be  Be9  1  0.768448  0.078422  0.930707  1
  Be  Be10  1  0.268743  0.421518  0.930856  1
  Cd  Cd11  1  0.611233  0.913168  0.244034  1
  P  P12  1  0.558634  0.301334  0.061810  1
  P  P13  1  0.059466  0.198675  0.061403  1
  P  P14  1  0.238194  0.917664  0.439178  1
  P  P15  1  0.737066  0.582449  0.437955  1
  P  P16  1  0.763225  0.080983  0.560080  1
  P  P17  1  0.263483  0.417940  0.561740  1
  P  P18  1  0.440349  0.699473  0.938455  1
  P  P19  1  0.940186  0.801743  0.939517  1
  O  O20  1  0.808730  0.912516  0.004359  1
  O  O21  1  0.310410  0.588027  0.004314  1
  O  O22  1  0.623433  0.135422  0.055932  1
  O  O23  1  0.123754  0.364461  0.056331  1
  O  O24  1  0.079716  0.808051  0.067659  1
  O  O25  1  0.580086  0.695162  0.067960  1
  O  O26  1  0.003508  0.156772  0.239851  1
  O  O27  1  0.502230  0.343175  0.240242  1
  O  O28  1  0.814234  0.578158  0.257603  1
  O  O29  1  0.316286  0.918719  0.257973  1
  O  O30  1  0.595533  0.694424  0.435477  1
  O  O31  1  0.096303  0.807046  0.436053  1
  O  O32  1  0.628501  0.130477  0.436343  1
  O  O33  1  0.129421  0.367696  0.438531  1
  O  O34  1  0.813710  0.924061  0.494952  1
  O  O35  1  0.313094  0.574999  0.495705  1
  O  O36  1  0.686291  0.425791  0.504789  1
  O  O37  1  0.188855  0.075366  0.503831  1
  O  O38  1  0.370277  0.867226  0.564097  1
  O  O39  1  0.871288  0.632278  0.561272  1
  O  O40  1  0.404841  0.306718  0.564161  1
  O  O41  1  0.903990  0.193150  0.562317  1
  O  O42  1  0.186091  0.420725  0.742392  1
  O  O43  1  0.685940  0.079615  0.741048  1
  O  O44  1  0.995884  0.844020  0.760767  1
  O  O45  1  0.498349  0.656280  0.760633  1
  O  O46  1  0.920062  0.192305  0.932974  1
  O  O47  1  0.419573  0.307442  0.933206  1
  O  O48  1  0.373743  0.863814  0.941086  1
  O  O49  1  0.875728  0.636118  0.943969  1
  O  O50  1  0.191069  0.088303  0.996596  1
  O  O51  1  0.689518  0.412348  0.996570  1
