# generated using pymatgen
data_Bi2(PS3)3
_symmetry_space_group_name_H-M   'P 1'
_cell_length_a   6.42286945
_cell_length_b   8.02687949
_cell_length_c   15.33869447
_cell_angle_alpha   89.86562497
_cell_angle_beta   101.98851546
_cell_angle_gamma   90.09317714
_symmetry_Int_Tables_number   1
_chemical_formula_structural   Bi2(PS3)3
_chemical_formula_sum   'Bi4 P6 S18'
_cell_volume   773.54508986
_cell_formula_units_Z   2
loop_
 _symmetry_equiv_pos_site_id
 _symmetry_equiv_pos_as_xyz
  1  'x, y, z'
loop_
 _atom_site_type_symbol
 _atom_site_label
 _atom_site_symmetry_multiplicity
 _atom_site_fract_x
 _atom_site_fract_y
 _atom_site_fract_z
 _atom_site_occupancy
  Bi  Bi0  1  0.559220  0.622943  0.118509  1
  Bi  Bi1  1  0.213670  0.931465  0.428030  1
  Bi  Bi2  1  0.440780  0.377057  0.881491  1
  Bi  Bi3  1  0.786330  0.068535  0.571970  1
  P  P4  1  0.320176  0.290365  0.633490  1
  P  P5  1  0.971562  0.623268  0.964392  1
  P  P6  1  0.650434  0.958134  0.295754  1
  P  P7  1  0.349566  0.041866  0.704246  1
  P  P8  1  0.028438  0.376732  0.035608  1
  P  P9  1  0.679824  0.709635  0.366510  1
  S  S10  1  0.118587  0.209721  0.952218  1
  S  S11  1  0.805921  0.550019  0.290845  1
  S  S12  1  0.456507  0.875443  0.620092  1
  S  S13  1  0.723504  0.315334  0.054405  1
  S  S14  1  0.383469  0.641143  0.381052  1
  S  S15  1  0.057652  0.979185  0.726590  1
  S  S16  1  0.223338  0.415039  0.155283  1
  S  S17  1  0.889802  0.744525  0.487368  1
  S  S18  1  0.569360  0.069781  0.817386  1
  S  S19  1  0.881413  0.790279  0.047782  1
  S  S20  1  0.543493  0.124557  0.379908  1
  S  S21  1  0.194079  0.449981  0.709155  1
  S  S22  1  0.276496  0.684666  0.945595  1
  S  S23  1  0.942348  0.020815  0.273410  1
  S  S24  1  0.616531  0.358857  0.618948  1
  S  S25  1  0.776662  0.584961  0.844717  1
  S  S26  1  0.430640  0.930219  0.182614  1
  S  S27  1  0.110198  0.255475  0.512632  1
