# generated using pymatgen
data_Er6TiZn22P
_symmetry_space_group_name_H-M   'P 1'
_cell_length_a   9.02502842
_cell_length_b   9.02494211
_cell_length_c   9.02485300
_cell_angle_alpha   60.00122425
_cell_angle_beta   60.00005234
_cell_angle_gamma   59.99992973
_symmetry_Int_Tables_number   1
_chemical_formula_structural   Er6TiZn22P
_chemical_formula_sum   'Er6 Ti1 Zn22 P1'
_cell_volume   519.78303520
_cell_formula_units_Z   1
loop_
 _symmetry_equiv_pos_site_id
 _symmetry_equiv_pos_as_xyz
  1  'x, y, z'
loop_
 _atom_site_type_symbol
 _atom_site_label
 _atom_site_symmetry_multiplicity
 _atom_site_fract_x
 _atom_site_fract_y
 _atom_site_fract_z
 _atom_site_occupancy
  Er  Er0  1  0.711586  0.288420  0.288409  1
  Er  Er1  1  0.711560  0.288439  0.711565  1
  Er  Er2  1  0.711551  0.711570  0.288436  1
  Er  Er3  1  0.288414  0.711580  0.711591  1
  Er  Er4  1  0.288440  0.711561  0.288435  1
  Er  Er5  1  0.288449  0.288430  0.711564  1
  Ti  Ti6  1  0.000000  0.000000  0.000000  1
  Zn  Zn7  1  0.629740  0.123409  0.123415  1
  Zn  Zn8  1  0.123406  0.629743  0.123426  1
  Zn  Zn9  1  0.123410  0.123425  0.629748  1
  Zn  Zn10  1  0.123427  0.123422  0.123405  1
  Zn  Zn11  1  0.370260  0.876591  0.876585  1
  Zn  Zn12  1  0.876594  0.370257  0.876574  1
  Zn  Zn13  1  0.876590  0.876575  0.370252  1
  Zn  Zn14  1  0.876573  0.876578  0.876595  1
  Zn  Zn15  1  0.500000  0.000000  0.000000  1
  Zn  Zn16  1  0.500000  0.000000  0.500000  1
  Zn  Zn17  1  0.500000  0.500000  0.000000  1
  Zn  Zn18  1  0.000000  0.500000  0.500000  1
  Zn  Zn19  1  0.000000  0.500000  0.000000  1
  Zn  Zn20  1  0.000000  0.000000  0.500000  1
  Zn  Zn21  1  0.012499  0.329178  0.329165  1
  Zn  Zn22  1  0.329165  0.012511  0.329166  1
  Zn  Zn23  1  0.329164  0.329170  0.012504  1
  Zn  Zn24  1  0.329159  0.329167  0.329167  1
  Zn  Zn25  1  0.987501  0.670822  0.670835  1
  Zn  Zn26  1  0.670835  0.987489  0.670834  1
  Zn  Zn27  1  0.670836  0.670830  0.987496  1
  Zn  Zn28  1  0.670841  0.670833  0.670833  1
  P  P29  1  0.500000  0.500000  0.500000  1
