# generated using pymatgen
data_Pr3NdIn2Rh3
_symmetry_space_group_name_H-M   'P 1'
_cell_length_a   7.80372737
_cell_length_b   7.80372769
_cell_length_c   4.22863000
_cell_angle_alpha   90.00000000
_cell_angle_beta   90.00000000
_cell_angle_gamma   121.20488118
_symmetry_Int_Tables_number   1
_chemical_formula_structural   Pr3NdIn2Rh3
_chemical_formula_sum   'Pr3 Nd1 In2 Rh3'
_cell_volume   220.25844662
_cell_formula_units_Z   1
loop_
 _symmetry_equiv_pos_site_id
 _symmetry_equiv_pos_as_xyz
  1  'x, y, z'
loop_
 _atom_site_type_symbol
 _atom_site_label
 _atom_site_symmetry_multiplicity
 _atom_site_fract_x
 _atom_site_fract_y
 _atom_site_fract_z
 _atom_site_occupancy
  Pr  Pr0  1  0.025321  0.584439  0.500000  1
  Pr  Pr1  1  0.383924  0.383924  0.500000  1
  Pr  Pr2  1  0.584439  0.025321  0.500000  1
  Nd  Nd3  1  0.755340  0.755340  0.000000  1
  In  In4  1  0.994786  0.248646  0.000000  1
  In  In5  1  0.248646  0.994786  0.000000  1
  Rh  Rh6  1  0.331093  0.666432  0.000000  1
  Rh  Rh7  1  0.010020  0.010020  0.500000  1
  Rh  Rh8  1  0.666432  0.331093  0.000000  1
