# generated using pymatgen
data_Ce8Si12HIr3
_symmetry_space_group_name_H-M   'P 1'
_cell_length_a   8.22263600
_cell_length_b   8.22263666
_cell_length_c   8.23205200
_cell_angle_alpha   90.00000000
_cell_angle_beta   90.00000000
_cell_angle_gamma   119.99998930
_symmetry_Int_Tables_number   1
_chemical_formula_structural   Ce8Si12HIr3
_chemical_formula_sum   'Ce8 Si12 H1 Ir3'
_cell_volume   482.01543909
_cell_formula_units_Z   1
loop_
 _symmetry_equiv_pos_site_id
 _symmetry_equiv_pos_as_xyz
  1  'x, y, z'
loop_
 _atom_site_type_symbol
 _atom_site_label
 _atom_site_symmetry_multiplicity
 _atom_site_fract_x
 _atom_site_fract_y
 _atom_site_fract_z
 _atom_site_occupancy
  Ce  Ce0  1  0.000000  0.000000  0.262658  1
  Ce  Ce1  1  0.000000  0.000000  0.758100  1
  Ce  Ce2  1  0.503500  0.496500  0.264614  1
  Ce  Ce3  1  0.503500  0.007001  0.264614  1
  Ce  Ce4  1  0.992999  0.496500  0.264614  1
  Ce  Ce5  1  0.501429  0.498571  0.759736  1
  Ce  Ce6  1  0.501429  0.002856  0.759736  1
  Ce  Ce7  1  0.997144  0.498571  0.759736  1
  Si  Si8  1  0.171888  0.828112  0.509950  1
  Si  Si9  1  0.171888  0.343777  0.509950  1
  Si  Si10  1  0.656223  0.828112  0.509950  1
  Si  Si11  1  0.837033  0.162967  0.513115  1
  Si  Si12  1  0.837033  0.674065  0.513115  1
  Si  Si13  1  0.325935  0.162967  0.513115  1
  Si  Si14  1  0.834677  0.165323  0.014557  1
  Si  Si15  1  0.834677  0.669354  0.014557  1
  Si  Si16  1  0.330646  0.165323  0.014557  1
  Si  Si17  1  0.165738  0.834262  0.003814  1
  Si  Si18  1  0.165738  0.331478  0.003814  1
  Si  Si19  1  0.668522  0.834262  0.003814  1
  H  H20  1  0.333333  0.666667  0.237443  1
  Ir  Ir21  1  0.666667  0.333333  0.513389  1
  Ir  Ir22  1  0.666667  0.333333  0.007037  1
  Ir  Ir23  1  0.333333  0.666667  0.024018  1
