# generated using pymatgen
data_Hf4Tc(GeIr)6
_symmetry_space_group_name_H-M   'P 1'
_cell_length_a   7.10974196
_cell_length_b   7.10974301
_cell_length_c   7.10974200
_cell_angle_alpha   109.47121774
_cell_angle_beta   109.47122074
_cell_angle_gamma   109.47122155
_symmetry_Int_Tables_number   1
_chemical_formula_structural   Hf4Tc(GeIr)6
_chemical_formula_sum   'Hf4 Tc1 Ge6 Ir6'
_cell_volume   276.65575099
_cell_formula_units_Z   1
loop_
 _symmetry_equiv_pos_site_id
 _symmetry_equiv_pos_as_xyz
  1  'x, y, z'
loop_
 _atom_site_type_symbol
 _atom_site_label
 _atom_site_symmetry_multiplicity
 _atom_site_fract_x
 _atom_site_fract_y
 _atom_site_fract_z
 _atom_site_occupancy
  Hf  Hf0  1  0.500000  0.500000  0.500000  1
  Hf  Hf1  1  0.000000  0.000000  0.500000  1
  Hf  Hf2  1  0.500000  0.000000  0.000000  1
  Hf  Hf3  1  0.000000  0.500000  0.000000  1
  Tc  Tc4  1  0.000000  0.000000  0.000000  1
  Ge  Ge5  1  0.311305  0.311305  0.000000  1
  Ge  Ge6  1  0.000000  0.311305  0.311305  1
  Ge  Ge7  1  0.000000  0.688695  0.688695  1
  Ge  Ge8  1  0.688695  0.000000  0.688695  1
  Ge  Ge9  1  0.311305  0.000000  0.311305  1
  Ge  Ge10  1  0.688695  0.688695  0.000000  1
  Ir  Ir11  1  0.750000  0.250000  0.500000  1
  Ir  Ir12  1  0.500000  0.250000  0.750000  1
  Ir  Ir13  1  0.500000  0.750000  0.250000  1
  Ir  Ir14  1  0.250000  0.500000  0.750000  1
  Ir  Ir15  1  0.750000  0.500000  0.250000  1
  Ir  Ir16  1  0.250000  0.750000  0.500000  1
