# generated using pymatgen
data_La2Zn2Ni7Rh
_symmetry_space_group_name_H-M   'P 1'
_cell_length_a   4.06077700
_cell_length_b   5.11821292
_cell_length_c   8.67289804
_cell_angle_alpha   88.49498091
_cell_angle_beta   90.00000000
_cell_angle_gamma   90.00000000
_symmetry_Int_Tables_number   1
_chemical_formula_structural   La2Zn2Ni7Rh
_chemical_formula_sum   'La2 Zn2 Ni7 Rh1'
_cell_volume   180.19464679
_cell_formula_units_Z   1
loop_
 _symmetry_equiv_pos_site_id
 _symmetry_equiv_pos_as_xyz
  1  'x, y, z'
loop_
 _atom_site_type_symbol
 _atom_site_label
 _atom_site_symmetry_multiplicity
 _atom_site_fract_x
 _atom_site_fract_y
 _atom_site_fract_z
 _atom_site_occupancy
  La  La0  1  0.000000  0.242984  0.751046  1
  La  La1  1  0.000000  0.757016  0.248954  1
  Zn  Zn2  1  0.500000  0.257838  0.254585  1
  Zn  Zn3  1  0.500000  0.742162  0.745415  1
  Ni  Ni4  1  0.500000  0.500000  0.500000  1
  Ni  Ni5  1  0.500000  0.500000  0.000000  1
  Ni  Ni6  1  0.500000  0.000000  0.500000  1
  Ni  Ni7  1  0.000000  0.274807  0.080534  1
  Ni  Ni8  1  0.000000  0.752253  0.570944  1
  Ni  Ni9  1  0.000000  0.725193  0.919466  1
  Ni  Ni10  1  0.000000  0.247747  0.429056  1
  Rh  Rh11  1  0.500000  0.000000  0.000000  1
