# generated using pymatgen
data_Li3Ti(NbIr3)2
_symmetry_space_group_name_H-M   'P 1'
_cell_length_a   4.34522800
_cell_length_b   6.12175100
_cell_length_c   13.01717700
_cell_angle_alpha   90.00000000
_cell_angle_beta   90.00000000
_cell_angle_gamma   90.00000000
_symmetry_Int_Tables_number   1
_chemical_formula_structural   Li3Ti(NbIr3)2
_chemical_formula_sum   'Li6 Ti2 Nb4 Ir12'
_cell_volume   346.26216524
_cell_formula_units_Z   2
loop_
 _symmetry_equiv_pos_site_id
 _symmetry_equiv_pos_as_xyz
  1  'x, y, z'
loop_
 _atom_site_type_symbol
 _atom_site_label
 _atom_site_symmetry_multiplicity
 _atom_site_fract_x
 _atom_site_fract_y
 _atom_site_fract_z
 _atom_site_occupancy
  Li  Li0  1  0.999968  0.000000  0.998133  1
  Li  Li1  1  0.499577  0.500000  0.165396  1
  Li  Li2  1  0.999578  0.000000  0.334604  1
  Li  Li3  1  0.499966  0.500000  0.501867  1
  Li  Li4  1  0.000376  0.000000  0.667172  1
  Li  Li5  1  0.500374  0.500000  0.832828  1
  Ti  Ti6  1  0.000388  0.500000  0.669860  1
  Ti  Ti7  1  0.500389  0.000000  0.830139  1
  Nb  Nb8  1  0.000029  0.500000  0.995116  1
  Nb  Nb9  1  0.499605  0.000000  0.165148  1
  Nb  Nb10  1  0.999603  0.500000  0.334852  1
  Nb  Nb11  1  0.500027  0.000000  0.504884  1
  Ir  Ir12  1  0.500022  0.247347  0.997053  1
  Ir  Ir13  1  0.500022  0.752653  0.997053  1
  Ir  Ir14  1  0.999619  0.250419  0.166036  1
  Ir  Ir15  1  0.999619  0.749580  0.166036  1
  Ir  Ir16  1  0.499618  0.249581  0.333964  1
  Ir  Ir17  1  0.499618  0.750420  0.333964  1
  Ir  Ir18  1  0.000024  0.252652  0.502947  1
  Ir  Ir19  1  0.000024  0.747347  0.502947  1
  Ir  Ir20  1  0.500384  0.254103  0.669040  1
  Ir  Ir21  1  0.500384  0.745898  0.669040  1
  Ir  Ir22  1  0.000386  0.245897  0.830960  1
  Ir  Ir23  1  0.000386  0.754102  0.830960  1
