# generated using pymatgen
data_Dy3U2O10
_symmetry_space_group_name_H-M   'P 1'
_cell_length_a   6.45518242
_cell_length_b   6.45518156
_cell_length_c   8.34879030
_cell_angle_alpha   51.61250603
_cell_angle_beta   51.61250980
_cell_angle_gamma   49.03468590
_symmetry_Int_Tables_number   1
_chemical_formula_structural   Dy3U2O10
_chemical_formula_sum   'Dy3 U2 O10'
_cell_volume   191.99493986
_cell_formula_units_Z   1
loop_
 _symmetry_equiv_pos_site_id
 _symmetry_equiv_pos_as_xyz
  1  'x, y, z'
loop_
 _atom_site_type_symbol
 _atom_site_label
 _atom_site_symmetry_multiplicity
 _atom_site_fract_x
 _atom_site_fract_y
 _atom_site_fract_z
 _atom_site_occupancy
  Dy  Dy0  1  0.397621  0.397621  0.903838  1
  Dy  Dy1  1  0.000000  0.000000  0.500000  1
  Dy  Dy2  1  0.602379  0.602379  0.096162  1
  U  U3  1  0.196579  0.196579  0.705827  1
  U  U4  1  0.803421  0.803421  0.294173  1
  O  O5  1  0.233748  0.766252  0.000000  1
  O  O6  1  0.856263  0.353717  0.606737  1
  O  O7  1  0.461633  0.946618  0.208926  1
  O  O8  1  0.766252  0.233748  0.000000  1
  O  O9  1  0.053382  0.538367  0.791074  1
  O  O10  1  0.353717  0.856263  0.606737  1
  O  O11  1  0.946618  0.461633  0.208926  1
  O  O12  1  0.646283  0.143737  0.393263  1
  O  O13  1  0.538367  0.053382  0.791074  1
  O  O14  1  0.143737  0.646283  0.393263  1
