# generated using pymatgen
data_La19CdIr11Ru
_symmetry_space_group_name_H-M   'P 1'
_cell_length_a   11.39931763
_cell_length_b   11.40952763
_cell_length_c   6.57765800
_cell_angle_alpha   90.00000000
_cell_angle_beta   90.00000000
_cell_angle_gamma   90.14891131
_symmetry_Int_Tables_number   1
_chemical_formula_structural   La19CdIr11Ru
_chemical_formula_sum   'La19 Cd1 Ir11 Ru1'
_cell_volume   855.49276596
_cell_formula_units_Z   1
loop_
 _symmetry_equiv_pos_site_id
 _symmetry_equiv_pos_as_xyz
  1  'x, y, z'
loop_
 _atom_site_type_symbol
 _atom_site_label
 _atom_site_symmetry_multiplicity
 _atom_site_fract_x
 _atom_site_fract_y
 _atom_site_fract_z
 _atom_site_occupancy
  La  La0  1  0.279556  0.086542  0.393070  1
  La  La1  1  0.292849  0.910241  0.891432  1
  La  La2  1  0.707151  0.089759  0.891432  1
  La  La3  1  0.720444  0.913458  0.393070  1
  La  La4  1  0.590323  0.794101  0.893946  1
  La  La5  1  0.586986  0.205409  0.386269  1
  La  La6  1  0.413014  0.794591  0.386269  1
  La  La7  1  0.409677  0.205899  0.893946  1
  La  La8  1  0.206554  0.411000  0.613595  1
  La  La9  1  0.206869  0.591725  0.108939  1
  La  La10  1  0.793131  0.408275  0.108939  1
  La  La11  1  0.793446  0.589000  0.613595  1
  La  La12  1  0.908735  0.709745  0.110914  1
  La  La13  1  0.912394  0.277905  0.607080  1
  La  La14  1  0.087606  0.722095  0.607080  1
  La  La15  1  0.091265  0.290255  0.110914  1
  La  La16  1  0.000000  0.000000  0.997910  1
  La  La17  1  0.500000  0.500000  0.998941  1
  La  La18  1  0.500000  0.500000  0.499524  1
  Cd  Cd19  1  0.000000  0.000000  0.498999  1
  Ir  Ir20  1  0.844435  0.155924  0.241805  1
  Ir  Ir21  1  0.845022  0.844374  0.756882  1
  Ir  Ir22  1  0.154978  0.155626  0.756882  1
  Ir  Ir23  1  0.155565  0.844076  0.241805  1
  Ir  Ir24  1  0.655045  0.346978  0.746359  1
  Ir  Ir25  1  0.654190  0.654600  0.253265  1
  Ir  Ir26  1  0.345810  0.345400  0.253265  1
  Ir  Ir27  1  0.344955  0.653022  0.746359  1
  Ir  Ir28  1  0.500000  0.000000  0.617826  1
  Ir  Ir29  1  0.000000  0.500000  0.875657  1
  Ir  Ir30  1  0.000000  0.500000  0.384063  1
  Ru  Ru31  1  0.500000  0.000000  0.119960  1
