# generated using pymatgen
data_Tb2NdRuI3
_symmetry_space_group_name_H-M   'P 1'
_cell_length_a   4.27703700
_cell_length_b   9.08836990
_cell_length_c   12.41841317
_cell_angle_alpha   94.44441448
_cell_angle_beta   90.00000000
_cell_angle_gamma   90.00000000
_symmetry_Int_Tables_number   1
_chemical_formula_structural   Tb2NdRuI3
_chemical_formula_sum   'Tb4 Nd2 Ru2 I6'
_cell_volume   481.26824627
_cell_formula_units_Z   2
loop_
 _symmetry_equiv_pos_site_id
 _symmetry_equiv_pos_as_xyz
  1  'x, y, z'
loop_
 _atom_site_type_symbol
 _atom_site_label
 _atom_site_symmetry_multiplicity
 _atom_site_fract_x
 _atom_site_fract_y
 _atom_site_fract_z
 _atom_site_occupancy
  Tb  Tb0  1  0.750000  0.879562  0.624530  1
  Tb  Tb1  1  0.250000  0.120438  0.375470  1
  Tb  Tb2  1  0.750000  0.898304  0.183078  1
  Tb  Tb3  1  0.250000  0.101696  0.816922  1
  Nd  Nd4  1  0.750000  0.273882  0.603480  1
  Nd  Nd5  1  0.250000  0.726118  0.396520  1
  Ru  Ru6  1  0.750000  0.939403  0.404438  1
  Ru  Ru7  1  0.250000  0.060597  0.595562  1
  I  I8  1  0.750000  0.414786  0.360647  1
  I  I9  1  0.250000  0.585214  0.639353  1
  I  I10  1  0.750000  0.867085  0.890039  1
  I  I11  1  0.250000  0.132915  0.109961  1
  I  I12  1  0.750000  0.348719  0.870175  1
  I  I13  1  0.250000  0.651281  0.129825  1
