# generated using pymatgen
data_HoEr3Pd2(PtO7)2
_symmetry_space_group_name_H-M   'P 1'
_cell_length_a   7.22985055
_cell_length_b   7.23599860
_cell_length_c   7.22883613
_cell_angle_alpha   59.96721400
_cell_angle_beta   59.90530112
_cell_angle_gamma   59.97186241
_symmetry_Int_Tables_number   1
_chemical_formula_structural   HoEr3Pd2(PtO7)2
_chemical_formula_sum   'Ho1 Er3 Pd2 Pt2 O14'
_cell_volume   267.09733936
_cell_formula_units_Z   1
loop_
 _symmetry_equiv_pos_site_id
 _symmetry_equiv_pos_as_xyz
  1  'x, y, z'
loop_
 _atom_site_type_symbol
 _atom_site_label
 _atom_site_symmetry_multiplicity
 _atom_site_fract_x
 _atom_site_fract_y
 _atom_site_fract_z
 _atom_site_occupancy
  Ho  Ho0  1  0.125000  0.625000  0.625000  1
  Er  Er1  1  0.625000  0.625000  0.125000  1
  Er  Er2  1  0.625000  0.625000  0.625000  1
  Er  Er3  1  0.625000  0.125000  0.625000  1
  Pd  Pd4  1  0.125000  0.125000  0.125000  1
  Pd  Pd5  1  0.125000  0.625000  0.125000  1
  Pt  Pt6  1  0.625000  0.125000  0.125000  1
  Pt  Pt7  1  0.125000  0.125000  0.625000  1
  O  O8  1  0.032340  0.465928  0.468151  1
  O  O9  1  0.781664  0.783916  0.217364  1
  O  O10  1  0.781664  0.217056  0.217364  1
  O  O11  1  0.748472  0.750622  0.750283  1
  O  O12  1  0.032908  0.466630  0.033832  1
  O  O13  1  0.467856  0.032125  0.467895  1
  O  O14  1  0.032340  0.033581  0.468151  1
  O  O15  1  0.501528  0.499378  0.499717  1
  O  O16  1  0.217660  0.216419  0.781849  1
  O  O17  1  0.217092  0.783370  0.216168  1
  O  O18  1  0.782144  0.217875  0.782105  1
  O  O19  1  0.468336  0.032944  0.032636  1
  O  O20  1  0.468336  0.466084  0.032636  1
  O  O21  1  0.217660  0.784072  0.781849  1
