# generated using pymatgen
data_Nd8Th2Os2I15
_symmetry_space_group_name_H-M   'P 1'
_cell_length_a   10.13395874
_cell_length_b   10.96510590
_cell_length_c   11.85324044
_cell_angle_alpha   92.52549610
_cell_angle_beta   114.13348133
_cell_angle_gamma   110.41843912
_symmetry_Int_Tables_number   1
_chemical_formula_structural   Nd8Th2Os2I15
_chemical_formula_sum   'Nd8 Th2 Os2 I15'
_cell_volume   1099.31564461
_cell_formula_units_Z   1
loop_
 _symmetry_equiv_pos_site_id
 _symmetry_equiv_pos_as_xyz
  1  'x, y, z'
loop_
 _atom_site_type_symbol
 _atom_site_label
 _atom_site_symmetry_multiplicity
 _atom_site_fract_x
 _atom_site_fract_y
 _atom_site_fract_z
 _atom_site_occupancy
  Nd  Nd0  1  0.292924  0.898418  0.271299  1
  Nd  Nd1  1  0.707076  0.101582  0.728701  1
  Nd  Nd2  1  0.088082  0.545479  0.332373  1
  Nd  Nd3  1  0.911918  0.454521  0.667627  1
  Nd  Nd4  1  0.834927  0.749341  0.176288  1
  Nd  Nd5  1  0.165073  0.250659  0.823712  1
  Nd  Nd6  1  0.973881  0.795682  0.902239  1
  Nd  Nd7  1  0.026119  0.204318  0.097761  1
  Th  Th8  1  0.216588  0.573914  0.047731  1
  Th  Th9  1  0.783412  0.426086  0.952269  1
  Os  Os10  1  0.031144  0.666647  0.114600  1
  Os  Os11  1  0.968856  0.333353  0.885400  1
  I  I12  1  0.339405  0.444744  0.300872  1
  I  I13  1  0.660595  0.555256  0.699128  1
  I  I14  1  0.212319  0.738687  0.818394  1
  I  I15  1  0.787681  0.261313  0.181606  1
  I  I16  1  0.143800  0.385238  0.584703  1
  I  I17  1  0.856200  0.614762  0.415297  1
  I  I18  1  0.389307  0.802102  0.531648  1
  I  I19  1  0.610693  0.197898  0.468352  1
  I  I20  1  0.264274  0.088339  0.055741  1
  I  I21  1  0.735726  0.911661  0.944259  1
  I  I22  1  0.562003  0.843572  0.226374  1
  I  I23  1  0.437997  0.156428  0.773626  1
  I  I24  1  0.093225  0.038709  0.338442  1
  I  I25  1  0.906775  0.961291  0.661558  1
  I  I26  1  0.500000  0.500000  0.000000  1
