# generated using pymatgen
data_Gd2CoB8Ir
_symmetry_space_group_name_H-M   'P 1'
_cell_length_a   6.94407183
_cell_length_b   6.94407254
_cell_length_c   6.94407139
_cell_angle_alpha   111.15026927
_cell_angle_beta   112.98218650
_cell_angle_gamma   104.40296191
_symmetry_Int_Tables_number   1
_chemical_formula_structural   Gd2CoB8Ir
_chemical_formula_sum   'Gd4 Co2 B16 Ir2'
_cell_volume   256.19607191
_cell_formula_units_Z   2
loop_
 _symmetry_equiv_pos_site_id
 _symmetry_equiv_pos_as_xyz
  1  'x, y, z'
loop_
 _atom_site_type_symbol
 _atom_site_label
 _atom_site_symmetry_multiplicity
 _atom_site_fract_x
 _atom_site_fract_y
 _atom_site_fract_z
 _atom_site_occupancy
  Gd  Gd0  1  0.791821  0.791821  0.000000  1
  Gd  Gd1  1  0.208179  0.208179  0.000000  1
  Gd  Gd2  1  0.749835  0.249835  0.500000  1
  Gd  Gd3  1  0.250165  0.750165  0.500000  1
  Co  Co4  1  0.500000  0.740627  0.240627  1
  Co  Co5  1  0.500000  0.259373  0.759373  1
  B  B6  1  0.273485  0.108470  0.381955  1
  B  B7  1  0.726515  0.891530  0.618045  1
  B  B8  1  0.273485  0.891530  0.165016  1
  B  B9  1  0.726515  0.108470  0.834984  1
  B  B10  1  0.110311  0.732190  0.842502  1
  B  B11  1  0.889689  0.267810  0.157498  1
  B  B12  1  0.110311  0.267810  0.378121  1
  B  B13  1  0.889689  0.732190  0.621879  1
  B  B14  1  0.118991  0.111726  0.532290  1
  B  B15  1  0.579435  0.586701  0.467710  1
  B  B16  1  0.118991  0.586701  0.007266  1
  B  B17  1  0.579435  0.111726  0.992734  1
  B  B18  1  0.881009  0.888274  0.467710  1
  B  B19  1  0.420565  0.413299  0.532290  1
  B  B20  1  0.881009  0.413299  0.992734  1
  B  B21  1  0.420565  0.888274  0.007266  1
  Ir  Ir22  1  0.276353  0.500000  0.776353  1
  Ir  Ir23  1  0.723647  0.500000  0.223647  1
