# generated using pymatgen
data_Sm6EuCoBr12
_symmetry_space_group_name_H-M   'P 1'
_cell_length_a   9.44022726
_cell_length_b   9.44022721
_cell_length_c   9.44022777
_cell_angle_alpha   106.42460314
_cell_angle_beta   106.42459911
_cell_angle_gamma   106.42460304
_symmetry_Int_Tables_number   1
_chemical_formula_structural   Sm6EuCoBr12
_chemical_formula_sum   'Sm6 Eu1 Co1 Br12'
_cell_volume   711.34793279
_cell_formula_units_Z   1
loop_
 _symmetry_equiv_pos_site_id
 _symmetry_equiv_pos_as_xyz
  1  'x, y, z'
loop_
 _atom_site_type_symbol
 _atom_site_label
 _atom_site_symmetry_multiplicity
 _atom_site_fract_x
 _atom_site_fract_y
 _atom_site_fract_z
 _atom_site_occupancy
  Sm  Sm0  1  0.515132  0.598497  0.801962  1
  Sm  Sm1  1  0.801962  0.515132  0.598497  1
  Sm  Sm2  1  0.598497  0.801962  0.515132  1
  Sm  Sm3  1  0.482430  0.398987  0.195639  1
  Sm  Sm4  1  0.195639  0.482430  0.398987  1
  Sm  Sm5  1  0.398987  0.195639  0.482430  1
  Eu  Eu6  1  0.998286  0.998286  0.998286  1
  Co  Co7  1  0.498837  0.498837  0.498837  1
  Br  Br8  1  0.280430  0.820956  0.425492  1
  Br  Br9  1  0.425492  0.280430  0.820956  1
  Br  Br10  1  0.820956  0.425492  0.280430  1
  Br  Br11  1  0.717110  0.176848  0.572443  1
  Br  Br12  1  0.572443  0.717110  0.176848  1
  Br  Br13  1  0.176848  0.572443  0.717110  1
  Br  Br14  1  0.050607  0.134306  0.350319  1
  Br  Br15  1  0.350319  0.050607  0.134306  1
  Br  Br16  1  0.134306  0.350319  0.050607  1
  Br  Br17  1  0.947021  0.863393  0.646673  1
  Br  Br18  1  0.646673  0.947021  0.863393  1
  Br  Br19  1  0.863393  0.646673  0.947021  1
