# generated using pymatgen
data_HoThTl(Si3Pd10)2
_symmetry_space_group_name_H-M   'P 1'
_cell_length_a   8.73718101
_cell_length_b   8.73718155
_cell_length_c   8.73718200
_cell_angle_alpha   60.00000585
_cell_angle_beta   60.00000381
_cell_angle_gamma   59.99999803
_symmetry_Int_Tables_number   1
_chemical_formula_structural   HoThTl(Si3Pd10)2
_chemical_formula_sum   'Ho1 Th1 Tl1 Si6 Pd20'
_cell_volume   471.62748079
_cell_formula_units_Z   1
loop_
 _symmetry_equiv_pos_site_id
 _symmetry_equiv_pos_as_xyz
  1  'x, y, z'
loop_
 _atom_site_type_symbol
 _atom_site_label
 _atom_site_symmetry_multiplicity
 _atom_site_fract_x
 _atom_site_fract_y
 _atom_site_fract_z
 _atom_site_occupancy
  Ho  Ho0  1  0.000000  0.000000  0.000000  1
  Th  Th1  1  0.250000  0.250000  0.250000  1
  Tl  Tl2  1  0.750000  0.750000  0.750000  1
  Si  Si3  1  0.731154  0.268846  0.268846  1
  Si  Si4  1  0.268846  0.731154  0.731154  1
  Si  Si5  1  0.268846  0.731154  0.268846  1
  Si  Si6  1  0.731154  0.268846  0.731154  1
  Si  Si7  1  0.268846  0.268846  0.731154  1
  Si  Si8  1  0.731154  0.731154  0.268846  1
  Pd  Pd9  1  0.384983  0.384983  0.384983  1
  Pd  Pd10  1  0.617941  0.617941  0.617941  1
  Pd  Pd11  1  0.384983  0.384983  0.845051  1
  Pd  Pd12  1  0.384983  0.845051  0.384983  1
  Pd  Pd13  1  0.617941  0.617941  0.146175  1
  Pd  Pd14  1  0.617941  0.146175  0.617941  1
  Pd  Pd15  1  0.845051  0.384983  0.384983  1
  Pd  Pd16  1  0.146175  0.617941  0.617941  1
  Pd  Pd17  1  0.341657  0.002508  0.002508  1
  Pd  Pd18  1  0.653328  0.002508  0.002508  1
  Pd  Pd19  1  0.002508  0.341657  0.653328  1
  Pd  Pd20  1  0.002508  0.653328  0.341657  1
  Pd  Pd21  1  0.002508  0.341657  0.002508  1
  Pd  Pd22  1  0.653328  0.002508  0.341657  1
  Pd  Pd23  1  0.002508  0.653328  0.002508  1
  Pd  Pd24  1  0.341657  0.002508  0.653328  1
  Pd  Pd25  1  0.002508  0.002508  0.341657  1
  Pd  Pd26  1  0.002508  0.002508  0.653328  1
  Pd  Pd27  1  0.653328  0.341657  0.002508  1
  Pd  Pd28  1  0.341657  0.653328  0.002508  1
