# generated using pymatgen
data_NaLuSnBr6
_symmetry_space_group_name_H-M   'P 1'
_cell_length_a   7.93834041
_cell_length_b   7.93837633
_cell_length_c   7.93818920
_cell_angle_alpha   55.60353630
_cell_angle_beta   55.60509799
_cell_angle_gamma   55.60511217
_symmetry_Int_Tables_number   1
_chemical_formula_structural   NaLuSnBr6
_chemical_formula_sum   'Na1 Lu1 Sn1 Br6'
_cell_volume   317.64391252
_cell_formula_units_Z   1
loop_
 _symmetry_equiv_pos_site_id
 _symmetry_equiv_pos_as_xyz
  1  'x, y, z'
loop_
 _atom_site_type_symbol
 _atom_site_label
 _atom_site_symmetry_multiplicity
 _atom_site_fract_x
 _atom_site_fract_y
 _atom_site_fract_z
 _atom_site_occupancy
  Na  Na0  1  0.669806  0.669794  0.669807  1
  Lu  Lu1  1  0.999668  0.999680  0.999659  1
  Sn  Sn2  1  0.331078  0.331067  0.331074  1
  Br  Br3  1  0.230275  0.616585  0.916766  1
  Br  Br4  1  0.616574  0.916776  0.230270  1
  Br  Br5  1  0.916766  0.230276  0.616571  1
  Br  Br6  1  0.766597  0.381530  0.087699  1
  Br  Br7  1  0.381529  0.087696  0.766605  1
  Br  Br8  1  0.087709  0.766596  0.381549  1
