# generated using pymatgen
data_Y3ZnCd2HgAu2
_symmetry_space_group_name_H-M   'P 1'
_cell_length_a   7.91006800
_cell_length_b   7.88989489
_cell_length_c   3.79162300
_cell_angle_alpha   90.00000000
_cell_angle_beta   90.00000000
_cell_angle_gamma   120.08461531
_symmetry_Int_Tables_number   1
_chemical_formula_structural   Y3ZnCd2HgAu2
_chemical_formula_sum   'Y3 Zn1 Cd2 Hg1 Au2'
_cell_volume   204.75583493
_cell_formula_units_Z   1
loop_
 _symmetry_equiv_pos_site_id
 _symmetry_equiv_pos_as_xyz
  1  'x, y, z'
loop_
 _atom_site_type_symbol
 _atom_site_label
 _atom_site_symmetry_multiplicity
 _atom_site_fract_x
 _atom_site_fract_y
 _atom_site_fract_z
 _atom_site_occupancy
  Y  Y0  1  0.585043  0.000000  0.000000  1
  Y  Y1  1  0.002559  0.593999  0.000000  1
  Y  Y2  1  0.408560  0.406001  0.000000  1
  Zn  Zn3  1  0.998362  0.000000  0.000000  1
  Cd  Cd4  1  0.998293  0.256493  0.500000  1
  Cd  Cd5  1  0.741800  0.743507  0.500000  1
  Hg  Hg6  1  0.259026  0.000000  0.500000  1
  Au  Au7  1  0.334055  0.661755  0.500000  1
  Au  Au8  1  0.672301  0.338245  0.500000  1
