# generated using pymatgen
data_Er8ReB24MoRh2
_symmetry_space_group_name_H-M   'P 1'
_cell_length_a   3.65147400
_cell_length_b   9.12627171
_cell_length_c   11.52129442
_cell_angle_alpha   90.39902284
_cell_angle_beta   90.00000000
_cell_angle_gamma   90.00000000
_symmetry_Int_Tables_number   1
_chemical_formula_structural   Er8ReB24MoRh2
_chemical_formula_sum   'Er8 Re1 B24 Mo1 Rh2'
_cell_volume   383.93026631
_cell_formula_units_Z   1
loop_
 _symmetry_equiv_pos_site_id
 _symmetry_equiv_pos_as_xyz
  1  'x, y, z'
loop_
 _atom_site_type_symbol
 _atom_site_label
 _atom_site_symmetry_multiplicity
 _atom_site_fract_x
 _atom_site_fract_y
 _atom_site_fract_z
 _atom_site_occupancy
  Er  Er0  1  0.000000  0.318060  0.411088  1
  Er  Er1  1  0.000000  0.682046  0.589090  1
  Er  Er2  1  0.000000  0.825382  0.082348  1
  Er  Er3  1  0.000000  0.173582  0.916976  1
  Er  Er4  1  0.000000  0.944946  0.372441  1
  Er  Er5  1  0.000000  0.054746  0.628661  1
  Er  Er6  1  0.000000  0.443416  0.126522  1
  Er  Er7  1  0.000000  0.557910  0.872908  1
  Re  Re8  1  0.000000  0.860940  0.819261  1
  B  B9  1  0.500000  0.554083  0.434504  1
  B  B10  1  0.500000  0.446087  0.565559  1
  B  B11  1  0.500000  0.051184  0.065279  1
  B  B12  1  0.500000  0.946838  0.932293  1
  B  B13  1  0.500000  0.749422  0.421349  1
  B  B14  1  0.500000  0.250649  0.578766  1
  B  B15  1  0.500000  0.250519  0.079050  1
  B  B16  1  0.500000  0.751424  0.918701  1
  B  B17  1  0.500000  0.791190  0.265869  1
  B  B18  1  0.500000  0.208772  0.734696  1
  B  B19  1  0.500000  0.295587  0.236520  1
  B  B20  1  0.500000  0.706763  0.764793  1
  B  B21  1  0.500000  0.631997  0.183837  1
  B  B22  1  0.500000  0.368164  0.816373  1
  B  B23  1  0.500000  0.132327  0.317256  1
  B  B24  1  0.500000  0.867943  0.684634  1
  B  B25  1  0.500000  0.979282  0.213322  1
  B  B26  1  0.500000  0.017276  0.786883  1
  B  B27  1  0.500000  0.483239  0.288001  1
  B  B28  1  0.500000  0.517090  0.712049  1
  B  B29  1  0.500000  0.605851  0.029171  1
  B  B30  1  0.500000  0.395063  0.970076  1
  B  B31  1  0.500000  0.107145  0.471901  1
  B  B32  1  0.500000  0.892746  0.529202  1
  Mo  Mo33  1  0.000000  0.138307  0.180078  1
  Rh  Rh34  1  0.000000  0.637827  0.322018  1
  Rh  Rh35  1  0.000000  0.362196  0.678527  1
