# generated using pymatgen
data_Y6GaSi11Pt8
_symmetry_space_group_name_H-M   'P 1'
_cell_length_a   4.28000500
_cell_length_b   8.60543558
_cell_length_c   12.91731637
_cell_angle_alpha   80.40764363
_cell_angle_beta   90.00000000
_cell_angle_gamma   90.00000000
_symmetry_Int_Tables_number   1
_chemical_formula_structural   Y6GaSi11Pt8
_chemical_formula_sum   'Y6 Ga1 Si11 Pt8'
_cell_volume   469.10968109
_cell_formula_units_Z   1
loop_
 _symmetry_equiv_pos_site_id
 _symmetry_equiv_pos_as_xyz
  1  'x, y, z'
loop_
 _atom_site_type_symbol
 _atom_site_label
 _atom_site_symmetry_multiplicity
 _atom_site_fract_x
 _atom_site_fract_y
 _atom_site_fract_z
 _atom_site_occupancy
  Y  Y0  1  0.250000  0.763774  0.439674  1
  Y  Y1  1  0.250000  0.592326  0.180909  1
  Y  Y2  1  0.750000  0.234027  0.560994  1
  Y  Y3  1  0.750000  0.413345  0.816013  1
  Y  Y4  1  0.750000  0.928652  0.817365  1
  Y  Y5  1  0.250000  0.070455  0.182722  1
  Ga  Ga6  1  0.250000  0.403928  0.426397  1
  Si  Si7  1  0.750000  0.582744  0.567070  1
  Si  Si8  1  0.750000  0.128743  0.004710  1
  Si  Si9  1  0.750000  0.872259  0.572416  1
  Si  Si10  1  0.250000  0.697837  0.715297  1
  Si  Si11  1  0.750000  0.308547  0.288073  1
  Si  Si12  1  0.750000  0.809301  0.275189  1
  Si  Si13  1  0.250000  0.874819  0.994141  1
  Si  Si14  1  0.250000  0.194350  0.723676  1
  Si  Si15  1  0.250000  0.377923  0.002129  1
  Si  Si16  1  0.250000  0.113215  0.434674  1
  Si  Si17  1  0.750000  0.620617  0.998867  1
  Pt  Pt18  1  0.750000  0.352306  0.099869  1
  Pt  Pt19  1  0.250000  0.969163  0.624821  1
  Pt  Pt20  1  0.750000  0.851800  0.086002  1
  Pt  Pt21  1  0.750000  0.030806  0.374859  1
  Pt  Pt22  1  0.250000  0.646788  0.902512  1
  Pt  Pt23  1  0.250000  0.151185  0.912471  1
  Pt  Pt24  1  0.750000  0.541610  0.371385  1
  Pt  Pt25  1  0.250000  0.469479  0.627767  1
