# generated using pymatgen
data_Th2ZnCo21
_symmetry_space_group_name_H-M   'P 1'
_cell_length_a   7.63387904
_cell_length_b   7.63387989
_cell_length_c   7.63387867
_cell_angle_alpha   100.05651630
_cell_angle_beta   100.05651659
_cell_angle_gamma   130.59899505
_symmetry_Int_Tables_number   1
_chemical_formula_structural   Th2ZnCo21
_chemical_formula_sum   'Th2 Zn1 Co21'
_cell_volume   306.87851167
_cell_formula_units_Z   1
loop_
 _symmetry_equiv_pos_site_id
 _symmetry_equiv_pos_as_xyz
  1  'x, y, z'
loop_
 _atom_site_type_symbol
 _atom_site_label
 _atom_site_symmetry_multiplicity
 _atom_site_fract_x
 _atom_site_fract_y
 _atom_site_fract_z
 _atom_site_occupancy
  Th  Th0  1  0.000000  0.000000  0.000000  1
  Th  Th1  1  0.250000  0.750000  0.500000  1
  Zn  Zn2  1  0.750000  0.250000  0.500000  1
  Co  Co3  1  0.766044  0.183617  0.832353  1
  Co  Co4  1  0.351263  0.933691  0.167647  1
  Co  Co5  1  0.186070  0.516641  0.081708  1
  Co  Co6  1  0.895639  0.565067  0.081708  1
  Co  Co7  1  0.483359  0.813930  0.918292  1
  Co  Co8  1  0.434933  0.104361  0.918292  1
  Co  Co9  1  0.066309  0.648737  0.832353  1
  Co  Co10  1  0.816383  0.648737  0.582427  1
  Co  Co11  1  0.483359  0.565067  0.669429  1
  Co  Co12  1  0.895639  0.813930  0.330571  1
  Co  Co13  1  0.066309  0.233956  0.417573  1
  Co  Co14  1  0.351263  0.183617  0.417573  1
  Co  Co15  1  0.766044  0.933691  0.582427  1
  Co  Co16  1  0.434933  0.516641  0.330571  1
  Co  Co17  1  0.186070  0.104361  0.669429  1
  Co  Co18  1  0.816383  0.233956  0.167647  1
  Co  Co19  1  0.500000  0.500000  0.000000  1
  Co  Co20  1  0.626121  0.870613  0.244493  1
  Co  Co21  1  0.618372  0.373879  0.244493  1
  Co  Co22  1  0.129387  0.373879  0.755507  1
  Co  Co23  1  0.626121  0.381628  0.755507  1
