# generated using pymatgen
data_LiScH6Rh
_symmetry_space_group_name_H-M   'P 1'
_cell_length_a   6.72547900
_cell_length_b   6.72547900
_cell_length_c   6.72547900
_cell_angle_alpha   90.00000000
_cell_angle_beta   90.00000000
_cell_angle_gamma   90.00000000
_symmetry_Int_Tables_number   1
_chemical_formula_structural   LiScH6Rh
_chemical_formula_sum   'Li4 Sc4 H24 Rh4'
_cell_volume   304.20732198
_cell_formula_units_Z   4
loop_
 _symmetry_equiv_pos_site_id
 _symmetry_equiv_pos_as_xyz
  1  'x, y, z'
loop_
 _atom_site_type_symbol
 _atom_site_label
 _atom_site_symmetry_multiplicity
 _atom_site_fract_x
 _atom_site_fract_y
 _atom_site_fract_z
 _atom_site_occupancy
  Li  Li0  1  0.000000  0.000000  0.500000  1
  Li  Li1  1  0.000000  0.500000  0.000000  1
  Li  Li2  1  0.500000  0.000000  0.000000  1
  Li  Li3  1  0.000000  0.000000  0.000000  1
  Sc  Sc4  1  0.500000  0.500000  0.500000  1
  Sc  Sc5  1  0.000000  0.500000  0.500000  1
  Sc  Sc6  1  0.500000  0.000000  0.500000  1
  Sc  Sc7  1  0.500000  0.500000  0.000000  1
  H  H8  1  0.745223  0.745223  0.510526  1
  H  H9  1  0.254777  0.254777  0.510526  1
  H  H10  1  0.006250  0.740658  0.740658  1
  H  H11  1  0.259342  0.993750  0.740658  1
  H  H12  1  0.740658  0.006250  0.740658  1
  H  H13  1  0.993750  0.259342  0.740658  1
  H  H14  1  0.745223  0.510526  0.745223  1
  H  H15  1  0.510526  0.745223  0.745223  1
  H  H16  1  0.489474  0.254777  0.745223  1
  H  H17  1  0.254777  0.489474  0.745223  1
  H  H18  1  0.259342  0.740658  0.993750  1
  H  H19  1  0.740658  0.259342  0.993750  1
  H  H20  1  0.740658  0.740658  0.006250  1
  H  H21  1  0.259342  0.259342  0.006250  1
  H  H22  1  0.254777  0.510526  0.254777  1
  H  H23  1  0.489474  0.745223  0.254777  1
  H  H24  1  0.510526  0.254777  0.254777  1
  H  H25  1  0.745223  0.489474  0.254777  1
  H  H26  1  0.993750  0.740658  0.259342  1
  H  H27  1  0.740658  0.993750  0.259342  1
  H  H28  1  0.259342  0.006250  0.259342  1
  H  H29  1  0.006250  0.259342  0.259342  1
  H  H30  1  0.254777  0.745223  0.489474  1
  H  H31  1  0.745223  0.254777  0.489474  1
  Rh  Rh32  1  0.256650  0.743350  0.743350  1
  Rh  Rh33  1  0.743350  0.256650  0.743350  1
  Rh  Rh34  1  0.743350  0.743350  0.256650  1
  Rh  Rh35  1  0.256650  0.256650  0.256650  1
