# generated using pymatgen
data_HoVFe3P3Rh
_symmetry_space_group_name_H-M   'P 1'
_cell_length_a   3.68594700
_cell_length_b   10.46135700
_cell_length_c   12.17836100
_cell_angle_alpha   90.00000000
_cell_angle_beta   90.00000000
_cell_angle_gamma   90.00000000
_symmetry_Int_Tables_number   1
_chemical_formula_structural   HoVFe3P3Rh
_chemical_formula_sum   'Ho4 V4 Fe12 P12 Rh4'
_cell_volume   469.59769089
_cell_formula_units_Z   4
loop_
 _symmetry_equiv_pos_site_id
 _symmetry_equiv_pos_as_xyz
  1  'x, y, z'
loop_
 _atom_site_type_symbol
 _atom_site_label
 _atom_site_symmetry_multiplicity
 _atom_site_fract_x
 _atom_site_fract_y
 _atom_site_fract_z
 _atom_site_occupancy
  Ho  Ho0  1  0.250000  0.580397  0.711056  1
  Ho  Ho1  1  0.250000  0.919603  0.211056  1
  Ho  Ho2  1  0.750000  0.419603  0.288944  1
  Ho  Ho3  1  0.750000  0.080397  0.788944  1
  V  V4  1  0.250000  0.694068  0.988751  1
  V  V5  1  0.250000  0.805932  0.488751  1
  V  V6  1  0.750000  0.305932  0.011249  1
  V  V7  1  0.750000  0.194068  0.511249  1
  Fe  Fe8  1  0.250000  0.220328  0.174321  1
  Fe  Fe9  1  0.250000  0.279672  0.674321  1
  Fe  Fe10  1  0.750000  0.779672  0.825679  1
  Fe  Fe11  1  0.750000  0.720328  0.325679  1
  Fe  Fe12  1  0.250000  0.877306  0.695668  1
  Fe  Fe13  1  0.250000  0.622694  0.195668  1
  Fe  Fe14  1  0.750000  0.122694  0.304332  1
  Fe  Fe15  1  0.750000  0.377306  0.804332  1
  Fe  Fe16  1  0.250000  0.463581  0.935432  1
  Fe  Fe17  1  0.250000  0.036419  0.435432  1
  Fe  Fe18  1  0.750000  0.536419  0.064568  1
  Fe  Fe19  1  0.750000  0.963581  0.564568  1
  P  P20  1  0.250000  0.424659  0.113309  1
  P  P21  1  0.250000  0.075341  0.613309  1
  P  P22  1  0.750000  0.575341  0.886691  1
  P  P23  1  0.750000  0.924659  0.386691  1
  P  P24  1  0.250000  0.273560  0.858956  1
  P  P25  1  0.250000  0.226440  0.358956  1
  P  P26  1  0.750000  0.726440  0.141044  1
  P  P27  1  0.750000  0.773560  0.641044  1
  P  P28  1  0.250000  0.606913  0.379483  1
  P  P29  1  0.250000  0.893087  0.879483  1
  P  P30  1  0.750000  0.393087  0.620517  1
  P  P31  1  0.750000  0.106913  0.120517  1
  Rh  Rh32  1  0.250000  0.401655  0.481328  1
  Rh  Rh33  1  0.250000  0.098345  0.981328  1
  Rh  Rh34  1  0.750000  0.598345  0.518672  1
  Rh  Rh35  1  0.750000  0.901655  0.018672  1
