# generated using pymatgen
data_Tb5CoRuO12
_symmetry_space_group_name_H-M   'P 1'
_cell_length_a   6.82440086
_cell_length_b   6.82440183
_cell_length_c   7.28920881
_cell_angle_alpha   74.39550200
_cell_angle_beta   74.39550175
_cell_angle_gamma   50.84918436
_symmetry_Int_Tables_number   1
_chemical_formula_structural   Tb5CoRuO12
_chemical_formula_sum   'Tb5 Co1 Ru1 O12'
_cell_volume   251.31150641
_cell_formula_units_Z   1
loop_
 _symmetry_equiv_pos_site_id
 _symmetry_equiv_pos_as_xyz
  1  'x, y, z'
loop_
 _atom_site_type_symbol
 _atom_site_label
 _atom_site_symmetry_multiplicity
 _atom_site_fract_x
 _atom_site_fract_y
 _atom_site_fract_z
 _atom_site_occupancy
  Tb  Tb0  1  0.685943  0.694358  0.668020  1
  Tb  Tb1  1  0.678187  0.712647  0.142880  1
  Tb  Tb2  1  0.995364  0.004636  0.000000  1
  Tb  Tb3  1  0.287353  0.321813  0.857120  1
  Tb  Tb4  1  0.305642  0.314057  0.331980  1
  Co  Co5  1  0.259410  0.740590  0.500000  1
  Ru  Ru6  1  0.771271  0.228729  0.500000  1
  O  O7  1  0.396851  0.913897  0.921315  1
  O  O8  1  0.579299  0.102135  0.581850  1
  O  O9  1  0.897865  0.420701  0.418150  1
  O  O10  1  0.086103  0.603149  0.078685  1
  O  O11  1  0.016688  0.983581  0.325955  1
  O  O12  1  0.504170  0.495813  0.679912  1
  O  O13  1  0.893242  0.405205  0.929013  1
  O  O14  1  0.097884  0.570673  0.581313  1
  O  O15  1  0.429327  0.902116  0.418687  1
  O  O16  1  0.594795  0.106758  0.070987  1
  O  O17  1  0.504187  0.495830  0.320088  1
  O  O18  1  0.016419  0.983312  0.674045  1
