# generated using pymatgen
data_Pr16Dy4Si15Os
_symmetry_space_group_name_H-M   'P 1'
_cell_length_a   7.85558108
_cell_length_b   7.82959272
_cell_length_c   15.28285475
_cell_angle_alpha   90.20164633
_cell_angle_beta   89.87698065
_cell_angle_gamma   90.04681305
_symmetry_Int_Tables_number   1
_chemical_formula_structural   Pr16Dy4Si15Os
_chemical_formula_sum   'Pr16 Dy4 Si15 Os1'
_cell_volume   939.97897447
_cell_formula_units_Z   1
loop_
 _symmetry_equiv_pos_site_id
 _symmetry_equiv_pos_as_xyz
  1  'x, y, z'
loop_
 _atom_site_type_symbol
 _atom_site_label
 _atom_site_symmetry_multiplicity
 _atom_site_fract_x
 _atom_site_fract_y
 _atom_site_fract_z
 _atom_site_occupancy
  Pr  Pr0  1  0.375370  0.014237  0.448179  1
  Pr  Pr1  1  0.483583  0.882765  0.695522  1
  Pr  Pr2  1  0.513479  0.121404  0.196111  1
  Pr  Pr3  1  0.878702  0.486020  0.303177  1
  Pr  Pr4  1  0.124533  0.504592  0.800741  1
  Pr  Pr5  1  0.622577  0.986806  0.945269  1
  Pr  Pr6  1  0.009731  0.378522  0.555080  1
  Pr  Pr7  1  0.985943  0.622216  0.053590  1
  Pr  Pr8  1  0.131836  0.980694  0.873579  1
  Pr  Pr9  1  0.522735  0.627893  0.127661  1
  Pr  Pr10  1  0.469105  0.362875  0.631397  1
  Pr  Pr11  1  0.625212  0.520290  0.872331  1
  Pr  Pr12  1  0.376022  0.477846  0.371850  1
  Pr  Pr13  1  0.875182  0.025710  0.378044  1
  Pr  Pr14  1  0.976801  0.124944  0.122407  1
  Pr  Pr15  1  0.029452  0.883123  0.624530  1
  Dy  Dy16  1  0.306701  0.307138  0.999451  1
  Dy  Dy17  1  0.191062  0.808084  0.250303  1
  Dy  Dy18  1  0.824988  0.190364  0.749088  1
  Dy  Dy19  1  0.693856  0.690422  0.501802  1
  Si  Si20  1  0.328595  0.687863  0.956780  1
  Si  Si21  1  0.668673  0.311283  0.458707  1
  Si  Si22  1  0.688819  0.329067  0.043770  1
  Si  Si23  1  0.311892  0.671592  0.541805  1
  Si  Si24  1  0.813171  0.827763  0.209108  1
  Si  Si25  1  0.172687  0.188958  0.292014  1
  Si  Si26  1  0.827650  0.808757  0.793522  1
  Si  Si27  1  0.286263  0.921269  0.062244  1
  Si  Si28  1  0.580678  0.784872  0.314061  1
  Si  Si29  1  0.422416  0.210671  0.815803  1
  Si  Si30  1  0.776432  0.584593  0.686422  1
  Si  Si31  1  0.213300  0.421232  0.186427  1
  Si  Si32  1  0.708063  0.074176  0.561473  1
  Si  Si33  1  0.918931  0.285343  0.937873  1
  Si  Si34  1  0.081198  0.718105  0.437060  1
  Os  Os35  1  0.184362  0.178510  0.702819  1
