# generated using pymatgen
data_Ba4Sb3P(PtRh)2
_symmetry_space_group_name_H-M   'P 1'
_cell_length_a   6.96981377
_cell_length_b   6.98941376
_cell_length_c   7.03335411
_cell_angle_alpha   90.60021170
_cell_angle_beta   90.61733148
_cell_angle_gamma   90.69989949
_symmetry_Int_Tables_number   1
_chemical_formula_structural   Ba4Sb3P(PtRh)2
_chemical_formula_sum   'Ba4 Sb3 P1 Pt2 Rh2'
_cell_volume   342.56450160
_cell_formula_units_Z   1
loop_
 _symmetry_equiv_pos_site_id
 _symmetry_equiv_pos_as_xyz
  1  'x, y, z'
loop_
 _atom_site_type_symbol
 _atom_site_label
 _atom_site_symmetry_multiplicity
 _atom_site_fract_x
 _atom_site_fract_y
 _atom_site_fract_z
 _atom_site_occupancy
  Ba  Ba0  1  0.614347  0.381889  0.871992  1
  Ba  Ba1  1  0.384395  0.877759  0.611860  1
  Ba  Ba2  1  0.121534  0.122808  0.122794  1
  Ba  Ba3  1  0.875362  0.610988  0.378541  1
  Sb  Sb4  1  0.579066  0.919888  0.094423  1
  Sb  Sb5  1  0.095025  0.579380  0.910311  1
  Sb  Sb6  1  0.912854  0.095025  0.577495  1
  P  P7  1  0.407459  0.402985  0.415333  1
  Pt  Pt8  1  0.840015  0.841849  0.840603  1
  Pt  Pt9  1  0.349782  0.631269  0.191934  1
  Rh  Rh10  1  0.186190  0.347306  0.636299  1
  Rh  Rh11  1  0.633974  0.188855  0.348415  1
