# generated using pymatgen
data_YbGd2YB16
_symmetry_space_group_name_H-M   'P 1'
_cell_length_a   7.13204409
_cell_length_b   7.13095692
_cell_length_c   4.04148300
_cell_angle_alpha   90.00000000
_cell_angle_beta   90.00000000
_cell_angle_gamma   89.93883251
_symmetry_Int_Tables_number   1
_chemical_formula_structural   YbGd2YB16
_chemical_formula_sum   'Yb1 Gd2 Y1 B16'
_cell_volume   205.54283453
_cell_formula_units_Z   1
loop_
 _symmetry_equiv_pos_site_id
 _symmetry_equiv_pos_as_xyz
  1  'x, y, z'
loop_
 _atom_site_type_symbol
 _atom_site_label
 _atom_site_symmetry_multiplicity
 _atom_site_fract_x
 _atom_site_fract_y
 _atom_site_fract_z
 _atom_site_occupancy
  Yb  Yb0  1  0.682379  0.817749  0.000000  1
  Gd  Gd1  1  0.816707  0.316832  0.000000  1
  Gd  Gd2  1  0.318414  0.181782  0.000000  1
  Y  Y3  1  0.182183  0.682249  0.000000  1
  B  B4  1  0.500754  0.502351  0.796833  1
  B  B5  1  0.998519  0.998682  0.796808  1
  B  B6  1  0.500754  0.502351  0.203167  1
  B  B7  1  0.998519  0.998682  0.203192  1
  B  B8  1  0.913582  0.586726  0.500000  1
  B  B9  1  0.087466  0.412840  0.500000  1
  B  B10  1  0.413283  0.913532  0.500000  1
  B  B11  1  0.586765  0.087096  0.500000  1
  B  B12  1  0.675818  0.539149  0.500000  1
  B  B13  1  0.324780  0.462019  0.500000  1
  B  B14  1  0.176295  0.961182  0.500000  1
  B  B15  1  0.823717  0.037322  0.500000  1
  B  B16  1  0.461914  0.676939  0.500000  1
  B  B17  1  0.537968  0.324298  0.500000  1
  B  B18  1  0.038643  0.174655  0.500000  1
  B  B19  1  0.961540  0.823565  0.500000  1
