# generated using pymatgen
data_Ca2LaUO6
_symmetry_space_group_name_H-M   'P 1'
_cell_length_a   6.92218295
_cell_length_b   6.91477828
_cell_length_c   6.89378651
_cell_angle_alpha   91.74377881
_cell_angle_beta   91.32997011
_cell_angle_gamma   91.13611178
_symmetry_Int_Tables_number   1
_chemical_formula_structural   Ca2LaUO6
_chemical_formula_sum   'Ca4 La2 U2 O12'
_cell_volume   329.66228907
_cell_formula_units_Z   2
loop_
 _symmetry_equiv_pos_site_id
 _symmetry_equiv_pos_as_xyz
  1  'x, y, z'
loop_
 _atom_site_type_symbol
 _atom_site_label
 _atom_site_symmetry_multiplicity
 _atom_site_fract_x
 _atom_site_fract_y
 _atom_site_fract_z
 _atom_site_occupancy
  Ca  Ca0  1  0.549678  0.251467  0.058192  1
  Ca  Ca1  1  0.253040  0.059181  0.558208  1
  Ca  Ca2  1  0.066052  0.555512  0.249614  1
  Ca  Ca3  1  0.444904  0.750803  0.941487  1
  La  La4  1  0.940317  0.445857  0.751258  1
  La  La5  1  0.747073  0.940306  0.441050  1
  U  U6  1  0.006300  0.000459  0.003647  1
  U  U7  1  0.492394  0.498915  0.496932  1
  O  O8  1  0.295665  0.062877  0.926480  1
  O  O9  1  0.064500  0.922552  0.301483  1
  O  O10  1  0.925966  0.298108  0.065038  1
  O  O11  1  0.708932  0.937838  0.077460  1
  O  O12  1  0.939243  0.080999  0.701266  1
  O  O13  1  0.080605  0.700699  0.938505  1
  O  O14  1  0.196032  0.406015  0.534562  1
  O  O15  1  0.411766  0.541959  0.203534  1
  O  O16  1  0.459259  0.797477  0.590257  1
  O  O17  1  0.586485  0.458148  0.793719  1
  O  O18  1  0.796588  0.590322  0.460079  1
  O  O19  1  0.535201  0.200507  0.407226  1
