# generated using pymatgen
data_BaBPtF10
_symmetry_space_group_name_H-M   'P 1'
_cell_length_a   10.95008300
_cell_length_b   10.95008234
_cell_length_c   6.50606200
_cell_angle_alpha   90.00000000
_cell_angle_beta   90.00000000
_cell_angle_gamma   120.00000502
_symmetry_Int_Tables_number   1
_chemical_formula_structural   BaBPtF10
_chemical_formula_sum   'Ba3 B3 Pt3 F30'
_cell_volume   675.59060781
_cell_formula_units_Z   3
loop_
 _symmetry_equiv_pos_site_id
 _symmetry_equiv_pos_as_xyz
  1  'x, y, z'
loop_
 _atom_site_type_symbol
 _atom_site_label
 _atom_site_symmetry_multiplicity
 _atom_site_fract_x
 _atom_site_fract_y
 _atom_site_fract_z
 _atom_site_occupancy
  Ba  Ba0  1  0.000000  0.000000  0.500000  1
  Ba  Ba1  1  0.666667  0.333333  0.000000  1
  Ba  Ba2  1  0.333333  0.666667  0.000000  1
  B  B3  1  0.752483  0.000000  0.000000  1
  B  B4  1  0.000000  0.752483  0.000000  1
  B  B5  1  0.247517  0.247517  0.000000  1
  Pt  Pt6  1  0.438371  0.000000  0.500000  1
  Pt  Pt7  1  0.000000  0.438371  0.500000  1
  Pt  Pt8  1  0.561629  0.561629  0.500000  1
  F  F9  1  0.611763  0.000000  0.500000  1
  F  F10  1  0.000000  0.611763  0.500000  1
  F  F11  1  0.388237  0.388237  0.500000  1
  F  F12  1  0.262530  0.000000  0.500000  1
  F  F13  1  0.000000  0.262530  0.500000  1
  F  F14  1  0.737470  0.737470  0.500000  1
  F  F15  1  0.510084  0.144618  0.709384  1
  F  F16  1  0.855382  0.365466  0.709384  1
  F  F17  1  0.634534  0.489916  0.709384  1
  F  F18  1  0.510084  0.144618  0.290616  1
  F  F19  1  0.855382  0.365466  0.290616  1
  F  F20  1  0.634534  0.489916  0.290616  1
  F  F21  1  0.365466  0.855382  0.709384  1
  F  F22  1  0.489916  0.634534  0.709384  1
  F  F23  1  0.144618  0.510084  0.709384  1
  F  F24  1  0.365466  0.855382  0.290616  1
  F  F25  1  0.489916  0.634534  0.290616  1
  F  F26  1  0.144618  0.510084  0.290616  1
  F  F27  1  0.827221  0.000000  0.821283  1
  F  F28  1  0.000000  0.827221  0.821283  1
  F  F29  1  0.172779  0.172779  0.821283  1
  F  F30  1  0.827221  0.000000  0.178717  1
  F  F31  1  0.000000  0.827221  0.178717  1
  F  F32  1  0.172779  0.172779  0.178717  1
  F  F33  1  0.384250  0.262354  0.000000  1
  F  F34  1  0.737646  0.121893  0.000000  1
  F  F35  1  0.878107  0.615750  0.000000  1
  F  F36  1  0.121893  0.737646  0.000000  1
  F  F37  1  0.615750  0.878107  0.000000  1
  F  F38  1  0.262354  0.384250  0.000000  1
