# generated using pymatgen
data_Hf3Al3Co2Au
_symmetry_space_group_name_H-M   'P 1'
_cell_length_a   7.15123800
_cell_length_b   7.15123783
_cell_length_c   6.71698800
_cell_angle_alpha   90.00000000
_cell_angle_beta   90.00000000
_cell_angle_gamma   120.00001005
_symmetry_Int_Tables_number   1
_chemical_formula_structural   Hf3Al3Co2Au
_chemical_formula_sum   'Hf6 Al6 Co4 Au2'
_cell_volume   297.48674082
_cell_formula_units_Z   2
loop_
 _symmetry_equiv_pos_site_id
 _symmetry_equiv_pos_as_xyz
  1  'x, y, z'
loop_
 _atom_site_type_symbol
 _atom_site_label
 _atom_site_symmetry_multiplicity
 _atom_site_fract_x
 _atom_site_fract_y
 _atom_site_fract_z
 _atom_site_occupancy
  Hf  Hf0  1  0.618917  0.029860  0.750000  1
  Hf  Hf1  1  0.970140  0.589057  0.750000  1
  Hf  Hf2  1  0.410943  0.381083  0.750000  1
  Hf  Hf3  1  0.968902  0.588539  0.250000  1
  Hf  Hf4  1  0.619636  0.031098  0.250000  1
  Hf  Hf5  1  0.411461  0.380364  0.250000  1
  Al  Al6  1  0.746371  0.752392  0.999953  1
  Al  Al7  1  0.247608  0.993979  0.999953  1
  Al  Al8  1  0.006021  0.253629  0.999953  1
  Al  Al9  1  0.746371  0.752392  0.500047  1
  Al  Al10  1  0.247608  0.993979  0.500047  1
  Al  Al11  1  0.006021  0.253629  0.500047  1
  Co  Co12  1  0.000000  0.000000  0.750000  1
  Co  Co13  1  0.000000  0.000000  0.250000  1
  Co  Co14  1  0.666667  0.333333  0.999136  1
  Co  Co15  1  0.666667  0.333333  0.500864  1
  Au  Au16  1  0.333333  0.666667  0.498558  1
  Au  Au17  1  0.333333  0.666667  0.001443  1
