# generated using pymatgen
data_Dy7Ho3(Bi2Os)2
_symmetry_space_group_name_H-M   'P 1'
_cell_length_a   7.95268712
_cell_length_b   9.03524215
_cell_length_c   12.50314614
_cell_angle_alpha   90.01313439
_cell_angle_beta   89.98862775
_cell_angle_gamma   90.01649195
_symmetry_Int_Tables_number   1
_chemical_formula_structural   Dy7Ho3(Bi2Os)2
_chemical_formula_sum   'Dy14 Ho6 Bi8 Os4'
_cell_volume   898.40665979
_cell_formula_units_Z   2
loop_
 _symmetry_equiv_pos_site_id
 _symmetry_equiv_pos_as_xyz
  1  'x, y, z'
loop_
 _atom_site_type_symbol
 _atom_site_label
 _atom_site_symmetry_multiplicity
 _atom_site_fract_x
 _atom_site_fract_y
 _atom_site_fract_z
 _atom_site_occupancy
  Dy  Dy0  1  0.839691  0.749966  0.792135  1
  Dy  Dy1  1  0.160309  0.250034  0.207865  1
  Dy  Dy2  1  0.339581  0.250058  0.707969  1
  Dy  Dy3  1  0.660419  0.749942  0.292031  1
  Dy  Dy4  1  0.374961  0.749867  0.690559  1
  Dy  Dy5  1  0.625039  0.250133  0.309441  1
  Dy  Dy6  1  0.875057  0.250033  0.809572  1
  Dy  Dy7  1  0.124943  0.749967  0.190428  1
  Dy  Dy8  1  0.943672  0.749872  0.504376  1
  Dy  Dy9  1  0.056328  0.250128  0.495624  1
  Dy  Dy10  1  0.443644  0.250009  0.995586  1
  Dy  Dy11  1  0.556356  0.749991  0.004414  1
  Dy  Dy12  1  0.674031  0.041396  0.564777  1
  Dy  Dy13  1  0.325969  0.958604  0.435223  1
  Ho  Ho14  1  0.173483  0.958632  0.935325  1
  Ho  Ho15  1  0.326534  0.541355  0.435319  1
  Ho  Ho16  1  0.826517  0.041368  0.064675  1
  Ho  Ho17  1  0.673466  0.458645  0.564681  1
  Ho  Ho18  1  0.826526  0.458627  0.064682  1
  Ho  Ho19  1  0.173474  0.541373  0.935318  1
  Bi  Bi20  1  0.566288  0.493329  0.827403  1
  Bi  Bi21  1  0.433712  0.506671  0.172597  1
  Bi  Bi22  1  0.066262  0.506662  0.672615  1
  Bi  Bi23  1  0.433755  0.993331  0.172560  1
  Bi  Bi24  1  0.933738  0.493338  0.327385  1
  Bi  Bi25  1  0.566245  0.006669  0.827440  1
  Bi  Bi26  1  0.933568  0.006691  0.327327  1
  Bi  Bi27  1  0.066432  0.993309  0.672673  1
  Os  Os28  1  0.575316  0.749655  0.509607  1
  Os  Os29  1  0.424684  0.250345  0.490393  1
  Os  Os30  1  0.075131  0.249983  0.990448  1
  Os  Os31  1  0.924869  0.750017  0.009552  1
