# generated using pymatgen
data_Tb3YAsI6
_symmetry_space_group_name_H-M   'P 1'
_cell_length_a   4.26114200
_cell_length_b   13.95081049
_cell_length_c   14.74029752
_cell_angle_alpha   89.96962777
_cell_angle_beta   90.00000000
_cell_angle_gamma   90.00000000
_symmetry_Int_Tables_number   1
_chemical_formula_structural   Tb3YAsI6
_chemical_formula_sum   'Tb6 Y2 As2 I12'
_cell_volume   876.25727096
_cell_formula_units_Z   2
loop_
 _symmetry_equiv_pos_site_id
 _symmetry_equiv_pos_as_xyz
  1  'x, y, z'
loop_
 _atom_site_type_symbol
 _atom_site_label
 _atom_site_symmetry_multiplicity
 _atom_site_fract_x
 _atom_site_fract_y
 _atom_site_fract_z
 _atom_site_occupancy
  Tb  Tb0  1  0.500000  0.615048  0.152884  1
  Tb  Tb1  1  0.500000  0.384952  0.847116  1
  Tb  Tb2  1  0.000000  0.109837  0.573213  1
  Tb  Tb3  1  0.000000  0.890163  0.426787  1
  Tb  Tb4  1  0.000000  0.609778  0.926806  1
  Tb  Tb5  1  0.000000  0.390222  0.073194  1
  Y  Y6  1  0.500000  0.114862  0.347369  1
  Y  Y7  1  0.500000  0.885138  0.652631  1
  As  As8  1  0.500000  0.000000  0.500000  1
  As  As9  1  0.500000  0.500000  0.000000  1
  I  I10  1  0.500000  0.245508  0.160859  1
  I  I11  1  0.500000  0.754492  0.839141  1
  I  I12  1  0.500000  0.745754  0.339363  1
  I  I13  1  0.500000  0.254246  0.660637  1
  I  I14  1  0.000000  0.258612  0.414032  1
  I  I15  1  0.000000  0.741388  0.585968  1
  I  I16  1  0.000000  0.758981  0.085724  1
  I  I17  1  0.000000  0.241019  0.914276  1
  I  I18  1  0.000000  0.999991  0.241005  1
  I  I19  1  0.000000  0.000009  0.758995  1
  I  I20  1  0.000000  0.499654  0.259229  1
  I  I21  1  0.000000  0.500346  0.740771  1
