# generated using pymatgen
data_Tb2NdHf(NiP)4
_symmetry_space_group_name_H-M   'P 1'
_cell_length_a   3.90235300
_cell_length_b   3.90235290
_cell_length_c   15.32318800
_cell_angle_alpha   90.00000000
_cell_angle_beta   90.00000000
_cell_angle_gamma   119.99999241
_symmetry_Int_Tables_number   1
_chemical_formula_structural   Tb2NdHf(NiP)4
_chemical_formula_sum   'Tb2 Nd1 Hf1 Ni4 P4'
_cell_volume   202.08444590
_cell_formula_units_Z   1
loop_
 _symmetry_equiv_pos_site_id
 _symmetry_equiv_pos_as_xyz
  1  'x, y, z'
loop_
 _atom_site_type_symbol
 _atom_site_label
 _atom_site_symmetry_multiplicity
 _atom_site_fract_x
 _atom_site_fract_y
 _atom_site_fract_z
 _atom_site_occupancy
  Tb  Tb0  1  0.000000  0.000000  0.746216  1
  Tb  Tb1  1  0.000000  0.000000  0.491938  1
  Nd  Nd2  1  0.000000  0.000000  0.008877  1
  Hf  Hf3  1  0.000000  0.000000  0.253185  1
  Ni  Ni4  1  0.333333  0.666667  0.160519  1
  Ni  Ni5  1  0.666667  0.333333  0.872571  1
  Ni  Ni6  1  0.666667  0.333333  0.621111  1
  Ni  Ni7  1  0.333333  0.666667  0.346136  1
  P  P8  1  0.333333  0.666667  0.617759  1
  P  P9  1  0.666667  0.333333  0.372797  1
  P  P10  1  0.666667  0.333333  0.134490  1
  P  P11  1  0.333333  0.666667  0.874401  1
