# generated using pymatgen
data_Dy2Ho3SnSb2
_symmetry_space_group_name_H-M   'P 1'
_cell_length_a   8.96152464
_cell_length_b   8.93193849
_cell_length_c   6.38001100
_cell_angle_alpha   90.00000000
_cell_angle_beta   90.00000000
_cell_angle_gamma   119.89085133
_symmetry_Int_Tables_number   1
_chemical_formula_structural   Dy2Ho3SnSb2
_chemical_formula_sum   'Dy4 Ho6 Sn2 Sb4'
_cell_volume   442.74768269
_cell_formula_units_Z   2
loop_
 _symmetry_equiv_pos_site_id
 _symmetry_equiv_pos_as_xyz
  1  'x, y, z'
loop_
 _atom_site_type_symbol
 _atom_site_label
 _atom_site_symmetry_multiplicity
 _atom_site_fract_x
 _atom_site_fract_y
 _atom_site_fract_z
 _atom_site_occupancy
  Dy  Dy0  1  0.755301  0.999326  0.750000  1
  Dy  Dy1  1  0.755301  0.755975  0.250000  1
  Dy  Dy2  1  0.000976  0.243836  0.250000  1
  Dy  Dy3  1  0.000976  0.757140  0.750000  1
  Ho  Ho4  1  0.333770  0.666886  0.000000  1
  Ho  Ho5  1  0.665126  0.332563  0.500000  1
  Ho  Ho6  1  0.665126  0.332563  0.000000  1
  Ho  Ho7  1  0.333770  0.666886  0.500000  1
  Ho  Ho8  1  0.243852  0.242232  0.750000  1
  Ho  Ho9  1  0.243852  0.001620  0.250000  1
  Sn  Sn10  1  0.391972  0.999338  0.750000  1
  Sn  Sn11  1  0.391972  0.392634  0.250000  1
  Sb  Sb12  1  0.999728  0.609491  0.250000  1
  Sb  Sb13  1  0.999728  0.390238  0.750000  1
  Sb  Sb14  1  0.609274  0.609009  0.750000  1
  Sb  Sb15  1  0.609274  0.000265  0.250000  1
