# generated using pymatgen
data_VSbI18
_symmetry_space_group_name_H-M   'P 1'
_cell_length_a   10.20913894
_cell_length_b   10.23163261
_cell_length_c   10.22829159
_cell_angle_alpha   89.17399463
_cell_angle_beta   89.26721130
_cell_angle_gamma   89.13253039
_symmetry_Int_Tables_number   1
_chemical_formula_structural   VSbI18
_chemical_formula_sum   'V1 Sb1 I18'
_cell_volume   1068.09014674
_cell_formula_units_Z   1
loop_
 _symmetry_equiv_pos_site_id
 _symmetry_equiv_pos_as_xyz
  1  'x, y, z'
loop_
 _atom_site_type_symbol
 _atom_site_label
 _atom_site_symmetry_multiplicity
 _atom_site_fract_x
 _atom_site_fract_y
 _atom_site_fract_z
 _atom_site_occupancy
  V  V0  1  0.500000  0.500000  0.500000  1
  Sb  Sb1  1  0.000000  0.000000  0.000000  1
  I  I2  1  0.769360  0.477077  0.501305  1
  I  I3  1  0.500269  0.768738  0.476571  1
  I  I4  1  0.476352  0.500741  0.768707  1
  I  I5  1  0.230640  0.522923  0.498695  1
  I  I6  1  0.499731  0.231262  0.523429  1
  I  I7  1  0.523648  0.499259  0.231293  1
  I  I8  1  0.885466  0.382360  0.746460  1
  I  I9  1  0.745428  0.884730  0.381808  1
  I  I10  1  0.382338  0.745943  0.885006  1
  I  I11  1  0.114534  0.617640  0.253540  1
  I  I12  1  0.254572  0.115270  0.618192  1
  I  I13  1  0.617662  0.254057  0.114994  1
  I  I14  1  0.015743  0.975298  0.701788  1
  I  I15  1  0.700931  0.015732  0.974304  1
  I  I16  1  0.974153  0.701668  0.014625  1
  I  I17  1  0.984257  0.024702  0.298212  1
  I  I18  1  0.299069  0.984268  0.025696  1
  I  I19  1  0.025847  0.298332  0.985375  1
