# generated using pymatgen
data_Tb7Dy9(HoSn4)4
_symmetry_space_group_name_H-M   'P 1'
_cell_length_a   8.04025007
_cell_length_b   8.18275504
_cell_length_c   15.47177807
_cell_angle_alpha   90.00002233
_cell_angle_beta   90.01095793
_cell_angle_gamma   89.98925624
_symmetry_Int_Tables_number   1
_chemical_formula_structural   Tb7Dy9(HoSn4)4
_chemical_formula_sum   'Tb7 Dy9 Ho4 Sn16'
_cell_volume   1017.90985325
_cell_formula_units_Z   1
loop_
 _symmetry_equiv_pos_site_id
 _symmetry_equiv_pos_as_xyz
  1  'x, y, z'
loop_
 _atom_site_type_symbol
 _atom_site_label
 _atom_site_symmetry_multiplicity
 _atom_site_fract_x
 _atom_site_fract_y
 _atom_site_fract_z
 _atom_site_occupancy
  Tb  Tb0  1  0.019942  0.179515  0.597535  1
  Tb  Tb1  1  0.480003  0.679480  0.402504  1
  Tb  Tb2  1  0.979890  0.820575  0.097519  1
  Tb  Tb3  1  0.479841  0.679309  0.097488  1
  Tb  Tb4  1  0.979976  0.820554  0.402535  1
  Tb  Tb5  1  0.519875  0.320525  0.597364  1
  Tb  Tb6  1  0.019982  0.179578  0.902533  1
  Dy  Dy7  1  0.367301  0.836718  0.877945  1
  Dy  Dy8  1  0.867106  0.663274  0.622129  1
  Dy  Dy9  1  0.632859  0.163273  0.377837  1
  Dy  Dy10  1  0.132719  0.336822  0.122051  1
  Dy  Dy11  1  0.632671  0.163306  0.122038  1
  Dy  Dy12  1  0.132917  0.336714  0.377859  1
  Dy  Dy13  1  0.367185  0.836637  0.622162  1
  Dy  Dy14  1  0.867260  0.663218  0.877953  1
  Dy  Dy15  1  0.520297  0.320540  0.902413  1
  Ho  Ho16  1  0.198683  0.502667  0.750103  1
  Ho  Ho17  1  0.698642  0.997141  0.750076  1
  Ho  Ho18  1  0.801381  0.497113  0.249961  1
  Ho  Ho19  1  0.301393  0.002935  0.249978  1
  Sn  Sn20  1  0.293442  0.036375  0.041979  1
  Sn  Sn21  1  0.793551  0.463563  0.458066  1
  Sn  Sn22  1  0.706505  0.963539  0.541966  1
  Sn  Sn23  1  0.207119  0.536005  0.957934  1
  Sn  Sn24  1  0.706479  0.963822  0.958013  1
  Sn  Sn25  1  0.206413  0.536486  0.541964  1
  Sn  Sn26  1  0.293582  0.036432  0.458105  1
  Sn  Sn27  1  0.793145  0.463373  0.041744  1
  Sn  Sn28  1  0.564670  0.618754  0.750034  1
  Sn  Sn29  1  0.064752  0.881067  0.750021  1
  Sn  Sn30  1  0.435265  0.381103  0.249954  1
  Sn  Sn31  1  0.935097  0.119085  0.249952  1
  Sn  Sn32  1  0.329062  0.147213  0.749992  1
  Sn  Sn33  1  0.828815  0.353119  0.750021  1
  Sn  Sn34  1  0.671134  0.853103  0.250104  1
  Sn  Sn35  1  0.171045  0.647067  0.250167  1
