# generated using pymatgen
data_TbPrZn2(Co3B)2
_symmetry_space_group_name_H-M   'P 1'
_cell_length_a   5.16000300
_cell_length_b   5.16101781
_cell_length_c   6.82847300
_cell_angle_alpha   90.00000000
_cell_angle_beta   90.00000000
_cell_angle_gamma   119.99352781
_symmetry_Int_Tables_number   1
_chemical_formula_structural   TbPrZn2(Co3B)2
_chemical_formula_sum   'Tb1 Pr1 Zn2 Co6 B2'
_cell_volume   157.49539506
_cell_formula_units_Z   1
loop_
 _symmetry_equiv_pos_site_id
 _symmetry_equiv_pos_as_xyz
  1  'x, y, z'
loop_
 _atom_site_type_symbol
 _atom_site_label
 _atom_site_symmetry_multiplicity
 _atom_site_fract_x
 _atom_site_fract_y
 _atom_site_fract_z
 _atom_site_occupancy
  Tb  Tb0  1  0.999990  0.000000  0.500000  1
  Pr  Pr1  1  0.999994  0.000000  0.000000  1
  Zn  Zn2  1  0.333366  0.666782  0.000000  1
  Zn  Zn3  1  0.666583  0.333218  0.000000  1
  Co  Co4  1  0.499986  0.000000  0.299768  1
  Co  Co5  1  0.499984  0.500002  0.299750  1
  Co  Co6  1  0.999981  0.499998  0.299750  1
  Co  Co7  1  0.499986  0.000000  0.700232  1
  Co  Co8  1  0.499984  0.500002  0.700250  1
  Co  Co9  1  0.999981  0.499998  0.700250  1
  B  B10  1  0.333259  0.666556  0.500000  1
  B  B11  1  0.666703  0.333444  0.500000  1
