# generated using pymatgen
data_Lu3Zr(Si5Os3)2
_symmetry_space_group_name_H-M   'P 1'
_cell_length_a   8.04782244
_cell_length_b   8.04017052
_cell_length_c   5.75348287
_cell_angle_alpha   70.73192640
_cell_angle_beta   70.99857925
_cell_angle_gamma   94.24098942
_symmetry_Int_Tables_number   1
_chemical_formula_structural   Lu3Zr(Si5Os3)2
_chemical_formula_sum   'Lu3 Zr1 Si10 Os6'
_cell_volume   325.34688591
_cell_formula_units_Z   1
loop_
 _symmetry_equiv_pos_site_id
 _symmetry_equiv_pos_as_xyz
  1  'x, y, z'
loop_
 _atom_site_type_symbol
 _atom_site_label
 _atom_site_symmetry_multiplicity
 _atom_site_fract_x
 _atom_site_fract_y
 _atom_site_fract_z
 _atom_site_occupancy
  Lu  Lu0  1  0.399192  0.131693  0.745588  1
  Lu  Lu1  1  0.131789  0.400279  0.245792  1
  Lu  Lu2  1  0.600046  0.871692  0.251057  1
  Zr  Zr3  1  0.868340  0.595309  0.752259  1
  Si  Si4  1  0.067923  0.264009  0.833092  1
  Si  Si5  1  0.739298  0.924302  0.668626  1
  Si  Si6  1  0.930629  0.738697  0.164420  1
  Si  Si7  1  0.262322  0.069594  0.333810  1
  Si  Si8  1  0.203130  0.793771  0.752199  1
  Si  Si9  1  0.796108  0.206177  0.246671  1
  Si  Si10  1  0.514968  0.484133  0.751321  1
  Si  Si11  1  0.486855  0.515533  0.250464  1
  Si  Si12  1  0.775977  0.228783  0.752949  1
  Si  Si13  1  0.223470  0.774563  0.250156  1
  Os  Os14  1  0.256044  0.546320  0.629975  1
  Os  Os15  1  0.455712  0.744659  0.868069  1
  Os  Os16  1  0.747121  0.455645  0.366838  1
  Os  Os17  1  0.543912  0.256606  0.133890  1
  Os  Os18  1  0.001488  0.997147  0.749765  1
  Os  Os19  1  0.995675  0.001087  0.253060  1
