# generated using pymatgen
data_Tm4LuZn2Sb
_symmetry_space_group_name_H-M   'P 1'
_cell_length_a   8.43147003
_cell_length_b   8.43146999
_cell_length_c   8.43104729
_cell_angle_alpha   123.86726657
_cell_angle_beta   123.86727789
_cell_angle_gamma   83.42507270
_symmetry_Int_Tables_number   1
_chemical_formula_structural   Tm4LuZn2Sb
_chemical_formula_sum   'Tm8 Lu2 Zn4 Sb2'
_cell_volume   396.17009781
_cell_formula_units_Z   2
loop_
 _symmetry_equiv_pos_site_id
 _symmetry_equiv_pos_as_xyz
  1  'x, y, z'
loop_
 _atom_site_type_symbol
 _atom_site_label
 _atom_site_symmetry_multiplicity
 _atom_site_fract_x
 _atom_site_fract_y
 _atom_site_fract_z
 _atom_site_occupancy
  Tm  Tm0  1  0.799036  0.299036  0.809530  1
  Tm  Tm1  1  0.200964  0.700964  0.190470  1
  Tm  Tm2  1  0.489502  0.989502  0.190471  1
  Tm  Tm3  1  0.299017  0.489489  0.500001  1
  Tm  Tm4  1  0.010511  0.200983  0.499999  1
  Tm  Tm5  1  0.510498  0.010498  0.809529  1
  Tm  Tm6  1  0.700983  0.510511  0.499999  1
  Tm  Tm7  1  0.989489  0.799017  0.500001  1
  Lu  Lu8  1  0.000000  0.000000  0.000000  1
  Lu  Lu9  1  0.500000  0.500000  0.000000  1
  Zn  Zn10  1  0.135977  0.635977  0.771950  1
  Zn  Zn11  1  0.864023  0.364023  0.228050  1
  Zn  Zn12  1  0.635973  0.864027  0.500000  1
  Zn  Zn13  1  0.364027  0.135973  0.500000  1
  Sb  Sb14  1  0.250002  0.249998  0.000000  1
  Sb  Sb15  1  0.749998  0.750002  0.000000  1
