# generated using pymatgen
data_NdTl(ReH9)2
_symmetry_space_group_name_H-M   'P 1'
_cell_length_a   5.26267078
_cell_length_b   5.26243645
_cell_length_c   9.08192000
_cell_angle_alpha   93.45839702
_cell_angle_beta   86.55412570
_cell_angle_gamma   125.00979775
_symmetry_Int_Tables_number   1
_chemical_formula_structural   NdTl(ReH9)2
_chemical_formula_sum   'Nd1 Tl1 Re2 H18'
_cell_volume   205.53241164
_cell_formula_units_Z   1
loop_
 _symmetry_equiv_pos_site_id
 _symmetry_equiv_pos_as_xyz
  1  'x, y, z'
loop_
 _atom_site_type_symbol
 _atom_site_label
 _atom_site_symmetry_multiplicity
 _atom_site_fract_x
 _atom_site_fract_y
 _atom_site_fract_z
 _atom_site_occupancy
  Nd  Nd0  1  0.000000  0.000000  0.500000  1
  Tl  Tl1  1  0.000000  0.000000  0.000000  1
  Re  Re2  1  0.333260  0.667950  0.716582  1
  Re  Re3  1  0.666740  0.332050  0.283418  1
  H  H4  1  0.386638  0.613816  0.531340  1
  H  H5  1  0.613362  0.386184  0.468660  1
  H  H6  1  0.409140  0.591254  0.877156  1
  H  H7  1  0.590860  0.408746  0.122844  1
  H  H8  1  0.467648  0.963977  0.842613  1
  H  H9  1  0.963109  0.466974  0.157630  1
  H  H10  1  0.584762  0.021192  0.646035  1
  H  H11  1  0.020052  0.583724  0.353876  1
  H  H12  1  0.532352  0.036023  0.157387  1
  H  H13  1  0.036891  0.533026  0.842370  1
  H  H14  1  0.415238  0.978808  0.353965  1
  H  H15  1  0.979948  0.416276  0.646124  1
  H  H16  1  0.691465  0.728986  0.714967  1
  H  H17  1  0.728436  0.690540  0.285069  1
  H  H18  1  0.308535  0.271014  0.285033  1
  H  H19  1  0.271564  0.309460  0.714931  1
  H  H20  1  0.152707  0.847770  0.696823  1
  H  H21  1  0.847293  0.152230  0.303177  1
