# generated using pymatgen
data_Ho7Tm3(Pb3Cl)2
_symmetry_space_group_name_H-M   'P 1'
_cell_length_a   9.16660900
_cell_length_b   9.16660916
_cell_length_c   6.57043400
_cell_angle_alpha   90.00000000
_cell_angle_beta   90.00000000
_cell_angle_gamma   120.00001747
_symmetry_Int_Tables_number   1
_chemical_formula_structural   Ho7Tm3(Pb3Cl)2
_chemical_formula_sum   'Ho7 Tm3 Pb6 Cl2'
_cell_volume   478.12564007
_cell_formula_units_Z   1
loop_
 _symmetry_equiv_pos_site_id
 _symmetry_equiv_pos_as_xyz
  1  'x, y, z'
loop_
 _atom_site_type_symbol
 _atom_site_label
 _atom_site_symmetry_multiplicity
 _atom_site_fract_x
 _atom_site_fract_y
 _atom_site_fract_z
 _atom_site_occupancy
  Ho  Ho0  1  0.260968  0.000025  0.250037  1
  Ho  Ho1  1  0.739057  0.000025  0.749963  1
  Ho  Ho2  1  0.999975  0.260943  0.250037  1
  Ho  Ho3  1  0.999975  0.739032  0.749963  1
  Ho  Ho4  1  0.739057  0.739032  0.250037  1
  Ho  Ho5  1  0.260968  0.260943  0.749963  1
  Ho  Ho6  1  0.333333  0.666667  0.000000  1
  Tm  Tm7  1  0.666667  0.333333  0.000000  1
  Tm  Tm8  1  0.666667  0.333333  0.500000  1
  Tm  Tm9  1  0.333333  0.666667  0.500000  1
  Pb  Pb10  1  0.610265  0.000119  0.250105  1
  Pb  Pb11  1  0.389854  0.000119  0.749895  1
  Pb  Pb12  1  0.999881  0.610146  0.250105  1
  Pb  Pb13  1  0.999881  0.389735  0.749895  1
  Pb  Pb14  1  0.389854  0.389735  0.250105  1
  Pb  Pb15  1  0.610265  0.610146  0.749895  1
  Cl  Cl16  1  0.000000  0.000000  0.000000  1
  Cl  Cl17  1  0.000000  0.000000  0.500000  1
