# generated using pymatgen
data_Ca2MnZn3(MoO4)6
_symmetry_space_group_name_H-M   'P 1'
_cell_length_a   7.27244082
_cell_length_b   8.73286671
_cell_length_c   10.32953049
_cell_angle_alpha   97.06568720
_cell_angle_beta   105.76428444
_cell_angle_gamma   102.02422122
_symmetry_Int_Tables_number   1
_chemical_formula_structural   Ca2MnZn3(MoO4)6
_chemical_formula_sum   'Ca2 Mn1 Zn3 Mo6 O24'
_cell_volume   606.14892506
_cell_formula_units_Z   1
loop_
 _symmetry_equiv_pos_site_id
 _symmetry_equiv_pos_as_xyz
  1  'x, y, z'
loop_
 _atom_site_type_symbol
 _atom_site_label
 _atom_site_symmetry_multiplicity
 _atom_site_fract_x
 _atom_site_fract_y
 _atom_site_fract_z
 _atom_site_occupancy
  Ca  Ca0  1  0.246912  0.691064  0.915281  1
  Ca  Ca1  1  0.754215  0.311109  0.087293  1
  Mn  Mn2  1  0.529849  0.696069  0.485874  1
  Zn  Zn3  1  0.474131  0.297341  0.517003  1
  Zn  Zn4  1  0.968449  0.887146  0.702709  1
  Zn  Zn5  1  0.035471  0.116550  0.300456  1
  Mo  Mo6  1  0.499978  0.990775  0.746960  1
  Mo  Mo7  1  0.500913  0.014378  0.255655  1
  Mo  Mo8  1  0.695256  0.603998  0.818522  1
  Mo  Mo9  1  0.302083  0.389175  0.175991  1
  Mo  Mo10  1  0.984107  0.720238  0.381607  1
  Mo  Mo11  1  0.014791  0.282459  0.618187  1
  O  O12  1  0.264509  0.878562  0.758441  1
  O  O13  1  0.736564  0.124806  0.243967  1
  O  O14  1  0.560173  0.701970  0.905101  1
  O  O15  1  0.436221  0.289153  0.089491  1
  O  O16  1  0.552301  0.516554  0.639035  1
  O  O17  1  0.446254  0.474674  0.352888  1
  O  O18  1  0.548339  0.868395  0.355907  1
  O  O19  1  0.454569  0.136188  0.644708  1
  O  O20  1  0.651514  0.090430  0.911950  1
  O  O21  1  0.347197  0.913166  0.091267  1
  O  O22  1  0.634357  0.862158  0.676020  1
  O  O23  1  0.368217  0.142335  0.331983  1
  O  O24  1  0.008195  0.113464  0.702367  1
  O  O25  1  0.991478  0.889197  0.297671  1
  O  O26  1  0.062847  0.256086  0.163733  1
  O  O27  1  0.933879  0.739130  0.833040  1
  O  O28  1  0.140470  0.458522  0.742269  1
  O  O29  1  0.856469  0.544230  0.257622  1
  O  O30  1  0.141748  0.260989  0.486793  1
  O  O31  1  0.860805  0.742770  0.515191  1
  O  O32  1  0.244886  0.543908  0.089715  1
  O  O33  1  0.754824  0.451969  0.906602  1
  O  O34  1  0.230100  0.710481  0.460385  1
  O  O35  1  0.767932  0.290559  0.538318  1
