# generated using pymatgen
data_CaAc(Re2Si)4
_symmetry_space_group_name_H-M   'P 1'
_cell_length_a   4.20656900
_cell_length_b   7.40322356
_cell_length_c   15.64163544
_cell_angle_alpha   90.75429620
_cell_angle_beta   90.00000000
_cell_angle_gamma   90.00000000
_symmetry_Int_Tables_number   1
_chemical_formula_structural   CaAc(Re2Si)4
_chemical_formula_sum   'Ca2 Ac2 Re16 Si8'
_cell_volume   487.07226937
_cell_formula_units_Z   2
loop_
 _symmetry_equiv_pos_site_id
 _symmetry_equiv_pos_as_xyz
  1  'x, y, z'
loop_
 _atom_site_type_symbol
 _atom_site_label
 _atom_site_symmetry_multiplicity
 _atom_site_fract_x
 _atom_site_fract_y
 _atom_site_fract_z
 _atom_site_occupancy
  Ca  Ca0  1  0.000000  0.577126  0.114643  1
  Ca  Ca1  1  0.000000  0.422874  0.885357  1
  Ac  Ac2  1  0.500000  0.077472  0.379287  1
  Ac  Ac3  1  0.500000  0.922528  0.620713  1
  Re  Re4  1  0.000000  0.136597  0.052450  1
  Re  Re5  1  0.000000  0.863403  0.947550  1
  Re  Re6  1  0.500000  0.628845  0.445877  1
  Re  Re7  1  0.500000  0.371155  0.554123  1
  Re  Re8  1  0.000000  0.724373  0.314971  1
  Re  Re9  1  0.000000  0.275627  0.685029  1
  Re  Re10  1  0.500000  0.236542  0.176266  1
  Re  Re11  1  0.500000  0.763458  0.823734  1
  Re  Re12  1  0.000000  0.435157  0.417593  1
  Re  Re13  1  0.000000  0.564843  0.582407  1
  Re  Re14  1  0.500000  0.938407  0.081370  1
  Re  Re15  1  0.500000  0.061593  0.918630  1
  Re  Re16  1  0.000000  0.985309  0.203355  1
  Re  Re17  1  0.000000  0.014691  0.796645  1
  Re  Re18  1  0.500000  0.495799  0.289208  1
  Re  Re19  1  0.500000  0.504201  0.710792  1
  Si  Si20  1  0.000000  0.812834  0.472053  1
  Si  Si21  1  0.000000  0.187166  0.527947  1
  Si  Si22  1  0.500000  0.327126  0.023420  1
  Si  Si23  1  0.500000  0.672874  0.976580  1
  Si  Si24  1  0.000000  0.298429  0.266661  1
  Si  Si25  1  0.000000  0.701571  0.733339  1
  Si  Si26  1  0.500000  0.784721  0.218695  1
  Si  Si27  1  0.500000  0.215279  0.781305  1
