# generated using pymatgen
data_La2Dy18Si13Pt3
_symmetry_space_group_name_H-M   'P 1'
_cell_length_a   7.38718618
_cell_length_b   7.90506520
_cell_length_c   14.70086800
_cell_angle_alpha   89.74363798
_cell_angle_beta   89.98752043
_cell_angle_gamma   89.92891391
_symmetry_Int_Tables_number   1
_chemical_formula_structural   La2Dy18Si13Pt3
_chemical_formula_sum   'La2 Dy18 Si13 Pt3'
_cell_volume   858.46538386
_cell_formula_units_Z   1
loop_
 _symmetry_equiv_pos_site_id
 _symmetry_equiv_pos_as_xyz
  1  'x, y, z'
loop_
 _atom_site_type_symbol
 _atom_site_label
 _atom_site_symmetry_multiplicity
 _atom_site_fract_x
 _atom_site_fract_y
 _atom_site_fract_z
 _atom_site_occupancy
  La  La0  1  0.517353  0.570415  0.338314  1
  La  La1  1  0.020260  0.429341  0.661051  1
  Dy  Dy2  1  0.810524  0.579781  0.877329  1
  Dy  Dy3  1  0.308925  0.421064  0.122688  1
  Dy  Dy4  1  0.185894  0.927952  0.374424  1
  Dy  Dy5  1  0.681765  0.070212  0.625975  1
  Dy  Dy6  1  0.187273  0.925805  0.626549  1
  Dy  Dy7  1  0.680135  0.069323  0.372417  1
  Dy  Dy8  1  0.814794  0.576028  0.123674  1
  Dy  Dy9  1  0.313853  0.424996  0.876282  1
  Dy  Dy10  1  0.658023  0.236456  0.999515  1
  Dy  Dy11  1  0.161407  0.766727  0.000302  1
  Dy  Dy12  1  0.354594  0.269929  0.499700  1
  Dy  Dy13  1  0.838804  0.736159  0.500503  1
  Dy  Dy14  1  0.480779  0.933842  0.844657  1
  Dy  Dy15  1  0.978285  0.065240  0.153149  1
  Dy  Dy16  1  0.478728  0.935332  0.153607  1
  Dy  Dy17  1  0.975953  0.064113  0.847500  1
  Dy  Dy18  1  0.521506  0.566627  0.658026  1
  Dy  Dy19  1  0.023464  0.435026  0.344244  1
  Si  Si20  1  0.979190  0.146522  0.498724  1
  Si  Si21  1  0.651593  0.277461  0.789730  1
  Si  Si22  1  0.151186  0.724315  0.210086  1
  Si  Si23  1  0.349811  0.218660  0.287930  1
  Si  Si24  1  0.849740  0.782633  0.712231  1
  Si  Si25  1  0.358879  0.221548  0.710709  1
  Si  Si26  1  0.859541  0.780268  0.289058  1
  Si  Si27  1  0.649427  0.273038  0.208346  1
  Si  Si28  1  0.148500  0.729106  0.792061  1
  Si  Si29  1  0.765374  0.881827  0.000651  1
  Si  Si30  1  0.267525  0.120434  0.999259  1
  Si  Si31  1  0.227287  0.620622  0.501352  1
  Si  Si32  1  0.739441  0.370448  0.497563  1
  Pt  Pt33  1  0.517303  0.654069  0.001159  1
  Pt  Pt34  1  0.014558  0.344975  0.999107  1
  Pt  Pt35  1  0.478329  0.849709  0.502128  1
