# generated using pymatgen
data_Pr4NdTl3
_symmetry_space_group_name_H-M   'P 1'
_cell_length_a   6.20810015
_cell_length_b   9.53871580
_cell_length_c   9.53871500
_cell_angle_alpha   83.90444470
_cell_angle_beta   71.00572676
_cell_angle_gamma   71.00572746
_symmetry_Int_Tables_number   1
_chemical_formula_structural   Pr4NdTl3
_chemical_formula_sum   'Pr8 Nd2 Tl6'
_cell_volume   505.01991018
_cell_formula_units_Z   2
loop_
 _symmetry_equiv_pos_site_id
 _symmetry_equiv_pos_as_xyz
  1  'x, y, z'
loop_
 _atom_site_type_symbol
 _atom_site_label
 _atom_site_symmetry_multiplicity
 _atom_site_fract_x
 _atom_site_fract_y
 _atom_site_fract_z
 _atom_site_occupancy
  Pr  Pr0  1  0.719855  0.865557  0.694357  1
  Pr  Pr1  1  0.280145  0.134443  0.305643  1
  Pr  Pr2  1  0.780145  0.305643  0.134443  1
  Pr  Pr3  1  0.219855  0.694357  0.865557  1
  Pr  Pr4  1  0.585564  0.694568  0.134410  1
  Pr  Pr5  1  0.414436  0.305432  0.865590  1
  Pr  Pr6  1  0.085564  0.134410  0.694568  1
  Pr  Pr7  1  0.914436  0.865590  0.305432  1
  Nd  Nd8  1  0.750000  0.499946  0.500054  1
  Nd  Nd9  1  0.250000  0.500054  0.499946  1
  Tl  Tl10  1  0.160233  0.500150  0.179678  1
  Tl  Tl11  1  0.839767  0.499850  0.820322  1
  Tl  Tl12  1  0.339767  0.820322  0.499850  1
  Tl  Tl13  1  0.660233  0.179678  0.500150  1
  Tl  Tl14  1  0.250000  0.000019  0.999981  1
  Tl  Tl15  1  0.750000  0.999981  0.000019  1
