# generated using pymatgen
data_Y2Tm4TcIr
_symmetry_space_group_name_H-M   'P 1'
_cell_length_a   6.27482200
_cell_length_b   7.36019600
_cell_length_c   9.01238500
_cell_angle_alpha   90.00000000
_cell_angle_beta   90.00000000
_cell_angle_gamma   90.00000000
_symmetry_Int_Tables_number   1
_chemical_formula_structural   Y2Tm4TcIr
_chemical_formula_sum   'Y4 Tm8 Tc2 Ir2'
_cell_volume   416.22726591
_cell_formula_units_Z   2
loop_
 _symmetry_equiv_pos_site_id
 _symmetry_equiv_pos_as_xyz
  1  'x, y, z'
loop_
 _atom_site_type_symbol
 _atom_site_label
 _atom_site_symmetry_multiplicity
 _atom_site_fract_x
 _atom_site_fract_y
 _atom_site_fract_z
 _atom_site_occupancy
  Y  Y0  1  0.875808  0.538821  0.250000  1
  Y  Y1  1  0.624192  0.038821  0.250000  1
  Y  Y2  1  0.131107  0.460302  0.750000  1
  Y  Y3  1  0.368893  0.960302  0.750000  1
  Tm  Tm4  1  0.333717  0.675936  0.065395  1
  Tm  Tm5  1  0.166283  0.175936  0.434605  1
  Tm  Tm6  1  0.664561  0.324262  0.561206  1
  Tm  Tm7  1  0.835439  0.824262  0.938794  1
  Tm  Tm8  1  0.664561  0.324262  0.938794  1
  Tm  Tm9  1  0.835439  0.824262  0.561206  1
  Tm  Tm10  1  0.333717  0.675936  0.434605  1
  Tm  Tm11  1  0.166283  0.175936  0.065395  1
  Tc  Tc12  1  0.041829  0.885550  0.250000  1
  Tc  Tc13  1  0.458171  0.385550  0.250000  1
  Ir  Ir14  1  0.950280  0.114931  0.750000  1
  Ir  Ir15  1  0.549720  0.614931  0.750000  1
