# generated using pymatgen
data_Ho16Al4PtRh3
_symmetry_space_group_name_H-M   'P 1'
_cell_length_a   9.51698581
_cell_length_b   9.50312513
_cell_length_c   9.51698500
_cell_angle_alpha   59.95174649
_cell_angle_beta   60.00000629
_cell_angle_gamma   59.95174640
_symmetry_Int_Tables_number   1
_chemical_formula_structural   Ho16Al4PtRh3
_chemical_formula_sum   'Ho16 Al4 Pt1 Rh3'
_cell_volume   608.18140596
_cell_formula_units_Z   1
loop_
 _symmetry_equiv_pos_site_id
 _symmetry_equiv_pos_as_xyz
  1  'x, y, z'
loop_
 _atom_site_type_symbol
 _atom_site_label
 _atom_site_symmetry_multiplicity
 _atom_site_fract_x
 _atom_site_fract_y
 _atom_site_fract_z
 _atom_site_occupancy
  Ho  Ho0  1  0.186868  0.186510  0.813311  1
  Ho  Ho1  1  0.604238  0.601196  0.190328  1
  Ho  Ho2  1  0.441566  0.061324  0.441566  1
  Ho  Ho3  1  0.440688  0.440699  0.059306  1
  Ho  Ho4  1  0.813311  0.186510  0.813311  1
  Ho  Ho5  1  0.187076  0.812495  0.187076  1
  Ho  Ho6  1  0.441566  0.061324  0.055544  1
  Ho  Ho7  1  0.187076  0.812495  0.813354  1
  Ho  Ho8  1  0.059306  0.440699  0.059306  1
  Ho  Ho9  1  0.813354  0.812495  0.187076  1
  Ho  Ho10  1  0.190328  0.601196  0.604238  1
  Ho  Ho11  1  0.059306  0.440699  0.440688  1
  Ho  Ho12  1  0.055544  0.061324  0.441566  1
  Ho  Ho13  1  0.813311  0.186510  0.186868  1
  Ho  Ho14  1  0.602395  0.192817  0.602395  1
  Ho  Ho15  1  0.604238  0.601196  0.604238  1
  Al  Al16  1  0.828742  0.827928  0.828742  1
  Al  Al17  1  0.828742  0.827928  0.514589  1
  Al  Al18  1  0.514589  0.827928  0.828742  1
  Al  Al19  1  0.827847  0.516459  0.827847  1
  Pt  Pt20  1  0.393548  0.819356  0.393548  1
  Rh  Rh21  1  0.393022  0.393638  0.393022  1
  Rh  Rh22  1  0.820318  0.393638  0.393022  1
  Rh  Rh23  1  0.393022  0.393638  0.820318  1
