# generated using pymatgen
data_Eu2SeOF
_symmetry_space_group_name_H-M   'P 1'
_cell_length_a   4.08760900
_cell_length_b   4.08760905
_cell_length_c   7.03737600
_cell_angle_alpha   90.00000000
_cell_angle_beta   90.00000000
_cell_angle_gamma   120.00000771
_symmetry_Int_Tables_number   1
_chemical_formula_structural   Eu2SeOF
_chemical_formula_sum   'Eu2 Se1 O1 F1'
_cell_volume   101.83101013
_cell_formula_units_Z   1
loop_
 _symmetry_equiv_pos_site_id
 _symmetry_equiv_pos_as_xyz
  1  'x, y, z'
loop_
 _atom_site_type_symbol
 _atom_site_label
 _atom_site_symmetry_multiplicity
 _atom_site_fract_x
 _atom_site_fract_y
 _atom_site_fract_z
 _atom_site_occupancy
  Eu  Eu0  1  0.333333  0.666667  0.275779  1
  Eu  Eu1  1  0.666667  0.333333  0.718564  1
  Se  Se2  1  0.000000  0.000000  0.989007  1
  O  O3  1  0.666667  0.333333  0.385049  1
  F  F4  1  0.333333  0.666667  0.631601  1
