# generated using pymatgen
data_Tb8Hf2ScSi16Mo9
_symmetry_space_group_name_H-M   'P 1'
_cell_length_a   6.99306802
_cell_length_b   6.99426059
_cell_length_c   12.93541932
_cell_angle_alpha   89.92590465
_cell_angle_beta   90.04022335
_cell_angle_gamma   89.90103674
_symmetry_Int_Tables_number   1
_chemical_formula_structural   Tb8Hf2ScSi16Mo9
_chemical_formula_sum   'Tb8 Hf2 Sc1 Si16 Mo9'
_cell_volume   632.68706359
_cell_formula_units_Z   1
loop_
 _symmetry_equiv_pos_site_id
 _symmetry_equiv_pos_as_xyz
  1  'x, y, z'
loop_
 _atom_site_type_symbol
 _atom_site_label
 _atom_site_symmetry_multiplicity
 _atom_site_fract_x
 _atom_site_fract_y
 _atom_site_fract_z
 _atom_site_occupancy
  Tb  Tb0  1  0.999344  0.337460  0.216207  1
  Tb  Tb1  1  0.005021  0.660603  0.720392  1
  Tb  Tb2  1  0.161243  0.496118  0.468627  1
  Tb  Tb3  1  0.500898  0.841386  0.031093  1
  Tb  Tb4  1  0.841784  0.500851  0.969316  1
  Tb  Tb5  1  0.496388  0.160585  0.531417  1
  Tb  Tb6  1  0.337581  0.999759  0.783499  1
  Tb  Tb7  1  0.660860  0.005075  0.279872  1
  Hf  Hf8  1  0.831239  0.831583  0.499885  1
  Hf  Hf9  1  0.669266  0.329341  0.752116  1
  Sc  Sc10  1  0.329641  0.669433  0.247937  1
  Si  Si11  1  0.371919  0.295967  0.315989  1
  Si  Si12  1  0.626243  0.705856  0.817049  1
  Si  Si13  1  0.204749  0.872673  0.567348  1
  Si  Si14  1  0.124884  0.803574  0.935056  1
  Si  Si15  1  0.803601  0.124506  0.065566  1
  Si  Si16  1  0.872513  0.204374  0.432357  1
  Si  Si17  1  0.295660  0.371683  0.683327  1
  Si  Si18  1  0.705658  0.626270  0.183103  1
  Si  Si19  1  0.286288  0.046688  0.183490  1
  Si  Si20  1  0.709452  0.957396  0.688829  1
  Si  Si21  1  0.456467  0.788911  0.437632  1
  Si  Si22  1  0.213762  0.533928  0.058905  1
  Si  Si23  1  0.533566  0.212939  0.941586  1
  Si  Si24  1  0.789710  0.456759  0.561986  1
  Si  Si25  1  0.046830  0.286554  0.816801  1
  Si  Si26  1  0.957093  0.710436  0.310428  1
  Mo  Mo27  1  0.166904  0.168345  0.999879  1
  Mo  Mo28  1  0.159679  0.995830  0.375514  1
  Mo  Mo29  1  0.833410  0.005206  0.876996  1
  Mo  Mo30  1  0.506869  0.659457  0.626816  1
  Mo  Mo31  1  0.343162  0.497370  0.873370  1
  Mo  Mo32  1  0.498394  0.342031  0.126155  1
  Mo  Mo33  1  0.661267  0.505432  0.374085  1
  Mo  Mo34  1  0.994899  0.160908  0.625041  1
  Mo  Mo35  1  0.003757  0.834715  0.122329  1
