# generated using pymatgen
data_Ba3Co4(TcP3)2
_symmetry_space_group_name_H-M   'P 1'
_cell_length_a   8.83584103
_cell_length_b   8.83737326
_cell_length_c   8.83737316
_cell_angle_alpha   154.75632751
_cell_angle_beta   88.36326217
_cell_angle_gamma   97.12745481
_symmetry_Int_Tables_number   1
_chemical_formula_structural   Ba3Co4(TcP3)2
_chemical_formula_sum   'Ba3 Co4 Tc2 P6'
_cell_volume   286.25573105
_cell_formula_units_Z   1
loop_
 _symmetry_equiv_pos_site_id
 _symmetry_equiv_pos_as_xyz
  1  'x, y, z'
loop_
 _atom_site_type_symbol
 _atom_site_label
 _atom_site_symmetry_multiplicity
 _atom_site_fract_x
 _atom_site_fract_y
 _atom_site_fract_z
 _atom_site_occupancy
  Ba  Ba0  1  0.329359  0.332015  0.997344  1
  Ba  Ba1  1  0.669506  0.666691  0.002815  1
  Ba  Ba2  1  0.998535  0.001247  0.997288  1
  Co  Co3  1  0.757671  0.507191  0.250480  1
  Co  Co4  1  0.076653  0.826112  0.250541  1
  Co  Co5  1  0.416756  0.166700  0.250056  1
  Co  Co6  1  0.920605  0.166659  0.753947  1
  Tc  Tc7  1  0.583498  0.836913  0.746584  1
  Tc  Tc8  1  0.243031  0.496431  0.746598  1
  P  P9  1  0.321746  0.666692  0.655053  1
  P  P10  1  0.679837  0.334427  0.345410  1
  P  P11  1  0.983810  0.325260  0.658548  1
  P  P12  1  0.344412  0.998954  0.345458  1
  P  P13  1  0.008055  0.666658  0.341398  1
  P  P14  1  0.666527  0.008047  0.658481  1
