# generated using pymatgen
data_Sr(BrF4)2
_symmetry_space_group_name_H-M   'P 1'
_cell_length_a   7.92682655
_cell_length_b   7.92682675
_cell_length_c   7.92682692
_cell_angle_alpha   104.70021774
_cell_angle_beta   104.70021057
_cell_angle_gamma   119.50351549
_symmetry_Int_Tables_number   1
_chemical_formula_structural   Sr(BrF4)2
_chemical_formula_sum   'Sr2 Br4 F16'
_cell_volume   374.47134674
_cell_formula_units_Z   2
loop_
 _symmetry_equiv_pos_site_id
 _symmetry_equiv_pos_as_xyz
  1  'x, y, z'
loop_
 _atom_site_type_symbol
 _atom_site_label
 _atom_site_symmetry_multiplicity
 _atom_site_fract_x
 _atom_site_fract_y
 _atom_site_fract_z
 _atom_site_occupancy
  Sr  Sr0  1  0.000000  0.000000  0.000000  1
  Sr  Sr1  1  0.250000  0.750000  0.500000  1
  Br  Br2  1  0.140466  0.533019  0.935984  1
  Br  Br3  1  0.597034  0.204482  0.064016  1
  Br  Br4  1  0.795518  0.859534  0.392552  1
  Br  Br5  1  0.466981  0.402966  0.607448  1
  F  F6  1  0.083293  0.537941  0.690059  1
  F  F7  1  0.847883  0.393233  0.309941  1
  F  F8  1  0.606767  0.916707  0.454649  1
  F  F9  1  0.462059  0.152117  0.545351  1
  F  F10  1  0.731406  0.896112  0.158724  1
  F  F11  1  0.737388  0.572683  0.841276  1
  F  F12  1  0.427317  0.268594  0.164705  1
  F  F13  1  0.103888  0.262612  0.835295  1
  F  F14  1  0.195604  0.515551  0.184575  1
  F  F15  1  0.330976  0.011028  0.815425  1
  F  F16  1  0.988972  0.804396  0.319948  1
  F  F17  1  0.484449  0.669024  0.680052  1
  F  F18  1  0.746161  0.123888  0.937818  1
  F  F19  1  0.186070  0.808344  0.062182  1
  F  F20  1  0.191656  0.253839  0.377726  1
  F  F21  1  0.876112  0.813930  0.622274  1
