# generated using pymatgen
data_Nb4Fe6SiW2
_symmetry_space_group_name_H-M   'P 1'
_cell_length_a   9.27131838
_cell_length_b   9.27131872
_cell_length_c   9.27131811
_cell_angle_alpha   30.37203294
_cell_angle_beta   30.37203241
_cell_angle_gamma   30.37203470
_symmetry_Int_Tables_number   1
_chemical_formula_structural   Nb4Fe6SiW2
_chemical_formula_sum   'Nb4 Fe6 Si1 W2'
_cell_volume   180.56275888
_cell_formula_units_Z   1
loop_
 _symmetry_equiv_pos_site_id
 _symmetry_equiv_pos_as_xyz
  1  'x, y, z'
loop_
 _atom_site_type_symbol
 _atom_site_label
 _atom_site_symmetry_multiplicity
 _atom_site_fract_x
 _atom_site_fract_y
 _atom_site_fract_z
 _atom_site_occupancy
  Nb  Nb0  1  0.167552  0.167552  0.167552  1
  Nb  Nb1  1  0.832448  0.832448  0.832448  1
  Nb  Nb2  1  0.350381  0.350381  0.350381  1
  Nb  Nb3  1  0.649619  0.649619  0.649619  1
  Fe  Fe4  1  0.588498  0.092099  0.092099  1
  Fe  Fe5  1  0.092099  0.092099  0.588498  1
  Fe  Fe6  1  0.092099  0.588498  0.092099  1
  Fe  Fe7  1  0.907901  0.411502  0.907901  1
  Fe  Fe8  1  0.411502  0.907901  0.907901  1
  Fe  Fe9  1  0.907901  0.907901  0.411502  1
  Si  Si10  1  0.000000  0.000000  0.000000  1
  W  W11  1  0.452047  0.452047  0.452047  1
  W  W12  1  0.547953  0.547953  0.547953  1
