# generated using pymatgen
data_TbU7VS17
_symmetry_space_group_name_H-M   'P 1'
_cell_length_a   7.80533152
_cell_length_b   7.81222152
_cell_length_c   10.36935805
_cell_angle_alpha   80.77269144
_cell_angle_beta   80.64473194
_cell_angle_gamma   64.73720745
_symmetry_Int_Tables_number   1
_chemical_formula_structural   TbU7VS17
_chemical_formula_sum   'Tb1 U7 V1 S17'
_cell_volume   561.27395869
_cell_formula_units_Z   1
loop_
 _symmetry_equiv_pos_site_id
 _symmetry_equiv_pos_as_xyz
  1  'x, y, z'
loop_
 _atom_site_type_symbol
 _atom_site_label
 _atom_site_symmetry_multiplicity
 _atom_site_fract_x
 _atom_site_fract_y
 _atom_site_fract_z
 _atom_site_occupancy
  Tb  Tb0  1  0.812250  0.305814  0.297457  1
  U  U1  1  0.297653  0.820097  0.296912  1
  U  U2  1  0.181814  0.700729  0.701798  1
  U  U3  1  0.700171  0.181261  0.703874  1
  U  U4  1  0.203464  0.204714  0.542162  1
  U  U5  1  0.796658  0.794920  0.456484  1
  U  U6  1  0.683302  0.678802  0.982521  1
  U  U7  1  0.317621  0.319358  0.017595  1
  V  V8  1  0.001153  0.998742  0.999111  1
  S  S9  1  0.822771  0.432083  0.538356  1
  S  S10  1  0.432962  0.820675  0.535096  1
  S  S11  1  0.179979  0.566434  0.465116  1
  S  S12  1  0.569190  0.175345  0.469407  1
  S  S13  1  0.943644  0.322233  0.025703  1
  S  S14  1  0.323380  0.944527  0.028214  1
  S  S15  1  0.056479  0.677348  0.969908  1
  S  S16  1  0.677496  0.058403  0.970017  1
  S  S17  1  0.216073  0.207956  0.278774  1
  S  S18  1  0.787727  0.788004  0.722701  1
  S  S19  1  0.061980  0.059201  0.771979  1
  S  S20  1  0.942925  0.935646  0.227528  1
  S  S21  1  0.302774  0.302847  0.755065  1
  S  S22  1  0.692299  0.704514  0.243573  1
  S  S23  1  0.520961  0.522707  0.830018  1
  S  S24  1  0.473155  0.483578  0.165544  1
  S  S25  1  0.002118  0.994064  0.505089  1
