# generated using pymatgen
data_HoEr2Tm5(ReB6)4
_symmetry_space_group_name_H-M   'P 1'
_cell_length_a   3.64909100
_cell_length_b   9.11520400
_cell_length_c   11.48700300
_cell_angle_alpha   90.00038450
_cell_angle_beta   89.99944122
_cell_angle_gamma   89.99868648
_symmetry_Int_Tables_number   1
_chemical_formula_structural   HoEr2Tm5(ReB6)4
_chemical_formula_sum   'Ho1 Er2 Tm5 Re4 B24'
_cell_volume   382.08309319
_cell_formula_units_Z   1
loop_
 _symmetry_equiv_pos_site_id
 _symmetry_equiv_pos_as_xyz
  1  'x, y, z'
loop_
 _atom_site_type_symbol
 _atom_site_label
 _atom_site_symmetry_multiplicity
 _atom_site_fract_x
 _atom_site_fract_y
 _atom_site_fract_z
 _atom_site_occupancy
  Ho  Ho0  1  0.000006  0.323259  0.413893  1
  Er  Er1  1  0.999998  0.676625  0.586138  1
  Er  Er2  1  0.000007  0.823362  0.086057  1
  Tm  Tm3  1  0.000001  0.176579  0.913935  1
  Tm  Tm4  1  0.000006  0.943277  0.370209  1
  Tm  Tm5  1  0.000000  0.056712  0.629818  1
  Tm  Tm6  1  0.999992  0.443248  0.129587  1
  Tm  Tm7  1  0.999997  0.556693  0.870350  1
  Re  Re8  1  0.999998  0.639011  0.320521  1
  Re  Re9  1  0.999999  0.361031  0.679702  1
  Re  Re10  1  0.000014  0.138812  0.179111  1
  Re  Re11  1  0.000004  0.861316  0.820669  1
  B  B12  1  0.500006  0.553361  0.433159  1
  B  B13  1  0.500001  0.446742  0.567027  1
  B  B14  1  0.499990  0.053324  0.066598  1
  B  B15  1  0.499996  0.946984  0.933197  1
  B  B16  1  0.499991  0.750133  0.419002  1
  B  B17  1  0.500000  0.249863  0.581290  1
  B  B18  1  0.499997  0.250034  0.080672  1
  B  B19  1  0.499983  0.750008  0.918987  1
  B  B20  1  0.500000  0.792840  0.265181  1
  B  B21  1  0.499989  0.207062  0.735030  1
  B  B22  1  0.499992  0.292740  0.234521  1
  B  B23  1  0.499998  0.707209  0.765275  1
  B  B24  1  0.500005  0.630655  0.184908  1
  B  B25  1  0.500000  0.369150  0.815243  1
  B  B26  1  0.500002  0.130574  0.314867  1
  B  B27  1  0.500006  0.869421  0.685046  1
  B  B28  1  0.500002  0.981676  0.212036  1
  B  B29  1  0.500002  0.018617  0.788027  1
  B  B30  1  0.500000  0.481761  0.287709  1
  B  B31  1  0.500008  0.518323  0.712267  1
  B  B32  1  0.500000  0.599391  0.027712  1
  B  B33  1  0.499998  0.400314  0.972176  1
  B  B34  1  0.500005  0.099180  0.472349  1
  B  B35  1  0.500003  0.900712  0.527732  1
