# generated using pymatgen
data_Ge2Ir3RhSe10
_symmetry_space_group_name_H-M   'P 1'
_cell_length_a   3.74711100
_cell_length_b   7.74989619
_cell_length_c   13.06131495
_cell_angle_alpha   77.38724455
_cell_angle_beta   90.00000000
_cell_angle_gamma   90.00000000
_symmetry_Int_Tables_number   1
_chemical_formula_structural   Ge2Ir3RhSe10
_chemical_formula_sum   'Ge2 Ir3 Rh1 Se10'
_cell_volume   370.14381751
_cell_formula_units_Z   1
loop_
 _symmetry_equiv_pos_site_id
 _symmetry_equiv_pos_as_xyz
  1  'x, y, z'
loop_
 _atom_site_type_symbol
 _atom_site_label
 _atom_site_symmetry_multiplicity
 _atom_site_fract_x
 _atom_site_fract_y
 _atom_site_fract_z
 _atom_site_occupancy
  Ge  Ge0  1  0.500000  0.164355  0.680897  1
  Ge  Ge1  1  0.500000  0.837816  0.318548  1
  Ir  Ir2  1  0.000000  0.750347  0.850991  1
  Ir  Ir3  1  0.500000  0.745475  0.148246  1
  Ir  Ir4  1  0.500000  0.253539  0.852071  1
  Rh  Rh5  1  0.000000  0.249706  0.149343  1
  Se  Se6  1  0.000000  0.953409  0.102244  1
  Se  Se7  1  0.000000  0.045222  0.897804  1
  Se  Se8  1  0.000000  0.469189  0.779691  1
  Se  Se9  1  0.000000  0.531404  0.220469  1
  Se  Se10  1  0.500000  0.663987  0.974215  1
  Se  Se11  1  0.500000  0.335113  0.025405  1
  Se  Se12  1  0.500000  0.167759  0.281253  1
  Se  Se13  1  0.500000  0.832723  0.719327  1
  Se  Se14  1  0.000000  0.234477  0.561704  1
  Se  Se15  1  0.000000  0.765480  0.437795  1
