# generated using pymatgen
data_Er4Tm16Ir7Au5
_symmetry_space_group_name_H-M   'P 1'
_cell_length_a   11.01929527
_cell_length_b   11.02254151
_cell_length_c   6.30284803
_cell_angle_alpha   89.88241928
_cell_angle_beta   89.88803027
_cell_angle_gamma   89.56787447
_symmetry_Int_Tables_number   1
_chemical_formula_structural   Er4Tm16Ir7Au5
_chemical_formula_sum   'Er4 Tm16 Ir7 Au5'
_cell_volume   765.52312857
_cell_formula_units_Z   1
loop_
 _symmetry_equiv_pos_site_id
 _symmetry_equiv_pos_as_xyz
  1  'x, y, z'
loop_
 _atom_site_type_symbol
 _atom_site_label
 _atom_site_symmetry_multiplicity
 _atom_site_fract_x
 _atom_site_fract_y
 _atom_site_fract_z
 _atom_site_occupancy
  Er  Er0  1  0.300144  0.090471  0.364791  1
  Er  Er1  1  0.301603  0.907923  0.862616  1
  Er  Er2  1  0.697611  0.080493  0.860572  1
  Er  Er3  1  0.697904  0.906289  0.361761  1
  Tm  Tm4  1  0.580397  0.785923  0.875839  1
  Tm  Tm5  1  0.575122  0.206263  0.363532  1
  Tm  Tm6  1  0.418674  0.789472  0.375503  1
  Tm  Tm7  1  0.411857  0.207446  0.878606  1
  Tm  Tm8  1  0.213626  0.419665  0.624097  1
  Tm  Tm9  1  0.210130  0.581292  0.124449  1
  Tm  Tm10  1  0.794160  0.424877  0.136432  1
  Tm  Tm11  1  0.792959  0.588136  0.621256  1
  Tm  Tm12  1  0.909920  0.699389  0.134988  1
  Tm  Tm13  1  0.919908  0.302802  0.639113  1
  Tm  Tm14  1  0.091759  0.697965  0.637128  1
  Tm  Tm15  1  0.093307  0.302679  0.138047  1
  Tm  Tm16  1  0.998760  0.000153  0.499352  1
  Tm  Tm17  1  0.999848  0.001242  0.000899  1
  Tm  Tm18  1  0.495780  0.502237  0.001892  1
  Tm  Tm19  1  0.497683  0.504202  0.498357  1
  Ir  Ir20  1  0.653253  0.651002  0.249850  1
  Ir  Ir21  1  0.348538  0.347118  0.249650  1
  Ir  Ir22  1  0.345410  0.654128  0.749752  1
  Ir  Ir23  1  0.499505  0.999460  0.112172  1
  Ir  Ir24  1  0.499366  0.000139  0.614209  1
  Ir  Ir25  1  0.999955  0.500640  0.885547  1
  Ir  Ir26  1  0.000588  0.500490  0.387696  1
  Au  Au27  1  0.841837  0.158811  0.250479  1
  Au  Au28  1  0.843963  0.844898  0.751226  1
  Au  Au29  1  0.154272  0.156812  0.749788  1
  Au  Au30  1  0.156042  0.843193  0.250544  1
  Au  Au31  1  0.656118  0.344391  0.749855  1
