# generated using pymatgen
data_Er3TmGa3Co4Si
_symmetry_space_group_name_H-M   'P 1'
_cell_length_a   4.33368200
_cell_length_b   6.93482802
_cell_length_c   6.86489811
_cell_angle_alpha   89.89524374
_cell_angle_beta   90.00000000
_cell_angle_gamma   90.00000000
_symmetry_Int_Tables_number   1
_chemical_formula_structural   Er3TmGa3Co4Si
_chemical_formula_sum   'Er3 Tm1 Ga3 Co4 Si1'
_cell_volume   206.31276798
_cell_formula_units_Z   1
loop_
 _symmetry_equiv_pos_site_id
 _symmetry_equiv_pos_as_xyz
  1  'x, y, z'
loop_
 _atom_site_type_symbol
 _atom_site_label
 _atom_site_symmetry_multiplicity
 _atom_site_fract_x
 _atom_site_fract_y
 _atom_site_fract_z
 _atom_site_occupancy
  Er  Er0  1  0.750000  0.024762  0.693795  1
  Er  Er1  1  0.250000  0.478910  0.195618  1
  Er  Er2  1  0.250000  0.982823  0.305835  1
  Tm  Tm3  1  0.750000  0.518457  0.806733  1
  Ga  Ga4  1  0.750000  0.198285  0.105124  1
  Ga  Ga5  1  0.750000  0.696709  0.395102  1
  Ga  Ga6  1  0.250000  0.804736  0.892822  1
  Co  Co7  1  0.750000  0.342752  0.445732  1
  Co  Co8  1  0.750000  0.845923  0.063802  1
  Co  Co9  1  0.250000  0.638071  0.564879  1
  Co  Co10  1  0.250000  0.163144  0.923130  1
  Si  Si11  1  0.250000  0.305427  0.607427  1
