# generated using pymatgen
data_NF13
_symmetry_space_group_name_H-M   'P 1'
_cell_length_a   10.25629424
_cell_length_b   10.25629347
_cell_length_c   10.25629370
_cell_angle_alpha   135.76274982
_cell_angle_beta   135.76274847
_cell_angle_gamma   64.34733799
_symmetry_Int_Tables_number   1
_chemical_formula_structural   NF13
_chemical_formula_sum   'N2 F26'
_cell_volume   517.86328646
_cell_formula_units_Z   2
loop_
 _symmetry_equiv_pos_site_id
 _symmetry_equiv_pos_as_xyz
  1  'x, y, z'
loop_
 _atom_site_type_symbol
 _atom_site_label
 _atom_site_symmetry_multiplicity
 _atom_site_fract_x
 _atom_site_fract_y
 _atom_site_fract_z
 _atom_site_occupancy
  N  N0  1  0.000000  0.000000  0.000000  1
  N  N1  1  0.750000  0.250000  0.500000  1
  F  F2  1  0.155025  0.134350  0.200295  1
  F  F3  1  0.704730  0.405025  0.520674  1
  F  F4  1  0.884350  0.184055  0.479326  1
  F  F5  1  0.934055  0.954730  0.799705  1
  F  F6  1  0.594975  0.115650  0.299705  1
  F  F7  1  0.045270  0.844975  0.979326  1
  F  F8  1  0.865650  0.065945  0.020674  1
  F  F9  1  0.815945  0.295270  0.700295  1
  F  F10  1  0.682936  0.732544  0.264615  1
  F  F11  1  0.168320  0.932936  0.450392  1
  F  F12  1  0.482544  0.717928  0.549608  1
  F  F13  1  0.467929  0.418320  0.735385  1
  F  F14  1  0.282072  0.831680  0.764615  1
  F  F15  1  0.267456  0.532072  0.950392  1
  F  F16  1  0.581680  0.317064  0.049608  1
  F  F17  1  0.067064  0.517456  0.235385  1
  F  F18  1  0.831899  0.905567  0.463073  1
  F  F19  1  0.118827  0.081899  0.426333  1
  F  F20  1  0.655567  0.692494  0.573667  1
  F  F21  1  0.442494  0.368827  0.536927  1
  F  F22  1  0.918101  0.344433  0.036927  1
  F  F23  1  0.631173  0.168101  0.073667  1
  F  F24  1  0.094433  0.557506  0.926333  1
  F  F25  1  0.307506  0.881173  0.963073  1
  F  F26  1  0.500000  0.500000  0.000000  1
  F  F27  1  0.250000  0.750000  0.500000  1
