# generated using pymatgen
data_LuPu7Sb6
_symmetry_space_group_name_H-M   'P 1'
_cell_length_a   8.04485364
_cell_length_b   8.04485474
_cell_length_c   8.04485421
_cell_angle_alpha   109.62251548
_cell_angle_beta   109.62251785
_cell_angle_gamma   109.62251971
_symmetry_Int_Tables_number   1
_chemical_formula_structural   LuPu7Sb6
_chemical_formula_sum   'Lu1 Pu7 Sb6'
_cell_volume   398.54358367
_cell_formula_units_Z   1
loop_
 _symmetry_equiv_pos_site_id
 _symmetry_equiv_pos_as_xyz
  1  'x, y, z'
loop_
 _atom_site_type_symbol
 _atom_site_label
 _atom_site_symmetry_multiplicity
 _atom_site_fract_x
 _atom_site_fract_y
 _atom_site_fract_z
 _atom_site_occupancy
  Lu  Lu0  1  0.347000  0.347000  0.347000  1
  Pu  Pu1  1  0.148076  0.502979  0.989934  1
  Pu  Pu2  1  0.989934  0.148076  0.502979  1
  Pu  Pu3  1  0.847160  0.847160  0.847160  1
  Pu  Pu4  1  0.502979  0.989934  0.148076  1
  Pu  Pu5  1  0.659949  0.503043  0.001053  1
  Pu  Pu6  1  0.503043  0.001053  0.659949  1
  Pu  Pu7  1  0.001053  0.659949  0.503043  1
  Sb  Sb8  1  0.132225  0.886668  0.256035  1
  Sb  Sb9  1  0.372018  0.614211  0.739649  1
  Sb  Sb10  1  0.886668  0.256035  0.132225  1
  Sb  Sb11  1  0.614211  0.739649  0.372018  1
  Sb  Sb12  1  0.256035  0.132225  0.886668  1
  Sb  Sb13  1  0.739649  0.372018  0.614211  1
