# generated using pymatgen
data_TbMg3(AlPt)4
_symmetry_space_group_name_H-M   'P 1'
_cell_length_a   4.16787900
_cell_length_b   6.70632375
_cell_length_c   7.75107329
_cell_angle_alpha   92.71424358
_cell_angle_beta   90.00000000
_cell_angle_gamma   90.00000000
_symmetry_Int_Tables_number   1
_chemical_formula_structural   TbMg3(AlPt)4
_chemical_formula_sum   'Tb1 Mg3 Al4 Pt4'
_cell_volume   216.40832645
_cell_formula_units_Z   1
loop_
 _symmetry_equiv_pos_site_id
 _symmetry_equiv_pos_as_xyz
  1  'x, y, z'
loop_
 _atom_site_type_symbol
 _atom_site_label
 _atom_site_symmetry_multiplicity
 _atom_site_fract_x
 _atom_site_fract_y
 _atom_site_fract_z
 _atom_site_occupancy
  Tb  Tb0  1  0.750000  0.476115  0.172492  1
  Mg  Mg1  1  0.250000  0.023744  0.668912  1
  Mg  Mg2  1  0.250000  0.534163  0.822266  1
  Mg  Mg3  1  0.750000  0.966872  0.336793  1
  Al  Al4  1  0.250000  0.142908  0.049995  1
  Al  Al5  1  0.250000  0.645576  0.446536  1
  Al  Al6  1  0.750000  0.861932  0.942922  1
  Al  Al7  1  0.750000  0.353162  0.559589  1
  Pt  Pt8  1  0.250000  0.259099  0.375603  1
  Pt  Pt9  1  0.250000  0.786077  0.134781  1
  Pt  Pt10  1  0.750000  0.727345  0.627831  1
  Pt  Pt11  1  0.750000  0.223006  0.862279  1
