# generated using pymatgen
data_SrTl2Ir4PbO14
_symmetry_space_group_name_H-M   'P 1'
_cell_length_a   7.42112202
_cell_length_b   7.36909796
_cell_length_c   7.36909701
_cell_angle_alpha   59.36198051
_cell_angle_beta   59.61858741
_cell_angle_gamma   59.61858141
_symmetry_Int_Tables_number   1
_chemical_formula_structural   SrTl2Ir4PbO14
_chemical_formula_sum   'Sr1 Tl2 Ir4 Pb1 O14'
_cell_volume   281.93013015
_cell_formula_units_Z   1
loop_
 _symmetry_equiv_pos_site_id
 _symmetry_equiv_pos_as_xyz
  1  'x, y, z'
loop_
 _atom_site_type_symbol
 _atom_site_label
 _atom_site_symmetry_multiplicity
 _atom_site_fract_x
 _atom_site_fract_y
 _atom_site_fract_z
 _atom_site_occupancy
  Sr  Sr0  1  0.125000  0.125000  0.125000  1
  Tl  Tl1  1  0.125000  0.625000  0.125000  1
  Tl  Tl2  1  0.125000  0.125000  0.625000  1
  Ir  Ir3  1  0.125000  0.625000  0.625000  1
  Ir  Ir4  1  0.625000  0.125000  0.625000  1
  Ir  Ir5  1  0.625000  0.625000  0.125000  1
  Ir  Ir6  1  0.625000  0.625000  0.625000  1
  Pb  Pb7  1  0.625000  0.125000  0.125000  1
  O  O8  1  0.697770  0.704226  0.299317  1
  O  O9  1  0.301461  0.299682  0.691083  1
  O  O10  1  0.697770  0.299317  0.704226  1
  O  O11  1  0.301461  0.691083  0.299682  1
  O  O12  1  0.303361  0.698076  0.698076  1
  O  O13  1  0.692389  0.298753  0.298753  1
  O  O14  1  0.552230  0.545774  0.950683  1
  O  O15  1  0.948539  0.950318  0.558917  1
  O  O16  1  0.552230  0.950683  0.545774  1
  O  O17  1  0.948539  0.558917  0.950318  1
  O  O18  1  0.946639  0.551924  0.551924  1
  O  O19  1  0.557611  0.951247  0.951247  1
  O  O20  1  0.247632  0.262177  0.262177  1
  O  O21  1  0.002368  0.987823  0.987823  1
