# generated using pymatgen
data_Pr2Er18Si15Ir
_symmetry_space_group_name_H-M   'P 1'
_cell_length_a   7.40803479
_cell_length_b   7.65582766
_cell_length_c   14.52678163
_cell_angle_alpha   90.17147483
_cell_angle_beta   90.62760220
_cell_angle_gamma   90.13621716
_symmetry_Int_Tables_number   1
_chemical_formula_structural   Pr2Er18Si15Ir
_chemical_formula_sum   'Pr2 Er18 Si15 Ir1'
_cell_volume   823.82564786
_cell_formula_units_Z   1
loop_
 _symmetry_equiv_pos_site_id
 _symmetry_equiv_pos_as_xyz
  1  'x, y, z'
loop_
 _atom_site_type_symbol
 _atom_site_label
 _atom_site_symmetry_multiplicity
 _atom_site_fract_x
 _atom_site_fract_y
 _atom_site_fract_z
 _atom_site_occupancy
  Pr  Pr0  1  0.022952  0.823432  0.597064  1
  Pr  Pr1  1  0.521703  0.679425  0.594664  1
  Er  Er2  1  0.321056  0.818391  0.122093  1
  Er  Er3  1  0.816012  0.679202  0.122319  1
  Er  Er4  1  0.851234  0.505784  0.750026  1
  Er  Er5  1  0.469010  0.314809  0.100180  1
  Er  Er6  1  0.029424  0.817144  0.902165  1
  Er  Er7  1  0.474648  0.312621  0.400728  1
  Er  Er8  1  0.651928  0.011874  0.257174  1
  Er  Er9  1  0.531373  0.682373  0.901068  1
  Er  Er10  1  0.681888  0.179827  0.879809  1
  Er  Er11  1  0.180056  0.322656  0.624936  1
  Er  Er12  1  0.185439  0.323375  0.878442  1
  Er  Er13  1  0.815855  0.688055  0.379891  1
  Er  Er14  1  0.323224  0.826413  0.376537  1
  Er  Er15  1  0.352739  0.991050  0.748943  1
  Er  Er16  1  0.681515  0.167613  0.619670  1
  Er  Er17  1  0.146658  0.489106  0.252202  1
  Er  Er18  1  0.970241  0.182047  0.098849  1
  Er  Er19  1  0.969963  0.174453  0.399609  1
  Si  Si20  1  0.233271  0.626450  0.755763  1
  Si  Si21  1  0.346541  0.038465  0.537704  1
  Si  Si22  1  0.026921  0.892563  0.244649  1
  Si  Si23  1  0.733637  0.872341  0.756532  1
  Si  Si24  1  0.264522  0.127257  0.245323  1
  Si  Si25  1  0.856545  0.464042  0.538864  1
  Si  Si26  1  0.481239  0.389766  0.752083  1
  Si  Si27  1  0.148009  0.526392  0.458554  1
  Si  Si28  1  0.146065  0.527677  0.041432  1
  Si  Si29  1  0.977655  0.109333  0.754638  1
  Si  Si30  1  0.768023  0.376350  0.247572  1
  Si  Si31  1  0.352816  0.028469  0.960229  1
  Si  Si32  1  0.857018  0.472097  0.959588  1
  Si  Si33  1  0.645227  0.971103  0.040618  1
  Si  Si34  1  0.520608  0.601800  0.247519  1
  Ir  Ir35  1  0.644982  0.986237  0.452559  1
