# generated using pymatgen
data_Hf3Zr(TlS4)2
_symmetry_space_group_name_H-M   'P 1'
_cell_length_a   6.22271300
_cell_length_b   7.18941100
_cell_length_c   16.33712700
_cell_angle_alpha   90.00000000
_cell_angle_beta   90.00000000
_cell_angle_gamma   90.00000000
_symmetry_Int_Tables_number   1
_chemical_formula_structural   Hf3Zr(TlS4)2
_chemical_formula_sum   'Hf6 Zr2 Tl4 S16'
_cell_volume   730.88452747
_cell_formula_units_Z   2
loop_
 _symmetry_equiv_pos_site_id
 _symmetry_equiv_pos_as_xyz
  1  'x, y, z'
loop_
 _atom_site_type_symbol
 _atom_site_label
 _atom_site_symmetry_multiplicity
 _atom_site_fract_x
 _atom_site_fract_y
 _atom_site_fract_z
 _atom_site_occupancy
  Hf  Hf0  1  0.002478  0.000000  0.248765  1
  Hf  Hf1  1  0.002478  0.000000  0.751235  1
  Hf  Hf2  1  0.500152  0.251437  0.249999  1
  Hf  Hf3  1  0.500152  0.748563  0.750001  1
  Hf  Hf4  1  0.500152  0.748563  0.249999  1
  Hf  Hf5  1  0.500152  0.251437  0.750001  1
  Zr  Zr6  1  0.996980  0.500000  0.251179  1
  Zr  Zr7  1  0.996980  0.500000  0.748821  1
  Tl  Tl8  1  0.350361  0.000000  0.000000  1
  Tl  Tl9  1  0.652853  0.500000  0.500000  1
  Tl  Tl10  1  0.030451  0.000000  0.500000  1
  Tl  Tl11  1  0.970526  0.500000  0.000000  1
  S  S12  1  0.831500  0.245783  0.343783  1
  S  S13  1  0.831500  0.754217  0.656217  1
  S  S14  1  0.168090  0.752357  0.156231  1
  S  S15  1  0.168090  0.247643  0.843769  1
  S  S16  1  0.168090  0.247643  0.156231  1
  S  S17  1  0.168090  0.752357  0.843769  1
  S  S18  1  0.831500  0.754217  0.343783  1
  S  S19  1  0.831500  0.245783  0.656217  1
  S  S20  1  0.668315  0.000000  0.158550  1
  S  S21  1  0.668315  0.000000  0.841450  1
  S  S22  1  0.336716  0.500000  0.343135  1
  S  S23  1  0.336716  0.500000  0.656865  1
  S  S24  1  0.333966  0.000000  0.340981  1
  S  S25  1  0.333966  0.000000  0.659019  1
  S  S26  1  0.659964  0.500000  0.157123  1
  S  S27  1  0.659964  0.500000  0.842877  1
