# generated using pymatgen
data_TbEr7Hf12Si15As
_symmetry_space_group_name_H-M   'P 1'
_cell_length_a   7.25039234
_cell_length_b   7.26140241
_cell_length_c   13.32798475
_cell_angle_alpha   89.73486945
_cell_angle_beta   89.91371170
_cell_angle_gamma   89.94438643
_symmetry_Int_Tables_number   1
_chemical_formula_structural   TbEr7Hf12Si15As
_chemical_formula_sum   'Tb1 Er7 Hf12 Si15 As1'
_cell_volume   701.68332567
_cell_formula_units_Z   1
loop_
 _symmetry_equiv_pos_site_id
 _symmetry_equiv_pos_as_xyz
  1  'x, y, z'
loop_
 _atom_site_type_symbol
 _atom_site_label
 _atom_site_symmetry_multiplicity
 _atom_site_fract_x
 _atom_site_fract_y
 _atom_site_fract_z
 _atom_site_occupancy
  Tb  Tb0  1  0.654784  0.004715  0.284127  1
  Er  Er1  1  0.995988  0.345729  0.214937  1
  Er  Er2  1  0.004678  0.655711  0.715342  1
  Er  Er3  1  0.152353  0.499931  0.467026  1
  Er  Er4  1  0.506395  0.842368  0.033306  1
  Er  Er5  1  0.844734  0.503150  0.964815  1
  Er  Er6  1  0.496586  0.154312  0.536119  1
  Er  Er7  1  0.345297  0.996254  0.785101  1
  Hf  Hf8  1  0.174382  0.175047  0.999951  1
  Hf  Hf9  1  0.826408  0.826332  0.500237  1
  Hf  Hf10  1  0.324849  0.677236  0.249763  1
  Hf  Hf11  1  0.674651  0.325423  0.750041  1
  Hf  Hf12  1  0.149164  0.996057  0.373062  1
  Hf  Hf13  1  0.851583  0.003221  0.874786  1
  Hf  Hf14  1  0.502741  0.649395  0.625067  1
  Hf  Hf15  1  0.351766  0.496968  0.875277  1
  Hf  Hf16  1  0.494736  0.348879  0.124876  1
  Hf  Hf17  1  0.652532  0.506286  0.376899  1
  Hf  Hf18  1  0.997299  0.149502  0.625629  1
  Hf  Hf19  1  0.000339  0.848456  0.123952  1
  Si  Si20  1  0.638469  0.705265  0.817302  1
  Si  Si21  1  0.204057  0.862606  0.566876  1
  Si  Si22  1  0.138309  0.794540  0.931744  1
  Si  Si23  1  0.795190  0.139238  0.067530  1
  Si  Si24  1  0.862671  0.205127  0.432865  1
  Si  Si25  1  0.295698  0.361292  0.682325  1
  Si  Si26  1  0.703344  0.635875  0.182792  1
  Si  Si27  1  0.293997  0.038848  0.179467  1
  Si  Si28  1  0.704406  0.951328  0.685684  1
  Si  Si29  1  0.450964  0.796231  0.436212  1
  Si  Si30  1  0.203588  0.547768  0.064492  1
  Si  Si31  1  0.548881  0.203656  0.935672  1
  Si  Si32  1  0.795727  0.451711  0.565231  1
  Si  Si33  1  0.048974  0.296303  0.814240  1
  Si  Si34  1  0.952499  0.703663  0.314675  1
  As  As35  1  0.361962  0.301579  0.322574  1
