# generated using pymatgen
data_YbSm3Y3CoI12
_symmetry_space_group_name_H-M   'P 1'
_cell_length_a   9.83644917
_cell_length_b   9.87262083
_cell_length_c   9.76175779
_cell_angle_alpha   107.25669179
_cell_angle_beta   106.62435754
_cell_angle_gamma   106.92923978
_symmetry_Int_Tables_number   1
_chemical_formula_structural   YbSm3Y3CoI12
_chemical_formula_sum   'Yb1 Sm3 Y3 Co1 I12'
_cell_volume   790.82548336
_cell_formula_units_Z   1
loop_
 _symmetry_equiv_pos_site_id
 _symmetry_equiv_pos_as_xyz
  1  'x, y, z'
loop_
 _atom_site_type_symbol
 _atom_site_label
 _atom_site_symmetry_multiplicity
 _atom_site_fract_x
 _atom_site_fract_y
 _atom_site_fract_z
 _atom_site_occupancy
  Yb  Yb0  1  0.499897  0.499971  0.499804  1
  Sm  Sm1  1  0.976171  0.905197  0.713949  1
  Sm  Sm2  1  0.023474  0.093200  0.285891  1
  Sm  Sm3  1  0.098527  0.300796  0.024821  1
  Y  Y4  1  0.297578  0.025492  0.097829  1
  Y  Y5  1  0.902442  0.703243  0.975040  1
  Y  Y6  1  0.702081  0.973492  0.902346  1
  Co  Co7  1  0.999792  0.999806  0.999687  1
  I  I8  1  0.542930  0.621432  0.849445  1
  I  I9  1  0.461445  0.377727  0.152468  1
  I  I10  1  0.323408  0.928486  0.778389  1
  I  I11  1  0.381639  0.153669  0.458333  1
  I  I12  1  0.927090  0.773553  0.317127  1
  I  I13  1  0.676648  0.071502  0.221667  1
  I  I14  1  0.071771  0.223259  0.677639  1
  I  I15  1  0.772755  0.318921  0.926505  1
  I  I16  1  0.223284  0.683063  0.072478  1
  I  I17  1  0.845606  0.538994  0.620866  1
  I  I18  1  0.154863  0.461608  0.383790  1
  I  I19  1  0.618599  0.846588  0.541926  1
