# generated using pymatgen
data_Y2Co5RuC5
_symmetry_space_group_name_H-M   'P 1'
_cell_length_a   8.43979300
_cell_length_b   8.43979300
_cell_length_c   4.06214400
_cell_angle_alpha   90.00000000
_cell_angle_beta   90.00000000
_cell_angle_gamma   90.00000000
_symmetry_Int_Tables_number   1
_chemical_formula_structural   Y2Co5RuC5
_chemical_formula_sum   'Y4 Co10 Ru2 C10'
_cell_volume   289.34694723
_cell_formula_units_Z   2
loop_
 _symmetry_equiv_pos_site_id
 _symmetry_equiv_pos_as_xyz
  1  'x, y, z'
loop_
 _atom_site_type_symbol
 _atom_site_label
 _atom_site_symmetry_multiplicity
 _atom_site_fract_x
 _atom_site_fract_y
 _atom_site_fract_z
 _atom_site_occupancy
  Y  Y0  1  0.327517  0.827517  0.500000  1
  Y  Y1  1  0.827517  0.672483  0.500000  1
  Y  Y2  1  0.172483  0.327517  0.500000  1
  Y  Y3  1  0.672483  0.172483  0.500000  1
  Co  Co4  1  0.714601  0.429722  0.000000  1
  Co  Co5  1  0.429722  0.285399  0.000000  1
  Co  Co6  1  0.500000  0.000000  0.000000  1
  Co  Co7  1  0.000000  0.500000  0.000000  1
  Co  Co8  1  0.785399  0.929722  0.000000  1
  Co  Co9  1  0.929722  0.214601  0.000000  1
  Co  Co10  1  0.070278  0.785399  0.000000  1
  Co  Co11  1  0.214601  0.070278  0.000000  1
  Co  Co12  1  0.570278  0.714601  0.000000  1
  Co  Co13  1  0.285399  0.570278  0.000000  1
  Ru  Ru14  1  0.000000  0.000000  0.500000  1
  Ru  Ru15  1  0.500000  0.500000  0.500000  1
  C  C16  1  0.500000  0.500000  0.000000  1
  C  C17  1  0.000000  0.000000  0.000000  1
  C  C18  1  0.877264  0.377264  0.675222  1
  C  C19  1  0.122736  0.622736  0.675222  1
  C  C20  1  0.877264  0.377264  0.324778  1
  C  C21  1  0.377264  0.122736  0.324778  1
  C  C22  1  0.622736  0.877264  0.324778  1
  C  C23  1  0.122736  0.622736  0.324778  1
  C  C24  1  0.622736  0.877264  0.675222  1
  C  C25  1  0.377264  0.122736  0.675222  1
