# generated using pymatgen
data_LiTbPa2(Al8Pt3)3
_symmetry_space_group_name_H-M   'P 1'
_cell_length_a   7.54700591
_cell_length_b   7.55368676
_cell_length_c   13.11904128
_cell_angle_alpha   84.51799140
_cell_angle_beta   78.92993592
_cell_angle_gamma   59.95788638
_symmetry_Int_Tables_number   1
_chemical_formula_structural   LiTbPa2(Al8Pt3)3
_chemical_formula_sum   'Li1 Tb1 Pa2 Al24 Pt9'
_cell_volume   635.36726931
_cell_formula_units_Z   1
loop_
 _symmetry_equiv_pos_site_id
 _symmetry_equiv_pos_as_xyz
  1  'x, y, z'
loop_
 _atom_site_type_symbol
 _atom_site_label
 _atom_site_symmetry_multiplicity
 _atom_site_fract_x
 _atom_site_fract_y
 _atom_site_fract_z
 _atom_site_occupancy
  Li  Li0  1  0.739553  0.500596  0.793185  1
  Tb  Tb1  1  0.268053  0.502502  0.189702  1
  Pa  Pa2  1  0.395840  0.167916  0.804965  1
  Pa  Pa3  1  0.604987  0.830527  0.193373  1
  Al  Al4  1  0.685460  0.824899  0.939487  1
  Al  Al5  1  0.313806  0.166374  0.055112  1
  Al  Al6  1  0.145386  0.832316  0.563160  1
  Al  Al7  1  0.854459  0.167257  0.440311  1
  Al  Al8  1  0.479829  0.167713  0.558588  1
  Al  Al9  1  0.519099  0.832240  0.442624  1
  Al  Al10  1  0.214522  0.168303  0.330826  1
  Al  Al11  1  0.783998  0.825109  0.674916  1
  Al  Al12  1  0.441442  0.510179  0.676420  1
  Al  Al13  1  0.562408  0.490463  0.330770  1
  Al  Al14  1  0.098329  0.166275  0.674148  1
  Al  Al15  1  0.891726  0.839894  0.331592  1
  Al  Al16  1  0.365478  0.497204  0.938542  1
  Al  Al17  1  0.651976  0.497997  0.048728  1
  Al  Al18  1  0.011401  0.175873  0.946984  1
  Al  Al19  1  0.986688  0.833346  0.043222  1
  Al  Al20  1  0.184134  0.500856  0.442294  1
  Al  Al21  1  0.813065  0.499885  0.561393  1
  Al  Al22  1  0.736352  0.163212  0.183066  1
  Al  Al23  1  0.263024  0.840960  0.818946  1
  Al  Al24  1  0.064564  0.627355  0.817826  1
  Al  Al25  1  0.935763  0.369618  0.184651  1
  Al  Al26  1  0.849953  0.043293  0.818909  1
  Al  Al27  1  0.142143  0.961242  0.183882  1
  Pt  Pt28  1  0.123164  0.490694  0.640568  1
  Pt  Pt29  1  0.878900  0.508730  0.361579  1
  Pt  Pt30  1  0.655695  0.166894  0.002660  1
  Pt  Pt31  1  0.341263  0.829594  0.001945  1
  Pt  Pt32  1  0.537275  0.165614  0.361205  1
  Pt  Pt33  1  0.458545  0.837649  0.639950  1
  Pt  Pt34  1  0.776735  0.172101  0.639523  1
  Pt  Pt35  1  0.221506  0.825148  0.362511  1
  Pt  Pt36  1  0.003479  0.500172  0.002439  1
