# generated using pymatgen
data_Mn3Fe5Co8
_symmetry_space_group_name_H-M   'P 1'
_cell_length_a   4.03335562
_cell_length_b   4.03335448
_cell_length_c   13.38377607
_cell_angle_alpha   90.00000097
_cell_angle_beta   81.33361496
_cell_angle_gamma   119.99999464
_symmetry_Int_Tables_number   1
_chemical_formula_structural   Mn3Fe5Co8
_chemical_formula_sum   'Mn3 Fe5 Co8'
_cell_volume   185.68079170
_cell_formula_units_Z   1
loop_
 _symmetry_equiv_pos_site_id
 _symmetry_equiv_pos_as_xyz
  1  'x, y, z'
loop_
 _atom_site_type_symbol
 _atom_site_label
 _atom_site_symmetry_multiplicity
 _atom_site_fract_x
 _atom_site_fract_y
 _atom_site_fract_z
 _atom_site_occupancy
  Mn  Mn0  1  0.375156  0.187578  0.437266  1
  Mn  Mn1  1  0.875000  0.437500  0.687500  1
  Mn  Mn2  1  0.374844  0.687422  0.937734  1
  Fe  Fe3  1  0.624934  0.812468  0.562598  1
  Fe  Fe4  1  0.125066  0.062532  0.812402  1
  Fe  Fe5  1  0.625692  0.312846  0.061462  1
  Fe  Fe6  1  0.124308  0.562154  0.313538  1
  Fe  Fe7  1  0.875000  0.937500  0.187500  1
  Co  Co8  1  0.000408  0.500204  0.499388  1
  Co  Co9  1  0.499842  0.749920  0.750237  1
  Co  Co10  1  0.998440  0.999221  0.002339  1
  Co  Co11  1  0.501277  0.250638  0.248085  1
  Co  Co12  1  0.250158  0.125080  0.624763  1
  Co  Co13  1  0.749592  0.374796  0.875612  1
  Co  Co14  1  0.248723  0.624362  0.126915  1
  Co  Co15  1  0.751560  0.875779  0.372661  1
