# generated using pymatgen
data_Eu2NbMoO8
_symmetry_space_group_name_H-M   'P 1'
_cell_length_a   7.14396095
_cell_length_b   7.28356253
_cell_length_c   5.56437062
_cell_angle_alpha   67.24688243
_cell_angle_beta   67.66996640
_cell_angle_gamma   114.17102852
_symmetry_Int_Tables_number   1
_chemical_formula_structural   Eu2NbMoO8
_chemical_formula_sum   'Eu2 Nb1 Mo1 O8'
_cell_volume   187.20619918
_cell_formula_units_Z   1
loop_
 _symmetry_equiv_pos_site_id
 _symmetry_equiv_pos_as_xyz
  1  'x, y, z'
loop_
 _atom_site_type_symbol
 _atom_site_label
 _atom_site_symmetry_multiplicity
 _atom_site_fract_x
 _atom_site_fract_y
 _atom_site_fract_z
 _atom_site_occupancy
  Eu  Eu0  1  0.124370  0.874870  0.750789  1
  Eu  Eu1  1  0.875486  0.125492  0.249078  1
  Nb  Nb2  1  0.376421  0.624029  0.252332  1
  Mo  Mo3  1  0.623179  0.375761  0.747779  1
  O  O4  1  0.144070  0.561533  0.147972  1
  O  O5  1  0.440229  0.855137  0.352358  1
  O  O6  1  0.847143  0.436665  0.843259  1
  O  O7  1  0.561907  0.153468  0.655885  1
  O  O8  1  0.711835  0.792445  0.848812  1
  O  O9  1  0.210757  0.292166  0.648962  1
  O  O10  1  0.305186  0.217609  0.132704  1
  O  O11  1  0.779417  0.690825  0.370070  1
