# generated using pymatgen
data_Er9Tm3InCo4Os
_symmetry_space_group_name_H-M   'P 1'
_cell_length_a   8.19691311
_cell_length_b   8.19723695
_cell_length_c   8.19691255
_cell_angle_alpha   111.52447523
_cell_angle_beta   110.80491289
_cell_angle_gamma   106.13423694
_symmetry_Int_Tables_number   1
_chemical_formula_structural   Er9Tm3InCo4Os
_chemical_formula_sum   'Er9 Tm3 In1 Co4 Os1'
_cell_volume   422.90094983
_cell_formula_units_Z   1
loop_
 _symmetry_equiv_pos_site_id
 _symmetry_equiv_pos_as_xyz
  1  'x, y, z'
loop_
 _atom_site_type_symbol
 _atom_site_label
 _atom_site_symmetry_multiplicity
 _atom_site_fract_x
 _atom_site_fract_y
 _atom_site_fract_z
 _atom_site_occupancy
  Er  Er0  1  0.417709  0.223105  0.194470  1
  Er  Er1  1  0.582454  0.776828  0.805811  1
  Er  Er2  1  0.028636  0.223105  0.805397  1
  Er  Er3  1  0.971017  0.776828  0.194372  1
  Er  Er4  1  0.182011  0.278236  0.460468  1
  Er  Er5  1  0.818145  0.721701  0.539706  1
  Er  Er6  1  0.181996  0.721701  0.903556  1
  Er  Er7  1  0.817767  0.278236  0.096226  1
  Er  Er8  1  0.314694  0.620435  0.305741  1
  Tm  Tm9  1  0.685114  0.378930  0.693816  1
  Tm  Tm10  1  0.314960  0.008936  0.693977  1
  Tm  Tm11  1  0.685231  0.991398  0.306166  1
  In  In12  1  0.500070  0.500013  0.999943  1
  Co  Co13  1  0.375235  0.000267  0.375217  1
  Co  Co14  1  0.625050  0.000267  0.625032  1
  Co  Co15  1  0.111889  0.611937  0.500048  1
  Co  Co16  1  0.888011  0.388028  0.500017  1
  Os  Os17  1  0.000012  0.000048  0.000037  1
