# generated using pymatgen
data_LaTb3Co12(CuB3)2
_symmetry_space_group_name_H-M   'P 1'
_cell_length_a   5.08783800
_cell_length_b   5.08763785
_cell_length_c   12.78904700
_cell_angle_alpha   89.99994787
_cell_angle_beta   90.00009300
_cell_angle_gamma   120.00127536
_symmetry_Int_Tables_number   1
_chemical_formula_structural   LaTb3Co12(CuB3)2
_chemical_formula_sum   'La1 Tb3 Co12 Cu2 B6'
_cell_volume   286.69010130
_cell_formula_units_Z   1
loop_
 _symmetry_equiv_pos_site_id
 _symmetry_equiv_pos_as_xyz
  1  'x, y, z'
loop_
 _atom_site_type_symbol
 _atom_site_label
 _atom_site_symmetry_multiplicity
 _atom_site_fract_x
 _atom_site_fract_y
 _atom_site_fract_z
 _atom_site_occupancy
  La  La0  1  0.999976  0.000000  0.999954  1
  Tb  Tb1  1  0.999997  0.000000  0.499992  1
  Tb  Tb2  1  0.999993  0.000000  0.263010  1
  Tb  Tb3  1  0.000000  0.000000  0.737020  1
  Co  Co4  1  0.499991  0.000000  0.163504  1
  Co  Co5  1  0.499989  0.500000  0.163510  1
  Co  Co6  1  0.999988  0.500000  0.163510  1
  Co  Co7  1  0.499997  0.000000  0.836472  1
  Co  Co8  1  0.499997  0.500000  0.836479  1
  Co  Co9  1  0.999996  0.500000  0.836479  1
  Co  Co10  1  0.499995  0.000000  0.387192  1
  Co  Co11  1  0.499995  0.500000  0.387142  1
  Co  Co12  1  0.999994  0.500000  0.387142  1
  Co  Co13  1  0.499998  0.000000  0.612814  1
  Co  Co14  1  0.499998  0.500001  0.612852  1
  Co  Co15  1  0.999997  0.499999  0.612852  1
  Cu  Cu16  1  0.333485  0.667039  0.000027  1
  Cu  Cu17  1  0.666446  0.332961  0.000027  1
  B  B18  1  0.333263  0.666535  0.499988  1
  B  B19  1  0.666728  0.333465  0.499988  1
  B  B20  1  0.333421  0.666860  0.271378  1
  B  B21  1  0.666562  0.333140  0.271378  1
  B  B22  1  0.666640  0.333285  0.728642  1
  B  B23  1  0.333354  0.666715  0.728642  1
