# generated using pymatgen
data_Cd2CuGeAs(PN2)6
_symmetry_space_group_name_H-M   'P 1'
_cell_length_a   7.19919224
_cell_length_b   7.22131853
_cell_length_c   7.22131900
_cell_angle_alpha   109.53320310
_cell_angle_beta   109.40915649
_cell_angle_gamma   109.40917419
_symmetry_Int_Tables_number   1
_chemical_formula_structural   Cd2CuGeAs(PN2)6
_chemical_formula_sum   'Cd2 Cu1 Ge1 As1 P6 N12'
_cell_volume   289.21908630
_cell_formula_units_Z   1
loop_
 _symmetry_equiv_pos_site_id
 _symmetry_equiv_pos_as_xyz
  1  'x, y, z'
loop_
 _atom_site_type_symbol
 _atom_site_label
 _atom_site_symmetry_multiplicity
 _atom_site_fract_x
 _atom_site_fract_y
 _atom_site_fract_z
 _atom_site_occupancy
  Cd  Cd0  1  0.003256  0.705179  0.009548  1
  Cd  Cd1  1  0.298077  0.294821  0.304369  1
  Cu  Cu2  1  0.007730  0.000000  0.636730  1
  Ge  Ge3  1  0.645481  0.000000  0.007641  1
  As  As4  1  0.943819  0.000000  0.931017  1
  P  P5  1  0.254697  0.747238  0.508901  1
  P  P6  1  0.754543  0.244529  0.505778  1
  P  P7  1  0.754010  0.501044  0.252879  1
  P  P8  1  0.252965  0.498956  0.751835  1
  P  P9  1  0.510013  0.755471  0.261249  1
  P  P10  1  0.507459  0.252762  0.761663  1
  N  N11  1  0.701675  0.262381  0.267767  1
  N  N12  1  0.291995  0.730411  0.295140  1
  N  N13  1  0.305118  0.570114  0.576831  1
  N  N14  1  0.560168  0.557211  0.275966  1
  N  N15  1  0.439294  0.737619  0.005386  1
  N  N16  1  0.003721  0.716551  0.448292  1
  N  N17  1  0.561583  0.269589  0.564730  1
  N  N18  1  0.737419  0.000000  0.430462  1
  N  N19  1  0.441843  0.000000  0.746602  1
  N  N20  1  0.735005  0.429886  0.006717  1
  N  N21  1  0.287170  0.283449  0.731741  1
  N  N22  1  0.002958  0.442789  0.718755  1
