# generated using pymatgen
data_Y5Lu3Re3B24Rh
_symmetry_space_group_name_H-M   'P 1'
_cell_length_a   3.65780500
_cell_length_b   9.12882479
_cell_length_c   11.52150819
_cell_angle_alpha   90.16794294
_cell_angle_beta   90.00000000
_cell_angle_gamma   90.00000000
_symmetry_Int_Tables_number   1
_chemical_formula_structural   Y5Lu3Re3B24Rh
_chemical_formula_sum   'Y5 Lu3 Re3 B24 Rh1'
_cell_volume   384.71833819
_cell_formula_units_Z   1
loop_
 _symmetry_equiv_pos_site_id
 _symmetry_equiv_pos_as_xyz
  1  'x, y, z'
loop_
 _atom_site_type_symbol
 _atom_site_label
 _atom_site_symmetry_multiplicity
 _atom_site_fract_x
 _atom_site_fract_y
 _atom_site_fract_z
 _atom_site_occupancy
  Y  Y0  1  0.000000  0.318511  0.416079  1
  Y  Y1  1  0.000000  0.678228  0.591346  1
  Y  Y2  1  0.000000  0.826380  0.081115  1
  Y  Y3  1  0.000000  0.178443  0.912787  1
  Y  Y4  1  0.000000  0.943346  0.370810  1
  Lu  Lu5  1  0.000000  0.056222  0.630030  1
  Lu  Lu6  1  0.000000  0.441409  0.127986  1
  Lu  Lu7  1  0.000000  0.556623  0.871516  1
  Re  Re8  1  0.000000  0.361955  0.679130  1
  Re  Re9  1  0.000000  0.140459  0.179803  1
  Re  Re10  1  0.000000  0.860784  0.820259  1
  B  B11  1  0.500000  0.553470  0.433434  1
  B  B12  1  0.500000  0.446002  0.567202  1
  B  B13  1  0.500000  0.054601  0.066409  1
  B  B14  1  0.500000  0.946731  0.932092  1
  B  B15  1  0.500000  0.748242  0.419727  1
  B  B16  1  0.500000  0.249178  0.582010  1
  B  B17  1  0.500000  0.251535  0.081313  1
  B  B18  1  0.500000  0.749935  0.918428  1
  B  B19  1  0.500000  0.790116  0.264281  1
  B  B20  1  0.500000  0.207842  0.734572  1
  B  B21  1  0.500000  0.293616  0.234811  1
  B  B22  1  0.500000  0.707332  0.765984  1
  B  B23  1  0.500000  0.630217  0.182796  1
  B  B24  1  0.500000  0.370642  0.815079  1
  B  B25  1  0.500000  0.131557  0.314893  1
  B  B26  1  0.500000  0.869347  0.685115  1
  B  B27  1  0.500000  0.983551  0.211494  1
  B  B28  1  0.500000  0.017709  0.786390  1
  B  B29  1  0.500000  0.482233  0.286604  1
  B  B30  1  0.500000  0.518570  0.713391  1
  B  B31  1  0.500000  0.600704  0.028146  1
  B  B32  1  0.500000  0.400808  0.972746  1
  B  B33  1  0.500000  0.100963  0.473236  1
  B  B34  1  0.500000  0.896827  0.529089  1
  Rh  Rh35  1  0.000000  0.635912  0.319895  1
