# generated using pymatgen
data_YLu15(In3Tc)2
_symmetry_space_group_name_H-M   'P 1'
_cell_length_a   10.22365600
_cell_length_b   10.22365666
_cell_length_c   6.91184900
_cell_angle_alpha   90.00000000
_cell_angle_beta   90.00000000
_cell_angle_gamma   120.00000434
_symmetry_Int_Tables_number   1
_chemical_formula_structural   YLu15(In3Tc)2
_chemical_formula_sum   'Y1 Lu15 In6 Tc2'
_cell_volume   625.65848511
_cell_formula_units_Z   1
loop_
 _symmetry_equiv_pos_site_id
 _symmetry_equiv_pos_as_xyz
  1  'x, y, z'
loop_
 _atom_site_type_symbol
 _atom_site_label
 _atom_site_symmetry_multiplicity
 _atom_site_fract_x
 _atom_site_fract_y
 _atom_site_fract_z
 _atom_site_occupancy
  Y  Y0  1  0.000000  0.000000  0.998579  1
  Lu  Lu1  1  0.471155  0.528845  0.478217  1
  Lu  Lu2  1  0.057689  0.528845  0.478217  1
  Lu  Lu3  1  0.471155  0.942311  0.478217  1
  Lu  Lu4  1  0.529519  0.470481  0.978882  1
  Lu  Lu5  1  0.940962  0.470481  0.978882  1
  Lu  Lu6  1  0.529519  0.059038  0.978882  1
  Lu  Lu7  1  0.821779  0.178221  0.275268  1
  Lu  Lu8  1  0.356442  0.178221  0.275268  1
  Lu  Lu9  1  0.821779  0.643558  0.275268  1
  Lu  Lu10  1  0.178659  0.821341  0.772813  1
  Lu  Lu11  1  0.642682  0.821341  0.772813  1
  Lu  Lu12  1  0.178659  0.357318  0.772813  1
  Lu  Lu13  1  0.333333  0.666667  0.105396  1
  Lu  Lu14  1  0.666667  0.333333  0.603878  1
  Lu  Lu15  1  0.000000  0.000000  0.500387  1
  In  In16  1  0.164162  0.835838  0.238923  1
  In  In17  1  0.671676  0.835838  0.238923  1
  In  In18  1  0.164162  0.328324  0.238923  1
  In  In19  1  0.836120  0.163880  0.735302  1
  In  In20  1  0.327761  0.163880  0.735302  1
  In  In21  1  0.836120  0.672239  0.735302  1
  Tc  Tc22  1  0.333333  0.666667  0.698506  1
  Tc  Tc23  1  0.666667  0.333333  0.199586  1
