# generated using pymatgen
data_In(ReO4)3
_symmetry_space_group_name_H-M   'P 1'
_cell_length_a   10.66922900
_cell_length_b   10.66922894
_cell_length_c   5.73734200
_cell_angle_alpha   90.00000000
_cell_angle_beta   90.00000000
_cell_angle_gamma   119.99999790
_symmetry_Int_Tables_number   1
_chemical_formula_structural   In(ReO4)3
_chemical_formula_sum   'In2 Re6 O24'
_cell_volume   565.59746050
_cell_formula_units_Z   2
loop_
 _symmetry_equiv_pos_site_id
 _symmetry_equiv_pos_as_xyz
  1  'x, y, z'
loop_
 _atom_site_type_symbol
 _atom_site_label
 _atom_site_symmetry_multiplicity
 _atom_site_fract_x
 _atom_site_fract_y
 _atom_site_fract_z
 _atom_site_occupancy
  In  In0  1  0.666667  0.333333  0.750000  1
  In  In1  1  0.333333  0.666667  0.250000  1
  Re  Re2  1  0.108103  0.404303  0.750000  1
  Re  Re3  1  0.404303  0.296201  0.250000  1
  Re  Re4  1  0.595697  0.703799  0.750000  1
  Re  Re5  1  0.891897  0.595697  0.250000  1
  Re  Re6  1  0.296201  0.891897  0.750000  1
  Re  Re7  1  0.703799  0.108103  0.250000  1
  O  O8  1  0.483664  0.651770  0.497646  1
  O  O9  1  0.348230  0.831894  0.497646  1
  O  O10  1  0.825212  0.713325  0.250000  1
  O  O11  1  0.111887  0.825212  0.750000  1
  O  O12  1  0.286675  0.111887  0.250000  1
  O  O13  1  0.174788  0.286675  0.750000  1
  O  O14  1  0.516336  0.348230  0.997646  1
  O  O15  1  0.888113  0.174788  0.250000  1
  O  O16  1  0.079316  0.696526  0.250000  1
  O  O17  1  0.168106  0.516336  0.002354  1
  O  O18  1  0.168106  0.516336  0.497646  1
  O  O19  1  0.920684  0.303474  0.750000  1
  O  O20  1  0.303474  0.382790  0.250000  1
  O  O21  1  0.696526  0.617210  0.750000  1
  O  O22  1  0.831894  0.483664  0.502354  1
  O  O23  1  0.382790  0.079316  0.750000  1
  O  O24  1  0.651770  0.168106  0.997646  1
  O  O25  1  0.483664  0.651770  0.002354  1
  O  O26  1  0.348230  0.831894  0.002354  1
  O  O27  1  0.651770  0.168106  0.502354  1
  O  O28  1  0.516336  0.348230  0.502354  1
  O  O29  1  0.831894  0.483664  0.997646  1
  O  O30  1  0.713325  0.888113  0.750000  1
  O  O31  1  0.617210  0.920684  0.250000  1
