# generated using pymatgen
data_Tm11ThCo4
_symmetry_space_group_name_H-M   'P 1'
_cell_length_a   6.83682875
_cell_length_b   9.27673100
_cell_length_c   6.13505320
_cell_angle_alpha   90.00000000
_cell_angle_beta   89.07035800
_cell_angle_gamma   90.00000000
_symmetry_Int_Tables_number   1
_chemical_formula_structural   Tm11ThCo4
_chemical_formula_sum   'Tm11 Th1 Co4'
_cell_volume   389.05484624
_cell_formula_units_Z   1
loop_
 _symmetry_equiv_pos_site_id
 _symmetry_equiv_pos_as_xyz
  1  'x, y, z'
loop_
 _atom_site_type_symbol
 _atom_site_label
 _atom_site_symmetry_multiplicity
 _atom_site_fract_x
 _atom_site_fract_y
 _atom_site_fract_z
 _atom_site_occupancy
  Tm  Tm0  1  0.326936  0.568976  0.176625  1
  Tm  Tm1  1  0.326936  0.931025  0.176625  1
  Tm  Tm2  1  0.822620  0.568456  0.323760  1
  Tm  Tm3  1  0.822620  0.931545  0.323760  1
  Tm  Tm4  1  0.540736  0.250001  0.362810  1
  Tm  Tm5  1  0.458192  0.750000  0.638507  1
  Tm  Tm6  1  0.175938  0.064916  0.671799  1
  Tm  Tm7  1  0.175938  0.435084  0.671799  1
  Tm  Tm8  1  0.675410  0.066453  0.825623  1
  Tm  Tm9  1  0.675410  0.433547  0.825623  1
  Tm  Tm10  1  0.957981  0.750000  0.859805  1
  Th  Th11  1  0.054044  0.250001  0.151102  1
  Co  Co12  1  0.613403  0.750000  0.043971  1
  Co  Co13  1  0.112379  0.750000  0.454262  1
  Co  Co14  1  0.887615  0.250001  0.537297  1
  Co  Co15  1  0.373841  0.250001  0.956630  1
