# generated using pymatgen
data_Nb6CuSi6Tc5
_symmetry_space_group_name_H-M   'P 1'
_cell_length_a   7.52672927
_cell_length_b   7.55118833
_cell_length_c   7.55118693
_cell_angle_alpha   127.78477105
_cell_angle_beta   123.84812284
_cell_angle_gamma   80.30332959
_symmetry_Int_Tables_number   1
_chemical_formula_structural   Nb6CuSi6Tc5
_chemical_formula_sum   'Nb6 Cu1 Si6 Tc5'
_cell_volume   271.75856288
_cell_formula_units_Z   1
loop_
 _symmetry_equiv_pos_site_id
 _symmetry_equiv_pos_as_xyz
  1  'x, y, z'
loop_
 _atom_site_type_symbol
 _atom_site_label
 _atom_site_symmetry_multiplicity
 _atom_site_fract_x
 _atom_site_fract_y
 _atom_site_fract_z
 _atom_site_occupancy
  Nb  Nb0  1  0.550694  0.095857  0.040734  1
  Nb  Nb1  1  0.449306  0.490040  0.545163  1
  Nb  Nb2  1  0.960400  0.499020  0.029178  1
  Nb  Nb3  1  0.039600  0.068778  0.538620  1
  Nb  Nb4  1  0.751398  0.913545  0.658764  1
  Nb  Nb5  1  0.248602  0.907364  0.162147  1
  Cu  Cu6  1  0.000000  0.249340  0.249340  1
  Si  Si7  1  0.335109  0.826085  0.495926  1
  Si  Si8  1  0.664891  0.160817  0.490975  1
  Si  Si9  1  0.827532  0.828013  0.990244  1
  Si  Si10  1  0.172468  0.162711  0.000481  1
  Si  Si11  1  0.776798  0.525503  0.252411  1
  Si  Si12  1  0.223202  0.475613  0.748707  1
  Tc  Tc13  1  0.160800  0.749381  0.656842  1
  Tc  Tc14  1  0.839200  0.496041  0.588581  1
  Tc  Tc15  1  0.591786  0.749412  0.090141  1
  Tc  Tc16  1  0.408214  0.498354  0.157626  1
  Tc  Tc17  1  0.500000  0.246121  0.746121  1
