# generated using pymatgen
data_Tb6ScFe(Co4P3)4
_symmetry_space_group_name_H-M   'P 1'
_cell_length_a   3.71344100
_cell_length_b   10.60246400
_cell_length_c   12.30019900
_cell_angle_alpha   90.00000000
_cell_angle_beta   90.00000000
_cell_angle_gamma   90.00000000
_symmetry_Int_Tables_number   1
_chemical_formula_structural   Tb6ScFe(Co4P3)4
_chemical_formula_sum   'Tb6 Sc1 Fe1 Co16 P12'
_cell_volume   484.27881653
_cell_formula_units_Z   1
loop_
 _symmetry_equiv_pos_site_id
 _symmetry_equiv_pos_as_xyz
  1  'x, y, z'
loop_
 _atom_site_type_symbol
 _atom_site_label
 _atom_site_symmetry_multiplicity
 _atom_site_fract_x
 _atom_site_fract_y
 _atom_site_fract_z
 _atom_site_occupancy
  Tb  Tb0  1  0.000000  0.500000  0.527684  1
  Tb  Tb1  1  0.500000  0.000000  0.477723  1
  Tb  Tb2  1  0.500000  0.821044  0.206950  1
  Tb  Tb3  1  0.500000  0.178956  0.206950  1
  Tb  Tb4  1  0.000000  0.682889  0.795592  1
  Tb  Tb5  1  0.000000  0.317111  0.795592  1
  Sc  Sc6  1  0.500000  0.500000  0.152353  1
  Fe  Fe7  1  0.000000  0.000000  0.835949  1
  Co  Co8  1  0.500000  0.500000  0.704042  1
  Co  Co9  1  0.000000  0.000000  0.295957  1
  Co  Co10  1  0.000000  0.500000  0.984409  1
  Co  Co11  1  0.500000  0.000000  0.012454  1
  Co  Co12  1  0.500000  0.325996  0.989486  1
  Co  Co13  1  0.500000  0.674004  0.989486  1
  Co  Co14  1  0.000000  0.161372  0.001777  1
  Co  Co15  1  0.000000  0.838628  0.001777  1
  Co  Co16  1  0.500000  0.294232  0.434884  1
  Co  Co17  1  0.500000  0.705768  0.434884  1
  Co  Co18  1  0.000000  0.201452  0.571717  1
  Co  Co19  1  0.000000  0.798548  0.571717  1
  Co  Co20  1  0.500000  0.881409  0.708273  1
  Co  Co21  1  0.500000  0.118591  0.708273  1
  Co  Co22  1  0.000000  0.622573  0.296704  1
  Co  Co23  1  0.000000  0.377427  0.296704  1
  P  P24  1  0.500000  0.500000  0.883803  1
  P  P25  1  0.000000  0.000000  0.115661  1
  P  P26  1  0.500000  0.500000  0.357350  1
  P  P27  1  0.000000  0.000000  0.655200  1
  P  P28  1  0.500000  0.309211  0.617697  1
  P  P29  1  0.500000  0.690789  0.617697  1
  P  P30  1  0.000000  0.189143  0.386410  1
  P  P31  1  0.000000  0.810857  0.386410  1
  P  P32  1  0.500000  0.852791  0.888746  1
  P  P33  1  0.500000  0.147209  0.888746  1
  P  P34  1  0.000000  0.663120  0.100473  1
  P  P35  1  0.000000  0.336880  0.100473  1
