# generated using pymatgen
data_CeErAs6PRh12
_symmetry_space_group_name_H-M   'P 1'
_cell_length_a   9.96016069
_cell_length_b   9.96016061
_cell_length_c   3.93778500
_cell_angle_alpha   90.00000000
_cell_angle_beta   90.00000000
_cell_angle_gamma   120.00000174
_symmetry_Int_Tables_number   1
_chemical_formula_structural   CeErAs6PRh12
_chemical_formula_sum   'Ce1 Er1 As6 P1 Rh12'
_cell_volume   338.31037086
_cell_formula_units_Z   1
loop_
 _symmetry_equiv_pos_site_id
 _symmetry_equiv_pos_as_xyz
  1  'x, y, z'
loop_
 _atom_site_type_symbol
 _atom_site_label
 _atom_site_symmetry_multiplicity
 _atom_site_fract_x
 _atom_site_fract_y
 _atom_site_fract_z
 _atom_site_occupancy
  Ce  Ce0  1  0.666667  0.333333  0.748685  1
  Er  Er1  1  0.333333  0.666667  0.256911  1
  As  As2  1  0.287940  0.882471  0.758040  1
  As  As3  1  0.117529  0.405469  0.758040  1
  As  As4  1  0.594531  0.712060  0.758040  1
  As  As5  1  0.714074  0.114287  0.251306  1
  As  As6  1  0.885713  0.599787  0.251306  1
  As  As7  1  0.400213  0.285926  0.251306  1
  P  P8  1  0.000000  0.000000  0.500818  1
  Rh  Rh9  1  0.068649  0.621067  0.757472  1
  Rh  Rh10  1  0.378933  0.447582  0.757472  1
  Rh  Rh11  1  0.552418  0.931351  0.757472  1
  Rh  Rh12  1  0.932654  0.380324  0.254571  1
  Rh  Rh13  1  0.619676  0.552330  0.254571  1
  Rh  Rh14  1  0.447670  0.067346  0.254571  1
  Rh  Rh15  1  0.252018  0.108780  0.752180  1
  Rh  Rh16  1  0.891220  0.143239  0.752180  1
  Rh  Rh17  1  0.856761  0.747982  0.752180  1
  Rh  Rh18  1  0.747656  0.888433  0.258835  1
  Rh  Rh19  1  0.111567  0.859224  0.258835  1
  Rh  Rh20  1  0.140776  0.252344  0.258835  1
