# generated using pymatgen
data_Tl2P2WO9
_symmetry_space_group_name_H-M   'P 1'
_cell_length_a   8.37288606
_cell_length_b   8.37288652
_cell_length_c   16.03747500
_cell_angle_alpha   82.42763962
_cell_angle_beta   82.42763920
_cell_angle_gamma   60.93938441
_symmetry_Int_Tables_number   1
_chemical_formula_structural   Tl2P2WO9
_chemical_formula_sum   'Tl8 P8 W4 O36'
_cell_volume   971.21250358
_cell_formula_units_Z   4
loop_
 _symmetry_equiv_pos_site_id
 _symmetry_equiv_pos_as_xyz
  1  'x, y, z'
loop_
 _atom_site_type_symbol
 _atom_site_label
 _atom_site_symmetry_multiplicity
 _atom_site_fract_x
 _atom_site_fract_y
 _atom_site_fract_z
 _atom_site_occupancy
  Tl  Tl0  1  0.513091  0.775415  0.269447  1
  Tl  Tl1  1  0.486909  0.224585  0.730553  1
  Tl  Tl2  1  0.224585  0.486909  0.230553  1
  Tl  Tl3  1  0.775415  0.513091  0.769447  1
  Tl  Tl4  1  0.578309  0.731788  0.532641  1
  Tl  Tl5  1  0.421691  0.268212  0.467359  1
  Tl  Tl6  1  0.268212  0.421691  0.967359  1
  Tl  Tl7  1  0.731788  0.578309  0.032641  1
  P  P8  1  0.230569  0.849475  0.074536  1
  P  P9  1  0.769431  0.150525  0.925464  1
  P  P10  1  0.150525  0.769431  0.425464  1
  P  P11  1  0.849475  0.230569  0.574536  1
  P  P12  1  0.802288  0.952937  0.342645  1
  P  P13  1  0.197712  0.047063  0.657355  1
  P  P14  1  0.047063  0.197712  0.157355  1
  P  P15  1  0.952937  0.802288  0.842645  1
  W  W16  1  0.761131  0.017052  0.136669  1
  W  W17  1  0.238869  0.982948  0.863331  1
  W  W18  1  0.982948  0.238869  0.363331  1
  W  W19  1  0.017052  0.761131  0.636669  1
  O  O20  1  0.377159  0.688132  0.121728  1
  O  O21  1  0.622841  0.311868  0.878272  1
  O  O22  1  0.311868  0.622841  0.378272  1
  O  O23  1  0.688132  0.377159  0.621728  1
  O  O24  1  0.210796  0.036763  0.104222  1
  O  O25  1  0.789204  0.963237  0.895778  1
  O  O26  1  0.963237  0.789204  0.395778  1
  O  O27  1  0.036763  0.210796  0.604222  1
  O  O28  1  0.626871  0.949817  0.375031  1
  O  O29  1  0.373129  0.050183  0.624969  1
  O  O30  1  0.050183  0.373129  0.124969  1
  O  O31  1  0.949817  0.626871  0.875031  1
  O  O32  1  0.544964  0.169480  0.183832  1
  O  O33  1  0.455036  0.830520  0.816168  1
  O  O34  1  0.830520  0.455036  0.316168  1
  O  O35  1  0.169480  0.544964  0.683832  1
  O  O36  1  0.726149  0.830311  0.118936  1
  O  O37  1  0.273851  0.169689  0.881064  1
  O  O38  1  0.169689  0.273851  0.381064  1
  O  O39  1  0.830311  0.726149  0.618936  1
  O  O40  1  0.705128  0.144778  0.020946  1
  O  O41  1  0.294872  0.855222  0.979054  1
  O  O42  1  0.855222  0.294872  0.479054  1
  O  O43  1  0.144778  0.705128  0.520946  1
  O  O44  1  0.800429  0.133285  0.353926  1
  O  O45  1  0.199571  0.866715  0.646074  1
  O  O46  1  0.866715  0.199571  0.146074  1
  O  O47  1  0.133285  0.800429  0.853926  1
  O  O48  1  0.859891  0.041179  0.586256  1
  O  O49  1  0.140109  0.958821  0.413744  1
  O  O50  1  0.958821  0.140109  0.913744  1
  O  O51  1  0.041179  0.859891  0.086256  1
  O  O52  1  0.868608  0.899282  0.249452  1
  O  O53  1  0.131392  0.100718  0.750548  1
  O  O54  1  0.100718  0.131392  0.250548  1
  O  O55  1  0.899282  0.868608  0.749452  1
