# generated using pymatgen
data_Ho3V(P3Ir4)2
_symmetry_space_group_name_H-M   'P 1'
_cell_length_a   3.95750300
_cell_length_b   11.17897100
_cell_length_c   12.79591000
_cell_angle_alpha   90.00000000
_cell_angle_beta   90.00000000
_cell_angle_gamma   90.00000000
_symmetry_Int_Tables_number   1
_chemical_formula_structural   Ho3V(P3Ir4)2
_chemical_formula_sum   'Ho6 V2 P12 Ir16'
_cell_volume   566.10143933
_cell_formula_units_Z   2
loop_
 _symmetry_equiv_pos_site_id
 _symmetry_equiv_pos_as_xyz
  1  'x, y, z'
loop_
 _atom_site_type_symbol
 _atom_site_label
 _atom_site_symmetry_multiplicity
 _atom_site_fract_x
 _atom_site_fract_y
 _atom_site_fract_z
 _atom_site_occupancy
  Ho  Ho0  1  0.000000  0.500000  0.519368  1
  Ho  Ho1  1  0.500000  0.000000  0.480632  1
  Ho  Ho2  1  0.500000  0.816866  0.202720  1
  Ho  Ho3  1  0.500000  0.183134  0.202720  1
  Ho  Ho4  1  0.000000  0.683134  0.797280  1
  Ho  Ho5  1  0.000000  0.316866  0.797280  1
  V  V6  1  0.500000  0.500000  0.157369  1
  V  V7  1  0.000000  0.000000  0.842631  1
  P  P8  1  0.500000  0.313792  0.617819  1
  P  P9  1  0.500000  0.686208  0.617819  1
  P  P10  1  0.000000  0.186208  0.382181  1
  P  P11  1  0.000000  0.813792  0.382181  1
  P  P12  1  0.500000  0.500000  0.875385  1
  P  P13  1  0.000000  0.000000  0.124615  1
  P  P14  1  0.500000  0.846546  0.887654  1
  P  P15  1  0.500000  0.153454  0.887654  1
  P  P16  1  0.000000  0.653454  0.112346  1
  P  P17  1  0.000000  0.346546  0.112346  1
  P  P18  1  0.500000  0.500000  0.344157  1
  P  P19  1  0.000000  0.000000  0.655843  1
  Ir  Ir20  1  0.000000  0.500000  0.991675  1
  Ir  Ir21  1  0.500000  0.000000  0.008325  1
  Ir  Ir22  1  0.500000  0.293568  0.430489  1
  Ir  Ir23  1  0.500000  0.706432  0.430489  1
  Ir  Ir24  1  0.000000  0.206432  0.569511  1
  Ir  Ir25  1  0.000000  0.793568  0.569511  1
  Ir  Ir26  1  0.500000  0.873527  0.711237  1
  Ir  Ir27  1  0.500000  0.126473  0.711237  1
  Ir  Ir28  1  0.000000  0.626473  0.288763  1
  Ir  Ir29  1  0.000000  0.373527  0.288763  1
  Ir  Ir30  1  0.500000  0.331420  0.982124  1
  Ir  Ir31  1  0.500000  0.668580  0.982124  1
  Ir  Ir32  1  0.000000  0.168580  0.017876  1
  Ir  Ir33  1  0.000000  0.831420  0.017876  1
  Ir  Ir34  1  0.500000  0.500000  0.696752  1
  Ir  Ir35  1  0.000000  0.000000  0.303248  1
