# generated using pymatgen
data_Tb12Si12RuAu3
_symmetry_space_group_name_H-M   'P 1'
_cell_length_a   4.26304700
_cell_length_b   10.93000402
_cell_length_c   12.49110689
_cell_angle_alpha   89.95154511
_cell_angle_beta   90.00000000
_cell_angle_gamma   90.00000000
_symmetry_Int_Tables_number   1
_chemical_formula_structural   Tb12Si12RuAu3
_chemical_formula_sum   'Tb12 Si12 Ru1 Au3'
_cell_volume   582.02442692
_cell_formula_units_Z   1
loop_
 _symmetry_equiv_pos_site_id
 _symmetry_equiv_pos_as_xyz
  1  'x, y, z'
loop_
 _atom_site_type_symbol
 _atom_site_label
 _atom_site_symmetry_multiplicity
 _atom_site_fract_x
 _atom_site_fract_y
 _atom_site_fract_z
 _atom_site_occupancy
  Tb  Tb0  1  0.250000  0.877622  0.018746  1
  Tb  Tb1  1  0.250000  0.624508  0.521355  1
  Tb  Tb2  1  0.750000  0.119859  0.978613  1
  Tb  Tb3  1  0.750000  0.375082  0.481658  1
  Tb  Tb4  1  0.250000  0.922252  0.603979  1
  Tb  Tb5  1  0.250000  0.579616  0.100845  1
  Tb  Tb6  1  0.750000  0.077297  0.398032  1
  Tb  Tb7  1  0.750000  0.421056  0.894856  1
  Tb  Tb8  1  0.250000  0.666604  0.802610  1
  Tb  Tb9  1  0.250000  0.835557  0.302592  1
  Tb  Tb10  1  0.750000  0.335497  0.196924  1
  Tb  Tb11  1  0.750000  0.156994  0.700725  1
  Si  Si12  1  0.250000  0.008417  0.822659  1
  Si  Si13  1  0.250000  0.474917  0.326088  1
  Si  Si14  1  0.750000  0.975023  0.177041  1
  Si  Si15  1  0.750000  0.528238  0.672351  1
  Si  Si16  1  0.250000  0.240858  0.847467  1
  Si  Si17  1  0.250000  0.252838  0.347727  1
  Si  Si18  1  0.750000  0.754938  0.151243  1
  Si  Si19  1  0.750000  0.754349  0.661619  1
  Si  Si20  1  0.250000  0.186654  0.536986  1
  Si  Si21  1  0.250000  0.315378  0.033738  1
  Si  Si22  1  0.750000  0.813144  0.466022  1
  Si  Si23  1  0.750000  0.703848  0.955580  1
  Ru  Ru24  1  0.750000  0.890671  0.819338  1
  Au  Au25  1  0.250000  0.390103  0.683074  1
  Au  Au26  1  0.250000  0.108882  0.182346  1
  Au  Au27  1  0.750000  0.609797  0.315788  1
