# generated using pymatgen
data_Cs3AsRhBr9
_symmetry_space_group_name_H-M   'P 1'
_cell_length_a   7.77226700
_cell_length_b   7.77226754
_cell_length_c   19.85878700
_cell_angle_alpha   90.00000000
_cell_angle_beta   90.00000000
_cell_angle_gamma   120.00000196
_symmetry_Int_Tables_number   1
_chemical_formula_structural   Cs3AsRhBr9
_chemical_formula_sum   'Cs6 As2 Rh2 Br18'
_cell_volume   1038.91207460
_cell_formula_units_Z   2
loop_
 _symmetry_equiv_pos_site_id
 _symmetry_equiv_pos_as_xyz
  1  'x, y, z'
loop_
 _atom_site_type_symbol
 _atom_site_label
 _atom_site_symmetry_multiplicity
 _atom_site_fract_x
 _atom_site_fract_y
 _atom_site_fract_z
 _atom_site_occupancy
  Cs  Cs0  1  0.666667  0.333333  0.919670  1
  Cs  Cs1  1  0.333333  0.666667  0.419670  1
  Cs  Cs2  1  0.666667  0.333333  0.564109  1
  Cs  Cs3  1  0.333333  0.666667  0.064109  1
  Cs  Cs4  1  0.000000  0.000000  0.758927  1
  Cs  Cs5  1  0.000000  0.000000  0.258927  1
  As  As6  1  0.333333  0.666667  0.656246  1
  As  As7  1  0.666667  0.333333  0.156246  1
  Rh  Rh8  1  0.666667  0.333333  0.335074  1
  Rh  Rh9  1  0.333333  0.666667  0.835074  1
  Br  Br10  1  0.818876  0.637752  0.407148  1
  Br  Br11  1  0.181124  0.362248  0.907148  1
  Br  Br12  1  0.181124  0.818876  0.907148  1
  Br  Br13  1  0.173870  0.347740  0.589298  1
  Br  Br14  1  0.637752  0.818876  0.907148  1
  Br  Br15  1  0.362248  0.181124  0.407148  1
  Br  Br16  1  0.026935  0.513467  0.758878  1
  Br  Br17  1  0.818876  0.181124  0.407148  1
  Br  Br18  1  0.513467  0.026935  0.258878  1
  Br  Br19  1  0.486533  0.513467  0.758878  1
  Br  Br20  1  0.513467  0.486533  0.258878  1
  Br  Br21  1  0.973065  0.486533  0.258878  1
  Br  Br22  1  0.347740  0.173870  0.089298  1
  Br  Br23  1  0.486533  0.973065  0.758878  1
  Br  Br24  1  0.826130  0.652260  0.089298  1
  Br  Br25  1  0.173870  0.826130  0.589298  1
  Br  Br26  1  0.652260  0.826130  0.589298  1
  Br  Br27  1  0.826130  0.173870  0.089298  1
