# generated using pymatgen
data_Zr4As4IrRu3
_symmetry_space_group_name_H-M   'P 1'
_cell_length_a   4.03339000
_cell_length_b   6.63662917
_cell_length_c   7.55592700
_cell_angle_alpha   89.84072990
_cell_angle_beta   90.00000000
_cell_angle_gamma   90.00000000
_symmetry_Int_Tables_number   1
_chemical_formula_structural   Zr4As4IrRu3
_chemical_formula_sum   'Zr4 As4 Ir1 Ru3'
_cell_volume   202.25713187
_cell_formula_units_Z   1
loop_
 _symmetry_equiv_pos_site_id
 _symmetry_equiv_pos_as_xyz
  1  'x, y, z'
loop_
 _atom_site_type_symbol
 _atom_site_label
 _atom_site_symmetry_multiplicity
 _atom_site_fract_x
 _atom_site_fract_y
 _atom_site_fract_z
 _atom_site_occupancy
  Zr  Zr0  1  0.750000  0.523580  0.316425  1
  Zr  Zr1  1  0.250000  0.976859  0.816542  1
  Zr  Zr2  1  0.750000  0.022356  0.182314  1
  Zr  Zr3  1  0.250000  0.480707  0.683228  1
  As  As4  1  0.250000  0.734253  0.120891  1
  As  As5  1  0.250000  0.229732  0.383791  1
  As  As6  1  0.750000  0.268498  0.873506  1
  As  As7  1  0.750000  0.771379  0.621344  1
  Ir  Ir8  1  0.250000  0.347453  0.061264  1
  Ru  Ru9  1  0.250000  0.849309  0.440874  1
  Ru  Ru10  1  0.750000  0.149369  0.558054  1
  Ru  Ru11  1  0.750000  0.646505  0.941765  1
