# generated using pymatgen
data_TbUZnSb4
_symmetry_space_group_name_H-M   'P 1'
_cell_length_a   4.35834000
_cell_length_b   4.31105800
_cell_length_c   9.90902000
_cell_angle_alpha   90.00000000
_cell_angle_beta   90.00000000
_cell_angle_gamma   90.00000000
_symmetry_Int_Tables_number   1
_chemical_formula_structural   TbUZnSb4
_chemical_formula_sum   'Tb1 U1 Zn1 Sb4'
_cell_volume   186.18113687
_cell_formula_units_Z   1
loop_
 _symmetry_equiv_pos_site_id
 _symmetry_equiv_pos_as_xyz
  1  'x, y, z'
loop_
 _atom_site_type_symbol
 _atom_site_label
 _atom_site_symmetry_multiplicity
 _atom_site_fract_x
 _atom_site_fract_y
 _atom_site_fract_z
 _atom_site_occupancy
  Tb  Tb0  1  0.000000  0.500000  0.240532  1
  U  U1  1  0.500000  0.000000  0.749668  1
  Zn  Zn2  1  0.500000  0.500000  0.503422  1
  Sb  Sb3  1  0.500000  0.000000  0.344392  1
  Sb  Sb4  1  0.000000  0.500000  0.671475  1
  Sb  Sb5  1  0.500000  0.500000  0.996125  1
  Sb  Sb6  1  0.000000  0.000000  0.994386  1
