# generated using pymatgen
data_Ho16Cd3Co2HgRu2
_symmetry_space_group_name_H-M   'P 1'
_cell_length_a   9.58591745
_cell_length_b   9.51920416
_cell_length_c   9.51172172
_cell_angle_alpha   59.50156857
_cell_angle_beta   59.74162973
_cell_angle_gamma   59.76790188
_symmetry_Int_Tables_number   1
_chemical_formula_structural   Ho16Cd3Co2HgRu2
_chemical_formula_sum   'Ho16 Cd3 Co2 Hg1 Ru2'
_cell_volume   609.12730404
_cell_formula_units_Z   1
loop_
 _symmetry_equiv_pos_site_id
 _symmetry_equiv_pos_as_xyz
  1  'x, y, z'
loop_
 _atom_site_type_symbol
 _atom_site_label
 _atom_site_symmetry_multiplicity
 _atom_site_fract_x
 _atom_site_fract_y
 _atom_site_fract_z
 _atom_site_occupancy
  Ho  Ho0  1  0.937919  0.938199  0.559778  1
  Ho  Ho1  1  0.811257  0.188673  0.188813  1
  Ho  Ho2  1  0.936599  0.563403  0.563400  1
  Ho  Ho3  1  0.936546  0.559804  0.939573  1
  Ho  Ho4  1  0.815846  0.807476  0.187244  1
  Ho  Ho5  1  0.340322  0.348979  0.348837  1
  Ho  Ho6  1  0.559733  0.938971  0.941562  1
  Ho  Ho7  1  0.564104  0.938199  0.559778  1
  Ho  Ho8  1  0.188863  0.811012  0.811262  1
  Ho  Ho9  1  0.189197  0.186742  0.807861  1
  Ho  Ho10  1  0.343838  0.351718  0.960608  1
  Ho  Ho11  1  0.344287  0.959587  0.351839  1
  Ho  Ho12  1  0.816200  0.186742  0.807861  1
  Ho  Ho13  1  0.564078  0.559804  0.939573  1
  Ho  Ho14  1  0.189435  0.807476  0.187244  1
  Ho  Ho15  1  0.961863  0.348979  0.348837  1
  Cd  Cd16  1  0.259189  0.579601  0.580276  1
  Cd  Cd17  1  0.580935  0.579601  0.580276  1
  Cd  Cd18  1  0.580683  0.258559  0.580077  1
  Co  Co19  1  0.138827  0.579075  0.143272  1
  Co  Co20  1  0.138858  0.143122  0.579163  1
  Hg  Hg21  1  0.583630  0.582341  0.250400  1
  Ru  Ru22  1  0.579193  0.140972  0.141236  1
  Ru  Ru23  1  0.138598  0.140972  0.141236  1
