# generated using pymatgen
data_Mn7Nb8Si14Os
_symmetry_space_group_name_H-M   'P 1'
_cell_length_a   9.41928337
_cell_length_b   9.43015808
_cell_length_c   9.40623372
_cell_angle_alpha   94.13269301
_cell_angle_beta   94.07102774
_cell_angle_gamma   149.00598986
_symmetry_Int_Tables_number   1
_chemical_formula_structural   Mn7Nb8Si14Os
_chemical_formula_sum   'Mn7 Nb8 Si14 Os1'
_cell_volume   414.54088719
_cell_formula_units_Z   1
loop_
 _symmetry_equiv_pos_site_id
 _symmetry_equiv_pos_as_xyz
  1  'x, y, z'
loop_
 _atom_site_type_symbol
 _atom_site_label
 _atom_site_symmetry_multiplicity
 _atom_site_fract_x
 _atom_site_fract_y
 _atom_site_fract_z
 _atom_site_occupancy
  Mn  Mn0  1  0.102389  0.602389  0.204779  1
  Mn  Mn1  1  0.900193  0.098546  0.498381  1
  Mn  Mn2  1  0.598188  0.399836  0.498381  1
  Mn  Mn3  1  0.600214  0.100214  0.200429  1
  Mn  Mn4  1  0.899514  0.399514  0.799027  1
  Mn  Mn5  1  0.100523  0.899754  0.499616  1
  Mn  Mn6  1  0.399093  0.599862  0.499616  1
  Nb  Nb7  1  0.309977  0.499554  0.808896  1
  Nb  Nb8  1  0.691647  0.501887  0.192170  1
  Nb  Nb9  1  0.500523  0.690282  0.192170  1
  Nb  Nb10  1  0.498920  0.309342  0.808896  1
  Nb  Nb11  1  0.135381  0.135381  0.270760  1
  Nb  Nb12  1  0.864602  0.864602  0.729205  1
  Nb  Nb13  1  0.136552  0.867681  0.001019  1
  Nb  Nb14  1  0.864467  0.133339  0.001019  1
  Si  Si15  1  0.293471  0.293471  0.586942  1
  Si  Si16  1  0.706329  0.706329  0.412657  1
  Si  Si17  1  0.287093  0.696934  0.004896  1
  Si  Si18  1  0.717804  0.307963  0.004896  1
  Si  Si19  1  0.080721  0.484498  0.587545  1
  Si  Si20  1  0.901522  0.496681  0.407615  1
  Si  Si21  1  0.506093  0.910934  0.407615  1
  Si  Si22  1  0.506823  0.103047  0.587545  1
  Si  Si23  1  0.248873  0.248955  0.000177  1
  Si  Si24  1  0.751305  0.751221  0.000177  1
  Si  Si25  1  0.294451  0.002664  0.292290  1
  Si  Si26  1  0.716351  0.003513  0.706259  1
  Si  Si27  1  0.989908  0.702746  0.706259  1
  Si  Si28  1  0.997839  0.289626  0.292290  1
  Os  Os29  1  0.399237  0.899237  0.798474  1
