# generated using pymatgen
data_Ho3Er(TcB6)2
_symmetry_space_group_name_H-M   'P 1'
_cell_length_a   3.66964200
_cell_length_b   9.13324208
_cell_length_c   11.50951707
_cell_angle_alpha   90.00141668
_cell_angle_beta   90.00000000
_cell_angle_gamma   90.00000000
_symmetry_Int_Tables_number   1
_chemical_formula_structural   Ho3Er(TcB6)2
_chemical_formula_sum   'Ho6 Er2 Tc4 B24'
_cell_volume   385.74985201
_cell_formula_units_Z   2
loop_
 _symmetry_equiv_pos_site_id
 _symmetry_equiv_pos_as_xyz
  1  'x, y, z'
loop_
 _atom_site_type_symbol
 _atom_site_label
 _atom_site_symmetry_multiplicity
 _atom_site_fract_x
 _atom_site_fract_y
 _atom_site_fract_z
 _atom_site_occupancy
  Ho  Ho0  1  0.000000  0.323952  0.414105  1
  Ho  Ho1  1  0.000000  0.676048  0.585895  1
  Ho  Ho2  1  0.000000  0.823767  0.085839  1
  Ho  Ho3  1  0.000000  0.176233  0.914161  1
  Ho  Ho4  1  0.000000  0.942807  0.369341  1
  Ho  Ho5  1  0.000000  0.057193  0.630659  1
  Er  Er6  1  0.000000  0.442805  0.130628  1
  Er  Er7  1  0.000000  0.557195  0.869372  1
  Tc  Tc8  1  0.000000  0.638649  0.320052  1
  Tc  Tc9  1  0.000000  0.361351  0.679948  1
  Tc  Tc10  1  0.000000  0.139235  0.179365  1
  Tc  Tc11  1  0.000000  0.860765  0.820635  1
  B  B12  1  0.500000  0.553159  0.432889  1
  B  B13  1  0.500000  0.446841  0.567111  1
  B  B14  1  0.500000  0.053466  0.066931  1
  B  B15  1  0.500000  0.946534  0.933069  1
  B  B16  1  0.500000  0.748819  0.418732  1
  B  B17  1  0.500000  0.251181  0.581268  1
  B  B18  1  0.500000  0.249584  0.081059  1
  B  B19  1  0.500000  0.750416  0.918941  1
  B  B20  1  0.500000  0.791858  0.265043  1
  B  B21  1  0.500000  0.208142  0.734957  1
  B  B22  1  0.500000  0.292421  0.234606  1
  B  B23  1  0.500000  0.707579  0.765394  1
  B  B24  1  0.500000  0.630479  0.185116  1
  B  B25  1  0.500000  0.369521  0.814884  1
  B  B26  1  0.500000  0.131103  0.314477  1
  B  B27  1  0.500000  0.868897  0.685523  1
  B  B28  1  0.500000  0.982161  0.211609  1
  B  B29  1  0.500000  0.017839  0.788391  1
  B  B30  1  0.500000  0.481766  0.288010  1
  B  B31  1  0.500000  0.518234  0.711990  1
  B  B32  1  0.500000  0.599539  0.027814  1
  B  B33  1  0.500000  0.400461  0.972186  1
  B  B34  1  0.500000  0.100765  0.471894  1
  B  B35  1  0.500000  0.899235  0.528106  1
