# generated using pymatgen
data_TmHfCrB6
_symmetry_space_group_name_H-M   'P 1'
_cell_length_a   3.43765600
_cell_length_b   8.97239000
_cell_length_c   11.33383200
_cell_angle_alpha   90.00000000
_cell_angle_beta   90.00000000
_cell_angle_gamma   90.00000000
_symmetry_Int_Tables_number   1
_chemical_formula_structural   TmHfCrB6
_chemical_formula_sum   'Tm4 Hf4 Cr4 B24'
_cell_volume   349.58060447
_cell_formula_units_Z   4
loop_
 _symmetry_equiv_pos_site_id
 _symmetry_equiv_pos_as_xyz
  1  'x, y, z'
loop_
 _atom_site_type_symbol
 _atom_site_label
 _atom_site_symmetry_multiplicity
 _atom_site_fract_x
 _atom_site_fract_y
 _atom_site_fract_z
 _atom_site_occupancy
  Tm  Tm0  1  0.000000  0.822285  0.085518  1
  Tm  Tm1  1  0.000000  0.177715  0.914482  1
  Tm  Tm2  1  0.000000  0.322285  0.414482  1
  Tm  Tm3  1  0.000000  0.677715  0.585518  1
  Hf  Hf4  1  0.000000  0.444031  0.129217  1
  Hf  Hf5  1  0.000000  0.555969  0.870783  1
  Hf  Hf6  1  0.000000  0.944031  0.370783  1
  Hf  Hf7  1  0.000000  0.055969  0.629217  1
  Cr  Cr8  1  0.000000  0.141604  0.182037  1
  Cr  Cr9  1  0.000000  0.858396  0.817963  1
  Cr  Cr10  1  0.000000  0.641604  0.317963  1
  Cr  Cr11  1  0.000000  0.358396  0.682037  1
  B  B12  1  0.500000  0.053868  0.066920  1
  B  B13  1  0.500000  0.946132  0.933080  1
  B  B14  1  0.500000  0.553868  0.433080  1
  B  B15  1  0.500000  0.446132  0.566920  1
  B  B16  1  0.500000  0.251574  0.081844  1
  B  B17  1  0.500000  0.748426  0.918156  1
  B  B18  1  0.500000  0.751574  0.418156  1
  B  B19  1  0.500000  0.248426  0.581844  1
  B  B20  1  0.500000  0.294830  0.236010  1
  B  B21  1  0.500000  0.705170  0.763990  1
  B  B22  1  0.500000  0.794830  0.263990  1
  B  B23  1  0.500000  0.205170  0.736010  1
  B  B24  1  0.500000  0.130680  0.316516  1
  B  B25  1  0.500000  0.869320  0.683484  1
  B  B26  1  0.500000  0.630680  0.183484  1
  B  B27  1  0.500000  0.369320  0.816516  1
  B  B28  1  0.500000  0.482004  0.287483  1
  B  B29  1  0.500000  0.517996  0.712517  1
  B  B30  1  0.500000  0.982004  0.212517  1
  B  B31  1  0.500000  0.017996  0.787483  1
  B  B32  1  0.500000  0.099997  0.473142  1
  B  B33  1  0.500000  0.900003  0.526858  1
  B  B34  1  0.500000  0.599997  0.026858  1
  B  B35  1  0.500000  0.400003  0.973142  1
