# generated using pymatgen
data_Tb2Nd8Ir5Ru
_symmetry_space_group_name_H-M   'P 1'
_cell_length_a   11.17073100
_cell_length_b   11.17073100
_cell_length_c   6.55407200
_cell_angle_alpha   90.00000000
_cell_angle_beta   90.00000000
_cell_angle_gamma   90.00000000
_symmetry_Int_Tables_number   1
_chemical_formula_structural   Tb2Nd8Ir5Ru
_chemical_formula_sum   'Tb4 Nd16 Ir10 Ru2'
_cell_volume   817.85138900
_cell_formula_units_Z   2
loop_
 _symmetry_equiv_pos_site_id
 _symmetry_equiv_pos_as_xyz
  1  'x, y, z'
loop_
 _atom_site_type_symbol
 _atom_site_label
 _atom_site_symmetry_multiplicity
 _atom_site_fract_x
 _atom_site_fract_y
 _atom_site_fract_z
 _atom_site_occupancy
  Tb  Tb0  1  0.000000  0.000000  0.498944  1
  Tb  Tb1  1  0.000000  0.000000  0.998944  1
  Tb  Tb2  1  0.500000  0.500000  0.998944  1
  Tb  Tb3  1  0.500000  0.500000  0.498944  1
  Nd  Nd4  1  0.292356  0.086704  0.381695  1
  Nd  Nd5  1  0.292356  0.913296  0.881695  1
  Nd  Nd6  1  0.707644  0.086704  0.881695  1
  Nd  Nd7  1  0.707644  0.913296  0.381695  1
  Nd  Nd8  1  0.586704  0.792356  0.881695  1
  Nd  Nd9  1  0.586704  0.207644  0.381695  1
  Nd  Nd10  1  0.413296  0.792356  0.381695  1
  Nd  Nd11  1  0.413296  0.207644  0.881695  1
  Nd  Nd12  1  0.210548  0.412028  0.619427  1
  Nd  Nd13  1  0.210548  0.587972  0.119427  1
  Nd  Nd14  1  0.789452  0.412028  0.119427  1
  Nd  Nd15  1  0.789452  0.587972  0.619427  1
  Nd  Nd16  1  0.912028  0.710548  0.119427  1
  Nd  Nd17  1  0.912028  0.289452  0.619427  1
  Nd  Nd18  1  0.087972  0.710548  0.619427  1
  Nd  Nd19  1  0.087972  0.289452  0.119427  1
  Ir  Ir20  1  0.851353  0.150192  0.249598  1
  Ir  Ir21  1  0.851353  0.849808  0.749598  1
  Ir  Ir22  1  0.148647  0.150192  0.749598  1
  Ir  Ir23  1  0.148647  0.849808  0.249598  1
  Ir  Ir24  1  0.650192  0.351353  0.749598  1
  Ir  Ir25  1  0.650192  0.648647  0.249598  1
  Ir  Ir26  1  0.349808  0.351353  0.249598  1
  Ir  Ir27  1  0.349808  0.648647  0.749598  1
  Ir  Ir28  1  0.000000  0.500000  0.880128  1
  Ir  Ir29  1  0.000000  0.500000  0.380128  1
  Ru  Ru30  1  0.500000  0.000000  0.119105  1
  Ru  Ru31  1  0.500000  0.000000  0.619105  1
