# generated using pymatgen
data_Er2Ga8SiIr3
_symmetry_space_group_name_H-M   'P 1'
_cell_length_a   7.56745414
_cell_length_b   7.52065696
_cell_length_c   9.44464143
_cell_angle_alpha   90.00335871
_cell_angle_beta   89.77741098
_cell_angle_gamma   119.89856924
_symmetry_Int_Tables_number   1
_chemical_formula_structural   Er2Ga8SiIr3
_chemical_formula_sum   'Er4 Ga16 Si2 Ir6'
_cell_volume   465.97258419
_cell_formula_units_Z   2
loop_
 _symmetry_equiv_pos_site_id
 _symmetry_equiv_pos_as_xyz
  1  'x, y, z'
loop_
 _atom_site_type_symbol
 _atom_site_label
 _atom_site_symmetry_multiplicity
 _atom_site_fract_x
 _atom_site_fract_y
 _atom_site_fract_z
 _atom_site_occupancy
  Er  Er0  1  0.996451  0.666215  0.747095  1
  Er  Er1  1  0.003549  0.333785  0.252905  1
  Er  Er2  1  0.673759  0.002247  0.748112  1
  Er  Er3  1  0.326241  0.997753  0.251888  1
  Ga  Ga4  1  0.128874  0.128223  0.750101  1
  Ga  Ga5  1  0.871126  0.871777  0.249899  1
  Ga  Ga6  1  0.000807  0.665226  0.079203  1
  Ga  Ga7  1  0.334565  0.998641  0.919204  1
  Ga  Ga8  1  0.999193  0.334774  0.920797  1
  Ga  Ga9  1  0.665435  0.001359  0.080796  1
  Ga  Ga10  1  0.661312  0.998330  0.417016  1
  Ga  Ga11  1  0.338688  0.001670  0.582984  1
  Ga  Ga12  1  0.331706  0.330710  0.067618  1
  Ga  Ga13  1  0.668294  0.669290  0.932382  1
  Ga  Ga14  1  0.663336  0.668172  0.570044  1
  Ga  Ga15  1  0.336664  0.331828  0.429956  1
  Ga  Ga16  1  0.339079  0.546820  0.750111  1
  Ga  Ga17  1  0.660921  0.453180  0.249889  1
  Ga  Ga18  1  0.548542  0.339640  0.749800  1
  Ga  Ga19  1  0.451458  0.660360  0.250200  1
  Si  Si20  1  0.000417  0.329539  0.574349  1
  Si  Si21  1  0.999583  0.670461  0.425651  1
  Ir  Ir22  1  0.696637  0.342811  0.501417  1
  Ir  Ir23  1  0.303363  0.657189  0.498583  1
  Ir  Ir24  1  0.327873  0.671156  0.000186  1
  Ir  Ir25  1  0.672127  0.328844  0.999814  1
  Ir  Ir26  1  0.000000  0.000000  0.500000  1
  Ir  Ir27  1  0.000000  0.000000  0.000000  1
