# generated using pymatgen
data_Li2Y15Ho(InRh2)2
_symmetry_space_group_name_H-M   'P 1'
_cell_length_a   9.70010905
_cell_length_b   9.70010837
_cell_length_c   9.72127510
_cell_angle_alpha   59.77402181
_cell_angle_beta   59.77402401
_cell_angle_gamma   59.72595333
_symmetry_Int_Tables_number   1
_chemical_formula_structural   Li2Y15Ho(InRh2)2
_chemical_formula_sum   'Li2 Y15 Ho1 In2 Rh4'
_cell_volume   643.23280518
_cell_formula_units_Z   1
loop_
 _symmetry_equiv_pos_site_id
 _symmetry_equiv_pos_as_xyz
  1  'x, y, z'
loop_
 _atom_site_type_symbol
 _atom_site_label
 _atom_site_symmetry_multiplicity
 _atom_site_fract_x
 _atom_site_fract_y
 _atom_site_fract_z
 _atom_site_occupancy
  Li  Li0  1  0.822563  0.822563  0.825148  1
  Li  Li1  1  0.822888  0.822888  0.527885  1
  Y  Y2  1  0.185820  0.185820  0.814124  1
  Y  Y3  1  0.599771  0.599771  0.199118  1
  Y  Y4  1  0.439060  0.060644  0.439721  1
  Y  Y5  1  0.442335  0.442335  0.056855  1
  Y  Y6  1  0.813350  0.187676  0.813664  1
  Y  Y7  1  0.186391  0.813031  0.187040  1
  Y  Y8  1  0.437982  0.062357  0.060046  1
  Y  Y9  1  0.187676  0.813350  0.813664  1
  Y  Y10  1  0.062357  0.437982  0.060046  1
  Y  Y11  1  0.811363  0.811363  0.189340  1
  Y  Y12  1  0.207001  0.597470  0.598922  1
  Y  Y13  1  0.060644  0.439060  0.439721  1
  Y  Y14  1  0.066150  0.066150  0.432210  1
  Y  Y15  1  0.813031  0.186391  0.187040  1
  Y  Y16  1  0.597470  0.207001  0.598922  1
  Ho  Ho17  1  0.598068  0.598068  0.600922  1
  In  In18  1  0.505702  0.834116  0.829324  1
  In  In19  1  0.834116  0.505702  0.829324  1
  Rh  Rh20  1  0.396193  0.822165  0.392434  1
  Rh  Rh21  1  0.393393  0.393393  0.389756  1
  Rh  Rh22  1  0.822165  0.396193  0.392434  1
  Rh  Rh23  1  0.394516  0.394516  0.822340  1
