# generated using pymatgen
data_PaVN2
_symmetry_space_group_name_H-M   'P 1'
_cell_length_a   3.20548300
_cell_length_b   5.52741200
_cell_length_c   10.78797400
_cell_angle_alpha   90.00000000
_cell_angle_beta   90.00000000
_cell_angle_gamma   90.00000000
_symmetry_Int_Tables_number   1
_chemical_formula_structural   PaVN2
_chemical_formula_sum   'Pa4 V4 N8'
_cell_volume   191.14159519
_cell_formula_units_Z   4
loop_
 _symmetry_equiv_pos_site_id
 _symmetry_equiv_pos_as_xyz
  1  'x, y, z'
loop_
 _atom_site_type_symbol
 _atom_site_label
 _atom_site_symmetry_multiplicity
 _atom_site_fract_x
 _atom_site_fract_y
 _atom_site_fract_z
 _atom_site_occupancy
  Pa  Pa0  1  0.750000  0.077470  0.856086  1
  Pa  Pa1  1  0.750000  0.577470  0.643914  1
  Pa  Pa2  1  0.250000  0.922530  0.143914  1
  Pa  Pa3  1  0.250000  0.422530  0.356086  1
  V  V4  1  0.250000  0.073091  0.595643  1
  V  V5  1  0.750000  0.426909  0.095643  1
  V  V6  1  0.250000  0.573091  0.904357  1
  V  V7  1  0.750000  0.926909  0.404357  1
  N  N8  1  0.250000  0.334483  0.746585  1
  N  N9  1  0.750000  0.165517  0.246585  1
  N  N10  1  0.250000  0.261485  0.007263  1
  N  N11  1  0.750000  0.665517  0.253415  1
  N  N12  1  0.250000  0.834483  0.753415  1
  N  N13  1  0.750000  0.738515  0.992737  1
  N  N14  1  0.750000  0.238515  0.507263  1
  N  N15  1  0.250000  0.761485  0.492737  1
