# generated using pymatgen
data_Tb7Ce3(Si2Ru3)2
_symmetry_space_group_name_H-M   'P 1'
_cell_length_a   8.37137302
_cell_length_b   8.37137273
_cell_length_c   8.37137356
_cell_angle_alpha   110.20180533
_cell_angle_beta   110.20180389
_cell_angle_gamma   110.20180501
_symmetry_Int_Tables_number   1
_chemical_formula_structural   Tb7Ce3(Si2Ru3)2
_chemical_formula_sum   'Tb7 Ce3 Si4 Ru6'
_cell_volume   438.97459241
_cell_formula_units_Z   1
loop_
 _symmetry_equiv_pos_site_id
 _symmetry_equiv_pos_as_xyz
  1  'x, y, z'
loop_
 _atom_site_type_symbol
 _atom_site_label
 _atom_site_symmetry_multiplicity
 _atom_site_fract_x
 _atom_site_fract_y
 _atom_site_fract_z
 _atom_site_occupancy
  Tb  Tb0  1  0.768049  0.768049  0.768049  1
  Tb  Tb1  1  0.303907  0.557644  0.751650  1
  Tb  Tb2  1  0.751650  0.303907  0.557644  1
  Tb  Tb3  1  0.557644  0.751650  0.303907  1
  Tb  Tb4  1  0.732574  0.503939  0.995929  1
  Tb  Tb5  1  0.995929  0.732574  0.503939  1
  Tb  Tb6  1  0.503939  0.995929  0.732574  1
  Ce  Ce7  1  0.253825  0.208675  0.956530  1
  Ce  Ce8  1  0.956530  0.253825  0.208675  1
  Ce  Ce9  1  0.208675  0.956530  0.253825  1
  Si  Si10  1  0.400083  0.400083  0.400083  1
  Si  Si11  1  0.098938  0.498449  0.001415  1
  Si  Si12  1  0.001415  0.098938  0.498449  1
  Si  Si13  1  0.498449  0.001415  0.098938  1
  Ru  Ru14  1  0.907640  0.126788  0.751255  1
  Ru  Ru15  1  0.751255  0.907640  0.126788  1
  Ru  Ru16  1  0.126788  0.751255  0.907640  1
  Ru  Ru17  1  0.227388  0.596376  0.358943  1
  Ru  Ru18  1  0.358943  0.227388  0.596376  1
  Ru  Ru19  1  0.596376  0.358943  0.227388  1
