# generated using pymatgen
data_La3Ni2Sn3Rh
_symmetry_space_group_name_H-M   'P 1'
_cell_length_a   7.55577500
_cell_length_b   7.55577553
_cell_length_c   4.13099500
_cell_angle_alpha   90.00000000
_cell_angle_beta   90.00000000
_cell_angle_gamma   119.99999329
_symmetry_Int_Tables_number   1
_chemical_formula_structural   La3Ni2Sn3Rh
_chemical_formula_sum   'La3 Ni2 Sn3 Rh1'
_cell_volume   204.24121936
_cell_formula_units_Z   1
loop_
 _symmetry_equiv_pos_site_id
 _symmetry_equiv_pos_as_xyz
  1  'x, y, z'
loop_
 _atom_site_type_symbol
 _atom_site_label
 _atom_site_symmetry_multiplicity
 _atom_site_fract_x
 _atom_site_fract_y
 _atom_site_fract_z
 _atom_site_occupancy
  La  La0  1  0.998768  0.583938  0.000000  1
  La  La1  1  0.416062  0.414830  0.000000  1
  La  La2  1  0.585170  0.001232  0.000000  1
  Ni  Ni3  1  0.333333  0.666667  0.500000  1
  Ni  Ni4  1  0.000000  0.000000  0.000000  1
  Sn  Sn5  1  0.755097  0.756776  0.500000  1
  Sn  Sn6  1  0.001679  0.244903  0.500000  1
  Sn  Sn7  1  0.243224  0.998321  0.500000  1
  Rh  Rh8  1  0.666667  0.333333  0.500000  1
