# generated using pymatgen
data_Pr2Y2SBr6
_symmetry_space_group_name_H-M   'P 1'
_cell_length_a   4.07391500
_cell_length_b   13.30784000
_cell_length_c   14.01474800
_cell_angle_alpha   90.00000000
_cell_angle_beta   90.00000000
_cell_angle_gamma   90.00000000
_symmetry_Int_Tables_number   1
_chemical_formula_structural   Pr2Y2SBr6
_chemical_formula_sum   'Pr4 Y4 S2 Br12'
_cell_volume   759.80968886
_cell_formula_units_Z   2
loop_
 _symmetry_equiv_pos_site_id
 _symmetry_equiv_pos_as_xyz
  1  'x, y, z'
loop_
 _atom_site_type_symbol
 _atom_site_label
 _atom_site_symmetry_multiplicity
 _atom_site_fract_x
 _atom_site_fract_y
 _atom_site_fract_z
 _atom_site_occupancy
  Pr  Pr0  1  0.000000  0.117466  0.578451  1
  Pr  Pr1  1  0.000000  0.882534  0.421549  1
  Pr  Pr2  1  0.000000  0.617466  0.921549  1
  Pr  Pr3  1  0.000000  0.382534  0.078451  1
  Y  Y4  1  0.500000  0.114738  0.345572  1
  Y  Y5  1  0.500000  0.885262  0.654428  1
  Y  Y6  1  0.500000  0.614738  0.154428  1
  Y  Y7  1  0.500000  0.385262  0.845572  1
  S  S8  1  0.500000  0.000000  0.500000  1
  S  S9  1  0.500000  0.500000  0.000000  1
  Br  Br10  1  0.500000  0.237781  0.166676  1
  Br  Br11  1  0.500000  0.762219  0.833324  1
  Br  Br12  1  0.500000  0.737781  0.333324  1
  Br  Br13  1  0.500000  0.262219  0.666676  1
  Br  Br14  1  0.000000  0.255418  0.405923  1
  Br  Br15  1  0.000000  0.744582  0.594077  1
  Br  Br16  1  0.000000  0.755418  0.094077  1
  Br  Br17  1  0.000000  0.244582  0.905923  1
  Br  Br18  1  0.000000  0.006676  0.240413  1
  Br  Br19  1  0.000000  0.993324  0.759587  1
  Br  Br20  1  0.000000  0.506676  0.259587  1
  Br  Br21  1  0.000000  0.493324  0.740413  1
