# generated using pymatgen
data_YTm3B12IrRh
_symmetry_space_group_name_H-M   'P 1'
_cell_length_a   3.62369300
_cell_length_b   9.13205175
_cell_length_c   11.47327710
_cell_angle_alpha   90.09204546
_cell_angle_beta   90.00000000
_cell_angle_gamma   90.00000000
_symmetry_Int_Tables_number   1
_chemical_formula_structural   YTm3B12IrRh
_chemical_formula_sum   'Y2 Tm6 B24 Ir2 Rh2'
_cell_volume   379.67035034
_cell_formula_units_Z   2
loop_
 _symmetry_equiv_pos_site_id
 _symmetry_equiv_pos_as_xyz
  1  'x, y, z'
loop_
 _atom_site_type_symbol
 _atom_site_label
 _atom_site_symmetry_multiplicity
 _atom_site_fract_x
 _atom_site_fract_y
 _atom_site_fract_z
 _atom_site_occupancy
  Y  Y0  1  0.500000  0.322880  0.413901  1
  Y  Y1  1  0.500000  0.677120  0.586099  1
  Tm  Tm2  1  0.500000  0.179648  0.912891  1
  Tm  Tm3  1  0.500000  0.820352  0.087109  1
  Tm  Tm4  1  0.500000  0.445026  0.126019  1
  Tm  Tm5  1  0.500000  0.554974  0.873981  1
  Tm  Tm6  1  0.500000  0.056508  0.626210  1
  Tm  Tm7  1  0.500000  0.943492  0.373790  1
  B  B8  1  0.000000  0.107556  0.470639  1
  B  B9  1  0.000000  0.892444  0.529361  1
  B  B10  1  0.000000  0.390617  0.970383  1
  B  B11  1  0.000000  0.609383  0.029617  1
  B  B12  1  0.000000  0.131707  0.315636  1
  B  B13  1  0.000000  0.868293  0.684364  1
  B  B14  1  0.000000  0.366833  0.817000  1
  B  B15  1  0.000000  0.633167  0.183000  1
  B  B16  1  0.000000  0.053991  0.065072  1
  B  B17  1  0.000000  0.946009  0.934928  1
  B  B18  1  0.000000  0.446080  0.566016  1
  B  B19  1  0.000000  0.553920  0.433984  1
  B  B20  1  0.000000  0.482669  0.285889  1
  B  B21  1  0.000000  0.517331  0.714111  1
  B  B22  1  0.000000  0.018333  0.786784  1
  B  B23  1  0.000000  0.981667  0.213216  1
  B  B24  1  0.000000  0.250170  0.078583  1
  B  B25  1  0.000000  0.749830  0.921417  1
  B  B26  1  0.000000  0.250240  0.580065  1
  B  B27  1  0.000000  0.749760  0.419935  1
  B  B28  1  0.000000  0.293747  0.234299  1
  B  B29  1  0.000000  0.706253  0.765701  1
  B  B30  1  0.000000  0.205529  0.736656  1
  B  B31  1  0.000000  0.794471  0.263344  1
  Ir  Ir32  1  0.500000  0.137878  0.177188  1
  Ir  Ir33  1  0.500000  0.862122  0.822812  1
  Rh  Rh34  1  0.500000  0.359230  0.681532  1
  Rh  Rh35  1  0.500000  0.640770  0.318468  1
