# generated using pymatgen
data_Er3Zr2Pt3O
_symmetry_space_group_name_H-M   'P 1'
_cell_length_a   8.38191200
_cell_length_b   8.38191224
_cell_length_c   5.65464500
_cell_angle_alpha   90.00000000
_cell_angle_beta   90.00000000
_cell_angle_gamma   119.99999906
_symmetry_Int_Tables_number   1
_chemical_formula_structural   Er3Zr2Pt3O
_chemical_formula_sum   'Er6 Zr4 Pt6 O2'
_cell_volume   344.05049506
_cell_formula_units_Z   2
loop_
 _symmetry_equiv_pos_site_id
 _symmetry_equiv_pos_as_xyz
  1  'x, y, z'
loop_
 _atom_site_type_symbol
 _atom_site_label
 _atom_site_symmetry_multiplicity
 _atom_site_fract_x
 _atom_site_fract_y
 _atom_site_fract_z
 _atom_site_occupancy
  Er  Er0  1  0.000000  0.762472  0.750000  1
  Er  Er1  1  0.000000  0.237528  0.250000  1
  Er  Er2  1  0.237528  0.237528  0.750000  1
  Er  Er3  1  0.237528  0.000000  0.250000  1
  Er  Er4  1  0.762472  0.762472  0.250000  1
  Er  Er5  1  0.762472  0.000000  0.750000  1
  Zr  Zr6  1  0.333333  0.666667  0.000000  1
  Zr  Zr7  1  0.333333  0.666667  0.500000  1
  Zr  Zr8  1  0.666667  0.333333  0.000000  1
  Zr  Zr9  1  0.666667  0.333333  0.500000  1
  Pt  Pt10  1  0.000000  0.594052  0.250000  1
  Pt  Pt11  1  0.000000  0.405948  0.750000  1
  Pt  Pt12  1  0.405948  0.405948  0.250000  1
  Pt  Pt13  1  0.594052  0.594052  0.750000  1
  Pt  Pt14  1  0.405948  0.000000  0.750000  1
  Pt  Pt15  1  0.594052  0.000000  0.250000  1
  O  O16  1  0.000000  0.000000  0.000000  1
  O  O17  1  0.000000  0.000000  0.500000  1
