# generated using pymatgen
data_LiTb3ErAl17Pd6
_symmetry_space_group_name_H-M   'P 1'
_cell_length_a   7.62808416
_cell_length_b   7.62658261
_cell_length_c   9.47495200
_cell_angle_alpha   90.00000000
_cell_angle_beta   90.00000000
_cell_angle_gamma   119.37038338
_symmetry_Int_Tables_number   1
_chemical_formula_structural   LiTb3ErAl17Pd6
_chemical_formula_sum   'Li1 Tb3 Er1 Al17 Pd6'
_cell_volume   480.36752780
_cell_formula_units_Z   1
loop_
 _symmetry_equiv_pos_site_id
 _symmetry_equiv_pos_as_xyz
  1  'x, y, z'
loop_
 _atom_site_type_symbol
 _atom_site_label
 _atom_site_symmetry_multiplicity
 _atom_site_fract_x
 _atom_site_fract_y
 _atom_site_fract_z
 _atom_site_occupancy
  Li  Li0  1  0.128869  0.129135  0.250000  1
  Tb  Tb1  1  0.994765  0.664878  0.250000  1
  Tb  Tb2  1  0.007474  0.329918  0.750000  1
  Tb  Tb3  1  0.330142  0.007565  0.750000  1
  Er  Er4  1  0.664426  0.994597  0.250000  1
  Al  Al5  1  0.866487  0.866755  0.750000  1
  Al  Al6  1  0.001073  0.327866  0.081229  1
  Al  Al7  1  0.000084  0.664848  0.923931  1
  Al  Al8  1  0.000084  0.664848  0.576069  1
  Al  Al9  1  0.329432  0.001936  0.418885  1
  Al  Al10  1  0.001073  0.327866  0.418771  1
  Al  Al11  1  0.664928  0.000166  0.575524  1
  Al  Al12  1  0.664928  0.000166  0.924476  1
  Al  Al13  1  0.329432  0.001936  0.081115  1
  Al  Al14  1  0.335058  0.335061  0.547126  1
  Al  Al15  1  0.670931  0.671536  0.438947  1
  Al  Al16  1  0.670931  0.671536  0.061053  1
  Al  Al17  1  0.335058  0.335061  0.952874  1
  Al  Al18  1  0.340917  0.543073  0.250000  1
  Al  Al19  1  0.659043  0.452161  0.750000  1
  Al  Al20  1  0.542600  0.340153  0.250000  1
  Al  Al21  1  0.452300  0.659258  0.750000  1
  Pd  Pd22  1  0.675204  0.329670  0.000477  1
  Pd  Pd23  1  0.329892  0.675313  0.000519  1
  Pd  Pd24  1  0.329892  0.675313  0.499481  1
  Pd  Pd25  1  0.675204  0.329670  0.499523  1
  Pd  Pd26  1  0.999887  0.999858  0.994065  1
  Pd  Pd27  1  0.999887  0.999858  0.505935  1
