# generated using pymatgen
data_Hf7ZrSi6(MoN)2
_symmetry_space_group_name_H-M   'P 1'
_cell_length_a   7.75096316
_cell_length_b   7.73916075
_cell_length_c   5.44127311
_cell_angle_alpha   89.98829837
_cell_angle_beta   90.02336023
_cell_angle_gamma   120.05046451
_symmetry_Int_Tables_number   1
_chemical_formula_structural   Hf7ZrSi6(MoN)2
_chemical_formula_sum   'Hf7 Zr1 Si6 Mo2 N2'
_cell_volume   282.52676163
_cell_formula_units_Z   1
loop_
 _symmetry_equiv_pos_site_id
 _symmetry_equiv_pos_as_xyz
  1  'x, y, z'
loop_
 _atom_site_type_symbol
 _atom_site_label
 _atom_site_symmetry_multiplicity
 _atom_site_fract_x
 _atom_site_fract_y
 _atom_site_fract_z
 _atom_site_occupancy
  Hf  Hf0  1  0.764002  0.000000  0.750998  1
  Hf  Hf1  1  0.000083  0.234365  0.248544  1
  Hf  Hf2  1  0.999264  0.765283  0.751954  1
  Hf  Hf3  1  0.765718  0.765635  0.248544  1
  Hf  Hf4  1  0.233980  0.234717  0.751954  1
  Hf  Hf5  1  0.667444  0.333992  0.500211  1
  Hf  Hf6  1  0.333451  0.666008  0.500211  1
  Zr  Zr7  1  0.238105  0.000000  0.249350  1
  Si  Si8  1  0.592426  0.000000  0.226672  1
  Si  Si9  1  0.409397  0.000000  0.772718  1
  Si  Si10  1  0.999645  0.589411  0.226171  1
  Si  Si11  1  0.000044  0.409476  0.773450  1
  Si  Si12  1  0.410234  0.410589  0.226171  1
  Si  Si13  1  0.590568  0.590524  0.773450  1
  Mo  Mo14  1  0.333459  0.666051  0.999816  1
  Mo  Mo15  1  0.667410  0.333949  0.999816  1
  N  N16  1  0.997489  0.000000  0.998120  1
  N  N17  1  0.997280  0.000000  0.501849  1
