# generated using pymatgen
data_Yb(ThB8)3
_symmetry_space_group_name_H-M   'P 1'
_cell_length_a   4.10848600
_cell_length_b   4.10848600
_cell_length_c   16.46280000
_cell_angle_alpha   90.00000000
_cell_angle_beta   90.00000000
_cell_angle_gamma   90.00000000
_symmetry_Int_Tables_number   1
_chemical_formula_structural   Yb(ThB8)3
_chemical_formula_sum   'Yb1 Th3 B24'
_cell_volume   277.88642075
_cell_formula_units_Z   1
loop_
 _symmetry_equiv_pos_site_id
 _symmetry_equiv_pos_as_xyz
  1  'x, y, z'
loop_
 _atom_site_type_symbol
 _atom_site_label
 _atom_site_symmetry_multiplicity
 _atom_site_fract_x
 _atom_site_fract_y
 _atom_site_fract_z
 _atom_site_occupancy
  Yb  Yb0  1  0.000000  0.000000  0.500000  1
  Th  Th1  1  0.000000  0.000000  0.000000  1
  Th  Th2  1  0.000000  0.000000  0.246883  1
  Th  Th3  1  0.000000  0.000000  0.753117  1
  B  B4  1  0.500000  0.500000  0.200869  1
  B  B5  1  0.500000  0.500000  0.450232  1
  B  B6  1  0.500000  0.500000  0.700202  1
  B  B7  1  0.500000  0.500000  0.950782  1
  B  B8  1  0.500000  0.197447  0.124967  1
  B  B9  1  0.500000  0.198962  0.375426  1
  B  B10  1  0.500000  0.198962  0.624574  1
  B  B11  1  0.500000  0.197447  0.875033  1
  B  B12  1  0.197447  0.500000  0.124967  1
  B  B13  1  0.198962  0.500000  0.375426  1
  B  B14  1  0.198962  0.500000  0.624574  1
  B  B15  1  0.197447  0.500000  0.875033  1
  B  B16  1  0.500000  0.500000  0.049218  1
  B  B17  1  0.500000  0.500000  0.299798  1
  B  B18  1  0.500000  0.500000  0.549768  1
  B  B19  1  0.500000  0.500000  0.799131  1
  B  B20  1  0.500000  0.802553  0.124967  1
  B  B21  1  0.500000  0.801038  0.375426  1
  B  B22  1  0.500000  0.801038  0.624574  1
  B  B23  1  0.500000  0.802553  0.875033  1
  B  B24  1  0.802553  0.500000  0.124967  1
  B  B25  1  0.801038  0.500000  0.375426  1
  B  B26  1  0.801038  0.500000  0.624574  1
  B  B27  1  0.802553  0.500000  0.875033  1
