# generated using pymatgen
data_Tb5SnBi2S
_symmetry_space_group_name_H-M   'P 1'
_cell_length_a   9.19601275
_cell_length_b   9.19601359
_cell_length_c   6.58940900
_cell_angle_alpha   90.00000000
_cell_angle_beta   90.00000000
_cell_angle_gamma   120.04612740
_symmetry_Int_Tables_number   1
_chemical_formula_structural   Tb5SnBi2S
_chemical_formula_sum   'Tb10 Sn2 Bi4 S2'
_cell_volume   482.36325068
_cell_formula_units_Z   2
loop_
 _symmetry_equiv_pos_site_id
 _symmetry_equiv_pos_as_xyz
  1  'x, y, z'
loop_
 _atom_site_type_symbol
 _atom_site_label
 _atom_site_symmetry_multiplicity
 _atom_site_fract_x
 _atom_site_fract_y
 _atom_site_fract_z
 _atom_site_occupancy
  Tb  Tb0  1  0.667698  0.330944  0.003486  1
  Tb  Tb1  1  0.330944  0.667698  0.003486  1
  Tb  Tb2  1  0.330944  0.667698  0.496514  1
  Tb  Tb3  1  0.667698  0.330944  0.496514  1
  Tb  Tb4  1  0.755910  0.755910  0.750000  1
  Tb  Tb5  1  0.244605  0.000103  0.750000  1
  Tb  Tb6  1  0.000103  0.244605  0.750000  1
  Tb  Tb7  1  0.242251  0.242251  0.250000  1
  Tb  Tb8  1  0.756660  0.005427  0.250000  1
  Tb  Tb9  1  0.005427  0.756660  0.250000  1
  Sn  Sn10  1  0.396702  0.000510  0.250000  1
  Sn  Sn11  1  0.000510  0.396702  0.250000  1
  Bi  Bi12  1  0.396687  0.396687  0.750000  1
  Bi  Bi13  1  0.602269  0.999377  0.750000  1
  Bi  Bi14  1  0.999377  0.602269  0.750000  1
  Bi  Bi15  1  0.604972  0.604972  0.250000  1
  S  S16  1  0.998621  0.998621  0.999419  1
  S  S17  1  0.998621  0.998621  0.500581  1
