# generated using pymatgen
data_Dy4Er12Cd4Ir3Ru
_symmetry_space_group_name_H-M   'P 1'
_cell_length_a   9.59409339
_cell_length_b   9.58871381
_cell_length_c   9.58871386
_cell_angle_alpha   59.78103116
_cell_angle_beta   59.76176480
_cell_angle_gamma   59.76176571
_symmetry_Int_Tables_number   1
_chemical_formula_structural   Dy4Er12Cd4Ir3Ru
_chemical_formula_sum   'Dy4 Er12 Cd4 Ir3 Ru1'
_cell_volume   620.46563060
_cell_formula_units_Z   1
loop_
 _symmetry_equiv_pos_site_id
 _symmetry_equiv_pos_as_xyz
  1  'x, y, z'
loop_
 _atom_site_type_symbol
 _atom_site_label
 _atom_site_symmetry_multiplicity
 _atom_site_fract_x
 _atom_site_fract_y
 _atom_site_fract_z
 _atom_site_occupancy
  Dy  Dy0  1  0.811787  0.188584  0.811812  1
  Dy  Dy1  1  0.188418  0.810070  0.188333  1
  Dy  Dy2  1  0.811787  0.811812  0.188584  1
  Dy  Dy3  1  0.188418  0.188333  0.810070  1
  Er  Er4  1  0.598665  0.598727  0.598727  1
  Er  Er5  1  0.598485  0.598340  0.205734  1
  Er  Er6  1  0.598485  0.205734  0.598340  1
  Er  Er7  1  0.205642  0.598478  0.598478  1
  Er  Er8  1  0.062052  0.438418  0.438418  1
  Er  Er9  1  0.438041  0.060759  0.060759  1
  Er  Er10  1  0.438527  0.062105  0.438476  1
  Er  Er11  1  0.060633  0.438202  0.060604  1
  Er  Er12  1  0.438527  0.438476  0.062105  1
  Er  Er13  1  0.060633  0.060604  0.438202  1
  Er  Er14  1  0.189054  0.811221  0.811221  1
  Er  Er15  1  0.809683  0.188779  0.188779  1
  Cd  Cd16  1  0.830275  0.829878  0.829878  1
  Cd  Cd17  1  0.830402  0.830891  0.507378  1
  Cd  Cd18  1  0.830402  0.507378  0.830891  1
  Cd  Cd19  1  0.507434  0.830459  0.830459  1
  Ir  Ir20  1  0.392633  0.393194  0.825859  1
  Ir  Ir21  1  0.392633  0.825859  0.393194  1
  Ir  Ir22  1  0.825840  0.392711  0.392711  1
  Ru  Ru23  1  0.391543  0.390985  0.390985  1
