# generated using pymatgen
data_SrMnAl10(PbO10)2
_symmetry_space_group_name_H-M   'P 1'
_cell_length_a   5.00493840
_cell_length_b   9.60804263
_cell_length_c   9.60804297
_cell_angle_alpha   107.00103069
_cell_angle_beta   74.81134550
_cell_angle_gamma   105.18864798
_symmetry_Int_Tables_number   1
_chemical_formula_structural   SrMnAl10(PbO10)2
_chemical_formula_sum   'Sr1 Mn1 Al10 Pb2 O20'
_cell_volume   417.71133603
_cell_formula_units_Z   1
loop_
 _symmetry_equiv_pos_site_id
 _symmetry_equiv_pos_as_xyz
  1  'x, y, z'
loop_
 _atom_site_type_symbol
 _atom_site_label
 _atom_site_symmetry_multiplicity
 _atom_site_fract_x
 _atom_site_fract_y
 _atom_site_fract_z
 _atom_site_occupancy
  Sr  Sr0  1  0.000000  0.000000  0.000000  1
  Mn  Mn1  1  0.000000  0.500000  0.500000  1
  Al  Al2  1  0.340016  0.718043  0.006823  1
  Al  Al3  1  0.167244  0.422710  0.151793  1
  Al  Al4  1  0.340016  0.993178  0.281958  1
  Al  Al5  1  0.500001  0.365458  0.365458  1
  Al  Al6  1  0.832757  0.151793  0.422710  1
  Al  Al7  1  0.167244  0.848207  0.577289  1
  Al  Al8  1  0.500001  0.634543  0.634543  1
  Al  Al9  1  0.659985  0.006823  0.718043  1
  Al  Al10  1  0.832757  0.577290  0.848207  1
  Al  Al11  1  0.659985  0.281958  0.993178  1
  Pb  Pb12  1  0.680249  0.725129  0.274871  1
  Pb  Pb13  1  0.319751  0.274871  0.725128  1
  O  O14  1  0.001630  0.286198  0.014671  1
  O  O15  1  0.483485  0.899424  0.100576  1
  O  O16  1  0.331972  0.599663  0.118850  1
  O  O17  1  0.437086  0.340444  0.171102  1
  O  O18  1  0.998370  0.014671  0.286198  1
  O  O19  1  0.890152  0.448719  0.310583  1
  O  O20  1  0.562915  0.171102  0.340444  1
  O  O21  1  0.331972  0.881149  0.400337  1
  O  O22  1  0.397264  0.566119  0.433881  1
  O  O23  1  0.109848  0.310583  0.448719  1
  O  O24  1  0.890152  0.689418  0.551281  1
  O  O25  1  0.602736  0.433881  0.566119  1
  O  O26  1  0.668028  0.118850  0.599663  1
  O  O27  1  0.437086  0.828898  0.659556  1
  O  O28  1  0.109848  0.551281  0.689417  1
  O  O29  1  0.001630  0.985329  0.713802  1
  O  O30  1  0.562915  0.659556  0.828898  1
  O  O31  1  0.668028  0.400337  0.881149  1
  O  O32  1  0.516514  0.100575  0.899424  1
  O  O33  1  0.998370  0.713802  0.985328  1
