# generated using pymatgen
data_Nd3TiMnC6
_symmetry_space_group_name_H-M   'P 1'
_cell_length_a   8.37979000
_cell_length_b   8.37978985
_cell_length_c   5.22280500
_cell_angle_alpha   90.00000000
_cell_angle_beta   90.00000000
_cell_angle_gamma   119.99998480
_symmetry_Int_Tables_number   1
_chemical_formula_structural   Nd3TiMnC6
_chemical_formula_sum   'Nd6 Ti2 Mn2 C12'
_cell_volume   317.61482991
_cell_formula_units_Z   2
loop_
 _symmetry_equiv_pos_site_id
 _symmetry_equiv_pos_as_xyz
  1  'x, y, z'
loop_
 _atom_site_type_symbol
 _atom_site_label
 _atom_site_symmetry_multiplicity
 _atom_site_fract_x
 _atom_site_fract_y
 _atom_site_fract_z
 _atom_site_occupancy
  Nd  Nd0  1  0.613445  0.679017  0.750000  1
  Nd  Nd1  1  0.934429  0.613445  0.250000  1
  Nd  Nd2  1  0.679017  0.065571  0.250000  1
  Nd  Nd3  1  0.320983  0.934429  0.750000  1
  Nd  Nd4  1  0.065571  0.386555  0.750000  1
  Nd  Nd5  1  0.386555  0.320983  0.250000  1
  Ti  Ti6  1  0.000000  0.000000  0.500000  1
  Ti  Ti7  1  0.000000  0.000000  0.000000  1
  Mn  Mn8  1  0.666667  0.333333  0.750000  1
  Mn  Mn9  1  0.333333  0.666667  0.250000  1
  C  C10  1  0.956202  0.759494  0.750000  1
  C  C11  1  0.196708  0.956202  0.250000  1
  C  C12  1  0.759494  0.803292  0.250000  1
  C  C13  1  0.240506  0.196708  0.750000  1
  C  C14  1  0.803292  0.043798  0.750000  1
  C  C15  1  0.043798  0.240506  0.250000  1
  C  C16  1  0.856318  0.570576  0.750000  1
  C  C17  1  0.285741  0.856318  0.250000  1
  C  C18  1  0.570576  0.714259  0.250000  1
  C  C19  1  0.429424  0.285741  0.750000  1
  C  C20  1  0.143682  0.429424  0.250000  1
  C  C21  1  0.714259  0.143682  0.750000  1
