# generated using pymatgen
data_Tb3YHo2Ta2O14
_symmetry_space_group_name_H-M   'P 1'
_cell_length_a   6.49078439
_cell_length_b   6.51430687
_cell_length_c   7.48796706
_cell_angle_alpha   90.00887810
_cell_angle_beta   90.00836264
_cell_angle_gamma   108.59107649
_symmetry_Int_Tables_number   1
_chemical_formula_structural   Tb3YHo2Ta2O14
_chemical_formula_sum   'Tb3 Y1 Ho2 Ta2 O14'
_cell_volume   300.09191382
_cell_formula_units_Z   1
loop_
 _symmetry_equiv_pos_site_id
 _symmetry_equiv_pos_as_xyz
  1  'x, y, z'
loop_
 _atom_site_type_symbol
 _atom_site_label
 _atom_site_symmetry_multiplicity
 _atom_site_fract_x
 _atom_site_fract_y
 _atom_site_fract_z
 _atom_site_occupancy
  Tb  Tb0  1  0.535088  0.537909  0.499392  1
  Tb  Tb1  1  0.463949  0.461391  0.999278  1
  Tb  Tb2  1  0.999749  0.535523  0.240870  1
  Y  Y3  1  0.000431  0.465333  0.740689  1
  Ho  Ho4  1  0.534999  0.000166  0.758910  1
  Ho  Ho5  1  0.465608  0.999929  0.258993  1
  Ta  Ta6  1  0.002475  0.002395  0.499805  1
  Ta  Ta7  1  0.997746  0.997732  0.999622  1
  O  O8  1  0.930476  0.065959  0.749900  1
  O  O9  1  0.069285  0.933577  0.249954  1
  O  O10  1  0.361605  0.641910  0.249263  1
  O  O11  1  0.639075  0.357640  0.749623  1
  O  O12  1  0.371732  0.631751  0.750516  1
  O  O13  1  0.626609  0.367246  0.251141  1
  O  O14  1  0.328203  0.079763  0.975152  1
  O  O15  1  0.671847  0.919999  0.475293  1
  O  O16  1  0.306038  0.044604  0.546221  1
  O  O17  1  0.694189  0.955533  0.046179  1
  O  O18  1  0.053129  0.308413  0.456849  1
  O  O19  1  0.947513  0.692470  0.956144  1
  O  O20  1  0.915661  0.672176  0.523408  1
  O  O21  1  0.084594  0.328581  0.022799  1
