# generated using pymatgen
data_CaSmTm2(B6Ru)2
_symmetry_space_group_name_H-M   'P 1'
_cell_length_a   3.65142000
_cell_length_b   9.14061268
_cell_length_c   11.56062800
_cell_angle_alpha   89.82734854
_cell_angle_beta   90.00000000
_cell_angle_gamma   90.00000000
_symmetry_Int_Tables_number   1
_chemical_formula_structural   CaSmTm2(B6Ru)2
_chemical_formula_sum   'Ca2 Sm2 Tm4 B24 Ru4'
_cell_volume   385.84826480
_cell_formula_units_Z   2
loop_
 _symmetry_equiv_pos_site_id
 _symmetry_equiv_pos_as_xyz
  1  'x, y, z'
loop_
 _atom_site_type_symbol
 _atom_site_label
 _atom_site_symmetry_multiplicity
 _atom_site_fract_x
 _atom_site_fract_y
 _atom_site_fract_z
 _atom_site_occupancy
  Ca  Ca0  1  0.000000  0.323901  0.415470  1
  Ca  Ca1  1  0.000000  0.676099  0.584530  1
  Sm  Sm2  1  0.000000  0.822131  0.086164  1
  Sm  Sm3  1  0.000000  0.177869  0.913836  1
  Tm  Tm4  1  0.000000  0.941997  0.370293  1
  Tm  Tm5  1  0.000000  0.058003  0.629707  1
  Tm  Tm6  1  0.000000  0.442732  0.131527  1
  Tm  Tm7  1  0.000000  0.557268  0.868473  1
  B  B8  1  0.500000  0.554478  0.431999  1
  B  B9  1  0.500000  0.445522  0.568001  1
  B  B10  1  0.500000  0.055206  0.068571  1
  B  B11  1  0.500000  0.944794  0.931429  1
  B  B12  1  0.500000  0.748681  0.417362  1
  B  B13  1  0.500000  0.251319  0.582638  1
  B  B14  1  0.500000  0.249838  0.083120  1
  B  B15  1  0.500000  0.750162  0.916880  1
  B  B16  1  0.500000  0.790818  0.265643  1
  B  B17  1  0.500000  0.209182  0.734357  1
  B  B18  1  0.500000  0.290612  0.235019  1
  B  B19  1  0.500000  0.709388  0.764981  1
  B  B20  1  0.500000  0.629996  0.185666  1
  B  B21  1  0.500000  0.370004  0.814334  1
  B  B22  1  0.500000  0.130432  0.314753  1
  B  B23  1  0.500000  0.869568  0.685247  1
  B  B24  1  0.500000  0.984351  0.213078  1
  B  B25  1  0.500000  0.015649  0.786922  1
  B  B26  1  0.500000  0.483755  0.288067  1
  B  B27  1  0.500000  0.516245  0.711933  1
  B  B28  1  0.500000  0.599417  0.027182  1
  B  B29  1  0.500000  0.400583  0.972818  1
  B  B30  1  0.500000  0.098437  0.473059  1
  B  B31  1  0.500000  0.901563  0.526941  1
  Ru  Ru32  1  0.000000  0.640258  0.318211  1
  Ru  Ru33  1  0.000000  0.359742  0.681789  1
  Ru  Ru34  1  0.000000  0.138470  0.179928  1
  Ru  Ru35  1  0.000000  0.861530  0.820072  1
