# generated using pymatgen
data_Y3Ho7(Bi2P)2
_symmetry_space_group_name_H-M   'P 1'
_cell_length_a   7.97488212
_cell_length_b   8.95132900
_cell_length_c   12.14586218
_cell_angle_alpha   90.00000000
_cell_angle_beta   90.01988523
_cell_angle_gamma   90.00000000
_symmetry_Int_Tables_number   1
_chemical_formula_structural   Y3Ho7(Bi2P)2
_chemical_formula_sum   'Y6 Ho14 Bi8 P4'
_cell_volume   867.04195858
_cell_formula_units_Z   2
loop_
 _symmetry_equiv_pos_site_id
 _symmetry_equiv_pos_as_xyz
  1  'x, y, z'
loop_
 _atom_site_type_symbol
 _atom_site_label
 _atom_site_symmetry_multiplicity
 _atom_site_fract_x
 _atom_site_fract_y
 _atom_site_fract_z
 _atom_site_occupancy
  Y  Y0  1  0.850270  0.750000  0.794143  1
  Y  Y1  1  0.149730  0.250000  0.205857  1
  Y  Y2  1  0.350154  0.250000  0.705976  1
  Y  Y3  1  0.649846  0.750000  0.294024  1
  Y  Y4  1  0.375912  0.750000  0.699902  1
  Y  Y5  1  0.624088  0.250000  0.300098  1
  Ho  Ho6  1  0.875863  0.250000  0.800268  1
  Ho  Ho7  1  0.124137  0.750000  0.199732  1
  Ho  Ho8  1  0.958597  0.750000  0.501862  1
  Ho  Ho9  1  0.041403  0.250000  0.498138  1
  Ho  Ho10  1  0.458528  0.250000  0.998100  1
  Ho  Ho11  1  0.541472  0.750000  0.001900  1
  Ho  Ho12  1  0.682457  0.050498  0.564052  1
  Ho  Ho13  1  0.317543  0.949502  0.435948  1
  Ho  Ho14  1  0.182335  0.949519  0.936185  1
  Ho  Ho15  1  0.317543  0.550498  0.435948  1
  Ho  Ho16  1  0.817665  0.050481  0.063815  1
  Ho  Ho17  1  0.682457  0.449502  0.564052  1
  Ho  Ho18  1  0.817665  0.449519  0.063815  1
  Ho  Ho19  1  0.182335  0.550481  0.936185  1
  Bi  Bi20  1  0.577054  0.490249  0.827215  1
  Bi  Bi21  1  0.422946  0.509751  0.172785  1
  Bi  Bi22  1  0.076405  0.509139  0.673005  1
  Bi  Bi23  1  0.422946  0.990249  0.172785  1
  Bi  Bi24  1  0.923595  0.490861  0.326995  1
  Bi  Bi25  1  0.577054  0.009751  0.827215  1
  Bi  Bi26  1  0.923595  0.009139  0.326995  1
  Bi  Bi27  1  0.076405  0.990861  0.673005  1
  P  P28  1  0.575076  0.750000  0.512813  1
  P  P29  1  0.424924  0.250000  0.487187  1
  P  P30  1  0.074677  0.250000  0.986519  1
  P  P31  1  0.925323  0.750000  0.013481  1
