# generated using pymatgen
data_Lu12Ni4SnOs
_symmetry_space_group_name_H-M   'P 1'
_cell_length_a   8.11469046
_cell_length_b   8.11469068
_cell_length_c   8.11469111
_cell_angle_alpha   111.48134361
_cell_angle_beta   110.47787511
_cell_angle_gamma   106.49645885
_symmetry_Int_Tables_number   1
_chemical_formula_structural   Lu12Ni4SnOs
_chemical_formula_sum   'Lu12 Ni4 Sn1 Os1'
_cell_volume   410.47404265
_cell_formula_units_Z   1
loop_
 _symmetry_equiv_pos_site_id
 _symmetry_equiv_pos_as_xyz
  1  'x, y, z'
loop_
 _atom_site_type_symbol
 _atom_site_label
 _atom_site_symmetry_multiplicity
 _atom_site_fract_x
 _atom_site_fract_y
 _atom_site_fract_z
 _atom_site_occupancy
  Lu  Lu0  1  0.678745  0.873046  0.194301  1
  Lu  Lu1  1  0.321255  0.515556  0.194301  1
  Lu  Lu2  1  0.820640  0.777883  0.598523  1
  Lu  Lu3  1  0.179360  0.777883  0.957243  1
  Lu  Lu4  1  0.820640  0.222117  0.042757  1
  Lu  Lu5  1  0.179360  0.222117  0.401477  1
  Lu  Lu6  1  0.678745  0.484444  0.805699  1
  Lu  Lu7  1  0.321255  0.126954  0.805699  1
  Lu  Lu8  1  0.583111  0.275565  0.307545  1
  Lu  Lu9  1  0.416889  0.724435  0.692455  1
  Lu  Lu10  1  0.031980  0.724435  0.307545  1
  Lu  Lu11  1  0.968020  0.275565  0.692455  1
  Ni  Ni12  1  0.356325  0.500000  0.856325  1
  Ni  Ni13  1  0.643675  0.500000  0.143675  1
  Ni  Ni14  1  0.879774  0.879774  0.000000  1
  Ni  Ni15  1  0.120226  0.120226  0.000000  1
  Sn  Sn16  1  0.500000  0.000000  0.500000  1
  Os  Os17  1  0.000000  0.500000  0.500000  1
