# generated using pymatgen
data_Ho8Tm12Si15Hg
_symmetry_space_group_name_H-M   'P 1'
_cell_length_a   7.33412134
_cell_length_b   7.62962321
_cell_length_c   14.49239804
_cell_angle_alpha   89.88544639
_cell_angle_beta   89.32072995
_cell_angle_gamma   90.00195109
_symmetry_Int_Tables_number   1
_chemical_formula_structural   Ho8Tm12Si15Hg
_chemical_formula_sum   'Ho8 Tm12 Si15 Hg1'
_cell_volume   810.88645381
_cell_formula_units_Z   1
loop_
 _symmetry_equiv_pos_site_id
 _symmetry_equiv_pos_as_xyz
  1  'x, y, z'
loop_
 _atom_site_type_symbol
 _atom_site_label
 _atom_site_symmetry_multiplicity
 _atom_site_fract_x
 _atom_site_fract_y
 _atom_site_fract_z
 _atom_site_occupancy
  Ho  Ho0  1  0.016769  0.178903  0.098240  1
  Ho  Ho1  1  0.982516  0.821707  0.904009  1
  Ho  Ho2  1  0.482971  0.680802  0.903746  1
  Ho  Ho3  1  0.986160  0.829307  0.598776  1
  Ho  Ho4  1  0.515794  0.319146  0.097231  1
  Ho  Ho5  1  0.010824  0.173322  0.398009  1
  Ho  Ho6  1  0.513986  0.318073  0.398820  1
  Ho  Ho7  1  0.492815  0.686570  0.600281  1
  Tm  Tm8  1  0.163624  0.509152  0.752720  1
  Tm  Tm9  1  0.836354  0.490787  0.250698  1
  Tm  Tm10  1  0.336206  0.007915  0.249544  1
  Tm  Tm11  1  0.666198  0.989237  0.751059  1
  Tm  Tm12  1  0.339708  0.169393  0.626110  1
  Tm  Tm13  1  0.664536  0.823627  0.375664  1
  Tm  Tm14  1  0.167169  0.678559  0.372486  1
  Tm  Tm15  1  0.670400  0.821750  0.122730  1
  Tm  Tm16  1  0.828029  0.325385  0.623737  1
  Tm  Tm17  1  0.328486  0.177547  0.877946  1
  Tm  Tm18  1  0.827680  0.320590  0.878031  1
  Tm  Tm19  1  0.170529  0.678591  0.123379  1
  Si  Si20  1  0.037047  0.112076  0.752076  1
  Si  Si21  1  0.962912  0.892409  0.247975  1
  Si  Si22  1  0.465556  0.606475  0.247912  1
  Si  Si23  1  0.534723  0.393712  0.751928  1
  Si  Si24  1  0.280775  0.872174  0.752293  1
  Si  Si25  1  0.717022  0.128790  0.247577  1
  Si  Si26  1  0.217814  0.368633  0.247641  1
  Si  Si27  1  0.783787  0.629249  0.753231  1
  Si  Si28  1  0.831824  0.532748  0.458461  1
  Si  Si29  1  0.333145  0.966260  0.459491  1
  Si  Si30  1  0.844008  0.532015  0.038528  1
  Si  Si31  1  0.665322  0.034385  0.538149  1
  Si  Si32  1  0.154709  0.467100  0.962471  1
  Si  Si33  1  0.655906  0.030787  0.960784  1
  Si  Si34  1  0.342980  0.968810  0.039871  1
  Hg  Hg35  1  0.171716  0.464007  0.538397  1
