# generated using pymatgen
data_Hf4CrSi4Ir3
_symmetry_space_group_name_H-M   'P 1'
_cell_length_a   3.94891600
_cell_length_b   6.45345460
_cell_length_c   7.47588855
_cell_angle_alpha   90.06246886
_cell_angle_beta   90.00000000
_cell_angle_gamma   90.00000000
_symmetry_Int_Tables_number   1
_chemical_formula_structural   Hf4CrSi4Ir3
_chemical_formula_sum   'Hf4 Cr1 Si4 Ir3'
_cell_volume   190.51655313
_cell_formula_units_Z   1
loop_
 _symmetry_equiv_pos_site_id
 _symmetry_equiv_pos_as_xyz
  1  'x, y, z'
loop_
 _atom_site_type_symbol
 _atom_site_label
 _atom_site_symmetry_multiplicity
 _atom_site_fract_x
 _atom_site_fract_y
 _atom_site_fract_z
 _atom_site_occupancy
  Hf  Hf0  1  0.750000  0.474488  0.182995  1
  Hf  Hf1  1  0.750000  0.981024  0.315218  1
  Hf  Hf2  1  0.250000  0.511569  0.818796  1
  Hf  Hf3  1  0.250000  0.024954  0.679773  1
  Cr  Cr4  1  0.250000  0.158055  0.062897  1
  Si  Si5  1  0.750000  0.219589  0.880890  1
  Si  Si6  1  0.750000  0.723493  0.623622  1
  Si  Si7  1  0.250000  0.779423  0.120272  1
  Si  Si8  1  0.250000  0.277953  0.372651  1
  Ir  Ir9  1  0.750000  0.343849  0.566638  1
  Ir  Ir10  1  0.750000  0.845747  0.937063  1
  Ir  Ir11  1  0.250000  0.659855  0.439186  1
