# generated using pymatgen
data_InSb2Rh(SeO3)8
_symmetry_space_group_name_H-M   'P 1'
_cell_length_a   8.33467960
_cell_length_b   8.19189603
_cell_length_c   8.32012815
_cell_angle_alpha   89.29398164
_cell_angle_beta   89.68777787
_cell_angle_gamma   90.11889233
_symmetry_Int_Tables_number   1
_chemical_formula_structural   InSb2Rh(SeO3)8
_chemical_formula_sum   'In1 Sb2 Rh1 Se8 O24'
_cell_volume   568.01910034
_cell_formula_units_Z   1
loop_
 _symmetry_equiv_pos_site_id
 _symmetry_equiv_pos_as_xyz
  1  'x, y, z'
loop_
 _atom_site_type_symbol
 _atom_site_label
 _atom_site_symmetry_multiplicity
 _atom_site_fract_x
 _atom_site_fract_y
 _atom_site_fract_z
 _atom_site_occupancy
  In  In0  1  0.000000  0.500000  0.000000  1
  Sb  Sb1  1  0.000000  0.000000  0.500000  1
  Sb  Sb2  1  0.500000  0.000000  0.000000  1
  Rh  Rh3  1  0.500000  0.500000  0.500000  1
  Se  Se4  1  0.343965  0.659311  0.179701  1
  Se  Se5  1  0.821455  0.339998  0.346992  1
  Se  Se6  1  0.667208  0.814721  0.666201  1
  Se  Se7  1  0.172531  0.160848  0.829713  1
  Se  Se8  1  0.656035  0.340689  0.820299  1
  Se  Se9  1  0.178545  0.660002  0.653008  1
  Se  Se10  1  0.332792  0.185279  0.333799  1
  Se  Se11  1  0.827469  0.839152  0.170287  1
  O  O12  1  0.253488  0.541694  0.040034  1
  O  O13  1  0.743893  0.470176  0.489061  1
  O  O14  1  0.762081  0.964003  0.540754  1
  O  O15  1  0.261986  0.009924  0.956149  1
  O  O16  1  0.540999  0.957628  0.762224  1
  O  O17  1  0.479758  0.519762  0.255770  1
  O  O18  1  0.955202  0.467593  0.254302  1
  O  O19  1  0.038517  0.020962  0.738708  1
  O  O20  1  0.963849  0.240053  0.480073  1
  O  O21  1  0.533146  0.747052  0.527018  1
  O  O22  1  0.488170  0.761193  0.046213  1
  O  O23  1  0.045837  0.240302  0.965876  1
  O  O24  1  0.746512  0.458306  0.959966  1
  O  O25  1  0.256107  0.529824  0.510939  1
  O  O26  1  0.237919  0.035997  0.459246  1
  O  O27  1  0.738014  0.990076  0.043851  1
  O  O28  1  0.459001  0.042372  0.237776  1
  O  O29  1  0.520242  0.480238  0.744230  1
  O  O30  1  0.044798  0.532407  0.745698  1
  O  O31  1  0.961483  0.979038  0.261292  1
  O  O32  1  0.036151  0.759947  0.519927  1
  O  O33  1  0.466854  0.252948  0.472982  1
  O  O34  1  0.511830  0.238807  0.953787  1
  O  O35  1  0.954163  0.759698  0.034124  1
