# generated using pymatgen
data_SrBiB4SbO10
_symmetry_space_group_name_H-M   'P 1'
_cell_length_a   6.86123304
_cell_length_b   7.08680544
_cell_length_c   9.89860411
_cell_angle_alpha   96.83516191
_cell_angle_beta   109.67021251
_cell_angle_gamma   99.79502803
_symmetry_Int_Tables_number   1
_chemical_formula_structural   SrBiB4SbO10
_chemical_formula_sum   'Sr2 Bi2 B8 Sb2 O20'
_cell_volume   438.48540046
_cell_formula_units_Z   2
loop_
 _symmetry_equiv_pos_site_id
 _symmetry_equiv_pos_as_xyz
  1  'x, y, z'
loop_
 _atom_site_type_symbol
 _atom_site_label
 _atom_site_symmetry_multiplicity
 _atom_site_fract_x
 _atom_site_fract_y
 _atom_site_fract_z
 _atom_site_occupancy
  Sr  Sr0  1  0.035094  0.848392  0.160127  1
  Sr  Sr1  1  0.964906  0.151608  0.839873  1
  Bi  Bi2  1  0.697666  0.023115  0.399359  1
  Bi  Bi3  1  0.302334  0.976885  0.600641  1
  B  B4  1  0.399630  0.203039  0.082332  1
  B  B5  1  0.600370  0.796961  0.917668  1
  B  B6  1  0.854097  0.620693  0.368012  1
  B  B7  1  0.145903  0.379307  0.631988  1
  B  B8  1  0.418583  0.757944  0.090108  1
  B  B9  1  0.198931  0.691453  0.819360  1
  B  B10  1  0.801069  0.308547  0.180640  1
  B  B11  1  0.581417  0.242056  0.909892  1
  Sb  Sb12  1  0.745054  0.654203  0.652968  1
  Sb  Sb13  1  0.254946  0.345797  0.347032  1
  O  O14  1  0.075528  0.177319  0.611343  1
  O  O15  1  0.646608  0.888448  0.582302  1
  O  O16  1  0.606100  0.781618  0.059871  1
  O  O17  1  0.405818  0.768482  0.807332  1
  O  O18  1  0.594182  0.231518  0.192668  1
  O  O19  1  0.353392  0.111552  0.417698  1
  O  O20  1  0.214224  0.159199  0.102312  1
  O  O21  1  0.776759  0.290251  0.022922  1
  O  O22  1  0.223241  0.709749  0.977078  1
  O  O23  1  0.768456  0.532284  0.457029  1
  O  O24  1  0.882252  0.519142  0.248173  1
  O  O25  1  0.947605  0.193223  0.259180  1
  O  O26  1  0.571437  0.207467  0.769170  1
  O  O27  1  0.785776  0.840801  0.897688  1
  O  O28  1  0.117748  0.480858  0.751827  1
  O  O29  1  0.231544  0.467716  0.542971  1
  O  O30  1  0.052395  0.806777  0.740820  1
  O  O31  1  0.924472  0.822681  0.388657  1
  O  O32  1  0.428563  0.792533  0.230830  1
  O  O33  1  0.393900  0.218382  0.940129  1
