# generated using pymatgen
data_LaPr4Nd3(InSi2)4
_symmetry_space_group_name_H-M   'P 1'
_cell_length_a   4.38147800
_cell_length_b   7.58740791
_cell_length_c   14.76571602
_cell_angle_alpha   89.76752200
_cell_angle_beta   90.00000000
_cell_angle_gamma   90.00000000
_symmetry_Int_Tables_number   1
_chemical_formula_structural   LaPr4Nd3(InSi2)4
_chemical_formula_sum   'La1 Pr4 Nd3 In4 Si8'
_cell_volume   490.86832059
_cell_formula_units_Z   1
loop_
 _symmetry_equiv_pos_site_id
 _symmetry_equiv_pos_as_xyz
  1  'x, y, z'
loop_
 _atom_site_type_symbol
 _atom_site_label
 _atom_site_symmetry_multiplicity
 _atom_site_fract_x
 _atom_site_fract_y
 _atom_site_fract_z
 _atom_site_occupancy
  La  La0  1  0.500000  0.886198  0.783048  1
  Pr  Pr1  1  0.500000  0.753170  0.036565  1
  Pr  Pr2  1  0.500000  0.248620  0.965062  1
  Pr  Pr3  1  0.500000  0.251872  0.463926  1
  Pr  Pr4  1  0.500000  0.746380  0.534876  1
  Nd  Nd5  1  0.500000  0.613365  0.283479  1
  Nd  Nd6  1  0.500000  0.386621  0.715974  1
  Nd  Nd7  1  0.500000  0.113254  0.216802  1
  In  In8  1  0.000000  0.938188  0.377039  1
  In  In9  1  0.000000  0.064507  0.621409  1
  In  In10  1  0.000000  0.437601  0.123247  1
  In  In11  1  0.000000  0.558958  0.877745  1
  Si  Si12  1  0.000000  0.553223  0.423023  1
  Si  Si13  1  0.000000  0.444306  0.575833  1
  Si  Si14  1  0.000000  0.055114  0.077473  1
  Si  Si15  1  0.000000  0.948706  0.924806  1
  Si  Si16  1  0.000000  0.819135  0.185210  1
  Si  Si17  1  0.000000  0.183855  0.816127  1
  Si  Si18  1  0.000000  0.319353  0.314795  1
  Si  Si19  1  0.000000  0.677570  0.683559  1
