# generated using pymatgen
data_Ho16Zr4Ir7Rh5
_symmetry_space_group_name_H-M   'P 1'
_cell_length_a   10.80412232
_cell_length_b   10.80412232
_cell_length_c   6.24937530
_cell_angle_alpha   90.02508132
_cell_angle_beta   90.02508132
_cell_angle_gamma   90.01209903
_symmetry_Int_Tables_number   1
_chemical_formula_structural   Ho16Zr4Ir7Rh5
_chemical_formula_sum   'Ho16 Zr4 Ir7 Rh5'
_cell_volume   729.48354249
_cell_formula_units_Z   1
loop_
 _symmetry_equiv_pos_site_id
 _symmetry_equiv_pos_as_xyz
  1  'x, y, z'
loop_
 _atom_site_type_symbol
 _atom_site_label
 _atom_site_symmetry_multiplicity
 _atom_site_fract_x
 _atom_site_fract_y
 _atom_site_fract_z
 _atom_site_occupancy
  Ho  Ho0  1  0.289123  0.087447  0.374728  1
  Ho  Ho1  1  0.289204  0.912474  0.874280  1
  Ho  Ho2  1  0.710391  0.087378  0.873918  1
  Ho  Ho3  1  0.710552  0.911486  0.374852  1
  Ho  Ho4  1  0.587440  0.789229  0.874611  1
  Ho  Ho5  1  0.586346  0.211090  0.375014  1
  Ho  Ho6  1  0.412454  0.789221  0.374711  1
  Ho  Ho7  1  0.412502  0.210799  0.874624  1
  Ho  Ho8  1  0.210771  0.412560  0.625389  1
  Ho  Ho9  1  0.210779  0.587546  0.125289  1
  Ho  Ho10  1  0.788910  0.413654  0.124986  1
  Ho  Ho11  1  0.789201  0.587498  0.625376  1
  Ho  Ho12  1  0.912553  0.710877  0.125272  1
  Ho  Ho13  1  0.912622  0.289609  0.626082  1
  Ho  Ho14  1  0.087526  0.710796  0.625720  1
  Ho  Ho15  1  0.088514  0.289448  0.125148  1
  Zr  Zr16  1  0.000416  0.999661  0.500148  1
  Zr  Zr17  1  0.000339  0.999584  0.999852  1
  Zr  Zr18  1  0.500008  0.500033  0.999814  1
  Zr  Zr19  1  0.499967  0.499992  0.500186  1
  Ir  Ir20  1  0.853681  0.854289  0.749795  1
  Ir  Ir21  1  0.145711  0.146319  0.750205  1
  Ir  Ir22  1  0.146399  0.853601  0.250000  1
  Ir  Ir23  1  0.646786  0.353214  0.750000  1
  Ir  Ir24  1  0.646521  0.646344  0.249957  1
  Ir  Ir25  1  0.353656  0.353479  0.250043  1
  Ir  Ir26  1  0.353666  0.646334  0.750000  1
  Rh  Rh27  1  0.853448  0.146552  0.250000  1
  Rh  Rh28  1  0.500551  0.000161  0.121022  1
  Rh  Rh29  1  0.500325  0.000200  0.620586  1
  Rh  Rh30  1  0.999800  0.499675  0.879414  1
  Rh  Rh31  1  0.999839  0.499449  0.378978  1
