# generated using pymatgen
data_TmLu3Al24IrPt8
_symmetry_space_group_name_H-M   'P 1'
_cell_length_a   7.49906757
_cell_length_b   7.52505423
_cell_length_c   13.11703722
_cell_angle_alpha   84.67840904
_cell_angle_beta   79.14694481
_cell_angle_gamma   59.89852867
_symmetry_Int_Tables_number   1
_chemical_formula_structural   TmLu3Al24IrPt8
_chemical_formula_sum   'Tm1 Lu3 Al24 Ir1 Pt8'
_cell_volume   628.92528377
_cell_formula_units_Z   1
loop_
 _symmetry_equiv_pos_site_id
 _symmetry_equiv_pos_as_xyz
  1  'x, y, z'
loop_
 _atom_site_type_symbol
 _atom_site_label
 _atom_site_symmetry_multiplicity
 _atom_site_fract_x
 _atom_site_fract_y
 _atom_site_fract_z
 _atom_site_occupancy
  Tm  Tm0  1  0.393592  0.169106  0.808176  1
  Lu  Lu1  1  0.606429  0.830799  0.191938  1
  Lu  Lu2  1  0.734541  0.498652  0.807990  1
  Lu  Lu3  1  0.265455  0.501363  0.191980  1
  Al  Al4  1  0.686164  0.830742  0.944731  1
  Al  Al5  1  0.313938  0.169109  0.055398  1
  Al  Al6  1  0.146516  0.832019  0.561925  1
  Al  Al7  1  0.853478  0.167979  0.438105  1
  Al  Al8  1  0.479882  0.166580  0.559062  1
  Al  Al9  1  0.520114  0.833415  0.440922  1
  Al  Al10  1  0.218378  0.165152  0.326763  1
  Al  Al11  1  0.781805  0.834681  0.673177  1
  Al  Al12  1  0.436395  0.506864  0.673043  1
  Al  Al13  1  0.563629  0.493311  0.326897  1
  Al  Al14  1  0.108740  0.160426  0.671140  1
  Al  Al15  1  0.891122  0.839565  0.328791  1
  Al  Al16  1  0.350870  0.498638  0.944933  1
  Al  Al17  1  0.649109  0.501526  0.055127  1
  Al  Al18  1  0.015617  0.172103  0.952857  1
  Al  Al19  1  0.984222  0.827914  0.047201  1
  Al  Al20  1  0.186582  0.499591  0.441057  1
  Al  Al21  1  0.813400  0.500419  0.558975  1
  Al  Al22  1  0.733320  0.163838  0.182771  1
  Al  Al23  1  0.266638  0.836017  0.817223  1
  Al  Al24  1  0.060936  0.629105  0.817604  1
  Al  Al25  1  0.938932  0.371077  0.182393  1
  Al  Al26  1  0.854865  0.042548  0.816593  1
  Al  Al27  1  0.145311  0.957398  0.183400  1
  Ir  Ir28  1  0.999930  0.500080  0.000051  1
  Pt  Pt29  1  0.119517  0.491461  0.639418  1
  Pt  Pt30  1  0.880342  0.508705  0.360482  1
  Pt  Pt31  1  0.657208  0.171419  0.999734  1
  Pt  Pt32  1  0.342829  0.828562  0.000309  1
  Pt  Pt33  1  0.537197  0.166854  0.360939  1
  Pt  Pt34  1  0.462836  0.832991  0.638990  1
  Pt  Pt35  1  0.778020  0.175597  0.637604  1
  Pt  Pt36  1  0.222141  0.824397  0.362300  1
