# generated using pymatgen
data_CeTmMn6P7Ir6
_symmetry_space_group_name_H-M   'P 1'
_cell_length_a   9.38695200
_cell_length_b   9.38695259
_cell_length_c   3.87052000
_cell_angle_alpha   90.00000000
_cell_angle_beta   90.00000000
_cell_angle_gamma   119.99999887
_symmetry_Int_Tables_number   1
_chemical_formula_structural   CeTmMn6P7Ir6
_chemical_formula_sum   'Ce1 Tm1 Mn6 P7 Ir6'
_cell_volume   295.35829621
_cell_formula_units_Z   1
loop_
 _symmetry_equiv_pos_site_id
 _symmetry_equiv_pos_as_xyz
  1  'x, y, z'
loop_
 _atom_site_type_symbol
 _atom_site_label
 _atom_site_symmetry_multiplicity
 _atom_site_fract_x
 _atom_site_fract_y
 _atom_site_fract_z
 _atom_site_occupancy
  Ce  Ce0  1  0.000000  0.000000  0.000000  1
  Tm  Tm1  1  0.666667  0.333333  0.500000  1
  Mn  Mn2  1  0.223105  0.396389  0.000000  1
  Mn  Mn3  1  0.603611  0.826716  0.000000  1
  Mn  Mn4  1  0.173284  0.776895  0.000000  1
  Mn  Mn5  1  0.452445  0.572071  0.500000  1
  Mn  Mn6  1  0.427929  0.880375  0.500000  1
  Mn  Mn7  1  0.119625  0.547555  0.500000  1
  P  P8  1  0.444617  0.366476  0.000000  1
  P  P9  1  0.633524  0.078141  0.000000  1
  P  P10  1  0.921859  0.555383  0.000000  1
  P  P11  1  0.056132  0.275282  0.500000  1
  P  P12  1  0.724718  0.780851  0.500000  1
  P  P13  1  0.219149  0.943868  0.500000  1
  P  P14  1  0.333333  0.666667  0.000000  1
  Ir  Ir15  1  0.694683  0.600878  0.000000  1
  Ir  Ir16  1  0.399122  0.093806  0.000000  1
  Ir  Ir17  1  0.906194  0.305317  0.000000  1
  Ir  Ir18  1  0.280417  0.226655  0.500000  1
  Ir  Ir19  1  0.773345  0.053762  0.500000  1
  Ir  Ir20  1  0.946238  0.719583  0.500000  1
