# generated using pymatgen
data_Er2Co2P6IrRh7
_symmetry_space_group_name_H-M   'P 1'
_cell_length_a   3.83370000
_cell_length_b   10.75612600
_cell_length_c   12.39020500
_cell_angle_alpha   90.00000000
_cell_angle_beta   90.00000000
_cell_angle_gamma   90.00000000
_symmetry_Int_Tables_number   1
_chemical_formula_structural   Er2Co2P6IrRh7
_chemical_formula_sum   'Er4 Co4 P12 Ir2 Rh14'
_cell_volume   510.91952278
_cell_formula_units_Z   2
loop_
 _symmetry_equiv_pos_site_id
 _symmetry_equiv_pos_as_xyz
  1  'x, y, z'
loop_
 _atom_site_type_symbol
 _atom_site_label
 _atom_site_symmetry_multiplicity
 _atom_site_fract_x
 _atom_site_fract_y
 _atom_site_fract_z
 _atom_site_occupancy
  Er  Er0  1  0.250000  0.584325  0.707911  1
  Er  Er1  1  0.250000  0.915675  0.207911  1
  Er  Er2  1  0.750000  0.415932  0.291954  1
  Er  Er3  1  0.750000  0.084068  0.791954  1
  Co  Co4  1  0.250000  0.462112  0.933630  1
  Co  Co5  1  0.250000  0.037888  0.433630  1
  Co  Co6  1  0.750000  0.536581  0.066232  1
  Co  Co7  1  0.750000  0.963419  0.566232  1
  P  P8  1  0.250000  0.425141  0.106709  1
  P  P9  1  0.250000  0.074859  0.606709  1
  P  P10  1  0.750000  0.575612  0.894084  1
  P  P11  1  0.750000  0.924388  0.394084  1
  P  P12  1  0.250000  0.269977  0.871647  1
  P  P13  1  0.250000  0.230023  0.371647  1
  P  P14  1  0.750000  0.728983  0.127696  1
  P  P15  1  0.750000  0.771017  0.627696  1
  P  P16  1  0.250000  0.599739  0.388039  1
  P  P17  1  0.250000  0.900261  0.888039  1
  P  P18  1  0.750000  0.401724  0.612119  1
  P  P19  1  0.750000  0.098276  0.112119  1
  Ir  Ir20  1  0.750000  0.113826  0.301240  1
  Ir  Ir21  1  0.750000  0.386174  0.801240  1
  Rh  Rh22  1  0.250000  0.715238  0.987073  1
  Rh  Rh23  1  0.250000  0.784762  0.487073  1
  Rh  Rh24  1  0.750000  0.284414  0.013984  1
  Rh  Rh25  1  0.750000  0.215586  0.513984  1
  Rh  Rh26  1  0.250000  0.408291  0.478832  1
  Rh  Rh27  1  0.250000  0.091709  0.978832  1
  Rh  Rh28  1  0.750000  0.591955  0.520267  1
  Rh  Rh29  1  0.750000  0.908045  0.020267  1
  Rh  Rh30  1  0.250000  0.229214  0.178212  1
  Rh  Rh31  1  0.250000  0.270786  0.678212  1
  Rh  Rh32  1  0.750000  0.770622  0.821165  1
  Rh  Rh33  1  0.750000  0.729378  0.321165  1
  Rh  Rh34  1  0.250000  0.886401  0.699206  1
  Rh  Rh35  1  0.250000  0.613599  0.199206  1
