# generated using pymatgen
data_Ce3Zn2PdPt2Au
_symmetry_space_group_name_H-M   'P 1'
_cell_length_a   7.45822506
_cell_length_b   7.62916013
_cell_length_c   3.86625200
_cell_angle_alpha   90.00000000
_cell_angle_beta   90.00000000
_cell_angle_gamma   120.76108149
_symmetry_Int_Tables_number   1
_chemical_formula_structural   Ce3Zn2PdPt2Au
_chemical_formula_sum   'Ce3 Zn2 Pd1 Pt2 Au1'
_cell_volume   189.03881173
_cell_formula_units_Z   1
loop_
 _symmetry_equiv_pos_site_id
 _symmetry_equiv_pos_as_xyz
  1  'x, y, z'
loop_
 _atom_site_type_symbol
 _atom_site_label
 _atom_site_symmetry_multiplicity
 _atom_site_fract_x
 _atom_site_fract_y
 _atom_site_fract_z
 _atom_site_occupancy
  Ce  Ce0  1  0.000000  0.409674  0.000000  1
  Ce  Ce1  1  0.601692  0.595803  0.000000  1
  Ce  Ce2  1  0.398308  0.994110  0.000000  1
  Zn  Zn3  1  0.253687  0.253668  0.500000  1
  Zn  Zn4  1  0.746313  0.999981  0.500000  1
  Pd  Pd5  1  0.000000  0.027227  0.000000  1
  Pt  Pt6  1  0.652528  0.312308  0.500000  1
  Pt  Pt7  1  0.347472  0.659781  0.500000  1
  Au  Au8  1  0.000000  0.747448  0.500000  1
