# generated using pymatgen
data_Mg2Ni8P7Ru4
_symmetry_space_group_name_H-M   'P 1'
_cell_length_a   9.22862919
_cell_length_b   9.23404967
_cell_length_c   3.60857200
_cell_angle_alpha   90.00000000
_cell_angle_beta   90.00000000
_cell_angle_gamma   119.48589017
_symmetry_Int_Tables_number   1
_chemical_formula_structural   Mg2Ni8P7Ru4
_chemical_formula_sum   'Mg2 Ni8 P7 Ru4'
_cell_volume   267.68377323
_cell_formula_units_Z   1
loop_
 _symmetry_equiv_pos_site_id
 _symmetry_equiv_pos_as_xyz
  1  'x, y, z'
loop_
 _atom_site_type_symbol
 _atom_site_label
 _atom_site_symmetry_multiplicity
 _atom_site_fract_x
 _atom_site_fract_y
 _atom_site_fract_z
 _atom_site_occupancy
  Mg  Mg0  1  0.664728  0.330281  0.000000  1
  Mg  Mg1  1  0.330593  0.664535  0.500000  1
  Ni  Ni2  1  0.073197  0.638170  0.000000  1
  Ni  Ni3  1  0.571803  0.930209  0.000000  1
  Ni  Ni4  1  0.361568  0.432307  0.000000  1
  Ni  Ni5  1  0.275720  0.121253  0.000000  1
  Ni  Ni6  1  0.837717  0.722176  0.000000  1
  Ni  Ni7  1  0.886597  0.155323  0.000000  1
  Ni  Ni8  1  0.792464  0.917730  0.500000  1
  Ni  Ni9  1  0.129228  0.218256  0.500000  1
  P  P10  1  0.299392  0.880652  0.000000  1
  P  P11  1  0.577928  0.698263  0.000000  1
  P  P12  1  0.119320  0.416140  0.000000  1
  P  P13  1  0.401660  0.286648  0.500000  1
  P  P14  1  0.883202  0.596413  0.500000  1
  P  P15  1  0.714980  0.114873  0.500000  1
  P  P16  1  0.000952  0.997769  0.000000  1
  Ru  Ru17  1  0.440970  0.050629  0.500000  1
  Ru  Ru18  1  0.610998  0.560467  0.500000  1
  Ru  Ru19  1  0.947855  0.387445  0.500000  1
  Ru  Ru20  1  0.079130  0.880457  0.500000  1
