# generated using pymatgen
data_AcBeCo12
_symmetry_space_group_name_H-M   'P 1'
_cell_length_a   7.95211919
_cell_length_b   7.95212058
_cell_length_c   7.95212100
_cell_angle_alpha   59.99999410
_cell_angle_beta   59.99999664
_cell_angle_gamma   59.99999938
_symmetry_Int_Tables_number   1
_chemical_formula_structural   AcBeCo12
_chemical_formula_sum   'Ac2 Be2 Co24'
_cell_volume   355.57710285
_cell_formula_units_Z   2
loop_
 _symmetry_equiv_pos_site_id
 _symmetry_equiv_pos_as_xyz
  1  'x, y, z'
loop_
 _atom_site_type_symbol
 _atom_site_label
 _atom_site_symmetry_multiplicity
 _atom_site_fract_x
 _atom_site_fract_y
 _atom_site_fract_z
 _atom_site_occupancy
  Ac  Ac0  1  0.250000  0.250000  0.250000  1
  Ac  Ac1  1  0.750000  0.750000  0.750000  1
  Be  Be2  1  0.500000  0.500000  0.500000  1
  Be  Be3  1  0.000000  0.000000  0.000000  1
  Co  Co4  1  0.791147  0.560495  0.208853  1
  Co  Co5  1  0.208853  0.439505  0.791147  1
  Co  Co6  1  0.560495  0.791147  0.439505  1
  Co  Co7  1  0.439505  0.208853  0.560495  1
  Co  Co8  1  0.291147  0.939505  0.708853  1
  Co  Co9  1  0.708853  0.060495  0.291147  1
  Co  Co10  1  0.939505  0.291147  0.060495  1
  Co  Co11  1  0.060495  0.708853  0.939505  1
  Co  Co12  1  0.208853  0.791147  0.560495  1
  Co  Co13  1  0.791147  0.208853  0.439505  1
  Co  Co14  1  0.439505  0.560495  0.791147  1
  Co  Co15  1  0.560495  0.439505  0.208853  1
  Co  Co16  1  0.708853  0.291147  0.939505  1
  Co  Co17  1  0.291147  0.708853  0.060495  1
  Co  Co18  1  0.060495  0.939505  0.291147  1
  Co  Co19  1  0.939505  0.060495  0.708853  1
  Co  Co20  1  0.560495  0.208853  0.791147  1
  Co  Co21  1  0.439505  0.791147  0.208853  1
  Co  Co22  1  0.791147  0.439505  0.560495  1
  Co  Co23  1  0.208853  0.560495  0.439505  1
  Co  Co24  1  0.939505  0.708853  0.291147  1
  Co  Co25  1  0.060495  0.291147  0.708853  1
  Co  Co26  1  0.291147  0.060495  0.939505  1
  Co  Co27  1  0.708853  0.939505  0.060495  1
