# generated using pymatgen
data_LiTb2(LuSn2)2
_symmetry_space_group_name_H-M   'P 1'
_cell_length_a   7.54515800
_cell_length_b   8.16404900
_cell_length_c   15.45658200
_cell_angle_alpha   90.00000000
_cell_angle_beta   90.00000000
_cell_angle_gamma   90.00000000
_symmetry_Int_Tables_number   1
_chemical_formula_structural   LiTb2(LuSn2)2
_chemical_formula_sum   'Li4 Tb8 Lu8 Sn16'
_cell_volume   952.11060708
_cell_formula_units_Z   4
loop_
 _symmetry_equiv_pos_site_id
 _symmetry_equiv_pos_as_xyz
  1  'x, y, z'
loop_
 _atom_site_type_symbol
 _atom_site_label
 _atom_site_symmetry_multiplicity
 _atom_site_fract_x
 _atom_site_fract_y
 _atom_site_fract_z
 _atom_site_occupancy
  Li  Li0  1  0.170660  0.489001  0.750000  1
  Li  Li1  1  0.670660  0.010999  0.750000  1
  Li  Li2  1  0.829340  0.510999  0.250000  1
  Li  Li3  1  0.329340  0.989001  0.250000  1
  Tb  Tb4  1  0.503689  0.314632  0.906427  1
  Tb  Tb5  1  0.003689  0.185368  0.593573  1
  Tb  Tb6  1  0.496311  0.685368  0.406427  1
  Tb  Tb7  1  0.996311  0.814632  0.093573  1
  Tb  Tb8  1  0.496311  0.685368  0.093573  1
  Tb  Tb9  1  0.996311  0.814632  0.406427  1
  Tb  Tb10  1  0.503689  0.314632  0.593573  1
  Tb  Tb11  1  0.003689  0.185368  0.906427  1
  Lu  Lu12  1  0.339511  0.832477  0.871906  1
  Lu  Lu13  1  0.839511  0.667523  0.628094  1
  Lu  Lu14  1  0.660489  0.167523  0.371906  1
  Lu  Lu15  1  0.160489  0.332477  0.128094  1
  Lu  Lu16  1  0.660489  0.167523  0.128094  1
  Lu  Lu17  1  0.160489  0.332477  0.371906  1
  Lu  Lu18  1  0.339511  0.832477  0.628094  1
  Lu  Lu19  1  0.839511  0.667523  0.871906  1
  Sn  Sn20  1  0.317572  0.039729  0.039084  1
  Sn  Sn21  1  0.817572  0.460271  0.460916  1
  Sn  Sn22  1  0.682428  0.960271  0.539084  1
  Sn  Sn23  1  0.182428  0.539729  0.960916  1
  Sn  Sn24  1  0.682428  0.960271  0.960916  1
  Sn  Sn25  1  0.182428  0.539729  0.539084  1
  Sn  Sn26  1  0.317572  0.039729  0.460916  1
  Sn  Sn27  1  0.817572  0.460271  0.039084  1
  Sn  Sn28  1  0.524633  0.598101  0.750000  1
  Sn  Sn29  1  0.024633  0.901899  0.750000  1
  Sn  Sn30  1  0.475367  0.401899  0.250000  1
  Sn  Sn31  1  0.975367  0.098101  0.250000  1
  Sn  Sn32  1  0.307430  0.145962  0.750000  1
  Sn  Sn33  1  0.807430  0.354038  0.750000  1
  Sn  Sn34  1  0.692570  0.854038  0.250000  1
  Sn  Sn35  1  0.192570  0.645962  0.250000  1
