# generated using pymatgen
data_Ho2ErCu12
_symmetry_space_group_name_H-M   'P 1'
_cell_length_a   4.98954746
_cell_length_b   4.98954700
_cell_length_c   10.53902307
_cell_angle_alpha   94.85263310
_cell_angle_beta   94.85263495
_cell_angle_gamma   119.58036704
_symmetry_Int_Tables_number   1
_chemical_formula_structural   Ho2ErCu12
_chemical_formula_sum   'Ho2 Er1 Cu12'
_cell_volume   224.93040698
_cell_formula_units_Z   1
loop_
 _symmetry_equiv_pos_site_id
 _symmetry_equiv_pos_as_xyz
  1  'x, y, z'
loop_
 _atom_site_type_symbol
 _atom_site_label
 _atom_site_symmetry_multiplicity
 _atom_site_fract_x
 _atom_site_fract_y
 _atom_site_fract_z
 _atom_site_occupancy
  Ho  Ho0  1  0.999925  0.999925  0.000548  1
  Ho  Ho1  1  0.866604  0.866604  0.642193  1
  Er  Er2  1  0.133669  0.133669  0.357566  1
  Cu  Cu3  1  0.662834  0.335717  0.999532  1
  Cu  Cu4  1  0.335717  0.662834  0.999532  1
  Cu  Cu5  1  0.570784  0.070483  0.197178  1
  Cu  Cu6  1  0.070483  0.570784  0.197178  1
  Cu  Cu7  1  0.571228  0.571228  0.202882  1
  Cu  Cu8  1  0.808155  0.473593  0.405725  1
  Cu  Cu9  1  0.473593  0.808155  0.405725  1
  Cu  Cu10  1  0.526088  0.191754  0.593984  1
  Cu  Cu11  1  0.191754  0.526088  0.593984  1
  Cu  Cu12  1  0.428720  0.428720  0.796622  1
  Cu  Cu13  1  0.930580  0.429866  0.803676  1
  Cu  Cu14  1  0.429866  0.930580  0.803676  1
