# generated using pymatgen
data_Dy3Er4ThSb20
_symmetry_space_group_name_H-M   'P 1'
_cell_length_a   4.23904900
_cell_length_b   13.21060399
_cell_length_c   14.68569061
_cell_angle_alpha   78.00319497
_cell_angle_beta   90.00000000
_cell_angle_gamma   90.00000000
_symmetry_Int_Tables_number   1
_chemical_formula_structural   Dy3Er4ThSb20
_chemical_formula_sum   'Dy3 Er4 Th1 Sb20'
_cell_volume   804.44253550
_cell_formula_units_Z   1
loop_
 _symmetry_equiv_pos_site_id
 _symmetry_equiv_pos_as_xyz
  1  'x, y, z'
loop_
 _atom_site_type_symbol
 _atom_site_label
 _atom_site_symmetry_multiplicity
 _atom_site_fract_x
 _atom_site_fract_y
 _atom_site_fract_z
 _atom_site_occupancy
  Dy  Dy0  1  0.750000  0.328193  0.424383  1
  Dy  Dy1  1  0.250000  0.953266  0.356683  1
  Dy  Dy2  1  0.750000  0.049443  0.641154  1
  Er  Er3  1  0.250000  0.391601  0.773309  1
  Er  Er4  1  0.750000  0.604963  0.226367  1
  Er  Er5  1  0.250000  0.662423  0.857994  1
  Er  Er6  1  0.750000  0.337910  0.143929  1
  Th  Th7  1  0.250000  0.671038  0.573252  1
  Sb  Sb8  1  0.250000  0.144343  0.779300  1
  Sb  Sb9  1  0.750000  0.855808  0.220930  1
  Sb  Sb10  1  0.250000  0.140554  0.482390  1
  Sb  Sb11  1  0.750000  0.861834  0.515793  1
  Sb  Sb12  1  0.250000  0.153591  0.170696  1
  Sb  Sb13  1  0.750000  0.847323  0.830914  1
  Sb  Sb14  1  0.250000  0.420443  0.976192  1
  Sb  Sb15  1  0.750000  0.579941  0.023281  1
  Sb  Sb16  1  0.750000  0.030399  0.909219  1
  Sb  Sb17  1  0.250000  0.970612  0.092245  1
  Sb  Sb18  1  0.750000  0.139325  0.320190  1
  Sb  Sb19  1  0.250000  0.863214  0.683763  1
  Sb  Sb20  1  0.750000  0.279243  0.938723  1
  Sb  Sb21  1  0.250000  0.721017  0.061327  1
  Sb  Sb22  1  0.750000  0.285638  0.656252  1
  Sb  Sb23  1  0.250000  0.713881  0.342509  1
  Sb  Sb24  1  0.750000  0.575286  0.737116  1
  Sb  Sb25  1  0.250000  0.423951  0.264341  1
  Sb  Sb26  1  0.750000  0.569201  0.444187  1
  Sb  Sb27  1  0.250000  0.425559  0.553560  1
