# generated using pymatgen
data_Th14Os3Ru2Rh
_symmetry_space_group_name_H-M   'P 1'
_cell_length_a   10.03220942
_cell_length_b   10.00634190
_cell_length_c   6.34138891
_cell_angle_alpha   90.11657723
_cell_angle_beta   89.90069073
_cell_angle_gamma   120.06001786
_symmetry_Int_Tables_number   1
_chemical_formula_structural   Th14Os3Ru2Rh
_chemical_formula_sum   'Th14 Os3 Ru2 Rh1'
_cell_volume   550.96362891
_cell_formula_units_Z   1
loop_
 _symmetry_equiv_pos_site_id
 _symmetry_equiv_pos_as_xyz
  1  'x, y, z'
loop_
 _atom_site_type_symbol
 _atom_site_label
 _atom_site_symmetry_multiplicity
 _atom_site_fract_x
 _atom_site_fract_y
 _atom_site_fract_z
 _atom_site_occupancy
  Th  Th0  1  0.456101  0.537922  0.299659  1
  Th  Th1  1  0.081949  0.539176  0.300246  1
  Th  Th2  1  0.919556  0.458602  0.798200  1
  Th  Th3  1  0.252599  0.126296  0.501720  1
  Th  Th4  1  0.542620  0.082430  0.798281  1
  Th  Th5  1  0.745453  0.874991  0.003978  1
  Th  Th6  1  0.664682  0.331147  0.291059  1
  Th  Th7  1  0.129993  0.874428  0.000304  1
  Th  Th8  1  0.457700  0.918394  0.299376  1
  Th  Th9  1  0.540306  0.460023  0.797586  1
  Th  Th10  1  0.873709  0.126369  0.501455  1
  Th  Th11  1  0.125363  0.250822  0.002376  1
  Th  Th12  1  0.875626  0.750149  0.503128  1
  Th  Th13  1  0.333962  0.666518  0.788005  1
  Os  Os14  1  0.814998  0.190996  0.052679  1
  Os  Os15  1  0.626197  0.811869  0.551789  1
  Os  Os16  1  0.374636  0.187999  0.049473  1
  Ru  Ru17  1  0.185463  0.373702  0.547463  1
  Ru  Ru18  1  0.184260  0.811610  0.547182  1
  Rh  Rh19  1  0.814824  0.626557  0.050040  1
