# generated using pymatgen
data_Pu4Ge6Ir7
_symmetry_space_group_name_H-M   'P 1'
_cell_length_a   7.32864122
_cell_length_b   7.34153664
_cell_length_c   7.31367149
_cell_angle_alpha   109.47433908
_cell_angle_beta   109.38978720
_cell_angle_gamma   109.54383484
_symmetry_Int_Tables_number   1
_chemical_formula_structural   Pu4Ge6Ir7
_chemical_formula_sum   'Pu4 Ge6 Ir7'
_cell_volume   302.93813715
_cell_formula_units_Z   1
loop_
 _symmetry_equiv_pos_site_id
 _symmetry_equiv_pos_as_xyz
  1  'x, y, z'
loop_
 _atom_site_type_symbol
 _atom_site_label
 _atom_site_symmetry_multiplicity
 _atom_site_fract_x
 _atom_site_fract_y
 _atom_site_fract_z
 _atom_site_occupancy
  Pu  Pu0  1  0.500000  0.500000  0.500000  1
  Pu  Pu1  1  0.000000  0.000000  0.500000  1
  Pu  Pu2  1  0.000000  0.500000  0.000000  1
  Pu  Pu3  1  0.500000  0.000000  0.000000  1
  Ge  Ge4  1  0.000000  0.317336  0.316816  1
  Ge  Ge5  1  0.000000  0.682664  0.683184  1
  Ge  Ge6  1  0.317401  0.999806  0.317025  1
  Ge  Ge7  1  0.682599  0.000194  0.682975  1
  Ge  Ge8  1  0.317401  0.317594  0.000376  1
  Ge  Ge9  1  0.682599  0.682406  0.999624  1
  Ir  Ir10  1  0.500264  0.750132  0.250132  1
  Ir  Ir11  1  0.499736  0.249868  0.749868  1
  Ir  Ir12  1  0.249945  0.499826  0.749753  1
  Ir  Ir13  1  0.750055  0.500174  0.250247  1
  Ir  Ir14  1  0.750055  0.249881  0.499808  1
  Ir  Ir15  1  0.249945  0.750119  0.500192  1
  Ir  Ir16  1  0.000000  0.000000  0.000000  1
