# generated using pymatgen
data_Dy3(In2Ir)2
_symmetry_space_group_name_H-M   'P 1'
_cell_length_a   7.77814000
_cell_length_b   7.77813978
_cell_length_c   3.93459800
_cell_angle_alpha   90.00000000
_cell_angle_beta   90.00000000
_cell_angle_gamma   120.00000945
_symmetry_Int_Tables_number   1
_chemical_formula_structural   Dy3(In2Ir)2
_chemical_formula_sum   'Dy3 In4 Ir2'
_cell_volume   206.14958099
_cell_formula_units_Z   1
loop_
 _symmetry_equiv_pos_site_id
 _symmetry_equiv_pos_as_xyz
  1  'x, y, z'
loop_
 _atom_site_type_symbol
 _atom_site_label
 _atom_site_symmetry_multiplicity
 _atom_site_fract_x
 _atom_site_fract_y
 _atom_site_fract_z
 _atom_site_occupancy
  Dy  Dy0  1  0.045923  0.299565  0.500000  1
  Dy  Dy1  1  0.700435  0.746357  0.500000  1
  Dy  Dy2  1  0.253643  0.954077  0.500000  1
  In  In3  1  0.666923  0.078891  0.000000  1
  In  In4  1  0.921109  0.588033  0.000000  1
  In  In5  1  0.411967  0.333077  0.000000  1
  In  In6  1  0.333333  0.666667  0.000000  1
  Ir  Ir7  1  0.666667  0.333333  0.500000  1
  Ir  Ir8  1  0.000000  0.000000  0.000000  1
