# generated using pymatgen
data_HfBe9W2
_symmetry_space_group_name_H-M   'P 1'
_cell_length_a   7.50458963
_cell_length_b   7.50458960
_cell_length_c   7.50458951
_cell_angle_alpha   34.79735806
_cell_angle_beta   34.79735844
_cell_angle_gamma   34.79735606
_symmetry_Int_Tables_number   1
_chemical_formula_structural   HfBe9W2
_chemical_formula_sum   'Hf1 Be9 W2'
_cell_volume   122.85788773
_cell_formula_units_Z   1
loop_
 _symmetry_equiv_pos_site_id
 _symmetry_equiv_pos_as_xyz
  1  'x, y, z'
loop_
 _atom_site_type_symbol
 _atom_site_label
 _atom_site_symmetry_multiplicity
 _atom_site_fract_x
 _atom_site_fract_y
 _atom_site_fract_z
 _atom_site_occupancy
  Hf  Hf0  1  0.000000  0.000000  0.000000  1
  Be  Be1  1  0.500000  0.500000  0.500000  1
  Be  Be2  1  0.333957  0.333957  0.333958  1
  Be  Be3  1  0.666043  0.666043  0.666042  1
  Be  Be4  1  0.079016  0.586012  0.586012  1
  Be  Be5  1  0.586012  0.586012  0.079016  1
  Be  Be6  1  0.586012  0.079016  0.586012  1
  Be  Be7  1  0.413988  0.920984  0.413988  1
  Be  Be8  1  0.920984  0.413988  0.413988  1
  Be  Be9  1  0.413988  0.413988  0.920984  1
  W  W10  1  0.144084  0.144084  0.144084  1
  W  W11  1  0.855916  0.855916  0.855916  1
