# generated using pymatgen
data_Hf7Zr3Ga2(SnSb)3
_symmetry_space_group_name_H-M   'P 1'
_cell_length_a   8.65676300
_cell_length_b   8.65676440
_cell_length_c   5.83120300
_cell_angle_alpha   90.00000000
_cell_angle_beta   90.00000000
_cell_angle_gamma   119.99999847
_symmetry_Int_Tables_number   1
_chemical_formula_structural   Hf7Zr3Ga2(SnSb)3
_chemical_formula_sum   'Hf7 Zr3 Ga2 Sn3 Sb3'
_cell_volume   378.44251925
_cell_formula_units_Z   1
loop_
 _symmetry_equiv_pos_site_id
 _symmetry_equiv_pos_as_xyz
  1  'x, y, z'
loop_
 _atom_site_type_symbol
 _atom_site_label
 _atom_site_symmetry_multiplicity
 _atom_site_fract_x
 _atom_site_fract_y
 _atom_site_fract_z
 _atom_site_occupancy
  Hf  Hf0  1  0.275707  0.275707  0.250000  1
  Hf  Hf1  1  0.724293  0.000000  0.250000  1
  Hf  Hf2  1  0.000000  0.724293  0.250000  1
  Hf  Hf3  1  0.666667  0.333333  0.003114  1
  Hf  Hf4  1  0.333333  0.666667  0.003114  1
  Hf  Hf5  1  0.333333  0.666667  0.496886  1
  Hf  Hf6  1  0.666667  0.333333  0.496886  1
  Zr  Zr7  1  0.739288  0.739288  0.750000  1
  Zr  Zr8  1  0.260712  0.000000  0.750000  1
  Zr  Zr9  1  0.000000  0.260712  0.750000  1
  Ga  Ga10  1  0.000000  0.000000  0.019188  1
  Ga  Ga11  1  0.000000  0.000000  0.480812  1
  Sn  Sn12  1  0.615840  0.615840  0.250000  1
  Sn  Sn13  1  0.384160  0.000000  0.250000  1
  Sn  Sn14  1  0.000000  0.384160  0.250000  1
  Sb  Sb15  1  0.393710  0.393710  0.750000  1
  Sb  Sb16  1  0.606290  0.000000  0.750000  1
  Sb  Sb17  1  0.000000  0.606290  0.750000  1
