# generated using pymatgen
data_Zn2GeBi4Te4PtO24
_symmetry_space_group_name_H-M   'P 1'
_cell_length_a   5.26917600
_cell_length_b   9.14162406
_cell_length_c   9.94272400
_cell_angle_alpha   90.00549666
_cell_angle_beta   89.91354266
_cell_angle_gamma   89.99644205
_symmetry_Int_Tables_number   1
_chemical_formula_structural   Zn2GeBi4Te4PtO24
_chemical_formula_sum   'Zn2 Ge1 Bi4 Te4 Pt1 O24'
_cell_volume   478.92879480
_cell_formula_units_Z   1
loop_
 _symmetry_equiv_pos_site_id
 _symmetry_equiv_pos_as_xyz
  1  'x, y, z'
loop_
 _atom_site_type_symbol
 _atom_site_label
 _atom_site_symmetry_multiplicity
 _atom_site_fract_x
 _atom_site_fract_y
 _atom_site_fract_z
 _atom_site_occupancy
  Zn  Zn0  1  0.500007  0.167823  0.249996  1
  Zn  Zn1  1  0.999988  0.334789  0.750012  1
  Ge  Ge2  1  0.499989  0.834629  0.749988  1
  Bi  Bi3  1  0.014551  0.011726  0.498989  1
  Bi  Bi4  1  0.484357  0.486833  0.503513  1
  Bi  Bi5  1  0.985450  0.011720  0.001002  1
  Bi  Bi6  1  0.515637  0.486835  0.996500  1
  Te  Te7  1  0.500000  0.163389  0.749998  1
  Te  Te8  1  0.000004  0.671269  0.749998  1
  Te  Te9  1  0.000001  0.330727  0.250008  1
  Te  Te10  1  0.499998  0.835685  0.250001  1
  Pt  Pt11  1  0.000013  0.664988  0.250005  1
  O  O12  1  0.629629  0.994292  0.644115  1
  O  O13  1  0.123342  0.516193  0.635740  1
  O  O14  1  0.668248  0.305050  0.636789  1
  O  O15  1  0.189895  0.819430  0.643433  1
  O  O16  1  0.197908  0.174670  0.638854  1
  O  O17  1  0.684353  0.692988  0.644074  1
  O  O18  1  0.169805  0.190871  0.137376  1
  O  O19  1  0.675820  0.680005  0.142121  1
  O  O20  1  0.145358  0.496366  0.144226  1
  O  O21  1  0.625569  0.987953  0.134201  1
  O  O22  1  0.700875  0.322686  0.134876  1
  O  O23  1  0.186430  0.819194  0.142827  1
  O  O24  1  0.854658  0.496401  0.355773  1
  O  O25  1  0.374418  0.987981  0.365799  1
  O  O26  1  0.830185  0.190899  0.362630  1
  O  O27  1  0.324209  0.680020  0.357883  1
  O  O28  1  0.299106  0.322687  0.365125  1
  O  O29  1  0.813576  0.819218  0.357173  1
  O  O30  1  0.331732  0.305043  0.863240  1
  O  O31  1  0.810087  0.819447  0.856553  1
  O  O32  1  0.370354  0.994313  0.855867  1
  O  O33  1  0.876688  0.516222  0.864263  1
  O  O34  1  0.802103  0.174649  0.861137  1
  O  O35  1  0.315651  0.693007  0.855915  1
