# generated using pymatgen
data_HoTh2(CdHg2)3
_symmetry_space_group_name_H-M   'P 1'
_cell_length_a   5.07672800
_cell_length_b   7.35776695
_cell_length_c   15.52510700
_cell_angle_alpha   89.99939261
_cell_angle_beta   90.00154618
_cell_angle_gamma   90.02917055
_symmetry_Int_Tables_number   1
_chemical_formula_structural   HoTh2(CdHg2)3
_chemical_formula_sum   'Ho2 Th4 Cd6 Hg12'
_cell_volume   579.91516961
_cell_formula_units_Z   2
loop_
 _symmetry_equiv_pos_site_id
 _symmetry_equiv_pos_as_xyz
  1  'x, y, z'
loop_
 _atom_site_type_symbol
 _atom_site_label
 _atom_site_symmetry_multiplicity
 _atom_site_fract_x
 _atom_site_fract_y
 _atom_site_fract_z
 _atom_site_occupancy
  Ho  Ho0  1  0.000149  0.499982  0.670745  1
  Ho  Ho1  1  0.500140  0.999990  0.829280  1
  Th  Th2  1  0.000056  0.500007  0.995766  1
  Th  Th3  1  0.499841  0.000005  0.161418  1
  Th  Th4  1  0.999904  0.500006  0.338413  1
  Th  Th5  1  0.499958  0.000000  0.504416  1
  Cd  Cd6  1  0.999972  0.000006  0.995588  1
  Cd  Cd7  1  0.499861  0.500004  0.163999  1
  Cd  Cd8  1  0.999878  0.000004  0.335998  1
  Cd  Cd9  1  0.499973  0.500006  0.504331  1
  Cd  Cd10  1  0.000161  0.000000  0.666839  1
  Cd  Cd11  1  0.500132  0.500003  0.833208  1
  Hg  Hg12  1  0.500050  0.240229  0.991135  1
  Hg  Hg13  1  0.499901  0.759774  0.991140  1
  Hg  Hg14  1  0.999863  0.258625  0.166658  1
  Hg  Hg15  1  0.999880  0.741380  0.166658  1
  Hg  Hg16  1  0.499858  0.241176  0.333331  1
  Hg  Hg17  1  0.499840  0.758834  0.333331  1
  Hg  Hg18  1  0.999928  0.259845  0.508745  1
  Hg  Hg19  1  0.000081  0.740150  0.508753  1
  Hg  Hg20  1  0.500173  0.255785  0.672356  1
  Hg  Hg21  1  0.500110  0.744200  0.672353  1
  Hg  Hg22  1  0.000117  0.244311  0.827773  1
  Hg  Hg23  1  0.000173  0.755675  0.827765  1
