# generated using pymatgen
data_Tb7ErIn2PdRh
_symmetry_space_group_name_H-M   'P 1'
_cell_length_a   9.71503370
_cell_length_b   9.70670315
_cell_length_c   9.71313139
_cell_angle_alpha   60.21586047
_cell_angle_beta   60.22944900
_cell_angle_gamma   60.19946912
_symmetry_Int_Tables_number   1
_chemical_formula_structural   Tb7ErIn2PdRh
_chemical_formula_sum   'Tb14 Er2 In4 Pd2 Rh2'
_cell_volume   650.83145446
_cell_formula_units_Z   2
loop_
 _symmetry_equiv_pos_site_id
 _symmetry_equiv_pos_as_xyz
  1  'x, y, z'
loop_
 _atom_site_type_symbol
 _atom_site_label
 _atom_site_symmetry_multiplicity
 _atom_site_fract_x
 _atom_site_fract_y
 _atom_site_fract_z
 _atom_site_occupancy
  Tb  Tb0  1  0.194383  0.185850  0.808698  1
  Tb  Tb1  1  0.648170  0.050423  0.647508  1
  Tb  Tb2  1  0.061297  0.063625  0.435081  1
  Tb  Tb3  1  0.435222  0.438466  0.062107  1
  Tb  Tb4  1  0.650006  0.654897  0.648884  1
  Tb  Tb5  1  0.808797  0.185047  0.193834  1
  Tb  Tb6  1  0.193497  0.811017  0.809614  1
  Tb  Tb7  1  0.056250  0.649948  0.643837  1
  Tb  Tb8  1  0.436298  0.062761  0.061317  1
  Tb  Tb9  1  0.436605  0.063868  0.435288  1
  Tb  Tb10  1  0.061278  0.437773  0.062182  1
  Tb  Tb11  1  0.643756  0.649340  0.057305  1
  Tb  Tb12  1  0.188915  0.810325  0.189407  1
  Tb  Tb13  1  0.061962  0.438872  0.434400  1
  Er  Er14  1  0.808795  0.811085  0.194192  1
  Er  Er15  1  0.808929  0.190788  0.809831  1
  In  In16  1  0.417510  0.416046  0.417416  1
  In  In17  1  0.419443  0.417106  0.746594  1
  In  In18  1  0.418025  0.747879  0.417947  1
  In  In19  1  0.746868  0.417052  0.419245  1
  Pd  Pd20  1  0.858556  0.428159  0.858124  1
  Pd  Pd21  1  0.856404  0.856315  0.859387  1
  Rh  Rh22  1  0.860093  0.856491  0.427557  1
  Rh  Rh23  1  0.428937  0.856867  0.860241  1
