# generated using pymatgen
data_RbAcB12
_symmetry_space_group_name_H-M   'P 1'
_cell_length_a   5.99752524
_cell_length_b   5.99752654
_cell_length_c   5.99752500
_cell_angle_alpha   60.00000297
_cell_angle_beta   59.99999582
_cell_angle_gamma   59.99999800
_symmetry_Int_Tables_number   1
_chemical_formula_structural   RbAcB12
_chemical_formula_sum   'Rb1 Ac1 B12'
_cell_volume   152.54617461
_cell_formula_units_Z   1
loop_
 _symmetry_equiv_pos_site_id
 _symmetry_equiv_pos_as_xyz
  1  'x, y, z'
loop_
 _atom_site_type_symbol
 _atom_site_label
 _atom_site_symmetry_multiplicity
 _atom_site_fract_x
 _atom_site_fract_y
 _atom_site_fract_z
 _atom_site_occupancy
  Rb  Rb0  1  0.000000  0.000000  0.000000  1
  Ac  Ac1  1  0.500000  0.500000  0.500000  1
  B  B2  1  0.397777  0.102223  0.102223  1
  B  B3  1  0.897777  0.602223  0.602223  1
  B  B4  1  0.397777  0.397777  0.102223  1
  B  B5  1  0.897777  0.897777  0.602223  1
  B  B6  1  0.102223  0.397777  0.102223  1
  B  B7  1  0.602223  0.897777  0.602223  1
  B  B8  1  0.102223  0.102223  0.397777  1
  B  B9  1  0.602223  0.602223  0.897777  1
  B  B10  1  0.397777  0.102223  0.397777  1
  B  B11  1  0.897777  0.602223  0.897777  1
  B  B12  1  0.102223  0.397777  0.397777  1
  B  B13  1  0.602223  0.897777  0.897777  1
