# generated using pymatgen
data_Pr5B6
_symmetry_space_group_name_H-M   'P 1'
_cell_length_a   3.76525100
_cell_length_b   18.58936052
_cell_length_c   18.58936202
_cell_angle_alpha   170.28493602
_cell_angle_beta   90.00000000
_cell_angle_gamma   90.00000000
_symmetry_Int_Tables_number   1
_chemical_formula_structural   Pr5B6
_chemical_formula_sum   'Pr5 B6'
_cell_volume   219.56487701
_cell_formula_units_Z   1
loop_
 _symmetry_equiv_pos_site_id
 _symmetry_equiv_pos_as_xyz
  1  'x, y, z'
loop_
 _atom_site_type_symbol
 _atom_site_label
 _atom_site_symmetry_multiplicity
 _atom_site_fract_x
 _atom_site_fract_y
 _atom_site_fract_z
 _atom_site_occupancy
  Pr  Pr0  1  0.000000  0.000000  0.000000  1
  Pr  Pr1  1  0.499999  0.795301  0.204696  1
  Pr  Pr2  1  0.000000  0.596196  0.403801  1
  Pr  Pr3  1  0.000000  0.403801  0.596196  1
  Pr  Pr4  1  0.499999  0.204696  0.795301  1
  B  B5  1  0.499999  0.944606  0.055390  1
  B  B6  1  0.000000  0.743259  0.256738  1
  B  B7  1  0.499999  0.543044  0.456952  1
  B  B8  1  0.499999  0.456952  0.543044  1
  B  B9  1  0.000000  0.256738  0.743259  1
  B  B10  1  0.499999  0.055390  0.944606  1
