# generated using pymatgen
data_Ho8Tm2OsRu3
_symmetry_space_group_name_H-M   'P 1'
_cell_length_a   6.30314453
_cell_length_b   7.27127305
_cell_length_c   8.40945209
_cell_angle_alpha   96.70232954
_cell_angle_beta   112.11026761
_cell_angle_gamma   90.02261232
_symmetry_Int_Tables_number   1
_chemical_formula_structural   Ho8Tm2OsRu3
_chemical_formula_sum   'Ho8 Tm2 Os1 Ru3'
_cell_volume   354.22563791
_cell_formula_units_Z   1
loop_
 _symmetry_equiv_pos_site_id
 _symmetry_equiv_pos_as_xyz
  1  'x, y, z'
loop_
 _atom_site_type_symbol
 _atom_site_label
 _atom_site_symmetry_multiplicity
 _atom_site_fract_x
 _atom_site_fract_y
 _atom_site_fract_z
 _atom_site_occupancy
  Ho  Ho0  1  0.791996  0.083192  0.813946  1
  Ho  Ho1  1  0.975134  0.415432  0.182467  1
  Ho  Ho2  1  0.207630  0.915443  0.185603  1
  Ho  Ho3  1  0.024167  0.584247  0.814837  1
  Ho  Ho4  1  0.206868  0.184716  0.566478  1
  Ho  Ho5  1  0.639821  0.316782  0.435734  1
  Ho  Ho6  1  0.794158  0.815754  0.433765  1
  Ho  Ho7  1  0.359093  0.683843  0.565218  1
  Tm  Tm8  1  0.420900  0.249861  0.999276  1
  Tm  Tm9  1  0.579629  0.750366  0.000000  1
  Os  Os10  1  0.602938  0.423939  0.782852  1
  Ru  Ru11  1  0.822604  0.076724  0.219913  1
  Ru  Ru12  1  0.396865  0.576542  0.218985  1
  Ru  Ru13  1  0.178196  0.923157  0.780927  1
