# generated using pymatgen
data_TaNb6AlO12
_symmetry_space_group_name_H-M   'P 1'
_cell_length_a   6.70910694
_cell_length_b   6.70910623
_cell_length_c   6.70910693
_cell_angle_alpha   73.77486955
_cell_angle_beta   73.77485740
_cell_angle_gamma   73.77484861
_symmetry_Int_Tables_number   1
_chemical_formula_structural   TaNb6AlO12
_chemical_formula_sum   'Ta1 Nb6 Al1 O12'
_cell_volume   271.69366722
_cell_formula_units_Z   1
loop_
 _symmetry_equiv_pos_site_id
 _symmetry_equiv_pos_as_xyz
  1  'x, y, z'
loop_
 _atom_site_type_symbol
 _atom_site_label
 _atom_site_symmetry_multiplicity
 _atom_site_fract_x
 _atom_site_fract_y
 _atom_site_fract_z
 _atom_site_occupancy
  Ta  Ta0  1  0.726452  0.726452  0.726452  1
  Nb  Nb1  1  0.953863  0.116481  0.702979  1
  Nb  Nb2  1  0.702979  0.953863  0.116481  1
  Nb  Nb3  1  0.116481  0.702979  0.953863  1
  Nb  Nb4  1  0.066091  0.880844  0.290734  1
  Nb  Nb5  1  0.290734  0.066091  0.880844  1
  Nb  Nb6  1  0.880844  0.290734  0.066091  1
  Al  Al7  1  0.272213  0.272213  0.272213  1
  O  O8  1  0.175737  0.568006  0.251960  1
  O  O9  1  0.251960  0.175737  0.568006  1
  O  O10  1  0.568006  0.251960  0.175737  1
  O  O11  1  0.823769  0.426012  0.741721  1
  O  O12  1  0.741721  0.823769  0.426012  1
  O  O13  1  0.426012  0.741721  0.823769  1
  O  O14  1  0.649640  0.030961  0.794992  1
  O  O15  1  0.794992  0.649640  0.030961  1
  O  O16  1  0.975344  0.199685  0.352514  1
  O  O17  1  0.199685  0.352514  0.975344  1
  O  O18  1  0.352514  0.975344  0.199685  1
  O  O19  1  0.030961  0.794992  0.649640  1
