# generated using pymatgen
data_La3LuAu5
_symmetry_space_group_name_H-M   'P 1'
_cell_length_a   8.29973291
_cell_length_b   8.29973243
_cell_length_c   8.29973266
_cell_angle_alpha   65.70279325
_cell_angle_beta   65.70279131
_cell_angle_gamma   65.70278355
_symmetry_Int_Tables_number   1
_chemical_formula_structural   La3LuAu5
_chemical_formula_sum   'La6 Lu2 Au10'
_cell_volume   454.30457637
_cell_formula_units_Z   2
loop_
 _symmetry_equiv_pos_site_id
 _symmetry_equiv_pos_as_xyz
  1  'x, y, z'
loop_
 _atom_site_type_symbol
 _atom_site_label
 _atom_site_symmetry_multiplicity
 _atom_site_fract_x
 _atom_site_fract_y
 _atom_site_fract_z
 _atom_site_occupancy
  La  La0  1  0.892616  0.187852  0.620104  1
  La  La1  1  0.620104  0.892616  0.187852  1
  La  La2  1  0.187852  0.620104  0.892616  1
  La  La3  1  0.107384  0.812148  0.379896  1
  La  La4  1  0.379896  0.107384  0.812148  1
  La  La5  1  0.812148  0.379896  0.107384  1
  Lu  Lu6  1  0.656643  0.656643  0.656643  1
  Lu  Lu7  1  0.343357  0.343357  0.343357  1
  Au  Au8  1  0.000000  0.000000  0.000000  1
  Au  Au9  1  0.500000  0.500000  0.500000  1
  Au  Au10  1  0.802551  0.802551  0.802551  1
  Au  Au11  1  0.197449  0.197449  0.197449  1
  Au  Au12  1  0.941330  0.549447  0.320881  1
  Au  Au13  1  0.320881  0.941330  0.549447  1
  Au  Au14  1  0.549447  0.320881  0.941330  1
  Au  Au15  1  0.058670  0.450553  0.679119  1
  Au  Au16  1  0.679119  0.058670  0.450553  1
  Au  Au17  1  0.450553  0.679119  0.058670  1
