# generated using pymatgen
data_Dy4Ho(CoO6)2
_symmetry_space_group_name_H-M   'P 1'
_cell_length_a   6.74167324
_cell_length_b   6.74167272
_cell_length_c   7.18510741
_cell_angle_alpha   74.57858838
_cell_angle_beta   74.57859158
_cell_angle_gamma   50.54317832
_symmetry_Int_Tables_number   1
_chemical_formula_structural   Dy4Ho(CoO6)2
_chemical_formula_sum   'Dy4 Ho1 Co2 O12'
_cell_volume   240.99356236
_cell_formula_units_Z   1
loop_
 _symmetry_equiv_pos_site_id
 _symmetry_equiv_pos_as_xyz
  1  'x, y, z'
loop_
 _atom_site_type_symbol
 _atom_site_label
 _atom_site_symmetry_multiplicity
 _atom_site_fract_x
 _atom_site_fract_y
 _atom_site_fract_z
 _atom_site_occupancy
  Dy  Dy0  1  0.305834  0.305834  0.355217  1
  Dy  Dy1  1  0.694158  0.694158  0.643818  1
  Dy  Dy2  1  0.307849  0.307849  0.835571  1
  Dy  Dy3  1  0.000068  0.000068  0.499907  1
  Ho  Ho4  1  0.692029  0.692029  0.164523  1
  Co  Co5  1  0.755980  0.244050  0.000288  1
  Co  Co6  1  0.244050  0.755980  0.000288  1
  O  O7  1  0.900422  0.417954  0.922117  1
  O  O8  1  0.417954  0.900422  0.922117  1
  O  O9  1  0.097907  0.583450  0.079105  1
  O  O10  1  0.583450  0.097907  0.079105  1
  O  O11  1  0.096941  0.598059  0.575952  1
  O  O12  1  0.598059  0.096941  0.575952  1
  O  O13  1  0.902367  0.402467  0.422530  1
  O  O14  1  0.402467  0.902367  0.422530  1
  O  O15  1  0.000710  0.000710  0.829228  1
  O  O16  1  0.999594  0.999594  0.171841  1
  O  O17  1  0.500053  0.500053  0.825398  1
  O  O18  1  0.500108  0.500108  0.174513  1
