# generated using pymatgen
data_Y8AsPd24
_symmetry_space_group_name_H-M   'P 1'
_cell_length_a   8.37564800
_cell_length_b   8.37564800
_cell_length_c   8.37564800
_cell_angle_alpha   90.00000000
_cell_angle_beta   90.00000000
_cell_angle_gamma   90.00000000
_symmetry_Int_Tables_number   1
_chemical_formula_structural   Y8AsPd24
_chemical_formula_sum   'Y8 As1 Pd24'
_cell_volume   587.56409830
_cell_formula_units_Z   1
loop_
 _symmetry_equiv_pos_site_id
 _symmetry_equiv_pos_as_xyz
  1  'x, y, z'
loop_
 _atom_site_type_symbol
 _atom_site_label
 _atom_site_symmetry_multiplicity
 _atom_site_fract_x
 _atom_site_fract_y
 _atom_site_fract_z
 _atom_site_occupancy
  Y  Y0  1  0.254840  0.254840  0.254840  1
  Y  Y1  1  0.745160  0.745160  0.745160  1
  Y  Y2  1  0.745160  0.745160  0.254840  1
  Y  Y3  1  0.745160  0.254840  0.745160  1
  Y  Y4  1  0.254840  0.254840  0.745160  1
  Y  Y5  1  0.254840  0.745160  0.254840  1
  Y  Y6  1  0.254840  0.745160  0.745160  1
  Y  Y7  1  0.745160  0.254840  0.254840  1
  As  As8  1  0.000000  0.000000  0.000000  1
  Pd  Pd9  1  0.258461  0.500000  0.000000  1
  Pd  Pd10  1  0.741539  0.500000  0.000000  1
  Pd  Pd11  1  0.000000  0.258461  0.500000  1
  Pd  Pd12  1  0.500000  0.258461  0.000000  1
  Pd  Pd13  1  0.000000  0.741539  0.500000  1
  Pd  Pd14  1  0.500000  0.741539  0.000000  1
  Pd  Pd15  1  0.500000  0.000000  0.258461  1
  Pd  Pd16  1  0.258461  0.000000  0.500000  1
  Pd  Pd17  1  0.500000  0.000000  0.741539  1
  Pd  Pd18  1  0.741539  0.000000  0.500000  1
  Pd  Pd19  1  0.000000  0.500000  0.258461  1
  Pd  Pd20  1  0.000000  0.500000  0.741539  1
  Pd  Pd21  1  0.252476  0.500000  0.500000  1
  Pd  Pd22  1  0.747524  0.500000  0.500000  1
  Pd  Pd23  1  0.500000  0.252476  0.500000  1
  Pd  Pd24  1  0.500000  0.747524  0.500000  1
  Pd  Pd25  1  0.500000  0.500000  0.252476  1
  Pd  Pd26  1  0.500000  0.500000  0.747524  1
  Pd  Pd27  1  0.287587  0.000000  0.000000  1
  Pd  Pd28  1  0.712413  0.000000  0.000000  1
  Pd  Pd29  1  0.000000  0.287587  0.000000  1
  Pd  Pd30  1  0.000000  0.712413  0.000000  1
  Pd  Pd31  1  0.000000  0.000000  0.287587  1
  Pd  Pd32  1  0.000000  0.000000  0.712413  1
