# generated using pymatgen
data_Ho4Er2BiO12
_symmetry_space_group_name_H-M   'P 1'
_cell_length_a   6.52601344
_cell_length_b   6.52764356
_cell_length_c   6.52637413
_cell_angle_alpha   99.08172757
_cell_angle_beta   99.08550603
_cell_angle_gamma   99.09804995
_symmetry_Int_Tables_number   1
_chemical_formula_structural   Ho4Er2BiO12
_chemical_formula_sum   'Ho4 Er2 Bi1 O12'
_cell_volume   266.27090439
_cell_formula_units_Z   1
loop_
 _symmetry_equiv_pos_site_id
 _symmetry_equiv_pos_as_xyz
  1  'x, y, z'
loop_
 _atom_site_type_symbol
 _atom_site_label
 _atom_site_symmetry_multiplicity
 _atom_site_fract_x
 _atom_site_fract_y
 _atom_site_fract_z
 _atom_site_occupancy
  Ho  Ho0  1  0.691256  0.390626  0.858642  1
  Ho  Ho1  1  0.308121  0.608973  0.140597  1
  Ho  Ho2  1  0.609196  0.141443  0.308603  1
  Ho  Ho3  1  0.858909  0.691866  0.391167  1
  Er  Er4  1  0.141235  0.308326  0.609326  1
  Er  Er5  1  0.390587  0.859231  0.691636  1
  Bi  Bi6  1  0.000047  0.000102  0.999833  1
  O  O7  1  0.071709  0.316776  0.947968  1
  O  O8  1  0.052208  0.928667  0.683199  1
  O  O9  1  0.414473  0.567527  0.820296  1
  O  O10  1  0.179070  0.584341  0.433978  1
  O  O11  1  0.682465  0.050099  0.927707  1
  O  O12  1  0.431665  0.178103  0.584959  1
  O  O13  1  0.566515  0.821522  0.416622  1
  O  O14  1  0.317042  0.948788  0.071099  1
  O  O15  1  0.822694  0.414970  0.567278  1
  O  O16  1  0.584713  0.433071  0.178393  1
  O  O17  1  0.949649  0.072405  0.317384  1
  O  O18  1  0.928445  0.683165  0.051312  1
