# generated using pymatgen
data_Tb3ScCI5
_symmetry_space_group_name_H-M   'P 1'
_cell_length_a   9.82742814
_cell_length_b   9.82742654
_cell_length_c   8.56682000
_cell_angle_alpha   77.88787611
_cell_angle_beta   77.88787930
_cell_angle_gamma   23.27796718
_symmetry_Int_Tables_number   1
_chemical_formula_structural   Tb3ScCI5
_chemical_formula_sum   'Tb3 Sc1 C1 I5'
_cell_volume   319.37870099
_cell_formula_units_Z   1
loop_
 _symmetry_equiv_pos_site_id
 _symmetry_equiv_pos_as_xyz
  1  'x, y, z'
loop_
 _atom_site_type_symbol
 _atom_site_label
 _atom_site_symmetry_multiplicity
 _atom_site_fract_x
 _atom_site_fract_y
 _atom_site_fract_z
 _atom_site_occupancy
  Tb  Tb0  1  0.999966  0.999966  0.191941  1
  Tb  Tb1  1  0.627294  0.627294  0.937321  1
  Tb  Tb2  1  0.999000  0.999000  0.808052  1
  Sc  Sc3  1  0.379347  0.379347  0.059778  1
  C  C4  1  0.497834  0.497834  0.000724  1
  I  I5  1  0.837268  0.837268  0.318055  1
  I  I6  1  0.833755  0.833755  0.843119  1
  I  I7  1  0.164714  0.164714  0.180059  1
  I  I8  1  0.497920  0.497920  0.501168  1
  I  I9  1  0.162902  0.162902  0.659783  1
