# generated using pymatgen
data_Er4Ga2As4Rh7
_symmetry_space_group_name_H-M   'P 1'
_cell_length_a   7.25278316
_cell_length_b   7.25248497
_cell_length_c   7.25248408
_cell_angle_alpha   109.71392391
_cell_angle_beta   109.34918228
_cell_angle_gamma   109.34917575
_symmetry_Int_Tables_number   1
_chemical_formula_structural   Er4Ga2As4Rh7
_chemical_formula_sum   'Er4 Ga2 As4 Rh7'
_cell_volume   293.66988660
_cell_formula_units_Z   1
loop_
 _symmetry_equiv_pos_site_id
 _symmetry_equiv_pos_as_xyz
  1  'x, y, z'
loop_
 _atom_site_type_symbol
 _atom_site_label
 _atom_site_symmetry_multiplicity
 _atom_site_fract_x
 _atom_site_fract_y
 _atom_site_fract_z
 _atom_site_occupancy
  Er  Er0  1  0.484934  0.483997  0.483997  1
  Er  Er1  1  0.998637  0.499318  0.999318  1
  Er  Er2  1  0.484934  0.000938  0.000938  1
  Er  Er3  1  0.998637  0.999318  0.499318  1
  Ga  Ga4  1  0.684667  0.992708  0.691959  1
  Ga  Ga5  1  0.684667  0.691959  0.992708  1
  As  As6  1  0.326600  0.331125  0.995476  1
  As  As7  1  0.990946  0.680915  0.680915  1
  As  As8  1  0.990946  0.310031  0.310031  1
  As  As9  1  0.326600  0.995476  0.331125  1
  Rh  Rh10  1  0.505981  0.752990  0.252990  1
  Rh  Rh11  1  0.751718  0.248633  0.503085  1
  Rh  Rh12  1  0.247738  0.745556  0.502181  1
  Rh  Rh13  1  0.247738  0.502181  0.745556  1
  Rh  Rh14  1  0.017557  0.008778  0.008778  1
  Rh  Rh15  1  0.505981  0.252990  0.752990  1
  Rh  Rh16  1  0.751718  0.503085  0.248633  1
