# generated using pymatgen
data_Pr15NdCd4IrPd3
_symmetry_space_group_name_H-M   'P 1'
_cell_length_a   10.10631587
_cell_length_b   10.05348573
_cell_length_c   10.05348610
_cell_angle_alpha   59.96007790
_cell_angle_beta   60.27225263
_cell_angle_gamma   60.27225188
_symmetry_Int_Tables_number   1
_chemical_formula_structural   Pr15NdCd4IrPd3
_chemical_formula_sum   'Pr15 Nd1 Cd4 Ir1 Pd3'
_cell_volume   725.02654337
_cell_formula_units_Z   1
loop_
 _symmetry_equiv_pos_site_id
 _symmetry_equiv_pos_as_xyz
  1  'x, y, z'
loop_
 _atom_site_type_symbol
 _atom_site_label
 _atom_site_symmetry_multiplicity
 _atom_site_fract_x
 _atom_site_fract_y
 _atom_site_fract_z
 _atom_site_occupancy
  Pr  Pr0  1  0.354055  0.349149  0.948292  1
  Pr  Pr1  1  0.354055  0.948292  0.349149  1
  Pr  Pr2  1  0.937291  0.354585  0.354585  1
  Pr  Pr3  1  0.806108  0.190428  0.190428  1
  Pr  Pr4  1  0.194128  0.807120  0.807120  1
  Pr  Pr5  1  0.195620  0.808789  0.190877  1
  Pr  Pr6  1  0.805223  0.189636  0.813463  1
  Pr  Pr7  1  0.195620  0.190877  0.808789  1
  Pr  Pr8  1  0.805223  0.813463  0.189636  1
  Pr  Pr9  1  0.941111  0.563362  0.563362  1
  Pr  Pr10  1  0.565131  0.936831  0.936831  1
  Pr  Pr11  1  0.566618  0.938692  0.560115  1
  Pr  Pr12  1  0.938104  0.561877  0.935264  1
  Pr  Pr13  1  0.566618  0.560115  0.938692  1
  Pr  Pr14  1  0.938104  0.935264  0.561877  1
  Nd  Nd15  1  0.351181  0.346914  0.346914  1
  Cd  Cd16  1  0.578910  0.580865  0.580865  1
  Cd  Cd17  1  0.578508  0.580768  0.258899  1
  Cd  Cd18  1  0.578508  0.258899  0.580768  1
  Cd  Cd19  1  0.260248  0.579418  0.579418  1
  Ir  Ir20  1  0.569493  0.143912  0.143912  1
  Pd  Pd21  1  0.139796  0.145841  0.145841  1
  Pd  Pd22  1  0.140171  0.145158  0.569748  1
  Pd  Pd23  1  0.140171  0.569748  0.145158  1
