# generated using pymatgen
data_CeY7GePt24
_symmetry_space_group_name_H-M   'P 1'
_cell_length_a   8.35964264
_cell_length_b   8.35964226
_cell_length_c   8.35964300
_cell_angle_alpha   89.93346276
_cell_angle_beta   90.06653724
_cell_angle_gamma   90.06653222
_symmetry_Int_Tables_number   1
_chemical_formula_structural   CeY7GePt24
_chemical_formula_sum   'Ce1 Y7 Ge1 Pt24'
_cell_volume   584.20094953
_cell_formula_units_Z   1
loop_
 _symmetry_equiv_pos_site_id
 _symmetry_equiv_pos_as_xyz
  1  'x, y, z'
loop_
 _atom_site_type_symbol
 _atom_site_label
 _atom_site_symmetry_multiplicity
 _atom_site_fract_x
 _atom_site_fract_y
 _atom_site_fract_z
 _atom_site_occupancy
  Ce  Ce0  1  0.746397  0.253603  0.253603  1
  Y  Y1  1  0.252097  0.252453  0.252453  1
  Y  Y2  1  0.747707  0.747293  0.747293  1
  Y  Y3  1  0.747547  0.747903  0.252453  1
  Y  Y4  1  0.747547  0.252453  0.747903  1
  Y  Y5  1  0.252707  0.252293  0.747293  1
  Y  Y6  1  0.252707  0.747293  0.252293  1
  Y  Y7  1  0.252757  0.747243  0.747243  1
  Ge  Ge8  1  0.999790  0.000210  0.000210  1
  Pt  Pt9  1  0.260831  0.499960  0.999518  1
  Pt  Pt10  1  0.739267  0.499815  0.000404  1
  Pt  Pt11  1  0.999596  0.260733  0.499815  1
  Pt  Pt12  1  0.500185  0.260733  0.000404  1
  Pt  Pt13  1  0.000482  0.739169  0.499960  1
  Pt  Pt14  1  0.500040  0.739169  0.999518  1
  Pt  Pt15  1  0.500185  0.000404  0.260733  1
  Pt  Pt16  1  0.260831  0.999518  0.499960  1
  Pt  Pt17  1  0.500040  0.999518  0.739169  1
  Pt  Pt18  1  0.739267  0.000404  0.499815  1
  Pt  Pt19  1  0.999596  0.499815  0.260733  1
  Pt  Pt20  1  0.000482  0.499960  0.739169  1
  Pt  Pt21  1  0.253318  0.500114  0.500114  1
  Pt  Pt22  1  0.746424  0.500093  0.500093  1
  Pt  Pt23  1  0.499907  0.253576  0.500093  1
  Pt  Pt24  1  0.499886  0.746682  0.500114  1
  Pt  Pt25  1  0.499907  0.500093  0.253576  1
  Pt  Pt26  1  0.499886  0.500114  0.746682  1
  Pt  Pt27  1  0.291477  0.999724  0.999724  1
  Pt  Pt28  1  0.707571  0.999495  0.999495  1
  Pt  Pt29  1  0.000505  0.292429  0.999495  1
  Pt  Pt30  1  0.000276  0.708523  0.999724  1
  Pt  Pt31  1  0.000505  0.999495  0.292429  1
  Pt  Pt32  1  0.000276  0.999724  0.708523  1
