# generated using pymatgen
data_Lu4Ga6TcOs
_symmetry_space_group_name_H-M   'P 1'
_cell_length_a   5.37414100
_cell_length_b   5.37414157
_cell_length_c   8.77799100
_cell_angle_alpha   90.00000000
_cell_angle_beta   90.00000000
_cell_angle_gamma   120.00000264
_symmetry_Int_Tables_number   1
_chemical_formula_structural   Lu4Ga6TcOs
_chemical_formula_sum   'Lu4 Ga6 Tc1 Os1'
_cell_volume   219.55529274
_cell_formula_units_Z   1
loop_
 _symmetry_equiv_pos_site_id
 _symmetry_equiv_pos_as_xyz
  1  'x, y, z'
loop_
 _atom_site_type_symbol
 _atom_site_label
 _atom_site_symmetry_multiplicity
 _atom_site_fract_x
 _atom_site_fract_y
 _atom_site_fract_z
 _atom_site_occupancy
  Lu  Lu0  1  0.666666  0.333334  0.051995  1
  Lu  Lu1  1  0.666666  0.333334  0.448180  1
  Lu  Lu2  1  0.333333  0.666666  0.551821  1
  Lu  Lu3  1  0.333333  0.666666  0.948005  1
  Ga  Ga4  1  0.165775  0.331550  0.250357  1
  Ga  Ga5  1  0.165775  0.834226  0.250357  1
  Ga  Ga6  1  0.668451  0.834226  0.250357  1
  Ga  Ga7  1  0.331551  0.165776  0.749642  1
  Ga  Ga8  1  0.834226  0.165776  0.749642  1
  Ga  Ga9  1  0.834224  0.668450  0.749642  1
  Tc  Tc10  1  0.000000  0.000000  0.000000  1
  Os  Os11  1  0.000000  0.000000  0.500000  1
