# generated using pymatgen
data_HoLu4Sc3(Co4P3)4
_symmetry_space_group_name_H-M   'P 1'
_cell_length_a   12.19126800
_cell_length_b   12.19126695
_cell_length_c   3.69643800
_cell_angle_alpha   90.00000000
_cell_angle_beta   90.00000000
_cell_angle_gamma   120.00000828
_symmetry_Int_Tables_number   1
_chemical_formula_structural   HoLu4Sc3(Co4P3)4
_chemical_formula_sum   'Ho1 Lu4 Sc3 Co16 P12'
_cell_volume   475.78609016
_cell_formula_units_Z   1
loop_
 _symmetry_equiv_pos_site_id
 _symmetry_equiv_pos_as_xyz
  1  'x, y, z'
loop_
 _atom_site_type_symbol
 _atom_site_label
 _atom_site_symmetry_multiplicity
 _atom_site_fract_x
 _atom_site_fract_y
 _atom_site_fract_z
 _atom_site_occupancy
  Ho  Ho0  1  0.333333  0.666667  0.000000  1
  Lu  Lu1  1  0.666667  0.333333  0.000000  1
  Lu  Lu2  1  0.815932  0.815951  0.500000  1
  Lu  Lu3  1  0.184049  0.999981  0.500000  1
  Lu  Lu4  1  0.000019  0.184068  0.500000  1
  Sc  Sc5  1  0.440462  0.440167  0.000000  1
  Sc  Sc6  1  0.559833  0.000295  0.000000  1
  Sc  Sc7  1  0.999705  0.559538  0.000000  1
  Co  Co8  1  0.874744  0.355239  0.500000  1
  Co  Co9  1  0.644761  0.519505  0.500000  1
  Co  Co10  1  0.480495  0.125256  0.500000  1
  Co  Co11  1  0.355226  0.875967  0.500000  1
  Co  Co12  1  0.520742  0.644774  0.500000  1
  Co  Co13  1  0.124033  0.479258  0.500000  1
  Co  Co14  1  0.805653  0.179412  0.000000  1
  Co  Co15  1  0.820588  0.626241  0.000000  1
  Co  Co16  1  0.373759  0.194347  0.000000  1
  Co  Co17  1  0.178855  0.805832  0.000000  1
  Co  Co18  1  0.626977  0.821145  0.000000  1
  Co  Co19  1  0.194168  0.373023  0.000000  1
  Co  Co20  1  0.277777  0.277547  0.500000  1
  Co  Co21  1  0.722453  0.000230  0.500000  1
  Co  Co22  1  0.999770  0.722223  0.500000  1
  Co  Co23  1  0.000000  0.000000  0.000000  1
  P  P24  1  0.691637  0.171987  0.500000  1
  P  P25  1  0.828013  0.519651  0.500000  1
  P  P26  1  0.480349  0.308363  0.500000  1
  P  P27  1  0.170754  0.692070  0.500000  1
  P  P28  1  0.521316  0.829246  0.500000  1
  P  P29  1  0.307930  0.478684  0.500000  1
  P  P30  1  0.177918  0.177672  0.000000  1
  P  P31  1  0.822328  0.000245  0.000000  1
  P  P32  1  0.999755  0.822082  0.000000  1
  P  P33  1  0.646850  0.646920  0.000000  1
  P  P34  1  0.353080  0.999930  0.000000  1
  P  P35  1  0.000070  0.353150  0.000000  1
