# generated using pymatgen
data_Y4Ga18Ni2RuRh3
_symmetry_space_group_name_H-M   'P 1'
_cell_length_a   7.54702420
_cell_length_b   7.54702332
_cell_length_c   9.49230754
_cell_angle_alpha   90.04189874
_cell_angle_beta   90.04189260
_cell_angle_gamma   120.13421307
_symmetry_Int_Tables_number   1
_chemical_formula_structural   Y4Ga18Ni2RuRh3
_chemical_formula_sum   'Y4 Ga18 Ni2 Ru1 Rh3'
_cell_volume   467.58918905
_cell_formula_units_Z   1
loop_
 _symmetry_equiv_pos_site_id
 _symmetry_equiv_pos_as_xyz
  1  'x, y, z'
loop_
 _atom_site_type_symbol
 _atom_site_label
 _atom_site_symmetry_multiplicity
 _atom_site_fract_x
 _atom_site_fract_y
 _atom_site_fract_z
 _atom_site_occupancy
  Y  Y0  1  0.996123  0.663409  0.249424  1
  Y  Y1  1  0.003023  0.335968  0.750425  1
  Y  Y2  1  0.664032  0.996977  0.249575  1
  Y  Y3  1  0.336591  0.003877  0.750576  1
  Ga  Ga4  1  0.328598  0.328864  0.562678  1
  Ga  Ga5  1  0.671136  0.671402  0.437322  1
  Ga  Ga6  1  0.670872  0.669409  0.061321  1
  Ga  Ga7  1  0.330591  0.329128  0.938679  1
  Ga  Ga8  1  0.337095  0.543730  0.249741  1
  Ga  Ga9  1  0.662412  0.455596  0.751081  1
  Ga  Ga10  1  0.544404  0.337588  0.248919  1
  Ga  Ga11  1  0.456270  0.662905  0.750259  1
  Ga  Ga12  1  0.999388  0.329527  0.077201  1
  Ga  Ga13  1  0.999124  0.669532  0.922853  1
  Ga  Ga14  1  0.000200  0.671192  0.578053  1
  Ga  Ga15  1  0.328808  0.999800  0.421947  1
  Ga  Ga16  1  0.999999  0.329154  0.422290  1
  Ga  Ga17  1  0.670846  0.000001  0.577710  1
  Ga  Ga18  1  0.670473  0.000612  0.922799  1
  Ga  Ga19  1  0.330468  0.000876  0.077147  1
  Ga  Ga20  1  0.115541  0.116093  0.250023  1
  Ga  Ga21  1  0.883907  0.884459  0.749977  1
  Ni  Ni22  1  0.999677  0.000323  0.000000  1
  Ni  Ni23  1  0.000041  0.999959  0.500000  1
  Ru  Ru24  1  0.672203  0.327797  0.000000  1
  Rh  Rh25  1  0.328333  0.671667  0.000000  1
  Rh  Rh26  1  0.328597  0.671403  0.500000  1
  Rh  Rh27  1  0.671243  0.328757  0.500000  1
