# generated using pymatgen
data_K3Ba3GaAs4
_symmetry_space_group_name_H-M   'P 1'
_cell_length_a   10.44898700
_cell_length_b   10.44898609
_cell_length_c   8.06341400
_cell_angle_alpha   90.00000000
_cell_angle_beta   90.00000000
_cell_angle_gamma   119.99999339
_symmetry_Int_Tables_number   1
_chemical_formula_structural   K3Ba3GaAs4
_chemical_formula_sum   'K6 Ba6 Ga2 As8'
_cell_volume   762.42645785
_cell_formula_units_Z   2
loop_
 _symmetry_equiv_pos_site_id
 _symmetry_equiv_pos_as_xyz
  1  'x, y, z'
loop_
 _atom_site_type_symbol
 _atom_site_label
 _atom_site_symmetry_multiplicity
 _atom_site_fract_x
 _atom_site_fract_y
 _atom_site_fract_z
 _atom_site_occupancy
  K  K0  1  0.135688  0.864312  0.171519  1
  K  K1  1  0.271377  0.135688  0.671519  1
  K  K2  1  0.864312  0.728623  0.671519  1
  K  K3  1  0.728623  0.864312  0.171519  1
  K  K4  1  0.864312  0.135688  0.671519  1
  K  K5  1  0.135688  0.271377  0.171519  1
  Ba  Ba6  1  0.955114  0.477557  0.998687  1
  Ba  Ba7  1  0.522443  0.044886  0.998687  1
  Ba  Ba8  1  0.477557  0.955114  0.498687  1
  Ba  Ba9  1  0.044886  0.522443  0.498687  1
  Ba  Ba10  1  0.522443  0.477557  0.998687  1
  Ba  Ba11  1  0.477557  0.522443  0.498687  1
  Ga  Ga12  1  0.666667  0.333333  0.374645  1
  Ga  Ga13  1  0.333333  0.666667  0.874645  1
  As  As14  1  0.801977  0.198023  0.279111  1
  As  As15  1  0.198023  0.396045  0.779111  1
  As  As16  1  0.801977  0.603955  0.279111  1
  As  As17  1  0.666667  0.333333  0.708504  1
  As  As18  1  0.603955  0.801977  0.779111  1
  As  As19  1  0.333333  0.666667  0.208504  1
  As  As20  1  0.198023  0.801977  0.779111  1
  As  As21  1  0.396045  0.198023  0.279111  1
