# generated using pymatgen
data_NdY5(CoSn6)2
_symmetry_space_group_name_H-M   'P 1'
_cell_length_a   8.52779223
_cell_length_b   8.52779251
_cell_length_c   13.20317634
_cell_angle_alpha   89.89459318
_cell_angle_beta   90.10540718
_cell_angle_gamma   148.90434787
_symmetry_Int_Tables_number   1
_chemical_formula_structural   NdY5(CoSn6)2
_chemical_formula_sum   'Nd1 Y5 Co2 Sn12'
_cell_volume   495.90053865
_cell_formula_units_Z   1
loop_
 _symmetry_equiv_pos_site_id
 _symmetry_equiv_pos_as_xyz
  1  'x, y, z'
loop_
 _atom_site_type_symbol
 _atom_site_label
 _atom_site_symmetry_multiplicity
 _atom_site_fract_x
 _atom_site_fract_y
 _atom_site_fract_z
 _atom_site_occupancy
  Nd  Nd0  1  0.900444  0.099556  0.407358  1
  Y  Y1  1  0.898719  0.101281  0.091897  1
  Y  Y2  1  0.101402  0.898598  0.593573  1
  Y  Y3  1  0.900115  0.099885  0.751082  1
  Y  Y4  1  0.100701  0.899299  0.907256  1
  Y  Y5  1  0.100222  0.899778  0.249146  1
  Co  Co6  1  0.299111  0.700889  0.249124  1
  Co  Co7  1  0.700070  0.299930  0.750759  1
  Sn  Sn8  1  0.754855  0.245145  0.572944  1
  Sn  Sn9  1  0.429066  0.570934  0.579632  1
  Sn  Sn10  1  0.572666  0.427334  0.423451  1
  Sn  Sn11  1  0.733820  0.266180  0.249134  1
  Sn  Sn12  1  0.265305  0.734695  0.750298  1
  Sn  Sn13  1  0.244165  0.755835  0.071090  1
  Sn  Sn14  1  0.243321  0.756679  0.427933  1
  Sn  Sn15  1  0.572097  0.427903  0.075429  1
  Sn  Sn16  1  0.453880  0.546120  0.246760  1
  Sn  Sn17  1  0.546568  0.453432  0.750887  1
  Sn  Sn18  1  0.755719  0.244281  0.928306  1
  Sn  Sn19  1  0.427755  0.572245  0.923942  1
