# generated using pymatgen
data_Ac8Si12RuPt3
_symmetry_space_group_name_H-M   'P 1'
_cell_length_a   8.48907700
_cell_length_b   8.48907696
_cell_length_c   8.83685100
_cell_angle_alpha   90.00000000
_cell_angle_beta   90.00000000
_cell_angle_gamma   120.00000406
_symmetry_Int_Tables_number   1
_chemical_formula_structural   Ac8Si12RuPt3
_chemical_formula_sum   'Ac8 Si12 Ru1 Pt3'
_cell_volume   551.50453738
_cell_formula_units_Z   1
loop_
 _symmetry_equiv_pos_site_id
 _symmetry_equiv_pos_as_xyz
  1  'x, y, z'
loop_
 _atom_site_type_symbol
 _atom_site_label
 _atom_site_symmetry_multiplicity
 _atom_site_fract_x
 _atom_site_fract_y
 _atom_site_fract_z
 _atom_site_occupancy
  Ac  Ac0  1  0.501590  0.498410  0.753880  1
  Ac  Ac1  1  0.502373  0.497627  0.246181  1
  Ac  Ac2  1  0.996820  0.498410  0.753880  1
  Ac  Ac3  1  0.995251  0.497627  0.246181  1
  Ac  Ac4  1  0.501590  0.003180  0.753880  1
  Ac  Ac5  1  0.502373  0.004749  0.246181  1
  Ac  Ac6  1  0.000000  0.000000  0.750391  1
  Ac  Ac7  1  0.000000  0.000000  0.249421  1
  Si  Si8  1  0.831796  0.168204  0.000542  1
  Si  Si9  1  0.163920  0.836080  0.999812  1
  Si  Si10  1  0.336406  0.168204  0.000542  1
  Si  Si11  1  0.165548  0.834452  0.501269  1
  Si  Si12  1  0.672161  0.836080  0.999812  1
  Si  Si13  1  0.834547  0.165453  0.498326  1
  Si  Si14  1  0.831796  0.663594  0.000542  1
  Si  Si15  1  0.668905  0.834452  0.501269  1
  Si  Si16  1  0.163920  0.327839  0.999812  1
  Si  Si17  1  0.330905  0.165453  0.498326  1
  Si  Si18  1  0.165548  0.331095  0.501269  1
  Si  Si19  1  0.834547  0.669095  0.498326  1
  Ru  Ru20  1  0.666667  0.333333  0.998535  1
  Pt  Pt21  1  0.333333  0.666667  0.000670  1
  Pt  Pt22  1  0.333333  0.666667  0.497603  1
  Pt  Pt23  1  0.666667  0.333333  0.503348  1
