# generated using pymatgen
data_Sc8ReOs3C8
_symmetry_space_group_name_H-M   'P 1'
_cell_length_a   4.76996900
_cell_length_b   6.23049549
_cell_length_c   9.31167234
_cell_angle_alpha   89.79167927
_cell_angle_beta   90.00000000
_cell_angle_gamma   90.00000000
_symmetry_Int_Tables_number   1
_chemical_formula_structural   Sc8ReOs3C8
_chemical_formula_sum   'Sc8 Re1 Os3 C8'
_cell_volume   276.73427853
_cell_formula_units_Z   1
loop_
 _symmetry_equiv_pos_site_id
 _symmetry_equiv_pos_as_xyz
  1  'x, y, z'
loop_
 _atom_site_type_symbol
 _atom_site_label
 _atom_site_symmetry_multiplicity
 _atom_site_fract_x
 _atom_site_fract_y
 _atom_site_fract_z
 _atom_site_occupancy
  Sc  Sc0  1  0.250000  0.835294  0.939476  1
  Sc  Sc1  1  0.250000  0.336445  0.560461  1
  Sc  Sc2  1  0.750000  0.165733  0.060524  1
  Sc  Sc3  1  0.750000  0.666978  0.439036  1
  Sc  Sc4  1  0.250000  0.459016  0.220108  1
  Sc  Sc5  1  0.250000  0.956331  0.277681  1
  Sc  Sc6  1  0.750000  0.541792  0.781967  1
  Sc  Sc7  1  0.750000  0.041945  0.718837  1
  Re  Re8  1  0.750000  0.202084  0.377689  1
  Os  Os9  1  0.250000  0.296968  0.874942  1
  Os  Os10  1  0.250000  0.798276  0.623878  1
  Os  Os11  1  0.750000  0.703405  0.123075  1
  C  C12  1  0.250000  0.062760  0.742419  1
  C  C13  1  0.250000  0.563280  0.757385  1
  C  C14  1  0.750000  0.936313  0.258864  1
  C  C15  1  0.750000  0.436394  0.242536  1
  C  C16  1  0.250000  0.662304  0.435294  1
  C  C17  1  0.250000  0.162625  0.064421  1
  C  C18  1  0.750000  0.335735  0.567420  1
  C  C19  1  0.750000  0.836321  0.933984  1
