# generated using pymatgen
data_Zr8Ti2Sn6HN
_symmetry_space_group_name_H-M   'P 1'
_cell_length_a   8.41457500
_cell_length_b   8.41457550
_cell_length_c   5.68453500
_cell_angle_alpha   90.00000000
_cell_angle_beta   90.00000000
_cell_angle_gamma   120.00000197
_symmetry_Int_Tables_number   1
_chemical_formula_structural   Zr8Ti2Sn6HN
_chemical_formula_sum   'Zr8 Ti2 Sn6 H1 N1'
_cell_volume   348.56996679
_cell_formula_units_Z   1
loop_
 _symmetry_equiv_pos_site_id
 _symmetry_equiv_pos_as_xyz
  1  'x, y, z'
loop_
 _atom_site_type_symbol
 _atom_site_label
 _atom_site_symmetry_multiplicity
 _atom_site_fract_x
 _atom_site_fract_y
 _atom_site_fract_z
 _atom_site_occupancy
  Zr  Zr0  1  0.333333  0.666667  0.500000  1
  Zr  Zr1  1  0.666667  0.333333  0.500000  1
  Zr  Zr2  1  0.772275  0.772275  0.738557  1
  Zr  Zr3  1  0.227725  0.000000  0.738557  1
  Zr  Zr4  1  0.000000  0.227725  0.738557  1
  Zr  Zr5  1  0.227725  0.227725  0.261443  1
  Zr  Zr6  1  0.772275  0.000000  0.261443  1
  Zr  Zr7  1  0.000000  0.772275  0.261443  1
  Ti  Ti8  1  0.666667  0.333333  0.000000  1
  Ti  Ti9  1  0.333333  0.666667  0.000000  1
  Sn  Sn10  1  0.402307  0.402307  0.763287  1
  Sn  Sn11  1  0.597693  0.000000  0.763287  1
  Sn  Sn12  1  0.000000  0.597693  0.763287  1
  Sn  Sn13  1  0.597693  0.597693  0.236713  1
  Sn  Sn14  1  0.402307  0.000000  0.236713  1
  Sn  Sn15  1  0.000000  0.402307  0.236713  1
  H  H16  1  0.000000  0.000000  0.000000  1
  N  N17  1  0.000000  0.000000  0.500000  1
