# generated using pymatgen
data_Y9Sc(Si3O)2
_symmetry_space_group_name_H-M   'P 1'
_cell_length_a   8.36331900
_cell_length_b   8.36331777
_cell_length_c   6.17366500
_cell_angle_alpha   90.00000000
_cell_angle_beta   90.00000000
_cell_angle_gamma   120.00000884
_symmetry_Int_Tables_number   1
_chemical_formula_structural   Y9Sc(Si3O)2
_chemical_formula_sum   'Y9 Sc1 Si6 O2'
_cell_volume   373.96496169
_cell_formula_units_Z   1
loop_
 _symmetry_equiv_pos_site_id
 _symmetry_equiv_pos_as_xyz
  1  'x, y, z'
loop_
 _atom_site_type_symbol
 _atom_site_label
 _atom_site_symmetry_multiplicity
 _atom_site_fract_x
 _atom_site_fract_y
 _atom_site_fract_z
 _atom_site_occupancy
  Y  Y0  1  0.232628  0.999185  0.748307  1
  Y  Y1  1  0.766557  0.999185  0.251693  1
  Y  Y2  1  0.000815  0.233443  0.748307  1
  Y  Y3  1  0.000815  0.767372  0.251693  1
  Y  Y4  1  0.766557  0.767372  0.748307  1
  Y  Y5  1  0.232628  0.233443  0.251693  1
  Y  Y6  1  0.666667  0.333333  0.500000  1
  Y  Y7  1  0.666667  0.333333  0.000000  1
  Y  Y8  1  0.333333  0.666667  0.000000  1
  Sc  Sc9  1  0.333333  0.666667  0.500000  1
  Si  Si10  1  0.596067  0.995122  0.740707  1
  Si  Si11  1  0.399055  0.995122  0.259293  1
  Si  Si12  1  0.004878  0.600945  0.740707  1
  Si  Si13  1  0.004878  0.403933  0.259293  1
  Si  Si14  1  0.399055  0.403933  0.740707  1
  Si  Si15  1  0.596067  0.600945  0.259293  1
  O  O16  1  0.000000  0.000000  0.500000  1
  O  O17  1  0.000000  0.000000  0.000000  1
