# generated using pymatgen
data_NdHoPa(Ga2Co3)3
_symmetry_space_group_name_H-M   'P 1'
_cell_length_a   8.93992000
_cell_length_b   8.93991928
_cell_length_c   3.87916900
_cell_angle_alpha   90.00000000
_cell_angle_beta   90.00000000
_cell_angle_gamma   120.00000265
_symmetry_Int_Tables_number   1
_chemical_formula_structural   NdHoPa(Ga2Co3)3
_chemical_formula_sum   'Nd1 Ho1 Pa1 Ga6 Co9'
_cell_volume   268.49521525
_cell_formula_units_Z   1
loop_
 _symmetry_equiv_pos_site_id
 _symmetry_equiv_pos_as_xyz
  1  'x, y, z'
loop_
 _atom_site_type_symbol
 _atom_site_label
 _atom_site_symmetry_multiplicity
 _atom_site_fract_x
 _atom_site_fract_y
 _atom_site_fract_z
 _atom_site_occupancy
  Nd  Nd0  1  0.666667  0.333333  0.500000  1
  Ho  Ho1  1  0.333333  0.666667  0.500000  1
  Pa  Pa2  1  0.000000  0.000000  0.000000  1
  Ga  Ga3  1  0.677824  0.679514  0.500000  1
  Ga  Ga4  1  0.320486  0.998310  0.500000  1
  Ga  Ga5  1  0.001690  0.322176  0.500000  1
  Ga  Ga6  1  0.320486  0.322176  0.500000  1
  Ga  Ga7  1  0.677824  0.998310  0.500000  1
  Ga  Ga8  1  0.001690  0.679514  0.500000  1
  Co  Co9  1  0.495880  0.504120  0.000000  1
  Co  Co10  1  0.495880  0.991760  0.000000  1
  Co  Co11  1  0.008240  0.504120  0.000000  1
  Co  Co12  1  0.832550  0.167450  0.000000  1
  Co  Co13  1  0.832550  0.665100  0.000000  1
  Co  Co14  1  0.334900  0.167450  0.000000  1
  Co  Co15  1  0.173702  0.826298  0.000000  1
  Co  Co16  1  0.652596  0.826298  0.000000  1
  Co  Co17  1  0.173702  0.347404  0.000000  1
