# generated using pymatgen
data_Dy2Er6Si12IrRh3
_symmetry_space_group_name_H-M   'P 1'
_cell_length_a   8.14691400
_cell_length_b   8.14691444
_cell_length_c   7.85224700
_cell_angle_alpha   90.00000000
_cell_angle_beta   90.00000000
_cell_angle_gamma   119.99999819
_symmetry_Int_Tables_number   1
_chemical_formula_structural   Dy2Er6Si12IrRh3
_chemical_formula_sum   'Dy2 Er6 Si12 Ir1 Rh3'
_cell_volume   451.34733170
_cell_formula_units_Z   1
loop_
 _symmetry_equiv_pos_site_id
 _symmetry_equiv_pos_as_xyz
  1  'x, y, z'
loop_
 _atom_site_type_symbol
 _atom_site_label
 _atom_site_symmetry_multiplicity
 _atom_site_fract_x
 _atom_site_fract_y
 _atom_site_fract_z
 _atom_site_occupancy
  Dy  Dy0  1  0.000000  0.000000  0.249421  1
  Dy  Dy1  1  0.000000  0.000000  0.750298  1
  Er  Er2  1  0.492125  0.507875  0.250138  1
  Er  Er3  1  0.492125  0.984248  0.250138  1
  Er  Er4  1  0.015752  0.507875  0.250138  1
  Er  Er5  1  0.508221  0.491779  0.749843  1
  Er  Er6  1  0.983557  0.491779  0.749843  1
  Er  Er7  1  0.508221  0.016443  0.749843  1
  Si  Si8  1  0.833270  0.166730  0.500805  1
  Si  Si9  1  0.833270  0.666541  0.500805  1
  Si  Si10  1  0.333459  0.166730  0.500805  1
  Si  Si11  1  0.832970  0.167030  0.998700  1
  Si  Si12  1  0.832970  0.665940  0.998700  1
  Si  Si13  1  0.334060  0.167030  0.998700  1
  Si  Si14  1  0.167087  0.832913  0.000962  1
  Si  Si15  1  0.665828  0.832913  0.000962  1
  Si  Si16  1  0.167087  0.334172  0.000962  1
  Si  Si17  1  0.167253  0.832747  0.498943  1
  Si  Si18  1  0.665494  0.832747  0.498943  1
  Si  Si19  1  0.167253  0.334506  0.498943  1
  Ir  Ir20  1  0.666667  0.333333  0.469059  1
  Rh  Rh21  1  0.666667  0.333333  0.033429  1
  Rh  Rh22  1  0.333333  0.666667  0.967770  1
  Rh  Rh23  1  0.333333  0.666667  0.531848  1
