# generated using pymatgen
data_DyErReB6
_symmetry_space_group_name_H-M   'P 1'
_cell_length_a   3.67006100
_cell_length_b   9.15318500
_cell_length_c   11.53930100
_cell_angle_alpha   90.00000000
_cell_angle_beta   90.00000000
_cell_angle_gamma   90.00000000
_symmetry_Int_Tables_number   1
_chemical_formula_structural   DyErReB6
_chemical_formula_sum   'Dy4 Er4 Re4 B24'
_cell_volume   387.63682245
_cell_formula_units_Z   4
loop_
 _symmetry_equiv_pos_site_id
 _symmetry_equiv_pos_as_xyz
  1  'x, y, z'
loop_
 _atom_site_type_symbol
 _atom_site_label
 _atom_site_symmetry_multiplicity
 _atom_site_fract_x
 _atom_site_fract_y
 _atom_site_fract_z
 _atom_site_occupancy
  Dy  Dy0  1  0.000000  0.323655  0.413859  1
  Dy  Dy1  1  0.000000  0.676345  0.586141  1
  Dy  Dy2  1  0.000000  0.823655  0.086141  1
  Dy  Dy3  1  0.000000  0.176345  0.913859  1
  Er  Er4  1  0.000000  0.943699  0.370384  1
  Er  Er5  1  0.000000  0.056301  0.629616  1
  Er  Er6  1  0.000000  0.443699  0.129616  1
  Er  Er7  1  0.000000  0.556301  0.870384  1
  Re  Re8  1  0.000000  0.639134  0.320736  1
  Re  Re9  1  0.000000  0.360866  0.679264  1
  Re  Re10  1  0.000000  0.139134  0.179264  1
  Re  Re11  1  0.000000  0.860866  0.820736  1
  B  B12  1  0.500000  0.553697  0.432845  1
  B  B13  1  0.500000  0.446303  0.567155  1
  B  B14  1  0.500000  0.053697  0.067155  1
  B  B15  1  0.500000  0.946303  0.932845  1
  B  B16  1  0.500000  0.749767  0.418901  1
  B  B17  1  0.500000  0.250233  0.581099  1
  B  B18  1  0.500000  0.249767  0.081099  1
  B  B19  1  0.500000  0.750233  0.918901  1
  B  B20  1  0.500000  0.792726  0.265949  1
  B  B21  1  0.500000  0.207274  0.734051  1
  B  B22  1  0.500000  0.292726  0.234051  1
  B  B23  1  0.500000  0.707274  0.765949  1
  B  B24  1  0.500000  0.631117  0.185732  1
  B  B25  1  0.500000  0.368883  0.814268  1
  B  B26  1  0.500000  0.131117  0.314268  1
  B  B27  1  0.500000  0.868883  0.685732  1
  B  B28  1  0.500000  0.982623  0.212189  1
  B  B29  1  0.500000  0.017377  0.787811  1
  B  B30  1  0.500000  0.482623  0.287811  1
  B  B31  1  0.500000  0.517377  0.712189  1
  B  B32  1  0.500000  0.599907  0.027987  1
  B  B33  1  0.500000  0.400093  0.972013  1
  B  B34  1  0.500000  0.099907  0.472013  1
  B  B35  1  0.500000  0.900093  0.527987  1
