# generated using pymatgen
data_Hf6Co15Si7Rh
_symmetry_space_group_name_H-M   'P 1'
_cell_length_a   8.07128128
_cell_length_b   8.07128125
_cell_length_c   8.05487936
_cell_angle_alpha   59.93261812
_cell_angle_beta   59.93261934
_cell_angle_gamma   60.00000575
_symmetry_Int_Tables_number   1
_chemical_formula_structural   Hf6Co15Si7Rh
_chemical_formula_sum   'Hf6 Co15 Si7 Rh1'
_cell_volume   370.66873704
_cell_formula_units_Z   1
loop_
 _symmetry_equiv_pos_site_id
 _symmetry_equiv_pos_as_xyz
  1  'x, y, z'
loop_
 _atom_site_type_symbol
 _atom_site_label
 _atom_site_symmetry_multiplicity
 _atom_site_fract_x
 _atom_site_fract_y
 _atom_site_fract_z
 _atom_site_occupancy
  Hf  Hf0  1  0.205509  0.796076  0.792906  1
  Hf  Hf1  1  0.797089  0.797089  0.204311  1
  Hf  Hf2  1  0.797089  0.201511  0.204311  1
  Hf  Hf3  1  0.205509  0.205509  0.792906  1
  Hf  Hf4  1  0.796076  0.205509  0.792906  1
  Hf  Hf5  1  0.201511  0.797089  0.204311  1
  Co  Co6  1  0.171621  0.484151  0.172607  1
  Co  Co7  1  0.860039  0.377918  0.384124  1
  Co  Co8  1  0.507509  0.832603  0.827283  1
  Co  Co9  1  0.484151  0.171621  0.172607  1
  Co  Co10  1  0.830126  0.830126  0.509620  1
  Co  Co11  1  0.172263  0.172263  0.483212  1
  Co  Co12  1  0.139770  0.620219  0.619792  1
  Co  Co13  1  0.171621  0.171621  0.172607  1
  Co  Co14  1  0.379266  0.379266  0.862201  1
  Co  Co15  1  0.620219  0.620219  0.619792  1
  Co  Co16  1  0.377918  0.860039  0.384124  1
  Co  Co17  1  0.377918  0.377918  0.384124  1
  Co  Co18  1  0.832603  0.832603  0.827283  1
  Co  Co19  1  0.620219  0.139770  0.619792  1
  Co  Co20  1  0.832603  0.507509  0.827283  1
  Si  Si21  1  0.501151  0.999732  0.499384  1
  Si  Si22  1  0.499896  0.499896  0.994301  1
  Si  Si23  1  0.495662  0.495662  0.513015  1
  Si  Si24  1  0.999732  0.999732  0.499384  1
  Si  Si25  1  0.005908  0.499896  0.994301  1
  Si  Si26  1  0.999732  0.501151  0.499384  1
  Si  Si27  1  0.499896  0.005908  0.994301  1
  Rh  Rh28  1  0.617392  0.617392  0.147826  1
