# generated using pymatgen
data_Ca4Zn2Cu3As5
_symmetry_space_group_name_H-M   'P 1'
_cell_length_a   4.20569100
_cell_length_b   4.20576661
_cell_length_c   37.91700100
_cell_angle_alpha   90.00000000
_cell_angle_beta   90.00000000
_cell_angle_gamma   119.99947494
_symmetry_Int_Tables_number   1
_chemical_formula_structural   Ca4Zn2Cu3As5
_chemical_formula_sum   'Ca8 Zn4 Cu6 As10'
_cell_volume   580.83053495
_cell_formula_units_Z   2
loop_
 _symmetry_equiv_pos_site_id
 _symmetry_equiv_pos_as_xyz
  1  'x, y, z'
loop_
 _atom_site_type_symbol
 _atom_site_label
 _atom_site_symmetry_multiplicity
 _atom_site_fract_x
 _atom_site_fract_y
 _atom_site_fract_z
 _atom_site_occupancy
  Ca  Ca0  1  0.000008  0.000112  0.091501  1
  Ca  Ca1  1  0.000098  0.000132  0.196958  1
  Ca  Ca2  1  0.000098  0.000132  0.303042  1
  Ca  Ca3  1  0.000008  0.000112  0.408499  1
  Ca  Ca4  1  0.999998  0.999899  0.591504  1
  Ca  Ca5  1  0.999908  0.999878  0.696960  1
  Ca  Ca6  1  0.999908  0.999878  0.803041  1
  Ca  Ca7  1  0.999998  0.999899  0.908496  1
  Zn  Zn8  1  0.666640  0.333361  0.024598  1
  Zn  Zn9  1  0.666640  0.333361  0.475401  1
  Zn  Zn10  1  0.333365  0.666653  0.524607  1
  Zn  Zn11  1  0.333365  0.666653  0.975394  1
  Cu  Cu12  1  0.333380  0.666775  0.143608  1
  Cu  Cu13  1  0.666765  0.333426  0.250000  1
  Cu  Cu14  1  0.333380  0.666775  0.356392  1
  Cu  Cu15  1  0.666625  0.333227  0.643613  1
  Cu  Cu16  1  0.333242  0.666594  0.750000  1
  Cu  Cu17  1  0.666625  0.333227  0.856387  1
  As  As18  1  0.333317  0.666700  0.044444  1
  As  As19  1  0.666709  0.333424  0.144468  1
  As  As20  1  0.333409  0.666746  0.250000  1
  As  As21  1  0.666709  0.333424  0.355532  1
  As  As22  1  0.333317  0.666700  0.455555  1
  As  As23  1  0.666689  0.333311  0.544435  1
  As  As24  1  0.333264  0.666521  0.644463  1
  As  As25  1  0.666593  0.333261  0.750000  1
  As  As26  1  0.333264  0.666521  0.855538  1
  As  As27  1  0.666689  0.333311  0.955565  1
