# generated using pymatgen
data_KNpCr2O10
_symmetry_space_group_name_H-M   'P 1'
_cell_length_a   6.23773495
_cell_length_b   6.23773559
_cell_length_c   8.65360287
_cell_angle_alpha   69.92012993
_cell_angle_beta   69.92012652
_cell_angle_gamma   56.05062138
_symmetry_Int_Tables_number   1
_chemical_formula_structural   KNpCr2O10
_chemical_formula_sum   'K1 Np1 Cr2 O10'
_cell_volume   257.31671830
_cell_formula_units_Z   1
loop_
 _symmetry_equiv_pos_site_id
 _symmetry_equiv_pos_as_xyz
  1  'x, y, z'
loop_
 _atom_site_type_symbol
 _atom_site_label
 _atom_site_symmetry_multiplicity
 _atom_site_fract_x
 _atom_site_fract_y
 _atom_site_fract_z
 _atom_site_occupancy
  K  K0  1  0.000000  0.000000  0.500000  1
  Np  Np1  1  0.000000  0.000000  0.000000  1
  Cr  Cr2  1  0.386204  0.386204  0.283605  1
  Cr  Cr3  1  0.613796  0.613796  0.716395  1
  O  O4  1  0.232851  0.717692  0.193851  1
  O  O5  1  0.717692  0.232851  0.193851  1
  O  O6  1  0.767149  0.282308  0.806149  1
  O  O7  1  0.282308  0.767149  0.806149  1
  O  O8  1  0.249783  0.249783  0.255651  1
  O  O9  1  0.750217  0.750217  0.744349  1
  O  O10  1  0.355709  0.355709  0.481721  1
  O  O11  1  0.644291  0.644291  0.518279  1
  O  O12  1  0.173489  0.173489  0.941794  1
  O  O13  1  0.826511  0.826511  0.058206  1
