# generated using pymatgen
data_PrSmAl3Cu7
_symmetry_space_group_name_H-M   'P 1'
_cell_length_a   4.21489200
_cell_length_b   5.18582707
_cell_length_c   8.98967500
_cell_angle_alpha   89.46491095
_cell_angle_beta   90.00000000
_cell_angle_gamma   90.00000000
_symmetry_Int_Tables_number   1
_chemical_formula_structural   PrSmAl3Cu7
_chemical_formula_sum   'Pr1 Sm1 Al3 Cu7'
_cell_volume   196.48505975
_cell_formula_units_Z   1
loop_
 _symmetry_equiv_pos_site_id
 _symmetry_equiv_pos_as_xyz
  1  'x, y, z'
loop_
 _atom_site_type_symbol
 _atom_site_label
 _atom_site_symmetry_multiplicity
 _atom_site_fract_x
 _atom_site_fract_y
 _atom_site_fract_z
 _atom_site_occupancy
  Pr  Pr0  1  0.000000  0.752020  0.250722  1
  Sm  Sm1  1  0.000000  0.247858  0.750274  1
  Al  Al2  1  0.500000  0.737794  0.744232  1
  Al  Al3  1  0.500000  0.261061  0.254952  1
  Al  Al4  1  0.500000  0.001901  0.998455  1
  Cu  Cu5  1  0.000000  0.252575  0.082578  1
  Cu  Cu6  1  0.000000  0.748572  0.585619  1
  Cu  Cu7  1  0.000000  0.748378  0.912173  1
  Cu  Cu8  1  0.000000  0.250989  0.419137  1
  Cu  Cu9  1  0.500000  0.497476  0.501663  1
  Cu  Cu10  1  0.500000  0.499425  0.998112  1
  Cu  Cu11  1  0.500000  0.001950  0.502082  1
