# generated using pymatgen
data_YbCeUCu3Sb4
_symmetry_space_group_name_H-M   'P 1'
_cell_length_a   8.36991710
_cell_length_b   8.37928248
_cell_length_c   8.36991719
_cell_angle_alpha   108.67859842
_cell_angle_beta   109.70282201
_cell_angle_gamma   109.99014095
_symmetry_Int_Tables_number   1
_chemical_formula_structural   YbCeUCu3Sb4
_chemical_formula_sum   'Yb2 Ce2 U2 Cu6 Sb8'
_cell_volume   452.06996954
_cell_formula_units_Z   2
loop_
 _symmetry_equiv_pos_site_id
 _symmetry_equiv_pos_as_xyz
  1  'x, y, z'
loop_
 _atom_site_type_symbol
 _atom_site_label
 _atom_site_symmetry_multiplicity
 _atom_site_fract_x
 _atom_site_fract_y
 _atom_site_fract_z
 _atom_site_occupancy
  Yb  Yb0  1  0.249998  0.124517  0.874560  1
  Yb  Yb1  1  0.750043  0.375483  0.625481  1
  Ce  Ce2  1  0.126998  0.876957  0.250181  1
  Ce  Ce3  1  0.373224  0.623043  0.750041  1
  U  U4  1  0.874090  0.250000  0.124090  1
  U  U5  1  0.625468  0.750000  0.375468  1
  Cu  Cu6  1  0.380124  0.250000  0.630124  1
  Cu  Cu7  1  0.119908  0.750000  0.869908  1
  Cu  Cu8  1  0.250166  0.625573  0.375577  1
  Cu  Cu9  1  0.750004  0.874427  0.124594  1
  Cu  Cu10  1  0.618887  0.368912  0.249979  1
  Cu  Cu11  1  0.881066  0.131088  0.749975  1
  Sb  Sb12  1  0.660605  0.497935  0.002674  1
  Sb  Sb13  1  0.504739  0.002065  0.662672  1
  Sb  Sb14  1  0.995331  0.658498  0.497640  1
  Sb  Sb15  1  0.839141  0.841502  0.836831  1
  Sb  Sb16  1  0.499264  0.998297  0.160384  1
  Sb  Sb17  1  0.162088  0.501703  0.000966  1
  Sb  Sb18  1  0.000988  0.161254  0.499122  1
  Sb  Sb19  1  0.337867  0.338746  0.339734  1
