# generated using pymatgen
data_CaNdAl2Co2(Ni2B)2
_symmetry_space_group_name_H-M   'P 1'
_cell_length_a   5.21886000
_cell_length_b   5.24276976
_cell_length_c   6.73432300
_cell_angle_alpha   90.00000000
_cell_angle_beta   90.00000000
_cell_angle_gamma   119.84925350
_symmetry_Int_Tables_number   1
_chemical_formula_structural   CaNdAl2Co2(Ni2B)2
_chemical_formula_sum   'Ca1 Nd1 Al2 Co2 Ni4 B2'
_cell_volume   159.81542998
_cell_formula_units_Z   1
loop_
 _symmetry_equiv_pos_site_id
 _symmetry_equiv_pos_as_xyz
  1  'x, y, z'
loop_
 _atom_site_type_symbol
 _atom_site_label
 _atom_site_symmetry_multiplicity
 _atom_site_fract_x
 _atom_site_fract_y
 _atom_site_fract_z
 _atom_site_occupancy
  Ca  Ca0  1  0.000000  0.000000  0.000000  1
  Nd  Nd1  1  0.000000  0.000000  0.500000  1
  Al  Al2  1  0.335901  0.671803  0.000000  1
  Al  Al3  1  0.664099  0.328197  0.000000  1
  Co  Co4  1  0.500000  0.000000  0.701648  1
  Co  Co5  1  0.500000  0.000000  0.298352  1
  Ni  Ni6  1  0.000000  0.500000  0.296283  1
  Ni  Ni7  1  0.500000  0.500000  0.703717  1
  Ni  Ni8  1  0.500000  0.500000  0.296283  1
  Ni  Ni9  1  0.000000  0.500000  0.703717  1
  B  B10  1  0.338236  0.676474  0.500000  1
  B  B11  1  0.661764  0.323526  0.500000  1
