# generated using pymatgen
data_Tb2Lu2ReRuC4
_symmetry_space_group_name_H-M   'P 1'
_cell_length_a   5.05853800
_cell_length_b   6.52711100
_cell_length_c   9.70714200
_cell_angle_alpha   90.00000000
_cell_angle_beta   90.00000000
_cell_angle_gamma   90.00000000
_symmetry_Int_Tables_number   1
_chemical_formula_structural   Tb2Lu2ReRuC4
_chemical_formula_sum   'Tb4 Lu4 Re2 Ru2 C8'
_cell_volume   320.50691051
_cell_formula_units_Z   2
loop_
 _symmetry_equiv_pos_site_id
 _symmetry_equiv_pos_as_xyz
  1  'x, y, z'
loop_
 _atom_site_type_symbol
 _atom_site_label
 _atom_site_symmetry_multiplicity
 _atom_site_fract_x
 _atom_site_fract_y
 _atom_site_fract_z
 _atom_site_occupancy
  Tb  Tb0  1  0.750000  0.465764  0.786949  1
  Tb  Tb1  1  0.250000  0.034236  0.286949  1
  Tb  Tb2  1  0.750000  0.968947  0.712372  1
  Tb  Tb3  1  0.250000  0.531053  0.212372  1
  Lu  Lu4  1  0.750000  0.830909  0.056831  1
  Lu  Lu5  1  0.250000  0.669091  0.556831  1
  Lu  Lu6  1  0.750000  0.326229  0.440723  1
  Lu  Lu7  1  0.250000  0.173771  0.940723  1
  Re  Re8  1  0.750000  0.779403  0.366700  1
  Re  Re9  1  0.250000  0.720597  0.866700  1
  Ru  Ru10  1  0.750000  0.278680  0.132614  1
  Ru  Ru11  1  0.250000  0.221320  0.632614  1
  C  C12  1  0.750000  0.167226  0.948006  1
  C  C13  1  0.250000  0.831255  0.052693  1
  C  C14  1  0.750000  0.668745  0.552693  1
  C  C15  1  0.250000  0.332774  0.448006  1
  C  C16  1  0.750000  0.046376  0.261966  1
  C  C17  1  0.250000  0.453624  0.761966  1
  C  C18  1  0.750000  0.548915  0.241147  1
  C  C19  1  0.250000  0.951085  0.741147  1
