# generated using pymatgen
data_Li4Th6Pd12Pt
_symmetry_space_group_name_H-M   'P 1'
_cell_length_a   8.38601383
_cell_length_b   8.38601309
_cell_length_c   8.38601300
_cell_angle_alpha   109.47121559
_cell_angle_beta   109.47121379
_cell_angle_gamma   109.47122928
_symmetry_Int_Tables_number   1
_chemical_formula_structural   Li4Th6Pd12Pt
_chemical_formula_sum   'Li4 Th6 Pd12 Pt1'
_cell_volume   453.98841277
_cell_formula_units_Z   1
loop_
 _symmetry_equiv_pos_site_id
 _symmetry_equiv_pos_as_xyz
  1  'x, y, z'
loop_
 _atom_site_type_symbol
 _atom_site_label
 _atom_site_symmetry_multiplicity
 _atom_site_fract_x
 _atom_site_fract_y
 _atom_site_fract_z
 _atom_site_occupancy
  Li  Li0  1  0.000000  0.000000  0.500000  1
  Li  Li1  1  0.000000  0.500000  0.000000  1
  Li  Li2  1  0.500000  0.000000  0.000000  1
  Li  Li3  1  0.500000  0.500000  0.500000  1
  Th  Th4  1  0.696161  0.696161  0.000000  1
  Th  Th5  1  0.303839  0.000000  0.303839  1
  Th  Th6  1  0.000000  0.303839  0.303839  1
  Th  Th7  1  0.303839  0.303839  0.000000  1
  Th  Th8  1  0.696161  0.000000  0.696161  1
  Th  Th9  1  0.000000  0.696161  0.696161  1
  Pd  Pd10  1  0.332009  0.332009  0.664020  1
  Pd  Pd11  1  0.667991  0.000000  0.332009  1
  Pd  Pd12  1  0.000000  0.667991  0.332009  1
  Pd  Pd13  1  0.667991  0.332009  0.000000  1
  Pd  Pd14  1  0.332009  0.664020  0.332009  1
  Pd  Pd15  1  0.000000  0.332009  0.667991  1
  Pd  Pd16  1  0.332009  0.667991  0.000000  1
  Pd  Pd17  1  0.332009  0.000000  0.667991  1
  Pd  Pd18  1  0.664020  0.332009  0.332009  1
  Pd  Pd19  1  0.667991  0.667991  0.335980  1
  Pd  Pd20  1  0.667991  0.335980  0.667991  1
  Pd  Pd21  1  0.335980  0.667991  0.667991  1
  Pt  Pt22  1  0.000000  0.000000  0.000000  1
