# generated using pymatgen
data_KAs(PO3)4
_symmetry_space_group_name_H-M   'P 1'
_cell_length_a   10.76346555
_cell_length_b   10.76346510
_cell_length_c   5.41297562
_cell_angle_alpha   80.14937923
_cell_angle_beta   80.14938437
_cell_angle_gamma   71.45164169
_symmetry_Int_Tables_number   1
_chemical_formula_structural   KAs(PO3)4
_chemical_formula_sum   'K2 As2 P8 O24'
_cell_volume   581.17900977
_cell_formula_units_Z   2
loop_
 _symmetry_equiv_pos_site_id
 _symmetry_equiv_pos_as_xyz
  1  'x, y, z'
loop_
 _atom_site_type_symbol
 _atom_site_label
 _atom_site_symmetry_multiplicity
 _atom_site_fract_x
 _atom_site_fract_y
 _atom_site_fract_z
 _atom_site_occupancy
  K  K0  1  0.410469  0.410469  0.721101  1
  K  K1  1  0.589531  0.589531  0.278899  1
  As  As2  1  0.500000  0.000000  0.000000  1
  As  As3  1  0.000000  0.500000  0.000000  1
  P  P4  1  0.795815  0.355069  0.838124  1
  P  P5  1  0.068247  0.302103  0.546127  1
  P  P6  1  0.302103  0.068247  0.546127  1
  P  P7  1  0.644931  0.204185  0.161876  1
  P  P8  1  0.355069  0.795815  0.838124  1
  P  P9  1  0.697897  0.931753  0.453873  1
  P  P10  1  0.931753  0.697897  0.453873  1
  P  P11  1  0.204185  0.644931  0.161876  1
  O  O12  1  0.429712  0.836634  0.010978  1
  O  O13  1  0.392522  0.104253  0.690487  1
  O  O14  1  0.425754  0.678587  0.706543  1
  O  O15  1  0.163366  0.570288  0.989022  1
  O  O16  1  0.570288  0.163366  0.989022  1
  O  O17  1  0.912843  0.670280  0.738032  1
  O  O18  1  0.217276  0.782724  0.000000  1
  O  O19  1  0.574246  0.321413  0.293457  1
  O  O20  1  0.607478  0.895747  0.309513  1
  O  O21  1  0.707136  0.077218  0.360428  1
  O  O22  1  0.321413  0.574246  0.293457  1
  O  O23  1  0.895747  0.607478  0.309513  1
  O  O24  1  0.836634  0.429712  0.010978  1
  O  O25  1  0.077218  0.707136  0.360428  1
  O  O26  1  0.151456  0.151456  0.629227  1
  O  O27  1  0.104253  0.392522  0.690487  1
  O  O28  1  0.678587  0.425754  0.706543  1
  O  O29  1  0.292864  0.922782  0.639572  1
  O  O30  1  0.782724  0.217276  0.000000  1
  O  O31  1  0.329720  0.087157  0.261968  1
  O  O32  1  0.670280  0.912843  0.738032  1
  O  O33  1  0.848544  0.848544  0.370773  1
  O  O34  1  0.922782  0.292864  0.639572  1
  O  O35  1  0.087157  0.329720  0.261968  1
