# generated using pymatgen
data_Cr2Os5Rh
_symmetry_space_group_name_H-M   'P 1'
_cell_length_a   5.44943900
_cell_length_b   5.45031689
_cell_length_c   4.27582300
_cell_angle_alpha   90.00000000
_cell_angle_beta   90.00000000
_cell_angle_gamma   119.99467799
_symmetry_Int_Tables_number   1
_chemical_formula_structural   Cr2Os5Rh
_chemical_formula_sum   'Cr2 Os5 Rh1'
_cell_volume   109.98847692
_cell_formula_units_Z   1
loop_
 _symmetry_equiv_pos_site_id
 _symmetry_equiv_pos_as_xyz
  1  'x, y, z'
loop_
 _atom_site_type_symbol
 _atom_site_label
 _atom_site_symmetry_multiplicity
 _atom_site_fract_x
 _atom_site_fract_y
 _atom_site_fract_z
 _atom_site_occupancy
  Cr  Cr0  1  0.336485  0.672968  0.749999  1
  Cr  Cr1  1  0.661038  0.322072  0.249999  1
  Os  Os2  1  0.660105  0.836327  0.249999  1
  Os  Os3  1  0.176220  0.836327  0.249999  1
  Os  Os4  1  0.830176  0.660352  0.749999  1
  Os  Os5  1  0.338826  0.166693  0.749999  1
  Os  Os6  1  0.827868  0.166693  0.749999  1
  Rh  Rh7  1  0.169281  0.338562  0.249999  1
