# generated using pymatgen
data_V6Co4SiAsN2
_symmetry_space_group_name_H-M   'P 1'
_cell_length_a   7.56785775
_cell_length_b   7.57555511
_cell_length_c   7.56539867
_cell_angle_alpha   59.95593833
_cell_angle_beta   59.90945195
_cell_angle_gamma   59.95980675
_symmetry_Int_Tables_number   1
_chemical_formula_structural   V6Co4SiAsN2
_chemical_formula_sum   'V12 Co8 Si2 As2 N4'
_cell_volume   306.28780892
_cell_formula_units_Z   2
loop_
 _symmetry_equiv_pos_site_id
 _symmetry_equiv_pos_as_xyz
  1  'x, y, z'
loop_
 _atom_site_type_symbol
 _atom_site_label
 _atom_site_symmetry_multiplicity
 _atom_site_fract_x
 _atom_site_fract_y
 _atom_site_fract_z
 _atom_site_occupancy
  V  V0  1  0.812887  0.813824  0.189129  1
  V  V1  1  0.189000  0.184326  0.813051  1
  V  V2  1  0.811005  0.188913  0.811296  1
  V  V3  1  0.184956  0.814978  0.185176  1
  V  V4  1  0.189132  0.813617  0.812939  1
  V  V5  1  0.812957  0.184234  0.189035  1
  V  V6  1  0.437113  0.436176  0.060871  1
  V  V7  1  0.061000  0.065674  0.436949  1
  V  V8  1  0.438995  0.061087  0.438704  1
  V  V9  1  0.065044  0.435022  0.064824  1
  V  V10  1  0.060868  0.436383  0.437061  1
  V  V11  1  0.437043  0.065766  0.060965  1
  Co  Co12  1  0.756433  0.412486  0.418753  1
  Co  Co13  1  0.415510  0.760641  0.415445  1
  Co  Co14  1  0.418790  0.412531  0.756094  1
  Co  Co15  1  0.415346  0.408248  0.415438  1
  Co  Co16  1  0.493567  0.837514  0.831247  1
  Co  Co17  1  0.834490  0.489359  0.834555  1
  Co  Co18  1  0.831210  0.837469  0.493906  1
  Co  Co19  1  0.834654  0.841752  0.834562  1
  Si  Si20  1  0.625000  0.125000  0.625000  1
  Si  Si21  1  0.625000  0.625000  0.625000  1
  As  As22  1  0.125000  0.625000  0.625000  1
  As  As23  1  0.625000  0.625000  0.125000  1
  N  N24  1  0.625000  0.125000  0.125000  1
  N  N25  1  0.125000  0.625000  0.125000  1
  N  N26  1  0.125000  0.125000  0.625000  1
  N  N27  1  0.125000  0.125000  0.125000  1
