# generated using pymatgen
data_SrSe2O7
_symmetry_space_group_name_H-M   'P 1'
_cell_length_a   5.87264452
_cell_length_b   8.12203036
_cell_length_c   9.97273040
_cell_angle_alpha   92.45136420
_cell_angle_beta   95.60678287
_cell_angle_gamma   107.66263481
_symmetry_Int_Tables_number   1
_chemical_formula_structural   SrSe2O7
_chemical_formula_sum   'Sr2 Se4 O14'
_cell_volume   449.76807119
_cell_formula_units_Z   2
loop_
 _symmetry_equiv_pos_site_id
 _symmetry_equiv_pos_as_xyz
  1  'x, y, z'
loop_
 _atom_site_type_symbol
 _atom_site_label
 _atom_site_symmetry_multiplicity
 _atom_site_fract_x
 _atom_site_fract_y
 _atom_site_fract_z
 _atom_site_occupancy
  Sr  Sr0  1  0.000000  0.500000  0.000000  1
  Sr  Sr1  1  0.500000  0.000000  0.500000  1
  Se  Se2  1  0.503005  0.641464  0.767225  1
  Se  Se3  1  0.496995  0.358536  0.232775  1
  Se  Se4  1  0.143233  0.256215  0.689071  1
  Se  Se5  1  0.856767  0.743785  0.310929  1
  O  O6  1  0.720549  0.561688  0.816382  1
  O  O7  1  0.279451  0.438312  0.183618  1
  O  O8  1  0.350478  0.677278  0.889132  1
  O  O9  1  0.649522  0.322722  0.110868  1
  O  O10  1  0.583372  0.801715  0.669833  1
  O  O11  1  0.416628  0.198285  0.330167  1
  O  O12  1  0.289973  0.477958  0.644870  1
  O  O13  1  0.710027  0.522042  0.355130  1
  O  O14  1  0.917089  0.197148  0.568317  1
  O  O15  1  0.082911  0.802852  0.431683  1
  O  O16  1  0.341647  0.152250  0.678656  1
  O  O17  1  0.658353  0.847750  0.321344  1
  O  O18  1  0.067633  0.272996  0.842524  1
  O  O19  1  0.932367  0.727004  0.157476  1
