# generated using pymatgen
data_KAl3Se5
_symmetry_space_group_name_H-M   'P 1'
_cell_length_a   13.45235700
_cell_length_b   7.54622340
_cell_length_c   11.05802728
_cell_angle_alpha   75.83984945
_cell_angle_beta   90.00000000
_cell_angle_gamma   90.00000000
_symmetry_Int_Tables_number   1
_chemical_formula_structural   KAl3Se5
_chemical_formula_sum   'K4 Al12 Se20'
_cell_volume   1088.44214682
_cell_formula_units_Z   4
loop_
 _symmetry_equiv_pos_site_id
 _symmetry_equiv_pos_as_xyz
  1  'x, y, z'
loop_
 _atom_site_type_symbol
 _atom_site_label
 _atom_site_symmetry_multiplicity
 _atom_site_fract_x
 _atom_site_fract_y
 _atom_site_fract_z
 _atom_site_occupancy
  K  K0  1  0.627004  0.833476  0.375277  1
  K  K1  1  0.127004  0.166524  0.124723  1
  K  K2  1  0.372996  0.166524  0.624723  1
  K  K3  1  0.872996  0.833476  0.875277  1
  Al  Al4  1  0.922755  0.798514  0.397512  1
  Al  Al5  1  0.577245  0.798514  0.897512  1
  Al  Al6  1  0.422755  0.201486  0.102488  1
  Al  Al7  1  0.398679  0.563455  0.806546  1
  Al  Al8  1  0.101321  0.563455  0.306546  1
  Al  Al9  1  0.336447  0.709710  0.124722  1
  Al  Al10  1  0.601321  0.436545  0.193454  1
  Al  Al11  1  0.077245  0.201486  0.602488  1
  Al  Al12  1  0.663553  0.290290  0.875278  1
  Al  Al13  1  0.898679  0.436545  0.693454  1
  Al  Al14  1  0.163553  0.709710  0.624722  1
  Al  Al15  1  0.836447  0.290290  0.375278  1
  Se  Se16  1  0.828664  0.716713  0.583525  1
  Se  Se17  1  0.104481  0.816686  0.409146  1
  Se  Se18  1  0.671336  0.716713  0.083525  1
  Se  Se19  1  0.395519  0.816686  0.909146  1
  Se  Se20  1  0.328664  0.283287  0.916475  1
  Se  Se21  1  0.663196  0.342280  0.401039  1
  Se  Se22  1  0.579814  0.574692  0.765618  1
  Se  Se23  1  0.604481  0.183314  0.090854  1
  Se  Se24  1  0.895519  0.183314  0.590854  1
  Se  Se25  1  0.631768  0.071627  0.755743  1
  Se  Se26  1  0.368232  0.928373  0.244257  1
  Se  Se27  1  0.171336  0.283287  0.416475  1
  Se  Se28  1  0.079814  0.425308  0.734382  1
  Se  Se29  1  0.920186  0.574692  0.265618  1
  Se  Se30  1  0.868232  0.071627  0.255743  1
  Se  Se31  1  0.131768  0.928373  0.744257  1
  Se  Se32  1  0.836804  0.342280  0.901039  1
  Se  Se33  1  0.336804  0.657720  0.598961  1
  Se  Se34  1  0.420186  0.425308  0.234382  1
  Se  Se35  1  0.163196  0.657720  0.098961  1
