# generated using pymatgen
data_Ce6Th2AlSe17
_symmetry_space_group_name_H-M   'P 1'
_cell_length_a   8.38438207
_cell_length_b   8.38438123
_cell_length_c   11.10834900
_cell_angle_alpha   80.46671346
_cell_angle_beta   80.46671443
_cell_angle_gamma   65.30049287
_symmetry_Int_Tables_number   1
_chemical_formula_structural   Ce6Th2AlSe17
_chemical_formula_sum   'Ce6 Th2 Al1 Se17'
_cell_volume   695.59002641
_cell_formula_units_Z   1
loop_
 _symmetry_equiv_pos_site_id
 _symmetry_equiv_pos_as_xyz
  1  'x, y, z'
loop_
 _atom_site_type_symbol
 _atom_site_label
 _atom_site_symmetry_multiplicity
 _atom_site_fract_x
 _atom_site_fract_y
 _atom_site_fract_z
 _atom_site_occupancy
  Ce  Ce0  1  0.816373  0.303805  0.298986  1
  Ce  Ce1  1  0.303805  0.816373  0.298986  1
  Ce  Ce2  1  0.183627  0.696195  0.701014  1
  Ce  Ce3  1  0.696195  0.183627  0.701014  1
  Ce  Ce4  1  0.795338  0.795338  0.455548  1
  Ce  Ce5  1  0.204662  0.204662  0.544452  1
  Th  Th6  1  0.319299  0.319299  0.020816  1
  Th  Th7  1  0.680701  0.680701  0.979184  1
  Al  Al8  1  0.000000  0.000000  0.000000  1
  Se  Se9  1  0.176225  0.568916  0.466089  1
  Se  Se10  1  0.568916  0.176225  0.466089  1
  Se  Se11  1  0.823775  0.431084  0.533911  1
  Se  Se12  1  0.431084  0.823775  0.533911  1
  Se  Se13  1  0.946093  0.319881  0.028285  1
  Se  Se14  1  0.319881  0.946093  0.028285  1
  Se  Se15  1  0.053907  0.680119  0.971715  1
  Se  Se16  1  0.680119  0.053907  0.971715  1
  Se  Se17  1  0.944301  0.944301  0.226470  1
  Se  Se18  1  0.055699  0.055699  0.773530  1
  Se  Se19  1  0.787898  0.787898  0.719171  1
  Se  Se20  1  0.212102  0.212102  0.280829  1
  Se  Se21  1  0.698773  0.698773  0.244186  1
  Se  Se22  1  0.301227  0.301227  0.755814  1
  Se  Se23  1  0.480664  0.480664  0.168435  1
  Se  Se24  1  0.519336  0.519336  0.831565  1
  Se  Se25  1  0.000000  0.000000  0.500000  1
