# generated using pymatgen
data_CdFe4PbBr16
_symmetry_space_group_name_H-M   'P 1'
_cell_length_a   7.64413680
_cell_length_b   7.85398181
_cell_length_c   14.36092825
_cell_angle_alpha   87.92911051
_cell_angle_beta   89.60831973
_cell_angle_gamma   89.34647229
_symmetry_Int_Tables_number   1
_chemical_formula_structural   CdFe4PbBr16
_chemical_formula_sum   'Cd1 Fe4 Pb1 Br16'
_cell_volume   861.54881641
_cell_formula_units_Z   1
loop_
 _symmetry_equiv_pos_site_id
 _symmetry_equiv_pos_as_xyz
  1  'x, y, z'
loop_
 _atom_site_type_symbol
 _atom_site_label
 _atom_site_symmetry_multiplicity
 _atom_site_fract_x
 _atom_site_fract_y
 _atom_site_fract_z
 _atom_site_occupancy
  Cd  Cd0  1  0.248589  0.076217  0.309420  1
  Fe  Fe1  1  0.943988  0.222487  0.571802  1
  Fe  Fe2  1  0.072048  0.212579  0.087123  1
  Fe  Fe3  1  0.565722  0.639453  0.780272  1
  Fe  Fe4  1  0.415413  0.641020  0.280727  1
  Pb  Pb5  1  0.760043  0.076552  0.814018  1
  Br  Br6  1  0.427878  0.610789  0.640389  1
  Br  Br7  1  0.568678  0.613256  0.143900  1
  Br  Br8  1  0.865066  0.720914  0.757005  1
  Br  Br9  1  0.123340  0.742949  0.257219  1
  Br  Br10  1  0.936626  0.482341  0.494039  1
  Br  Br11  1  0.059236  0.464768  0.001440  1
  Br  Br12  1  0.928987  0.992209  0.007787  1
  Br  Br13  1  0.093450  0.007419  0.486154  1
  Br  Br14  1  0.653755  0.129655  0.610894  1
  Br  Br15  1  0.367917  0.128353  0.122528  1
  Br  Br16  1  0.550833  0.389807  0.879153  1
  Br  Br17  1  0.417947  0.375304  0.369826  1
  Br  Br18  1  0.435891  0.867235  0.864352  1
  Br  Br19  1  0.538611  0.869889  0.366044  1
  Br  Br20  1  0.943530  0.235927  0.239662  1
  Br  Br21  1  0.082453  0.235675  0.720644  1
