# generated using pymatgen
data_Tm(Ga3Pd)3
_symmetry_space_group_name_H-M   'P 1'
_cell_length_a   10.47430088
_cell_length_b   10.47423231
_cell_length_c   10.47425562
_cell_angle_alpha   42.24004591
_cell_angle_beta   42.23981506
_cell_angle_gamma   42.23951778
_symmetry_Int_Tables_number   1
_chemical_formula_structural   Tm(Ga3Pd)3
_chemical_formula_sum   'Tm2 Ga18 Pd6'
_cell_volume   469.96335084
_cell_formula_units_Z   2
loop_
 _symmetry_equiv_pos_site_id
 _symmetry_equiv_pos_as_xyz
  1  'x, y, z'
loop_
 _atom_site_type_symbol
 _atom_site_label
 _atom_site_symmetry_multiplicity
 _atom_site_fract_x
 _atom_site_fract_y
 _atom_site_fract_z
 _atom_site_occupancy
  Tm  Tm0  1  0.166840  0.166841  0.166847  1
  Tm  Tm1  1  0.833156  0.833152  0.833166  1
  Ga  Ga2  1  0.049185  0.049165  0.049195  1
  Ga  Ga3  1  0.705014  0.499996  0.294998  1
  Ga  Ga4  1  0.664968  0.335067  0.999970  1
  Ga  Ga5  1  0.108670  0.438313  0.770088  1
  Ga  Ga6  1  0.438341  0.770077  0.108666  1
  Ga  Ga7  1  0.384843  0.384834  0.384822  1
  Ga  Ga8  1  0.335020  0.999986  0.664990  1
  Ga  Ga9  1  0.615165  0.615167  0.615160  1
  Ga  Ga10  1  0.229899  0.561665  0.891349  1
  Ga  Ga11  1  0.561653  0.891344  0.229917  1
  Ga  Ga12  1  0.499995  0.294984  0.705034  1
  Ga  Ga13  1  0.770089  0.108641  0.438341  1
  Ga  Ga14  1  0.950767  0.950807  0.950764  1
  Ga  Ga15  1  0.294957  0.705039  0.500006  1
  Ga  Ga16  1  0.000006  0.665071  0.334893  1
  Ga  Ga17  1  0.715351  0.715314  0.715307  1
  Ga  Ga18  1  0.284667  0.284683  0.284689  1
  Ga  Ga19  1  0.891340  0.229902  0.561673  1
  Pd  Pd20  1  0.240134  0.921973  0.580513  1
  Pd  Pd21  1  0.921971  0.580491  0.240141  1
  Pd  Pd22  1  0.759922  0.419476  0.078046  1
  Pd  Pd23  1  0.078049  0.759866  0.419513  1
  Pd  Pd24  1  0.419509  0.078018  0.759921  1
  Pd  Pd25  1  0.580489  0.240126  0.921992  1
