# generated using pymatgen
data_Pr8DyHoIn6
_symmetry_space_group_name_H-M   'P 1'
_cell_length_a   6.24938863
_cell_length_b   9.45134545
_cell_length_c   9.45134495
_cell_angle_alpha   83.72427708
_cell_angle_beta   70.63910330
_cell_angle_gamma   70.63910711
_symmetry_Int_Tables_number   1
_chemical_formula_structural   Pr8DyHoIn6
_chemical_formula_sum   'Pr8 Dy1 Ho1 In6'
_cell_volume   496.89162594
_cell_formula_units_Z   1
loop_
 _symmetry_equiv_pos_site_id
 _symmetry_equiv_pos_as_xyz
  1  'x, y, z'
loop_
 _atom_site_type_symbol
 _atom_site_label
 _atom_site_symmetry_multiplicity
 _atom_site_fract_x
 _atom_site_fract_y
 _atom_site_fract_z
 _atom_site_occupancy
  Pr  Pr0  1  0.722107  0.864791  0.692111  1
  Pr  Pr1  1  0.278231  0.135181  0.307917  1
  Pr  Pr2  1  0.777893  0.307889  0.135209  1
  Pr  Pr3  1  0.221769  0.692083  0.864819  1
  Pr  Pr4  1  0.585906  0.692226  0.135247  1
  Pr  Pr5  1  0.413558  0.307810  0.864781  1
  Pr  Pr6  1  0.086442  0.135219  0.692190  1
  Pr  Pr7  1  0.914094  0.864753  0.307774  1
  Dy  Dy8  1  0.750000  0.500015  0.499985  1
  Ho  Ho9  1  0.250000  0.499939  0.500061  1
  In  In10  1  0.157251  0.499812  0.186677  1
  In  In11  1  0.843297  0.500219  0.813252  1
  In  In12  1  0.342749  0.813323  0.500188  1
  In  In13  1  0.656703  0.186748  0.499781  1
  In  In14  1  0.250000  0.999983  0.000017  1
  In  In15  1  0.750000  0.000009  0.999991  1
