# generated using pymatgen
data_Nd3(GaPt)4
_symmetry_space_group_name_H-M   'P 1'
_cell_length_a   8.35115769
_cell_length_b   8.35115830
_cell_length_c   8.35115800
_cell_angle_alpha   150.65426585
_cell_angle_beta   128.30483970
_cell_angle_gamma   60.55921210
_symmetry_Int_Tables_number   1
_chemical_formula_structural   Nd3(GaPt)4
_chemical_formula_sum   'Nd3 Ga4 Pt4'
_cell_volume   222.17762105
_cell_formula_units_Z   1
loop_
 _symmetry_equiv_pos_site_id
 _symmetry_equiv_pos_as_xyz
  1  'x, y, z'
loop_
 _atom_site_type_symbol
 _atom_site_label
 _atom_site_symmetry_multiplicity
 _atom_site_fract_x
 _atom_site_fract_y
 _atom_site_fract_z
 _atom_site_occupancy
  Nd  Nd0  1  0.500000  0.000000  0.500000  1
  Nd  Nd1  1  0.873962  0.873962  0.000000  1
  Nd  Nd2  1  0.126038  0.126038  0.000000  1
  Ga  Ga3  1  0.478183  0.673484  0.804698  1
  Ga  Ga4  1  0.868785  0.673484  0.195302  1
  Ga  Ga5  1  0.131215  0.326516  0.804698  1
  Ga  Ga6  1  0.521817  0.326516  0.195302  1
  Pt  Pt7  1  0.285797  0.785797  0.500000  1
  Pt  Pt8  1  0.714203  0.214203  0.500000  1
  Pt  Pt9  1  0.798349  0.500000  0.298349  1
  Pt  Pt10  1  0.201651  0.500000  0.701651  1
