# generated using pymatgen
data_Sr2DyHo2(Ni2Sn5)2
_symmetry_space_group_name_H-M   'P 1'
_cell_length_a   14.11871900
_cell_length_b   14.11871900
_cell_length_c   4.48143500
_cell_angle_alpha   90.00000000
_cell_angle_beta   90.00000000
_cell_angle_gamma   90.00000000
_symmetry_Int_Tables_number   1
_chemical_formula_structural   Sr2DyHo2(Ni2Sn5)2
_chemical_formula_sum   'Sr4 Dy2 Ho4 Ni8 Sn20'
_cell_volume   893.32130373
_cell_formula_units_Z   2
loop_
 _symmetry_equiv_pos_site_id
 _symmetry_equiv_pos_as_xyz
  1  'x, y, z'
loop_
 _atom_site_type_symbol
 _atom_site_label
 _atom_site_symmetry_multiplicity
 _atom_site_fract_x
 _atom_site_fract_y
 _atom_site_fract_z
 _atom_site_occupancy
  Sr  Sr0  1  0.891586  0.608414  0.500000  1
  Sr  Sr1  1  0.108414  0.391586  0.500000  1
  Sr  Sr2  1  0.391586  0.891586  0.500000  1
  Sr  Sr3  1  0.608414  0.108414  0.500000  1
  Dy  Dy4  1  0.000000  0.000000  0.000000  1
  Dy  Dy5  1  0.500000  0.500000  0.000000  1
  Ho  Ho6  1  0.180581  0.680581  0.500000  1
  Ho  Ho7  1  0.819419  0.319419  0.500000  1
  Ho  Ho8  1  0.680581  0.819419  0.500000  1
  Ho  Ho9  1  0.319419  0.180581  0.500000  1
  Ni  Ni10  1  0.257787  0.537551  0.000000  1
  Ni  Ni11  1  0.742213  0.462449  0.000000  1
  Ni  Ni12  1  0.757787  0.962449  0.000000  1
  Ni  Ni13  1  0.242213  0.037551  0.000000  1
  Ni  Ni14  1  0.462449  0.257787  0.000000  1
  Ni  Ni15  1  0.537551  0.742213  0.000000  1
  Ni  Ni16  1  0.037551  0.757787  0.000000  1
  Ni  Ni17  1  0.962449  0.242213  0.000000  1
  Sn  Sn18  1  0.353536  0.698771  0.000000  1
  Sn  Sn19  1  0.646464  0.301229  0.000000  1
  Sn  Sn20  1  0.853536  0.801229  0.000000  1
  Sn  Sn21  1  0.146464  0.198771  0.000000  1
  Sn  Sn22  1  0.301229  0.353536  0.000000  1
  Sn  Sn23  1  0.698771  0.646464  0.000000  1
  Sn  Sn24  1  0.198771  0.853536  0.000000  1
  Sn  Sn25  1  0.801229  0.146464  0.000000  1
  Sn  Sn26  1  0.338665  0.515795  0.500000  1
  Sn  Sn27  1  0.661335  0.484205  0.500000  1
  Sn  Sn28  1  0.838665  0.984205  0.500000  1
  Sn  Sn29  1  0.161335  0.015795  0.500000  1
  Sn  Sn30  1  0.484205  0.338665  0.500000  1
  Sn  Sn31  1  0.515795  0.661335  0.500000  1
  Sn  Sn32  1  0.015795  0.838665  0.500000  1
  Sn  Sn33  1  0.984205  0.161335  0.500000  1
  Sn  Sn34  1  0.073965  0.573965  0.000000  1
  Sn  Sn35  1  0.926035  0.426035  0.000000  1
  Sn  Sn36  1  0.573965  0.926035  0.000000  1
  Sn  Sn37  1  0.426035  0.073965  0.000000  1
