# generated using pymatgen
data_Y2HoP4Pd7
_symmetry_space_group_name_H-M   'P 1'
_cell_length_a   7.94081854
_cell_length_b   7.94081894
_cell_length_c   9.42315836
_cell_angle_alpha   55.81034655
_cell_angle_beta   55.81034432
_cell_angle_gamma   29.24257516
_symmetry_Int_Tables_number   1
_chemical_formula_structural   Y2HoP4Pd7
_chemical_formula_sum   'Y2 Ho1 P4 Pd7'
_cell_volume   236.30364414
_cell_formula_units_Z   1
loop_
 _symmetry_equiv_pos_site_id
 _symmetry_equiv_pos_as_xyz
  1  'x, y, z'
loop_
 _atom_site_type_symbol
 _atom_site_label
 _atom_site_symmetry_multiplicity
 _atom_site_fract_x
 _atom_site_fract_y
 _atom_site_fract_z
 _atom_site_occupancy
  Y  Y0  1  0.499976  0.499976  0.500002  1
  Y  Y1  1  0.820118  0.820118  0.176702  1
  Ho  Ho2  1  0.179592  0.179592  0.823877  1
  P  P3  1  0.393939  0.393939  0.319838  1
  P  P4  1  0.606335  0.606335  0.680369  1
  P  P5  1  0.840301  0.840301  0.753628  1
  P  P6  1  0.159338  0.159338  0.246682  1
  Pd  Pd7  1  0.668759  0.668759  0.077406  1
  Pd  Pd8  1  0.009803  0.009803  0.215564  1
  Pd  Pd9  1  0.990480  0.990480  0.784003  1
  Pd  Pd10  1  0.500549  0.500549  0.999464  1
  Pd  Pd11  1  0.195055  0.195055  0.469955  1
  Pd  Pd12  1  0.804684  0.804684  0.530890  1
  Pd  Pd13  1  0.331072  0.331072  0.921618  1
