# generated using pymatgen
data_Dy2Tm4NbCo17P12
_symmetry_space_group_name_H-M   'P 1'
_cell_length_a   3.68702500
_cell_length_b   10.53737800
_cell_length_c   12.22460000
_cell_angle_alpha   90.00000000
_cell_angle_beta   90.00000000
_cell_angle_gamma   90.00000000
_symmetry_Int_Tables_number   1
_chemical_formula_structural   Dy2Tm4NbCo17P12
_chemical_formula_sum   'Dy2 Tm4 Nb1 Co17 P12'
_cell_volume   474.94497744
_cell_formula_units_Z   1
loop_
 _symmetry_equiv_pos_site_id
 _symmetry_equiv_pos_as_xyz
  1  'x, y, z'
loop_
 _atom_site_type_symbol
 _atom_site_label
 _atom_site_symmetry_multiplicity
 _atom_site_fract_x
 _atom_site_fract_y
 _atom_site_fract_z
 _atom_site_occupancy
  Dy  Dy0  1  0.000000  0.500000  0.527347  1
  Dy  Dy1  1  0.500000  0.000000  0.477199  1
  Tm  Tm2  1  0.500000  0.819913  0.206899  1
  Tm  Tm3  1  0.500000  0.180087  0.206899  1
  Tm  Tm4  1  0.000000  0.682568  0.796228  1
  Tm  Tm5  1  0.000000  0.317432  0.796228  1
  Nb  Nb6  1  0.500000  0.500000  0.154764  1
  Co  Co7  1  0.000000  0.000000  0.838596  1
  Co  Co8  1  0.500000  0.500000  0.702853  1
  Co  Co9  1  0.000000  0.000000  0.295616  1
  Co  Co10  1  0.000000  0.500000  0.983953  1
  Co  Co11  1  0.500000  0.000000  0.014393  1
  Co  Co12  1  0.500000  0.329434  0.989051  1
  Co  Co13  1  0.500000  0.670566  0.989051  1
  Co  Co14  1  0.000000  0.163889  0.003942  1
  Co  Co15  1  0.000000  0.836111  0.003942  1
  Co  Co16  1  0.500000  0.295025  0.432867  1
  Co  Co17  1  0.500000  0.704975  0.432867  1
  Co  Co18  1  0.000000  0.202432  0.570091  1
  Co  Co19  1  0.000000  0.797568  0.570091  1
  Co  Co20  1  0.500000  0.879100  0.708723  1
  Co  Co21  1  0.500000  0.120900  0.708723  1
  Co  Co22  1  0.000000  0.623654  0.293939  1
  Co  Co23  1  0.000000  0.376346  0.293939  1
  P  P24  1  0.500000  0.500000  0.880292  1
  P  P25  1  0.000000  0.000000  0.117587  1
  P  P26  1  0.500000  0.500000  0.356014  1
  P  P27  1  0.000000  0.000000  0.655512  1
  P  P28  1  0.500000  0.309963  0.618358  1
  P  P29  1  0.500000  0.690037  0.618358  1
  P  P30  1  0.000000  0.187982  0.384858  1
  P  P31  1  0.000000  0.812018  0.384858  1
  P  P32  1  0.500000  0.850628  0.889531  1
  P  P33  1  0.500000  0.149372  0.889531  1
  P  P34  1  0.000000  0.661829  0.103448  1
  P  P35  1  0.000000  0.338171  0.103448  1
