# generated using pymatgen
data_Dy3Ho7In8Pt3Au
_symmetry_space_group_name_H-M   'P 1'
_cell_length_a   3.63040800
_cell_length_b   8.17346326
_cell_length_c   18.29105401
_cell_angle_alpha   89.99530876
_cell_angle_beta   90.00000000
_cell_angle_gamma   90.00000000
_symmetry_Int_Tables_number   1
_chemical_formula_structural   Dy3Ho7In8Pt3Au
_chemical_formula_sum   'Dy3 Ho7 In8 Pt3 Au1'
_cell_volume   542.75056084
_cell_formula_units_Z   1
loop_
 _symmetry_equiv_pos_site_id
 _symmetry_equiv_pos_as_xyz
  1  'x, y, z'
loop_
 _atom_site_type_symbol
 _atom_site_label
 _atom_site_symmetry_multiplicity
 _atom_site_fract_x
 _atom_site_fract_y
 _atom_site_fract_z
 _atom_site_occupancy
  Dy  Dy0  1  0.000000  0.731661  0.279154  1
  Dy  Dy1  1  0.000000  0.999509  0.999195  1
  Dy  Dy2  1  0.000000  0.499234  0.500464  1
  Ho  Ho3  1  0.000000  0.120390  0.419632  1
  Ho  Ho4  1  0.000000  0.883845  0.586102  1
  Ho  Ho5  1  0.000000  0.384133  0.914357  1
  Ho  Ho6  1  0.000000  0.616236  0.083835  1
  Ho  Ho7  1  0.000000  0.252658  0.217360  1
  Ho  Ho8  1  0.000000  0.755501  0.779750  1
  Ho  Ho9  1  0.000000  0.255904  0.720784  1
  In  In10  1  0.500000  0.423173  0.352428  1
  In  In11  1  0.500000  0.575379  0.648688  1
  In  In12  1  0.500000  0.075443  0.851451  1
  In  In13  1  0.500000  0.923131  0.147296  1
  In  In14  1  0.500000  0.291630  0.065988  1
  In  In15  1  0.500000  0.707968  0.932839  1
  In  In16  1  0.500000  0.208414  0.567826  1
  In  In17  1  0.500000  0.791194  0.433897  1
  Pt  Pt18  1  0.500000  0.974486  0.697035  1
  Pt  Pt19  1  0.500000  0.474723  0.803294  1
  Pt  Pt20  1  0.500000  0.526808  0.196306  1
  Au  Au21  1  0.500000  0.028582  0.302320  1
