# generated using pymatgen
data_ThIn2Cu9
_symmetry_space_group_name_H-M   'P 1'
_cell_length_a   8.51704400
_cell_length_b   8.51704400
_cell_length_c   4.98253700
_cell_angle_alpha   90.00000000
_cell_angle_beta   90.00000000
_cell_angle_gamma   90.00000000
_symmetry_Int_Tables_number   1
_chemical_formula_structural   ThIn2Cu9
_chemical_formula_sum   'Th2 In4 Cu18'
_cell_volume   361.43342580
_cell_formula_units_Z   2
loop_
 _symmetry_equiv_pos_site_id
 _symmetry_equiv_pos_as_xyz
  1  'x, y, z'
loop_
 _atom_site_type_symbol
 _atom_site_label
 _atom_site_symmetry_multiplicity
 _atom_site_fract_x
 _atom_site_fract_y
 _atom_site_fract_z
 _atom_site_occupancy
  Th  Th0  1  0.000000  0.000000  0.000000  1
  Th  Th1  1  0.500000  0.500000  0.000000  1
  In  In2  1  0.122875  0.622875  0.000000  1
  In  In3  1  0.877125  0.377125  0.000000  1
  In  In4  1  0.622875  0.877125  0.000000  1
  In  In5  1  0.377125  0.122875  0.000000  1
  Cu  Cu6  1  0.500000  0.000000  0.500000  1
  Cu  Cu7  1  0.000000  0.500000  0.500000  1
  Cu  Cu8  1  0.205111  0.063676  0.500000  1
  Cu  Cu9  1  0.794889  0.936324  0.500000  1
  Cu  Cu10  1  0.063676  0.794889  0.500000  1
  Cu  Cu11  1  0.705111  0.436324  0.500000  1
  Cu  Cu12  1  0.936324  0.205111  0.500000  1
  Cu  Cu13  1  0.294889  0.563676  0.500000  1
  Cu  Cu14  1  0.563676  0.705111  0.500000  1
  Cu  Cu15  1  0.436324  0.294889  0.500000  1
  Cu  Cu16  1  0.676466  0.176466  0.247143  1
  Cu  Cu17  1  0.323534  0.823534  0.752857  1
  Cu  Cu18  1  0.323534  0.823534  0.247143  1
  Cu  Cu19  1  0.176466  0.323534  0.247143  1
  Cu  Cu20  1  0.176466  0.323534  0.752857  1
  Cu  Cu21  1  0.676466  0.176466  0.752857  1
  Cu  Cu22  1  0.823534  0.676466  0.752857  1
  Cu  Cu23  1  0.823534  0.676466  0.247143  1
