# generated using pymatgen
data_FeBi6(AsO5)4
_symmetry_space_group_name_H-M   'P 1'
_cell_length_a   7.12719413
_cell_length_b   7.86480144
_cell_length_c   9.51757391
_cell_angle_alpha   105.36629826
_cell_angle_beta   95.35042050
_cell_angle_gamma   113.48974464
_symmetry_Int_Tables_number   1
_chemical_formula_structural   FeBi6(AsO5)4
_chemical_formula_sum   'Fe1 Bi6 As4 O20'
_cell_volume   459.71239177
_cell_formula_units_Z   1
loop_
 _symmetry_equiv_pos_site_id
 _symmetry_equiv_pos_as_xyz
  1  'x, y, z'
loop_
 _atom_site_type_symbol
 _atom_site_label
 _atom_site_symmetry_multiplicity
 _atom_site_fract_x
 _atom_site_fract_y
 _atom_site_fract_z
 _atom_site_occupancy
  Fe  Fe0  1  0.000000  0.000000  0.000000  1
  Bi  Bi1  1  0.350368  0.136046  0.518222  1
  Bi  Bi2  1  0.649632  0.863954  0.481778  1
  Bi  Bi3  1  0.430023  0.797012  0.081170  1
  Bi  Bi4  1  0.569977  0.202988  0.918830  1
  Bi  Bi5  1  0.809187  0.296631  0.324044  1
  Bi  Bi6  1  0.190813  0.703369  0.675956  1
  As  As7  1  0.056532  0.258910  0.770736  1
  As  As8  1  0.943468  0.741090  0.229264  1
  As  As9  1  0.328459  0.373150  0.241787  1
  As  As10  1  0.671541  0.626850  0.758213  1
  O  O11  1  0.084721  0.207988  0.251833  1
  O  O12  1  0.915279  0.792012  0.748167  1
  O  O13  1  0.160189  0.512112  0.839106  1
  O  O14  1  0.839811  0.487888  0.160894  1
  O  O15  1  0.659938  0.098642  0.106925  1
  O  O16  1  0.340062  0.901358  0.893075  1
  O  O17  1  0.547554  0.029939  0.365860  1
  O  O18  1  0.452446  0.970061  0.634140  1
  O  O19  1  0.342046  0.605122  0.291160  1
  O  O20  1  0.657954  0.394878  0.708840  1
  O  O21  1  0.250250  0.180214  0.754797  1
  O  O22  1  0.749750  0.819786  0.245203  1
  O  O23  1  0.532938  0.382388  0.361336  1
  O  O24  1  0.467062  0.617612  0.638664  1
  O  O25  1  0.074998  0.815138  0.413508  1
  O  O26  1  0.925002  0.184862  0.586492  1
  O  O27  1  0.102314  0.844073  0.117972  1
  O  O28  1  0.897686  0.155927  0.882028  1
  O  O29  1  0.319950  0.265762  0.055657  1
  O  O30  1  0.680050  0.734238  0.944343  1
