# generated using pymatgen
data_Ho10Tl7InNi3Ag
_symmetry_space_group_name_H-M   'P 1'
_cell_length_a   8.16373500
_cell_length_b   18.18954133
_cell_length_c   3.57906400
_cell_angle_alpha   90.00000000
_cell_angle_beta   90.00000000
_cell_angle_gamma   90.28266232
_symmetry_Int_Tables_number   1
_chemical_formula_structural   Ho10Tl7InNi3Ag
_chemical_formula_sum   'Ho10 Tl7 In1 Ni3 Ag1'
_cell_volume   531.46519233
_cell_formula_units_Z   1
loop_
 _symmetry_equiv_pos_site_id
 _symmetry_equiv_pos_as_xyz
  1  'x, y, z'
loop_
 _atom_site_type_symbol
 _atom_site_label
 _atom_site_symmetry_multiplicity
 _atom_site_fract_x
 _atom_site_fract_y
 _atom_site_fract_z
 _atom_site_occupancy
  Ho  Ho0  1  0.498600  0.502891  0.000000  1
  Ho  Ho1  1  0.002533  0.996459  0.000000  1
  Ho  Ho2  1  0.769794  0.287163  0.000000  1
  Ho  Ho3  1  0.250861  0.720204  0.000000  1
  Ho  Ho4  1  0.754129  0.778388  0.000000  1
  Ho  Ho5  1  0.221862  0.222507  0.000000  1
  Ho  Ho6  1  0.622869  0.076627  0.000000  1
  Ho  Ho7  1  0.383762  0.906665  0.000000  1
  Ho  Ho8  1  0.883494  0.592291  0.000000  1
  Ho  Ho9  1  0.118173  0.413711  0.000000  1
  Tl  Tl10  1  0.706972  0.927559  0.500000  1
  Tl  Tl11  1  0.296054  0.064420  0.500000  1
  Tl  Tl12  1  0.798087  0.438586  0.500000  1
  Tl  Tl13  1  0.200984  0.568598  0.500000  1
  Tl  Tl14  1  0.573165  0.652484  0.500000  1
  Tl  Tl15  1  0.423173  0.352726  0.500000  1
  Tl  Tl16  1  0.918377  0.148580  0.500000  1
  In  In17  1  0.073257  0.846219  0.500000  1
  Ni  Ni18  1  0.468332  0.800987  0.500000  1
  Ni  Ni19  1  0.973132  0.698390  0.500000  1
  Ni  Ni20  1  0.030640  0.305186  0.500000  1
  Ag  Ag21  1  0.531748  0.199356  0.500000  1
