# generated using pymatgen
data_DyY(B4W)2
_symmetry_space_group_name_H-M   'P 1'
_cell_length_a   6.04434300
_cell_length_b   11.68607900
_cell_length_c   3.62910000
_cell_angle_alpha   90.00000000
_cell_angle_beta   90.00000000
_cell_angle_gamma   90.00058803
_symmetry_Int_Tables_number   1
_chemical_formula_structural   DyY(B4W)2
_chemical_formula_sum   'Dy2 Y2 B16 W4'
_cell_volume   256.34028017
_cell_formula_units_Z   2
loop_
 _symmetry_equiv_pos_site_id
 _symmetry_equiv_pos_as_xyz
  1  'x, y, z'
loop_
 _atom_site_type_symbol
 _atom_site_label
 _atom_site_symmetry_multiplicity
 _atom_site_fract_x
 _atom_site_fract_y
 _atom_site_fract_z
 _atom_site_occupancy
  Dy  Dy0  1  0.126727  0.149740  0.000000  1
  Dy  Dy1  1  0.873273  0.850260  0.000000  1
  Y  Y2  1  0.626721  0.350248  0.000000  1
  Y  Y3  1  0.373279  0.649752  0.000000  1
  B  B4  1  0.786407  0.186523  0.500000  1
  B  B5  1  0.213593  0.813477  0.500000  1
  B  B6  1  0.286245  0.313403  0.500000  1
  B  B7  1  0.713756  0.686597  0.500000  1
  B  B8  1  0.866581  0.032199  0.500000  1
  B  B9  1  0.133419  0.967801  0.500000  1
  B  B10  1  0.366528  0.467796  0.500000  1
  B  B11  1  0.633472  0.532204  0.500000  1
  B  B12  1  0.885868  0.452841  0.500000  1
  B  B13  1  0.114132  0.547159  0.500000  1
  B  B14  1  0.385749  0.047197  0.500000  1
  B  B15  1  0.614251  0.952803  0.500000  1
  B  B16  1  0.975627  0.306868  0.500000  1
  B  B17  1  0.024373  0.693132  0.500000  1
  B  B18  1  0.475451  0.193072  0.500000  1
  B  B19  1  0.524549  0.806928  0.500000  1
  W  W20  1  0.630683  0.084428  0.000000  1
  W  W21  1  0.369317  0.915572  0.000000  1
  W  W22  1  0.130588  0.415528  0.000000  1
  W  W23  1  0.869412  0.584472  0.000000  1
