# generated using pymatgen
data_Li6Y2NpN6
_symmetry_space_group_name_H-M   'P 1'
_cell_length_a   5.99519200
_cell_length_b   5.99519200
_cell_length_c   5.48541600
_cell_angle_alpha   90.00000000
_cell_angle_beta   90.00000000
_cell_angle_gamma   120.00001101
_symmetry_Int_Tables_number   1
_chemical_formula_structural   Li6Y2NpN6
_chemical_formula_sum   'Li6 Y2 Np1 N6'
_cell_volume   170.74435141
_cell_formula_units_Z   1
loop_
 _symmetry_equiv_pos_site_id
 _symmetry_equiv_pos_as_xyz
  1  'x, y, z'
loop_
 _atom_site_type_symbol
 _atom_site_label
 _atom_site_symmetry_multiplicity
 _atom_site_fract_x
 _atom_site_fract_y
 _atom_site_fract_z
 _atom_site_occupancy
  Li  Li0  1  0.980635  0.650000  0.607007  1
  Li  Li1  1  0.350000  0.330634  0.607007  1
  Li  Li2  1  0.669366  0.019365  0.607007  1
  Li  Li3  1  0.003938  0.336408  0.390769  1
  Li  Li4  1  0.663592  0.667530  0.390769  1
  Li  Li5  1  0.332470  0.996062  0.390769  1
  Y  Y6  1  0.000000  0.000000  0.998185  1
  Y  Y7  1  0.333333  0.666667  0.994208  1
  Np  Np8  1  0.666667  0.333333  0.004849  1
  N  N9  1  0.974999  0.641789  0.226841  1
  N  N10  1  0.358211  0.333209  0.226841  1
  N  N11  1  0.666791  0.025001  0.226841  1
  N  N12  1  0.972797  0.333634  0.776303  1
  N  N13  1  0.666366  0.639162  0.776303  1
  N  N14  1  0.360838  0.027203  0.776303  1
