# generated using pymatgen
data_Y8BPBr12
_symmetry_space_group_name_H-M   'P 1'
_cell_length_a   3.96422100
_cell_length_b   13.19911499
_cell_length_c   13.67760000
_cell_angle_alpha   89.73517497
_cell_angle_beta   90.00000000
_cell_angle_gamma   90.00000000
_symmetry_Int_Tables_number   1
_chemical_formula_structural   Y8BPBr12
_chemical_formula_sum   'Y8 B1 P1 Br12'
_cell_volume   715.66195400
_cell_formula_units_Z   1
loop_
 _symmetry_equiv_pos_site_id
 _symmetry_equiv_pos_as_xyz
  1  'x, y, z'
loop_
 _atom_site_type_symbol
 _atom_site_label
 _atom_site_symmetry_multiplicity
 _atom_site_fract_x
 _atom_site_fract_y
 _atom_site_fract_z
 _atom_site_occupancy
  Y  Y0  1  0.000000  0.108220  0.086000  1
  Y  Y1  1  0.000000  0.891780  0.914000  1
  Y  Y2  1  0.000000  0.600590  0.419950  1
  Y  Y3  1  0.000000  0.399410  0.580050  1
  Y  Y4  1  0.500000  0.129057  0.848550  1
  Y  Y5  1  0.500000  0.870943  0.151450  1
  Y  Y6  1  0.500000  0.621741  0.642999  1
  Y  Y7  1  0.500000  0.378259  0.357001  1
  B  B8  1  0.500000  0.500000  0.500000  1
  P  P9  1  0.500000  0.000000  0.000000  1
  Br  Br10  1  0.500000  0.268296  0.681600  1
  Br  Br11  1  0.500000  0.731704  0.318400  1
  Br  Br12  1  0.500000  0.764488  0.815455  1
  Br  Br13  1  0.500000  0.235512  0.184545  1
  Br  Br14  1  0.000000  0.262530  0.931096  1
  Br  Br15  1  0.000000  0.737470  0.068904  1
  Br  Br16  1  0.000000  0.481793  0.239367  1
  Br  Br17  1  0.000000  0.518207  0.760633  1
  Br  Br18  1  0.000000  0.980514  0.262010  1
  Br  Br19  1  0.000000  0.019486  0.737990  1
  Br  Br20  1  0.000000  0.238800  0.432653  1
  Br  Br21  1  0.000000  0.761200  0.567347  1
