# generated using pymatgen
data_Eu4As(PN2)6
_symmetry_space_group_name_H-M   'P 1'
_cell_length_a   7.69959626
_cell_length_b   7.69959599
_cell_length_c   7.69959700
_cell_angle_alpha   109.47122067
_cell_angle_beta   109.47121995
_cell_angle_gamma   109.47121831
_symmetry_Int_Tables_number   1
_chemical_formula_structural   Eu4As(PN2)6
_chemical_formula_sum   'Eu4 As1 P6 N12'
_cell_volume   351.38402234
_cell_formula_units_Z   1
loop_
 _symmetry_equiv_pos_site_id
 _symmetry_equiv_pos_as_xyz
  1  'x, y, z'
loop_
 _atom_site_type_symbol
 _atom_site_label
 _atom_site_symmetry_multiplicity
 _atom_site_fract_x
 _atom_site_fract_y
 _atom_site_fract_z
 _atom_site_occupancy
  Eu  Eu0  1  0.623806  0.000000  0.000000  1
  Eu  Eu1  1  0.000000  0.000000  0.623806  1
  Eu  Eu2  1  0.000000  0.623806  0.000000  1
  Eu  Eu3  1  0.376194  0.376194  0.376194  1
  As  As4  1  0.000000  0.000000  0.000000  1
  P  P5  1  0.250000  0.750000  0.500000  1
  P  P6  1  0.750000  0.250000  0.500000  1
  P  P7  1  0.750000  0.500000  0.250000  1
  P  P8  1  0.250000  0.500000  0.750000  1
  P  P9  1  0.500000  0.750000  0.250000  1
  P  P10  1  0.500000  0.250000  0.750000  1
  N  N11  1  0.695372  0.316022  0.316022  1
  N  N12  1  0.316022  0.695372  0.316022  1
  N  N13  1  0.304628  0.620650  0.620650  1
  N  N14  1  0.620650  0.620650  0.304628  1
  N  N15  1  0.379350  0.683978  0.000000  1
  N  N16  1  0.000000  0.683978  0.379350  1
  N  N17  1  0.620650  0.304628  0.620650  1
  N  N18  1  0.683978  0.000000  0.379350  1
  N  N19  1  0.379350  0.000000  0.683978  1
  N  N20  1  0.683978  0.379350  0.000000  1
  N  N21  1  0.316022  0.316022  0.695372  1
  N  N22  1  0.000000  0.379350  0.683978  1
