# generated using pymatgen
data_Sc22CoIr3Os4
_symmetry_space_group_name_H-M   'P 1'
_cell_length_a   9.44949510
_cell_length_b   9.43974932
_cell_length_c   9.44011768
_cell_angle_alpha   59.97838036
_cell_angle_beta   59.96455235
_cell_angle_gamma   59.96842769
_symmetry_Int_Tables_number   1
_chemical_formula_structural   Sc22CoIr3Os4
_chemical_formula_sum   'Sc22 Co1 Ir3 Os4'
_cell_volume   595.03207892
_cell_formula_units_Z   1
loop_
 _symmetry_equiv_pos_site_id
 _symmetry_equiv_pos_as_xyz
  1  'x, y, z'
loop_
 _atom_site_type_symbol
 _atom_site_label
 _atom_site_symmetry_multiplicity
 _atom_site_fract_x
 _atom_site_fract_y
 _atom_site_fract_z
 _atom_site_occupancy
  Sc  Sc0  1  0.843273  0.843336  0.844710  1
  Sc  Sc1  1  0.531319  0.155290  0.156664  1
  Sc  Sc2  1  0.157236  0.155914  0.530826  1
  Sc  Sc3  1  0.156024  0.530826  0.155914  1
  Sc  Sc4  1  0.842764  0.844086  0.469174  1
  Sc  Sc5  1  0.843976  0.469174  0.844086  1
  Sc  Sc6  1  0.468681  0.844710  0.843336  1
  Sc  Sc7  1  0.156727  0.156664  0.155290  1
  Sc  Sc8  1  0.198578  0.803006  0.196994  1
  Sc  Sc9  1  0.197848  0.802152  0.802152  1
  Sc  Sc10  1  0.802152  0.197848  0.197848  1
  Sc  Sc11  1  0.801177  0.802651  0.197349  1
  Sc  Sc12  1  0.198823  0.197349  0.802651  1
  Sc  Sc13  1  0.801422  0.196994  0.803006  1
  Sc  Sc14  1  0.385384  0.382563  0.385331  1
  Sc  Sc15  1  0.153279  0.614669  0.617437  1
  Sc  Sc16  1  0.613920  0.152874  0.616727  1
  Sc  Sc17  1  0.616480  0.616727  0.152874  1
  Sc  Sc18  1  0.386080  0.847126  0.383273  1
  Sc  Sc19  1  0.383520  0.383273  0.847126  1
  Sc  Sc20  1  0.846721  0.385331  0.382563  1
  Sc  Sc21  1  0.614616  0.617437  0.614669  1
  Co  Co22  1  0.500000  0.500000  0.500000  1
  Ir  Ir23  1  0.500000  0.500000  0.000000  1
  Ir  Ir24  1  0.000000  0.000000  0.500000  1
  Ir  Ir25  1  0.000000  0.500000  0.500000  1
  Os  Os26  1  0.500000  0.000000  0.500000  1
  Os  Os27  1  0.500000  0.000000  0.000000  1
  Os  Os28  1  0.000000  0.500000  0.000000  1
  Os  Os29  1  0.000000  0.000000  0.000000  1
