# generated using pymatgen
data_La3MgAg2Pd3
_symmetry_space_group_name_H-M   'P 1'
_cell_length_a   7.70220644
_cell_length_b   7.54932815
_cell_length_c   4.17289400
_cell_angle_alpha   90.00000000
_cell_angle_beta   90.00000000
_cell_angle_gamma   119.34554977
_symmetry_Int_Tables_number   1
_chemical_formula_structural   La3MgAg2Pd3
_chemical_formula_sum   'La3 Mg1 Ag2 Pd3'
_cell_volume   211.50364843
_cell_formula_units_Z   1
loop_
 _symmetry_equiv_pos_site_id
 _symmetry_equiv_pos_as_xyz
  1  'x, y, z'
loop_
 _atom_site_type_symbol
 _atom_site_label
 _atom_site_symmetry_multiplicity
 _atom_site_fract_x
 _atom_site_fract_y
 _atom_site_fract_z
 _atom_site_occupancy
  La  La0  1  0.415330  0.408302  0.500000  1
  La  La1  1  0.584670  0.992972  0.500000  1
  La  La2  1  0.000000  0.607335  0.500000  1
  Mg  Mg3  1  0.000000  0.234653  0.000000  1
  Ag  Ag4  1  0.753330  0.756516  0.000000  1
  Ag  Ag5  1  0.246670  0.003186  0.000000  1
  Pd  Pd6  1  0.676441  0.328105  0.000000  1
  Pd  Pd7  1  0.323559  0.651665  0.000000  1
  Pd  Pd8  1  0.000000  0.017265  0.500000  1
