# generated using pymatgen
data_Dy6YS8
_symmetry_space_group_name_H-M   'P 1'
_cell_length_a   7.80593852
_cell_length_b   7.80067539
_cell_length_c   7.80593944
_cell_angle_alpha   119.97934001
_cell_angle_beta   90.08698678
_cell_angle_gamma   119.96479877
_symmetry_Int_Tables_number   1
_chemical_formula_structural   Dy6YS8
_chemical_formula_sum   'Dy6 Y1 S8'
_cell_volume   336.12744380
_cell_formula_units_Z   1
loop_
 _symmetry_equiv_pos_site_id
 _symmetry_equiv_pos_as_xyz
  1  'x, y, z'
loop_
 _atom_site_type_symbol
 _atom_site_label
 _atom_site_symmetry_multiplicity
 _atom_site_fract_x
 _atom_site_fract_y
 _atom_site_fract_z
 _atom_site_occupancy
  Dy  Dy0  1  0.249909  0.000000  0.249909  1
  Dy  Dy1  1  0.249882  0.499830  0.249936  1
  Dy  Dy2  1  0.750104  0.000042  0.249938  1
  Dy  Dy3  1  0.249896  0.999958  0.750061  1
  Dy  Dy4  1  0.750116  0.000000  0.750116  1
  Dy  Dy5  1  0.750104  0.500169  0.750051  1
  Y  Y6  1  0.249946  0.500001  0.749947  1
  S  S7  1  0.999991  0.000000  0.999991  1
  S  S8  1  0.499993  0.000000  0.499993  1
  S  S9  1  0.999052  0.998055  0.499028  1
  S  S10  1  0.998977  0.500001  0.498979  1
  S  S11  1  0.500863  0.499922  0.499090  1
  S  S12  1  0.999169  0.500080  0.000941  1
  S  S13  1  0.501030  0.500001  0.001031  1
  S  S14  1  0.500970  0.001944  0.000998  1
