# generated using pymatgen
data_CePa3(HgRh2)2
_symmetry_space_group_name_H-M   'P 1'
_cell_length_a   7.72193512
_cell_length_b   7.72193512
_cell_length_c   3.59753800
_cell_angle_alpha   90.00000000
_cell_angle_beta   90.00000000
_cell_angle_gamma   91.40826802
_symmetry_Int_Tables_number   1
_chemical_formula_structural   CePa3(HgRh2)2
_chemical_formula_sum   'Ce1 Pa3 Hg2 Rh4'
_cell_volume   214.45021676
_cell_formula_units_Z   1
loop_
 _symmetry_equiv_pos_site_id
 _symmetry_equiv_pos_as_xyz
  1  'x, y, z'
loop_
 _atom_site_type_symbol
 _atom_site_label
 _atom_site_symmetry_multiplicity
 _atom_site_fract_x
 _atom_site_fract_y
 _atom_site_fract_z
 _atom_site_occupancy
  Ce  Ce0  1  0.670207  0.829794  0.499999  1
  Pa  Pa1  1  0.330110  0.169890  0.499999  1
  Pa  Pa2  1  0.829218  0.331682  0.499999  1
  Pa  Pa3  1  0.168318  0.670783  0.499999  1
  Hg  Hg4  1  0.994007  0.000657  0.000000  1
  Hg  Hg5  1  0.499343  0.505993  0.000000  1
  Rh  Rh6  1  0.629652  0.144518  0.000000  1
  Rh  Rh7  1  0.141625  0.358376  0.000000  1
  Rh  Rh8  1  0.882038  0.617962  0.000000  1
  Rh  Rh9  1  0.355483  0.870348  0.000000  1
