# generated using pymatgen
data_Yb2DyAl3Ge2Pt
_symmetry_space_group_name_H-M   'P 1'
_cell_length_a   6.99203626
_cell_length_b   6.99203701
_cell_length_c   4.28087300
_cell_angle_alpha   90.00000000
_cell_angle_beta   90.00000000
_cell_angle_gamma   120.36904956
_symmetry_Int_Tables_number   1
_chemical_formula_structural   Yb2DyAl3Ge2Pt
_chemical_formula_sum   'Yb2 Dy1 Al3 Ge2 Pt1'
_cell_volume   180.56903394
_cell_formula_units_Z   1
loop_
 _symmetry_equiv_pos_site_id
 _symmetry_equiv_pos_as_xyz
  1  'x, y, z'
loop_
 _atom_site_type_symbol
 _atom_site_label
 _atom_site_symmetry_multiplicity
 _atom_site_fract_x
 _atom_site_fract_y
 _atom_site_fract_z
 _atom_site_occupancy
  Yb  Yb0  1  0.420846  0.000500  0.000000  1
  Yb  Yb1  1  0.000500  0.420846  0.000000  1
  Dy  Dy2  1  0.579818  0.579818  0.000000  1
  Al  Al3  1  0.766980  0.998433  0.500000  1
  Al  Al4  1  0.232853  0.232853  0.500000  1
  Al  Al5  1  0.998433  0.766980  0.500000  1
  Ge  Ge6  1  0.666795  0.336232  0.500000  1
  Ge  Ge7  1  0.336232  0.666795  0.500000  1
  Pt  Pt8  1  0.997543  0.997543  0.000000  1
