# generated using pymatgen
data_Hf6Si3Ge2POs6
_symmetry_space_group_name_H-M   'P 1'
_cell_length_a   7.62664946
_cell_length_b   7.62653566
_cell_length_c   7.62137904
_cell_angle_alpha   128.06511335
_cell_angle_beta   121.44164972
_cell_angle_gamma   82.12223126
_symmetry_Int_Tables_number   1
_chemical_formula_structural   Hf6Si3Ge2POs6
_chemical_formula_sum   'Hf6 Si3 Ge2 P1 Os6'
_cell_volume   286.30790310
_cell_formula_units_Z   1
loop_
 _symmetry_equiv_pos_site_id
 _symmetry_equiv_pos_as_xyz
  1  'x, y, z'
loop_
 _atom_site_type_symbol
 _atom_site_label
 _atom_site_symmetry_multiplicity
 _atom_site_fract_x
 _atom_site_fract_y
 _atom_site_fract_z
 _atom_site_occupancy
  Hf  Hf0  1  0.548520  0.095591  0.040651  1
  Hf  Hf1  1  0.446037  0.493240  0.541923  1
  Hf  Hf2  1  0.981390  0.494304  0.033093  1
  Hf  Hf3  1  0.039500  0.049878  0.529910  1
  Hf  Hf4  1  0.750768  0.917698  0.666306  1
  Hf  Hf5  1  0.250250  0.913269  0.168364  1
  Si  Si6  1  0.173185  0.159926  0.003283  1
  Si  Si7  1  0.772721  0.531641  0.252553  1
  Si  Si8  1  0.220733  0.479729  0.751564  1
  Ge  Ge9  1  0.666480  0.165626  0.493720  1
  Ge  Ge10  1  0.829807  0.828485  0.994978  1
  P  P11  1  0.343609  0.829657  0.504825  1
  Os  Os12  1  0.149609  0.747523  0.643212  1
  Os  Os13  1  0.851857  0.500175  0.589192  1
  Os  Os14  1  0.589072  0.736209  0.088014  1
  Os  Os15  1  0.396159  0.495730  0.144602  1
  Os  Os16  1  0.490382  0.247388  0.748761  1
  Os  Os17  1  0.999918  0.257931  0.249047  1
