# generated using pymatgen
data_Ca20Zn8Cd3Sn
_symmetry_space_group_name_H-M   'P 1'
_cell_length_a   8.03196800
_cell_length_b   8.03196800
_cell_length_c   15.10578000
_cell_angle_alpha   90.00000000
_cell_angle_beta   90.00000000
_cell_angle_gamma   90.00000000
_symmetry_Int_Tables_number   1
_chemical_formula_structural   Ca20Zn8Cd3Sn
_chemical_formula_sum   'Ca20 Zn8 Cd3 Sn1'
_cell_volume   974.51178260
_cell_formula_units_Z   1
loop_
 _symmetry_equiv_pos_site_id
 _symmetry_equiv_pos_as_xyz
  1  'x, y, z'
loop_
 _atom_site_type_symbol
 _atom_site_label
 _atom_site_symmetry_multiplicity
 _atom_site_fract_x
 _atom_site_fract_y
 _atom_site_fract_z
 _atom_site_occupancy
  Ca  Ca0  1  0.673778  0.167190  0.103476  1
  Ca  Ca1  1  0.169356  0.670805  0.606971  1
  Ca  Ca2  1  0.326222  0.832810  0.103476  1
  Ca  Ca3  1  0.830644  0.329195  0.606971  1
  Ca  Ca4  1  0.832810  0.673778  0.103476  1
  Ca  Ca5  1  0.329195  0.169356  0.606971  1
  Ca  Ca6  1  0.167190  0.326222  0.103476  1
  Ca  Ca7  1  0.670805  0.830644  0.606971  1
  Ca  Ca8  1  0.832810  0.326222  0.896524  1
  Ca  Ca9  1  0.329195  0.830644  0.393029  1
  Ca  Ca10  1  0.167190  0.673778  0.896524  1
  Ca  Ca11  1  0.670805  0.169356  0.393029  1
  Ca  Ca12  1  0.673778  0.832810  0.896524  1
  Ca  Ca13  1  0.169356  0.329195  0.393029  1
  Ca  Ca14  1  0.326222  0.167190  0.896524  1
  Ca  Ca15  1  0.830644  0.670805  0.393029  1
  Ca  Ca16  1  0.500000  0.500000  0.754942  1
  Ca  Ca17  1  0.000000  0.000000  0.248265  1
  Ca  Ca18  1  0.000000  0.000000  0.751735  1
  Ca  Ca19  1  0.500000  0.500000  0.245058  1
  Zn  Zn20  1  0.616397  0.117403  0.751203  1
  Zn  Zn21  1  0.117403  0.616397  0.248797  1
  Zn  Zn22  1  0.882597  0.383603  0.248797  1
  Zn  Zn23  1  0.383603  0.882597  0.751203  1
  Zn  Zn24  1  0.882597  0.616397  0.751203  1
  Zn  Zn25  1  0.383603  0.117403  0.248797  1
  Zn  Zn26  1  0.117403  0.383603  0.751203  1
  Zn  Zn27  1  0.616397  0.882597  0.248797  1
  Cd  Cd28  1  0.500000  0.500000  0.500000  1
  Cd  Cd29  1  0.500000  0.500000  0.000000  1
  Cd  Cd30  1  0.000000  0.000000  0.500000  1
  Sn  Sn31  1  0.000000  0.000000  0.000000  1
