# generated using pymatgen
data_Er9Th3Co4
_symmetry_space_group_name_H-M   'P 1'
_cell_length_a   6.26426242
_cell_length_b   6.87004184
_cell_length_c   9.48470200
_cell_angle_alpha   90.00000000
_cell_angle_beta   90.00000000
_cell_angle_gamma   91.09077379
_symmetry_Int_Tables_number   1
_chemical_formula_structural   Er9Th3Co4
_chemical_formula_sum   'Er9 Th3 Co4'
_cell_volume   408.10725015
_cell_formula_units_Z   1
loop_
 _symmetry_equiv_pos_site_id
 _symmetry_equiv_pos_as_xyz
  1  'x, y, z'
loop_
 _atom_site_type_symbol
 _atom_site_label
 _atom_site_symmetry_multiplicity
 _atom_site_fract_x
 _atom_site_fract_y
 _atom_site_fract_z
 _atom_site_occupancy
  Er  Er0  1  0.327353  0.672346  0.068411  1
  Er  Er1  1  0.170878  0.170511  0.431213  1
  Er  Er2  1  0.675821  0.329682  0.569349  1
  Er  Er3  1  0.823629  0.829476  0.928642  1
  Er  Er4  1  0.675821  0.329682  0.930651  1
  Er  Er5  1  0.823629  0.829476  0.571358  1
  Er  Er6  1  0.327353  0.672346  0.431589  1
  Er  Er7  1  0.170878  0.170511  0.068787  1
  Er  Er8  1  0.355241  0.956904  0.750000  1
  Th  Th9  1  0.846558  0.549868  0.250000  1
  Th  Th10  1  0.651481  0.052061  0.250000  1
  Th  Th11  1  0.158341  0.448916  0.750000  1
  Co  Co12  1  0.034810  0.871007  0.250000  1
  Co  Co13  1  0.462734  0.371514  0.250000  1
  Co  Co14  1  0.960404  0.132313  0.750000  1
  Co  Co15  1  0.535069  0.613388  0.750000  1
