# generated using pymatgen
data_Dy2TmMg3Si2Ag
_symmetry_space_group_name_H-M   'P 1'
_cell_length_a   7.22581943
_cell_length_b   7.22581951
_cell_length_c   4.31392700
_cell_angle_alpha   90.00000000
_cell_angle_beta   90.00000000
_cell_angle_gamma   119.69596970
_symmetry_Int_Tables_number   1
_chemical_formula_structural   Dy2TmMg3Si2Ag
_chemical_formula_sum   'Dy2 Tm1 Mg3 Si2 Ag1'
_cell_volume   195.65908170
_cell_formula_units_Z   1
loop_
 _symmetry_equiv_pos_site_id
 _symmetry_equiv_pos_as_xyz
  1  'x, y, z'
loop_
 _atom_site_type_symbol
 _atom_site_label
 _atom_site_symmetry_multiplicity
 _atom_site_fract_x
 _atom_site_fract_y
 _atom_site_fract_z
 _atom_site_occupancy
  Dy  Dy0  1  0.576299  0.998813  0.000000  1
  Dy  Dy1  1  0.998813  0.576299  0.000000  1
  Tm  Tm2  1  0.422805  0.422805  0.000000  1
  Mg  Mg3  1  0.248344  0.000359  0.500000  1
  Mg  Mg4  1  0.000359  0.248344  0.500000  1
  Mg  Mg5  1  0.751405  0.751405  0.500000  1
  Si  Si6  1  0.334107  0.665027  0.500000  1
  Si  Si7  1  0.665027  0.334107  0.500000  1
  Ag  Ag8  1  0.002841  0.002841  0.000000  1
