# generated using pymatgen
data_Gd3TlCr6O24
_symmetry_space_group_name_H-M   'P 1'
_cell_length_a   9.47689273
_cell_length_b   9.47689182
_cell_length_c   10.09437400
_cell_angle_alpha   117.99630105
_cell_angle_beta   62.00368818
_cell_angle_gamma   120.00001373
_symmetry_Int_Tables_number   1
_chemical_formula_structural   Gd3TlCr6O24
_chemical_formula_sum   'Gd3 Tl1 Cr6 O24'
_cell_volume   659.78991989
_cell_formula_units_Z   1
loop_
 _symmetry_equiv_pos_site_id
 _symmetry_equiv_pos_as_xyz
  1  'x, y, z'
loop_
 _atom_site_type_symbol
 _atom_site_label
 _atom_site_symmetry_multiplicity
 _atom_site_fract_x
 _atom_site_fract_y
 _atom_site_fract_z
 _atom_site_occupancy
  Gd  Gd0  1  0.645059  0.354988  0.065052  1
  Gd  Gd1  1  0.856857  0.143248  0.429367  1
  Gd  Gd2  1  0.139357  0.860832  0.582162  1
  Tl  Tl3  1  0.351458  0.648468  0.945473  1
  Cr  Cr4  1  0.245418  0.026787  0.246321  1
  Cr  Cr5  1  0.973233  0.465115  0.246343  1
  Cr  Cr6  1  0.534907  0.754395  0.246057  1
  Cr  Cr7  1  0.465784  0.261430  0.752708  1
  Cr  Cr8  1  0.042903  0.534288  0.752856  1
  Cr  Cr9  1  0.738724  0.957081  0.752894  1
  O  O10  1  0.158613  0.480381  0.100993  1
  O  O11  1  0.519968  0.779179  0.100587  1
  O  O12  1  0.220716  0.841364  0.100941  1
  O  O13  1  0.444527  0.165530  0.202167  1
  O  O14  1  0.834501  0.481207  0.202150  1
  O  O15  1  0.518679  0.555253  0.201890  1
  O  O16  1  0.110799  0.106572  0.270969  1
  O  O17  1  0.893464  0.275439  0.271050  1
  O  O18  1  0.724581  0.888909  0.270912  1
  O  O19  1  0.199563  0.994908  0.412522  1
  O  O20  1  0.005032  0.617427  0.412623  1
  O  O21  1  0.382552  0.800127  0.412128  1
  O  O22  1  0.617351  0.212742  0.586783  1
  O  O23  1  0.008108  0.382422  0.587161  1
  O  O24  1  0.787373  0.991591  0.587050  1
  O  O25  1  0.275139  0.123497  0.730815  1
  O  O26  1  0.117618  0.724858  0.730735  1
  O  O27  1  0.876496  0.882324  0.730865  1
  O  O28  1  0.486800  0.461449  0.791592  1
  O  O29  1  0.182949  0.513108  0.791604  1
  O  O30  1  0.538725  0.817015  0.791647  1
  O  O31  1  0.755207  0.141265  0.897959  1
  O  O32  1  0.488606  0.244960  0.897649  1
  O  O33  1  0.858934  0.511839  0.897983  1
