# generated using pymatgen
data_CaPrTh(InRh)3
_symmetry_space_group_name_H-M   'P 1'
_cell_length_a   7.62800591
_cell_length_b   7.83466478
_cell_length_c   4.06252900
_cell_angle_alpha   90.00000000
_cell_angle_beta   90.00000000
_cell_angle_gamma   121.95527648
_symmetry_Int_Tables_number   1
_chemical_formula_structural   CaPrTh(InRh)3
_chemical_formula_sum   'Ca1 Pr1 Th1 In3 Rh3'
_cell_volume   205.99659571
_cell_formula_units_Z   1
loop_
 _symmetry_equiv_pos_site_id
 _symmetry_equiv_pos_as_xyz
  1  'x, y, z'
loop_
 _atom_site_type_symbol
 _atom_site_label
 _atom_site_symmetry_multiplicity
 _atom_site_fract_x
 _atom_site_fract_y
 _atom_site_fract_z
 _atom_site_occupancy
  Ca  Ca0  1  0.407890  0.405957  0.500000  1
  Pr  Pr1  1  0.589646  0.999421  0.500000  1
  Th  Th2  1  0.999978  0.585316  0.500000  1
  In  In3  1  0.729433  0.736700  0.000000  1
  In  In4  1  0.008143  0.240177  0.000000  1
  In  In5  1  0.261932  0.017430  0.000000  1
  Rh  Rh6  1  0.300306  0.674859  0.000000  1
  Rh  Rh7  1  0.994360  0.982285  0.500000  1
  Rh  Rh8  1  0.708311  0.357859  0.000000  1
