# generated using pymatgen
data_Tb2PrCd3Ga2Hg
_symmetry_space_group_name_H-M   'P 1'
_cell_length_a   7.46643479
_cell_length_b   7.43517128
_cell_length_c   4.50601300
_cell_angle_alpha   90.00000000
_cell_angle_beta   90.00000000
_cell_angle_gamma   119.86158343
_symmetry_Int_Tables_number   1
_chemical_formula_structural   Tb2PrCd3Ga2Hg
_chemical_formula_sum   'Tb2 Pr1 Cd3 Ga2 Hg1'
_cell_volume   216.93587692
_cell_formula_units_Z   1
loop_
 _symmetry_equiv_pos_site_id
 _symmetry_equiv_pos_as_xyz
  1  'x, y, z'
loop_
 _atom_site_type_symbol
 _atom_site_label
 _atom_site_symmetry_multiplicity
 _atom_site_fract_x
 _atom_site_fract_y
 _atom_site_fract_z
 _atom_site_occupancy
  Tb  Tb0  1  0.423376  0.422011  0.500000  1
  Tb  Tb1  1  0.576624  0.998635  0.500000  1
  Pr  Pr2  1  0.000000  0.576357  0.500000  1
  Cd  Cd3  1  0.743065  0.744519  0.000000  1
  Cd  Cd4  1  0.256935  0.001454  0.000000  1
  Cd  Cd5  1  0.000000  0.253943  0.000000  1
  Ga  Ga6  1  0.661849  0.330052  0.000000  1
  Ga  Ga7  1  0.338151  0.668203  0.000000  1
  Hg  Hg8  1  0.000000  0.004826  0.500000  1
