# generated using pymatgen
data_CaYbRh4F24
_symmetry_space_group_name_H-M   'P 1'
_cell_length_a   10.11688463
_cell_length_b   10.11688437
_cell_length_c   10.11688500
_cell_angle_alpha   131.63550846
_cell_angle_beta   131.63550715
_cell_angle_gamma   70.80531781
_symmetry_Int_Tables_number   1
_chemical_formula_structural   CaYbRh4F24
_chemical_formula_sum   'Ca1 Yb1 Rh4 F24'
_cell_volume   566.52266577
_cell_formula_units_Z   1
loop_
 _symmetry_equiv_pos_site_id
 _symmetry_equiv_pos_as_xyz
  1  'x, y, z'
loop_
 _atom_site_type_symbol
 _atom_site_label
 _atom_site_symmetry_multiplicity
 _atom_site_fract_x
 _atom_site_fract_y
 _atom_site_fract_z
 _atom_site_occupancy
  Ca  Ca0  1  0.750000  0.250000  0.500000  1
  Yb  Yb1  1  0.000000  0.000000  0.000000  1
  Rh  Rh2  1  0.787147  0.787147  0.000000  1
  Rh  Rh3  1  0.212853  0.212853  0.000000  1
  Rh  Rh4  1  0.968219  0.468219  0.500000  1
  Rh  Rh5  1  0.531781  0.031781  0.500000  1
  F  F6  1  0.870611  0.747872  0.198315  1
  F  F7  1  0.549557  0.672296  0.801685  1
  F  F8  1  0.423506  0.792870  0.307249  1
  F  F9  1  0.327704  0.129389  0.877262  1
  F  F10  1  0.252128  0.450443  0.122738  1
  F  F11  1  0.207130  0.514378  0.630634  1
  F  F12  1  0.648444  0.269909  0.678547  1
  F  F13  1  0.730091  0.408638  0.378536  1
  F  F14  1  0.030103  0.351556  0.621464  1
  F  F15  1  0.090336  0.271364  0.113831  1
  F  F16  1  0.157532  0.976504  0.886169  1
  F  F17  1  0.591362  0.969897  0.321453  1
  F  F18  1  0.728636  0.842468  0.818973  1
  F  F19  1  0.023496  0.909664  0.181027  1
  F  F20  1  0.300739  0.071391  0.308813  1
  F  F21  1  0.928609  0.237422  0.229349  1
  F  F22  1  0.008074  0.699261  0.770651  1
  F  F23  1  0.442175  0.262646  0.278010  1
  F  F24  1  0.984637  0.164164  0.721990  1
  F  F25  1  0.762578  0.991926  0.691187  1
  F  F26  1  0.737354  0.015363  0.179527  1
  F  F27  1  0.835836  0.557825  0.820473  1
  F  F28  1  0.485622  0.116255  0.692751  1
  F  F29  1  0.883745  0.576494  0.369366  1
