# generated using pymatgen
data_Ho11ErFe2Br17
_symmetry_space_group_name_H-M   'P 1'
_cell_length_a   9.15756688
_cell_length_b   11.07366625
_cell_length_c   11.07448755
_cell_angle_alpha   93.49627017
_cell_angle_beta   104.67411941
_cell_angle_gamma   113.77899635
_symmetry_Int_Tables_number   1
_chemical_formula_structural   Ho11ErFe2Br17
_chemical_formula_sum   'Ho11 Er1 Fe2 Br17'
_cell_volume   977.15656659
_cell_formula_units_Z   1
loop_
 _symmetry_equiv_pos_site_id
 _symmetry_equiv_pos_as_xyz
  1  'x, y, z'
loop_
 _atom_site_type_symbol
 _atom_site_label
 _atom_site_symmetry_multiplicity
 _atom_site_fract_x
 _atom_site_fract_y
 _atom_site_fract_z
 _atom_site_occupancy
  Ho  Ho0  1  0.982954  0.808396  0.580614  1
  Ho  Ho1  1  0.648166  0.239759  0.285523  1
  Ho  Ho2  1  0.018005  0.191611  0.420447  1
  Ho  Ho3  1  0.226125  0.672665  0.990445  1
  Ho  Ho4  1  0.255466  0.986307  0.888999  1
  Ho  Ho5  1  0.353543  0.760552  0.714077  1
  Ho  Ho6  1  0.943383  0.489645  0.679988  1
  Ho  Ho7  1  0.744044  0.012575  0.110789  1
  Ho  Ho8  1  0.151074  0.288063  0.150581  1
  Ho  Ho9  1  0.773081  0.327647  0.008947  1
  Ho  Ho10  1  0.847052  0.711978  0.849839  1
  Er  Er11  1  0.056758  0.510413  0.319939  1
  Fe  Fe12  1  0.103274  0.738609  0.785935  1
  Fe  Fe13  1  0.896585  0.261296  0.214124  1
  Br  Br14  1  0.790121  0.525382  0.420794  1
  Br  Br15  1  0.647548  0.422477  0.763430  1
  Br  Br16  1  0.849190  0.902275  0.330832  1
  Br  Br17  1  0.328347  0.215358  0.363998  1
  Br  Br18  1  0.151258  0.097997  0.669640  1
  Br  Br19  1  0.584082  0.051162  0.848213  1
  Br  Br20  1  0.766417  0.192820  0.538365  1
  Br  Br21  1  0.551546  0.713647  0.952738  1
  Br  Br22  1  0.351104  0.577465  0.236944  1
  Br  Br23  1  0.211232  0.474923  0.578046  1
  Br  Br24  1  0.056701  0.373234  0.901252  1
  Br  Br25  1  0.448845  0.286335  0.047798  1
  Br  Br26  1  0.000303  0.000596  0.000349  1
  Br  Br27  1  0.232779  0.805548  0.460365  1
  Br  Br28  1  0.416566  0.949322  0.151753  1
  Br  Br29  1  0.671439  0.784925  0.635525  1
  Br  Br30  1  0.943014  0.627018  0.099712  1
