# generated using pymatgen
data_Rb10As4PtAu
_symmetry_space_group_name_H-M   'P 1'
_cell_length_a   6.06415100
_cell_length_b   6.06415227
_cell_length_c   20.01215900
_cell_angle_alpha   90.00000000
_cell_angle_beta   90.00000000
_cell_angle_gamma   119.99999851
_symmetry_Int_Tables_number   1
_chemical_formula_structural   Rb10As4PtAu
_chemical_formula_sum   'Rb10 As4 Pt1 Au1'
_cell_volume   637.33047861
_cell_formula_units_Z   1
loop_
 _symmetry_equiv_pos_site_id
 _symmetry_equiv_pos_as_xyz
  1  'x, y, z'
loop_
 _atom_site_type_symbol
 _atom_site_label
 _atom_site_symmetry_multiplicity
 _atom_site_fract_x
 _atom_site_fract_y
 _atom_site_fract_z
 _atom_site_occupancy
  Rb  Rb0  1  0.333333  0.666667  0.549644  1
  Rb  Rb1  1  0.666667  0.333333  0.047669  1
  Rb  Rb2  1  0.666667  0.333333  0.452331  1
  Rb  Rb3  1  0.333333  0.666667  0.950356  1
  Rb  Rb4  1  0.000000  0.000000  0.153228  1
  Rb  Rb5  1  0.000000  0.000000  0.646682  1
  Rb  Rb6  1  0.000000  0.000000  0.853318  1
  Rb  Rb7  1  0.000000  0.000000  0.346772  1
  Rb  Rb8  1  0.333333  0.666667  0.750000  1
  Rb  Rb9  1  0.666667  0.333333  0.250000  1
  As  As10  1  0.333333  0.666667  0.371495  1
  As  As11  1  0.666667  0.333333  0.876202  1
  As  As12  1  0.666667  0.333333  0.623798  1
  As  As13  1  0.333333  0.666667  0.128505  1
  Pt  Pt14  1  0.333333  0.666667  0.250000  1
  Au  Au15  1  0.666667  0.333333  0.750000  1
