# generated using pymatgen
data_TbZr5(Ni3P2)6
_symmetry_space_group_name_H-M   'P 1'
_cell_length_a   3.68351200
_cell_length_b   10.38715300
_cell_length_c   12.13953400
_cell_angle_alpha   90.00179038
_cell_angle_beta   89.99737657
_cell_angle_gamma   90.00285418
_symmetry_Int_Tables_number   1
_chemical_formula_structural   TbZr5(Ni3P2)6
_chemical_formula_sum   'Tb1 Zr5 Ni18 P12'
_cell_volume   464.47317067
_cell_formula_units_Z   1
loop_
 _symmetry_equiv_pos_site_id
 _symmetry_equiv_pos_as_xyz
  1  'x, y, z'
loop_
 _atom_site_type_symbol
 _atom_site_label
 _atom_site_symmetry_multiplicity
 _atom_site_fract_x
 _atom_site_fract_y
 _atom_site_fract_z
 _atom_site_occupancy
  Tb  Tb0  1  0.751931  0.000000  0.475219  1
  Zr  Zr1  1  0.251870  0.500000  0.525030  1
  Zr  Zr2  1  0.251882  0.677740  0.794903  1
  Zr  Zr3  1  0.251823  0.322288  0.794874  1
  Zr  Zr4  1  0.751804  0.820006  0.203709  1
  Zr  Zr5  1  0.751880  0.179973  0.203737  1
  Ni  Ni6  1  0.751789  0.000013  0.012835  1
  Ni  Ni7  1  0.251751  0.499995  0.986415  1
  Ni  Ni8  1  0.251881  0.202009  0.570754  1
  Ni  Ni9  1  0.251944  0.797994  0.570744  1
  Ni  Ni10  1  0.751952  0.303921  0.430641  1
  Ni  Ni11  1  0.751919  0.696067  0.430637  1
  Ni  Ni12  1  0.251780  0.622558  0.291622  1
  Ni  Ni13  1  0.251861  0.377450  0.291665  1
  Ni  Ni14  1  0.751881  0.875122  0.709845  1
  Ni  Ni15  1  0.751832  0.124878  0.709836  1
  Ni  Ni16  1  0.251787  0.169761  0.004435  1
  Ni  Ni17  1  0.251833  0.830230  0.004449  1
  Ni  Ni18  1  0.751695  0.331387  0.995324  1
  Ni  Ni19  1  0.751705  0.668638  0.995245  1
  Ni  Ni20  1  0.251308  0.999986  0.838154  1
  Ni  Ni21  1  0.751565  0.500000  0.163388  1
  Ni  Ni22  1  0.251950  0.999987  0.296667  1
  Ni  Ni23  1  0.751801  0.500006  0.700224  1
  P  P24  1  0.251965  0.186244  0.381843  1
  P  P25  1  0.251911  0.813750  0.381842  1
  P  P26  1  0.751919  0.316562  0.616063  1
  P  P27  1  0.751970  0.683441  0.616074  1
  P  P28  1  0.251765  0.000002  0.121248  1
  P  P29  1  0.751779  0.499994  0.877161  1
  P  P30  1  0.251765  0.654657  0.111944  1
  P  P31  1  0.251779  0.345355  0.111961  1
  P  P32  1  0.751798  0.843826  0.888698  1
  P  P33  1  0.751806  0.156157  0.888682  1
  P  P34  1  0.251898  0.000001  0.654139  1
  P  P35  1  0.751825  0.500001  0.349995  1
