# generated using pymatgen
data_Tb16Zr4Ir7Rh5
_symmetry_space_group_name_H-M   'P 1'
_cell_length_a   10.88392537
_cell_length_b   10.88392537
_cell_length_c   6.29674677
_cell_angle_alpha   90.04035375
_cell_angle_beta   90.04035375
_cell_angle_gamma   89.95926856
_symmetry_Int_Tables_number   1
_chemical_formula_structural   Tb16Zr4Ir7Rh5
_chemical_formula_sum   'Tb16 Zr4 Ir7 Rh5'
_cell_volume   745.91100305
_cell_formula_units_Z   1
loop_
 _symmetry_equiv_pos_site_id
 _symmetry_equiv_pos_as_xyz
  1  'x, y, z'
loop_
 _atom_site_type_symbol
 _atom_site_label
 _atom_site_symmetry_multiplicity
 _atom_site_fract_x
 _atom_site_fract_y
 _atom_site_fract_z
 _atom_site_occupancy
  Tb  Tb0  1  0.288518  0.087510  0.375407  1
  Tb  Tb1  1  0.288642  0.912332  0.874846  1
  Tb  Tb2  1  0.710930  0.087399  0.874485  1
  Tb  Tb3  1  0.711031  0.911134  0.375515  1
  Tb  Tb4  1  0.587504  0.788569  0.875298  1
  Tb  Tb5  1  0.586180  0.211784  0.375634  1
  Tb  Tb6  1  0.412295  0.788636  0.375358  1
  Tb  Tb7  1  0.412363  0.211341  0.875335  1
  Tb  Tb8  1  0.211431  0.412496  0.624702  1
  Tb  Tb9  1  0.211364  0.587705  0.124642  1
  Tb  Tb10  1  0.788216  0.413820  0.124366  1
  Tb  Tb11  1  0.788659  0.587637  0.624665  1
  Tb  Tb12  1  0.912490  0.711482  0.124593  1
  Tb  Tb13  1  0.912601  0.289070  0.625515  1
  Tb  Tb14  1  0.087668  0.711358  0.625154  1
  Tb  Tb15  1  0.088866  0.288969  0.124485  1
  Zr  Zr16  1  0.000410  0.999581  0.500165  1
  Zr  Zr17  1  0.000419  0.999590  0.999835  1
  Zr  Zr18  1  0.499961  0.499994  0.999815  1
  Zr  Zr19  1  0.500006  0.500039  0.500185  1
  Ir  Ir20  1  0.855183  0.855771  0.749811  1
  Ir  Ir21  1  0.144229  0.144817  0.750189  1
  Ir  Ir22  1  0.144912  0.855088  0.250000  1
  Ir  Ir23  1  0.645332  0.354668  0.750000  1
  Ir  Ir24  1  0.645081  0.644918  0.249925  1
  Ir  Ir25  1  0.355082  0.354919  0.250075  1
  Ir  Ir26  1  0.355098  0.644902  0.750000  1
  Rh  Rh27  1  0.854962  0.145038  0.250000  1
  Rh  Rh28  1  0.500579  0.000150  0.120156  1
  Rh  Rh29  1  0.500323  0.000188  0.619673  1
  Rh  Rh30  1  0.999812  0.499677  0.880327  1
  Rh  Rh31  1  0.999850  0.499421  0.379844  1
