# generated using pymatgen
data_Zr6Ta3TiAl12Co7
_symmetry_space_group_name_H-M   'P 1'
_cell_length_a   8.61550325
_cell_length_b   8.61550208
_cell_length_c   8.61550315
_cell_angle_alpha   60.03488895
_cell_angle_beta   60.03489082
_cell_angle_gamma   60.03488801
_symmetry_Int_Tables_number   1
_chemical_formula_structural   Zr6Ta3TiAl12Co7
_chemical_formula_sum   'Zr6 Ta3 Ti1 Al12 Co7'
_cell_volume   452.55380128
_cell_formula_units_Z   1
loop_
 _symmetry_equiv_pos_site_id
 _symmetry_equiv_pos_as_xyz
  1  'x, y, z'
loop_
 _atom_site_type_symbol
 _atom_site_label
 _atom_site_symmetry_multiplicity
 _atom_site_fract_x
 _atom_site_fract_y
 _atom_site_fract_z
 _atom_site_occupancy
  Zr  Zr0  1  0.692095  0.308192  0.308192  1
  Zr  Zr1  1  0.691616  0.308153  0.691616  1
  Zr  Zr2  1  0.691616  0.691616  0.308153  1
  Zr  Zr3  1  0.308153  0.691616  0.691616  1
  Zr  Zr4  1  0.308192  0.692095  0.308192  1
  Zr  Zr5  1  0.308192  0.308192  0.692095  1
  Ta  Ta6  1  0.643234  0.118884  0.118884  1
  Ta  Ta7  1  0.118884  0.643234  0.118884  1
  Ta  Ta8  1  0.118884  0.118884  0.643234  1
  Ti  Ti9  1  0.118202  0.118202  0.118202  1
  Al  Al10  1  0.361857  0.880567  0.880567  1
  Al  Al11  1  0.880567  0.361857  0.880567  1
  Al  Al12  1  0.880567  0.880567  0.361857  1
  Al  Al13  1  0.879302  0.879302  0.879302  1
  Al  Al14  1  0.993943  0.333592  0.333592  1
  Al  Al15  1  0.333592  0.993943  0.333592  1
  Al  Al16  1  0.333592  0.333592  0.993943  1
  Al  Al17  1  0.336335  0.336335  0.336335  1
  Al  Al18  1  0.003468  0.665328  0.665328  1
  Al  Al19  1  0.665328  0.003468  0.665328  1
  Al  Al20  1  0.665328  0.665328  0.003468  1
  Al  Al21  1  0.665592  0.665592  0.665592  1
  Co  Co22  1  0.000124  0.000124  0.000124  1
  Co  Co23  1  0.500118  0.003490  0.003490  1
  Co  Co24  1  0.494932  0.004375  0.494932  1
  Co  Co25  1  0.494932  0.494932  0.004375  1
  Co  Co26  1  0.004375  0.494932  0.494932  1
  Co  Co27  1  0.003490  0.500118  0.003490  1
  Co  Co28  1  0.003490  0.003490  0.500118  1
