# generated using pymatgen
data_NdLu2ThCdIr
_symmetry_space_group_name_H-M   'P 1'
_cell_length_a   9.73335998
_cell_length_b   9.71510863
_cell_length_c   9.71510718
_cell_angle_alpha   60.12433622
_cell_angle_beta   59.93783109
_cell_angle_gamma   59.93783272
_symmetry_Int_Tables_number   1
_chemical_formula_structural   NdLu2ThCdIr
_chemical_formula_sum   'Nd4 Lu8 Th4 Cd4 Ir4'
_cell_volume   649.59096127
_cell_formula_units_Z   4
loop_
 _symmetry_equiv_pos_site_id
 _symmetry_equiv_pos_as_xyz
  1  'x, y, z'
loop_
 _atom_site_type_symbol
 _atom_site_label
 _atom_site_symmetry_multiplicity
 _atom_site_fract_x
 _atom_site_fract_y
 _atom_site_fract_z
 _atom_site_occupancy
  Nd  Nd0  1  0.565153  0.934847  0.565153  1
  Nd  Nd1  1  0.934847  0.565153  0.934847  1
  Nd  Nd2  1  0.565153  0.565153  0.934847  1
  Nd  Nd3  1  0.934847  0.934847  0.565153  1
  Lu  Lu4  1  0.816011  0.183989  0.183989  1
  Lu  Lu5  1  0.183989  0.816011  0.816011  1
  Lu  Lu6  1  0.185047  0.814953  0.185047  1
  Lu  Lu7  1  0.814953  0.185047  0.814953  1
  Lu  Lu8  1  0.185047  0.185047  0.814953  1
  Lu  Lu9  1  0.814953  0.814953  0.185047  1
  Lu  Lu10  1  0.942135  0.557865  0.557865  1
  Lu  Lu11  1  0.557865  0.942135  0.942135  1
  Th  Th12  1  0.351089  0.349326  0.349326  1
  Th  Th13  1  0.349326  0.351089  0.950259  1
  Th  Th14  1  0.349326  0.950259  0.351089  1
  Th  Th15  1  0.950259  0.349326  0.349326  1
  Cd  Cd16  1  0.583967  0.579878  0.579878  1
  Cd  Cd17  1  0.579878  0.583967  0.256276  1
  Cd  Cd18  1  0.579878  0.256276  0.583967  1
  Cd  Cd19  1  0.256276  0.579878  0.579878  1
  Ir  Ir20  1  0.144793  0.140651  0.140651  1
  Ir  Ir21  1  0.140651  0.144793  0.573904  1
  Ir  Ir22  1  0.140651  0.573904  0.144793  1
  Ir  Ir23  1  0.573904  0.140651  0.140651  1
