# generated using pymatgen
data_Lu2Sc6Al(B8Ir)3
_symmetry_space_group_name_H-M   'P 1'
_cell_length_a   3.48658100
_cell_length_b   8.93991313
_cell_length_c   11.26886468
_cell_angle_alpha   90.02953736
_cell_angle_beta   90.00000000
_cell_angle_gamma   90.00000000
_symmetry_Int_Tables_number   1
_chemical_formula_structural   Lu2Sc6Al(B8Ir)3
_chemical_formula_sum   'Lu2 Sc6 Al1 B24 Ir3'
_cell_volume   351.24743682
_cell_formula_units_Z   1
loop_
 _symmetry_equiv_pos_site_id
 _symmetry_equiv_pos_as_xyz
  1  'x, y, z'
loop_
 _atom_site_type_symbol
 _atom_site_label
 _atom_site_symmetry_multiplicity
 _atom_site_fract_x
 _atom_site_fract_y
 _atom_site_fract_z
 _atom_site_occupancy
  Lu  Lu0  1  0.500000  0.315984  0.410237  1
  Lu  Lu1  1  0.500000  0.680723  0.584850  1
  Sc  Sc2  1  0.500000  0.181608  0.919052  1
  Sc  Sc3  1  0.500000  0.822816  0.088532  1
  Sc  Sc4  1  0.500000  0.443233  0.124926  1
  Sc  Sc5  1  0.500000  0.556711  0.875760  1
  Sc  Sc6  1  0.500000  0.054990  0.626716  1
  Sc  Sc7  1  0.500000  0.947030  0.373251  1
  Al  Al8  1  0.500000  0.138184  0.178560  1
  B  B9  1  0.000000  0.100781  0.472768  1
  B  B10  1  0.000000  0.899865  0.527419  1
  B  B11  1  0.000000  0.397545  0.972024  1
  B  B12  1  0.000000  0.602563  0.028166  1
  B  B13  1  0.000000  0.129768  0.318006  1
  B  B14  1  0.000000  0.869669  0.681244  1
  B  B15  1  0.000000  0.368248  0.820192  1
  B  B16  1  0.000000  0.630996  0.181714  1
  B  B17  1  0.000000  0.052143  0.063096  1
  B  B18  1  0.000000  0.947167  0.936206  1
  B  B19  1  0.000000  0.445625  0.565202  1
  B  B20  1  0.000000  0.552841  0.433464  1
  B  B21  1  0.000000  0.479192  0.285495  1
  B  B22  1  0.000000  0.519268  0.714618  1
  B  B23  1  0.000000  0.019850  0.787975  1
  B  B24  1  0.000000  0.977967  0.211855  1
  B  B25  1  0.000000  0.252472  0.076859  1
  B  B26  1  0.000000  0.748922  0.923263  1
  B  B27  1  0.000000  0.246025  0.578893  1
  B  B28  1  0.000000  0.755128  0.419469  1
  B  B29  1  0.000000  0.297215  0.235285  1
  B  B30  1  0.000000  0.705060  0.763939  1
  B  B31  1  0.000000  0.204382  0.737539  1
  B  B32  1  0.000000  0.796742  0.262837  1
  Ir  Ir33  1  0.500000  0.858004  0.818786  1
  Ir  Ir34  1  0.500000  0.359924  0.681416  1
  Ir  Ir35  1  0.500000  0.641356  0.320387  1
