# generated using pymatgen
data_Ho4Co13Cu4(NiP4)3
_symmetry_space_group_name_H-M   'P 1'
_cell_length_a   3.70289000
_cell_length_b   10.26258192
_cell_length_c   11.89898306
_cell_angle_alpha   89.95149137
_cell_angle_beta   90.00000000
_cell_angle_gamma   90.00000000
_symmetry_Int_Tables_number   1
_chemical_formula_structural   Ho4Co13Cu4(NiP4)3
_chemical_formula_sum   'Ho4 Co13 Cu4 Ni3 P12'
_cell_volume   452.17561559
_cell_formula_units_Z   1
loop_
 _symmetry_equiv_pos_site_id
 _symmetry_equiv_pos_as_xyz
  1  'x, y, z'
loop_
 _atom_site_type_symbol
 _atom_site_label
 _atom_site_symmetry_multiplicity
 _atom_site_fract_x
 _atom_site_fract_y
 _atom_site_fract_z
 _atom_site_occupancy
  Ho  Ho0  1  0.250000  0.578558  0.703920  1
  Ho  Ho1  1  0.250000  0.921458  0.203911  1
  Ho  Ho2  1  0.750000  0.421588  0.295964  1
  Ho  Ho3  1  0.750000  0.078338  0.796010  1
  Co  Co4  1  0.750000  0.906721  0.016586  1
  Co  Co5  1  0.250000  0.223901  0.171614  1
  Co  Co6  1  0.250000  0.276362  0.671521  1
  Co  Co7  1  0.750000  0.774410  0.828237  1
  Co  Co8  1  0.750000  0.723939  0.326735  1
  Co  Co9  1  0.250000  0.878563  0.700289  1
  Co  Co10  1  0.250000  0.621999  0.197996  1
  Co  Co11  1  0.750000  0.121999  0.301217  1
  Co  Co12  1  0.750000  0.377521  0.801615  1
  Co  Co13  1  0.250000  0.463977  0.933684  1
  Co  Co14  1  0.250000  0.035819  0.433796  1
  Co  Co15  1  0.750000  0.536195  0.066395  1
  Co  Co16  1  0.750000  0.964286  0.566692  1
  Cu  Cu17  1  0.250000  0.709792  0.991654  1
  Cu  Cu18  1  0.250000  0.790753  0.490954  1
  Cu  Cu19  1  0.750000  0.289982  0.010691  1
  Cu  Cu20  1  0.750000  0.209735  0.509189  1
  Ni  Ni21  1  0.250000  0.407757  0.483230  1
  Ni  Ni22  1  0.250000  0.093443  0.983255  1
  Ni  Ni23  1  0.750000  0.593448  0.516443  1
  P  P24  1  0.250000  0.425683  0.115814  1
  P  P25  1  0.250000  0.074275  0.616035  1
  P  P26  1  0.750000  0.573523  0.884170  1
  P  P27  1  0.750000  0.925486  0.383996  1
  P  P28  1  0.250000  0.270042  0.857172  1
  P  P29  1  0.250000  0.229702  0.357105  1
  P  P30  1  0.750000  0.732066  0.139964  1
  P  P31  1  0.750000  0.770532  0.643086  1
  P  P32  1  0.250000  0.604243  0.387171  1
  P  P33  1  0.250000  0.896913  0.891008  1
  P  P34  1  0.750000  0.396776  0.611796  1
  P  P35  1  0.750000  0.100217  0.111086  1
