# generated using pymatgen
data_Ho5Hf3(Ni4P3)4
_symmetry_space_group_name_H-M   'P 1'
_cell_length_a   12.30294300
_cell_length_b   12.30294151
_cell_length_c   3.77952400
_cell_angle_alpha   90.00000000
_cell_angle_beta   90.00000000
_cell_angle_gamma   120.00180125
_symmetry_Int_Tables_number   1
_chemical_formula_structural   Ho5Hf3(Ni4P3)4
_chemical_formula_sum   'Ho5 Hf3 Ni16 P12'
_cell_volume   495.42489668
_cell_formula_units_Z   1
loop_
 _symmetry_equiv_pos_site_id
 _symmetry_equiv_pos_as_xyz
  1  'x, y, z'
loop_
 _atom_site_type_symbol
 _atom_site_label
 _atom_site_symmetry_multiplicity
 _atom_site_fract_x
 _atom_site_fract_y
 _atom_site_fract_z
 _atom_site_occupancy
  Ho  Ho0  1  0.666718  0.333470  0.000000  1
  Ho  Ho1  1  0.333471  0.666719  0.000000  1
  Ho  Ho2  1  0.184745  0.999888  0.499999  1
  Ho  Ho3  1  0.999888  0.184746  0.499999  1
  Ho  Ho4  1  0.815029  0.815029  0.499999  1
  Hf  Hf5  1  0.562135  0.000050  0.000000  1
  Hf  Hf6  1  0.437793  0.437793  0.000000  1
  Hf  Hf7  1  0.000050  0.562136  0.000000  1
  Ni  Ni8  1  0.999893  0.999893  0.000000  1
  Ni  Ni9  1  0.808035  0.185436  0.000000  1
  Ni  Ni10  1  0.376820  0.191927  0.000000  1
  Ni  Ni11  1  0.191927  0.376820  0.000000  1
  Ni  Ni12  1  0.814825  0.622948  0.000000  1
  Ni  Ni13  1  0.185436  0.808036  0.000000  1
  Ni  Ni14  1  0.622948  0.814825  0.000000  1
  Ni  Ni15  1  0.725696  0.999712  0.499999  1
  Ni  Ni16  1  0.485486  0.124487  0.499999  1
  Ni  Ni17  1  0.273984  0.273984  0.499999  1
  Ni  Ni18  1  0.876390  0.361819  0.499999  1
  Ni  Ni19  1  0.124487  0.485485  0.499999  1
  Ni  Ni20  1  0.638417  0.514223  0.499999  1
  Ni  Ni21  1  0.514222  0.638417  0.499999  1
  Ni  Ni22  1  0.999712  0.725696  0.499999  1
  Ni  Ni23  1  0.361819  0.876390  0.499999  1
  P  P24  1  0.357024  0.000233  0.000000  1
  P  P25  1  0.822564  0.000087  0.000000  1
  P  P26  1  0.177307  0.177307  0.000000  1
  P  P27  1  0.000233  0.357024  0.000000  1
  P  P28  1  0.643101  0.643100  0.000000  1
  P  P29  1  0.000087  0.822565  0.000000  1
  P  P30  1  0.693950  0.170607  0.499999  1
  P  P31  1  0.476421  0.306124  0.499999  1
  P  P32  1  0.306123  0.476420  0.499999  1
  P  P33  1  0.829418  0.523314  0.499999  1
  P  P34  1  0.170608  0.693950  0.499999  1
  P  P35  1  0.523314  0.829418  0.499999  1
