# generated using pymatgen
data_La8Pr4Pt3RhBr12
_symmetry_space_group_name_H-M   'P 1'
_cell_length_a   10.71537889
_cell_length_b   10.62883351
_cell_length_c   10.63407987
_cell_angle_alpha   108.86892372
_cell_angle_beta   109.20836928
_cell_angle_gamma   110.48289354
_symmetry_Int_Tables_number   1
_chemical_formula_structural   La8Pr4Pt3RhBr12
_chemical_formula_sum   'La8 Pr4 Pt3 Rh1 Br12'
_cell_volume   930.48908909
_cell_formula_units_Z   1
loop_
 _symmetry_equiv_pos_site_id
 _symmetry_equiv_pos_as_xyz
  1  'x, y, z'
loop_
 _atom_site_type_symbol
 _atom_site_label
 _atom_site_symmetry_multiplicity
 _atom_site_fract_x
 _atom_site_fract_y
 _atom_site_fract_z
 _atom_site_occupancy
  La  La0  1  0.471867  0.484894  0.236665  1
  La  La1  1  0.745454  0.234617  0.261365  1
  La  La2  1  0.754302  0.016100  0.488882  1
  La  La3  1  0.234512  0.472733  0.488773  1
  La  La4  1  0.264855  0.751765  0.236533  1
  La  La5  1  0.029253  0.268912  0.009252  1
  La  La6  1  0.015748  0.026636  0.261254  1
  La  La7  1  0.480067  0.740386  0.009326  1
  Pr  Pr8  1  0.485873  0.235890  0.471773  1
  Pr  Pr9  1  0.016059  0.487231  0.752831  1
  Pr  Pr10  1  0.264261  0.014250  0.028539  1
  Pr  Pr11  1  0.236778  0.265584  0.752797  1
  Pt  Pt12  1  0.248616  0.251423  0.249774  1
  Pt  Pt13  1  0.501200  0.998392  0.249830  1
  Pt  Pt14  1  0.999261  0.249261  0.498526  1
  Rh  Rh15  1  0.251596  0.501564  0.003194  1
  Br  Br16  1  0.248717  0.756612  0.746618  1
  Br  Br17  1  0.509631  0.501525  0.752895  1
  Br  Br18  1  0.989888  0.743654  0.992469  1
  Br  Br19  1  0.743271  0.251437  0.752953  1
  Br  Br20  1  0.997909  0.989980  0.746623  1
  Br  Br21  1  0.251204  0.998028  0.507753  1
  Br  Br22  1  0.756652  0.509840  0.507862  1
  Br  Br23  1  0.502569  0.248779  0.992491  1
  Br  Br24  1  0.755031  0.745595  0.250088  1
  Br  Br25  1  0.745529  0.995600  0.991159  1
  Br  Br26  1  0.994980  0.504451  0.249990  1
  Br  Br27  1  0.504919  0.754859  0.509784  1
