# generated using pymatgen
data_Li4NdSb2
_symmetry_space_group_name_H-M   'P 1'
_cell_length_a   8.61159981
_cell_length_b   8.61160005
_cell_length_c   8.61160048
_cell_angle_alpha   30.99389784
_cell_angle_beta   30.99389640
_cell_angle_gamma   30.99389646
_symmetry_Int_Tables_number   1
_chemical_formula_structural   Li4NdSb2
_chemical_formula_sum   'Li4 Nd1 Sb2'
_cell_volume   150.22867896
_cell_formula_units_Z   1
loop_
 _symmetry_equiv_pos_site_id
 _symmetry_equiv_pos_as_xyz
  1  'x, y, z'
loop_
 _atom_site_type_symbol
 _atom_site_label
 _atom_site_symmetry_multiplicity
 _atom_site_fract_x
 _atom_site_fract_y
 _atom_site_fract_z
 _atom_site_occupancy
  Li  Li0  1  0.862124  0.862124  0.862124  1
  Li  Li1  1  0.137876  0.137876  0.137876  1
  Li  Li2  1  0.569473  0.569473  0.569473  1
  Li  Li3  1  0.430527  0.430527  0.430527  1
  Nd  Nd4  1  0.000000  0.000000  0.000000  1
  Sb  Sb5  1  0.747253  0.747253  0.747253  1
  Sb  Sb6  1  0.252747  0.252747  0.252747  1
