# generated using pymatgen
data_Yb11Ho3(Tm3Sn8)2
_symmetry_space_group_name_H-M   'P 1'
_cell_length_a   7.80548734
_cell_length_b   8.39762257
_cell_length_c   15.89559737
_cell_angle_alpha   90.01135796
_cell_angle_beta   90.02179557
_cell_angle_gamma   89.89595370
_symmetry_Int_Tables_number   1
_chemical_formula_structural   Yb11Ho3(Tm3Sn8)2
_chemical_formula_sum   'Yb11 Ho3 Tm6 Sn16'
_cell_volume   1041.91543736
_cell_formula_units_Z   1
loop_
 _symmetry_equiv_pos_site_id
 _symmetry_equiv_pos_as_xyz
  1  'x, y, z'
loop_
 _atom_site_type_symbol
 _atom_site_label
 _atom_site_symmetry_multiplicity
 _atom_site_fract_x
 _atom_site_fract_y
 _atom_site_fract_z
 _atom_site_occupancy
  Yb  Yb0  1  0.503918  0.687309  0.593470  1
  Yb  Yb1  1  0.003960  0.815186  0.908345  1
  Yb  Yb2  1  0.494289  0.312015  0.092257  1
  Yb  Yb3  1  0.995812  0.187086  0.408120  1
  Yb  Yb4  1  0.494487  0.312013  0.407779  1
  Yb  Yb5  1  0.995946  0.187065  0.091827  1
  Yb  Yb6  1  0.503822  0.687248  0.906513  1
  Yb  Yb7  1  0.003803  0.815238  0.591608  1
  Yb  Yb8  1  0.336217  0.989814  0.750012  1
  Yb  Yb9  1  0.163654  0.488360  0.250030  1
  Yb  Yb10  1  0.663289  0.009433  0.250072  1
  Ho  Ho11  1  0.826385  0.664311  0.121809  1
  Ho  Ho12  1  0.674057  0.163932  0.877783  1
  Ho  Ho13  1  0.175477  0.334883  0.622791  1
  Tm  Tm14  1  0.674182  0.163774  0.622207  1
  Tm  Tm15  1  0.175371  0.335112  0.877168  1
  Tm  Tm16  1  0.326076  0.833355  0.122108  1
  Tm  Tm17  1  0.826318  0.664193  0.378191  1
  Tm  Tm18  1  0.326134  0.833305  0.377883  1
  Tm  Tm19  1  0.837980  0.509873  0.749992  1
  Sn  Sn20  1  0.672061  0.962471  0.459268  1
  Sn  Sn21  1  0.172179  0.536547  0.040015  1
  Sn  Sn22  1  0.328089  0.037101  0.959389  1
  Sn  Sn23  1  0.828085  0.465546  0.543787  1
  Sn  Sn24  1  0.329016  0.036744  0.540575  1
  Sn  Sn25  1  0.829081  0.465547  0.955924  1
  Sn  Sn26  1  0.671551  0.962569  0.040876  1
  Sn  Sn27  1  0.171621  0.536906  0.459621  1
  Sn  Sn28  1  0.476143  0.379392  0.750043  1
  Sn  Sn29  1  0.971775  0.132837  0.749925  1
  Sn  Sn30  1  0.527601  0.625611  0.250232  1
  Sn  Sn31  1  0.027568  0.871780  0.250123  1
  Sn  Sn32  1  0.721799  0.865235  0.749912  1
  Sn  Sn33  1  0.209591  0.631172  0.750128  1
  Sn  Sn34  1  0.280825  0.126131  0.250032  1
  Sn  Sn35  1  0.781840  0.370905  0.250184  1
