# generated using pymatgen
data_Pr16CdHg3(PdRu)2
_symmetry_space_group_name_H-M   'P 1'
_cell_length_a   10.00884045
_cell_length_b   10.03737139
_cell_length_c   10.11325600
_cell_angle_alpha   59.74959362
_cell_angle_beta   59.65429700
_cell_angle_gamma   59.77876325
_symmetry_Int_Tables_number   1
_chemical_formula_structural   Pr16CdHg3(PdRu)2
_chemical_formula_sum   'Pr16 Cd1 Hg3 Pd2 Ru2'
_cell_volume   713.97506939
_cell_formula_units_Z   1
loop_
 _symmetry_equiv_pos_site_id
 _symmetry_equiv_pos_as_xyz
  1  'x, y, z'
loop_
 _atom_site_type_symbol
 _atom_site_label
 _atom_site_symmetry_multiplicity
 _atom_site_fract_x
 _atom_site_fract_y
 _atom_site_fract_z
 _atom_site_occupancy
  Pr  Pr0  1  0.349405  0.348528  0.356744  1
  Pr  Pr1  1  0.349405  0.348528  0.945323  1
  Pr  Pr2  1  0.344809  0.953851  0.350671  1
  Pr  Pr3  1  0.951420  0.345273  0.351654  1
  Pr  Pr4  1  0.815241  0.190025  0.192286  1
  Pr  Pr5  1  0.188911  0.815921  0.803290  1
  Pr  Pr6  1  0.188911  0.815921  0.191878  1
  Pr  Pr7  1  0.815241  0.190025  0.802448  1
  Pr  Pr8  1  0.188968  0.189441  0.810795  1
  Pr  Pr9  1  0.804221  0.804213  0.195783  1
  Pr  Pr10  1  0.936270  0.558976  0.565628  1
  Pr  Pr11  1  0.558252  0.937439  0.938971  1
  Pr  Pr12  1  0.558252  0.937439  0.565338  1
  Pr  Pr13  1  0.936270  0.558976  0.939125  1
  Pr  Pr14  1  0.562100  0.562655  0.937623  1
  Pr  Pr15  1  0.937141  0.938580  0.562140  1
  Cd  Cd16  1  0.260072  0.580716  0.579605  1
  Hg  Hg17  1  0.581982  0.584292  0.583997  1
  Hg  Hg18  1  0.581982  0.584292  0.249729  1
  Hg  Hg19  1  0.583263  0.247827  0.584454  1
  Pd  Pd20  1  0.147321  0.572226  0.140227  1
  Pd  Pd21  1  0.572653  0.147010  0.140169  1
  Ru  Ru22  1  0.143955  0.143922  0.136896  1
  Ru  Ru23  1  0.143955  0.143922  0.575228  1
