# generated using pymatgen
data_Tb8LuMg(BiAu2)2
_symmetry_space_group_name_H-M   'P 1'
_cell_length_a   8.76774126
_cell_length_b   8.76774074
_cell_length_c   8.76774124
_cell_angle_alpha   125.53027160
_cell_angle_beta   125.53027157
_cell_angle_gamma   80.66155071
_symmetry_Int_Tables_number   1
_chemical_formula_structural   Tb8LuMg(BiAu2)2
_chemical_formula_sum   'Tb8 Lu1 Mg1 Bi2 Au4'
_cell_volume   430.43448835
_cell_formula_units_Z   1
loop_
 _symmetry_equiv_pos_site_id
 _symmetry_equiv_pos_as_xyz
  1  'x, y, z'
loop_
 _atom_site_type_symbol
 _atom_site_label
 _atom_site_symmetry_multiplicity
 _atom_site_fract_x
 _atom_site_fract_y
 _atom_site_fract_z
 _atom_site_occupancy
  Tb  Tb0  1  0.522273  0.012382  0.814032  1
  Tb  Tb1  1  0.198349  0.708241  0.185968  1
  Tb  Tb2  1  0.012382  0.198349  0.490109  1
  Tb  Tb3  1  0.708241  0.522273  0.509891  1
  Tb  Tb4  1  0.477727  0.987618  0.185968  1
  Tb  Tb5  1  0.801651  0.291759  0.814032  1
  Tb  Tb6  1  0.987618  0.801651  0.509891  1
  Tb  Tb7  1  0.291759  0.477727  0.490109  1
  Lu  Lu8  1  0.500000  0.500000  0.000000  1
  Mg  Mg9  1  0.000000  0.000000  0.000000  1
  Bi  Bi10  1  0.253475  0.253475  0.000000  1
  Bi  Bi11  1  0.746525  0.746525  0.000000  1
  Au  Au12  1  0.141799  0.633940  0.775738  1
  Au  Au13  1  0.858201  0.366060  0.224262  1
  Au  Au14  1  0.633940  0.858201  0.492140  1
  Au  Au15  1  0.366060  0.141799  0.507860  1
