# generated using pymatgen
data_TbHoTm6(SiBr6)2
_symmetry_space_group_name_H-M   'P 1'
_cell_length_a   4.01279100
_cell_length_b   13.13347279
_cell_length_c   13.87663700
_cell_angle_alpha   90.37258512
_cell_angle_beta   90.00000000
_cell_angle_gamma   90.00000000
_symmetry_Int_Tables_number   1
_chemical_formula_structural   TbHoTm6(SiBr6)2
_chemical_formula_sum   'Tb1 Ho1 Tm6 Si2 Br12'
_cell_volume   731.30941515
_cell_formula_units_Z   1
loop_
 _symmetry_equiv_pos_site_id
 _symmetry_equiv_pos_as_xyz
  1  'x, y, z'
loop_
 _atom_site_type_symbol
 _atom_site_label
 _atom_site_symmetry_multiplicity
 _atom_site_fract_x
 _atom_site_fract_y
 _atom_site_fract_z
 _atom_site_occupancy
  Tb  Tb0  1  0.000000  0.380976  0.079261  1
  Ho  Ho1  1  0.000000  0.618746  0.920925  1
  Tm  Tm2  1  0.500000  0.117094  0.342623  1
  Tm  Tm3  1  0.500000  0.882931  0.657341  1
  Tm  Tm4  1  0.500000  0.618075  0.158466  1
  Tm  Tm5  1  0.500000  0.381960  0.841510  1
  Tm  Tm6  1  0.000000  0.116432  0.577702  1
  Tm  Tm7  1  0.000000  0.883558  0.422302  1
  Si  Si8  1  0.500000  0.999998  0.500006  1
  Si  Si9  1  0.500000  0.500705  0.999536  1
  Br  Br10  1  0.500000  0.240661  0.166496  1
  Br  Br11  1  0.500000  0.758723  0.833923  1
  Br  Br12  1  0.500000  0.747257  0.337066  1
  Br  Br13  1  0.500000  0.252747  0.662931  1
  Br  Br14  1  0.000000  0.253875  0.412214  1
  Br  Br15  1  0.000000  0.746114  0.587801  1
  Br  Br16  1  0.000000  0.755423  0.092390  1
  Br  Br17  1  0.000000  0.244410  0.907201  1
  Br  Br18  1  0.000000  0.001722  0.244491  1
  Br  Br19  1  0.000000  0.998251  0.755525  1
  Br  Br20  1  0.000000  0.506414  0.258943  1
  Br  Br21  1  0.000000  0.493930  0.741347  1
