# generated using pymatgen
data_Tb2TmP4Rh7
_symmetry_space_group_name_H-M   'P 1'
_cell_length_a   7.75469212
_cell_length_b   7.75469226
_cell_length_c   9.21430582
_cell_angle_alpha   56.64740247
_cell_angle_beta   56.64740072
_cell_angle_gamma   29.44253126
_symmetry_Int_Tables_number   1
_chemical_formula_structural   Tb2TmP4Rh7
_chemical_formula_sum   'Tb2 Tm1 P4 Rh7'
_cell_volume   224.08387518
_cell_formula_units_Z   1
loop_
 _symmetry_equiv_pos_site_id
 _symmetry_equiv_pos_as_xyz
  1  'x, y, z'
loop_
 _atom_site_type_symbol
 _atom_site_label
 _atom_site_symmetry_multiplicity
 _atom_site_fract_x
 _atom_site_fract_y
 _atom_site_fract_z
 _atom_site_occupancy
  Tb  Tb0  1  0.329484  0.329484  0.667085  1
  Tb  Tb1  1  0.000083  0.000083  0.000710  1
  Tm  Tm2  1  0.670642  0.670642  0.332372  1
  P  P3  1  0.331712  0.331712  0.275237  1
  P  P4  1  0.667599  0.667599  0.725103  1
  P  P5  1  0.891376  0.891376  0.825923  1
  P  P6  1  0.108981  0.108981  0.176900  1
  Rh  Rh7  1  0.301133  0.301133  0.048429  1
  Rh  Rh8  1  0.698490  0.698490  0.953810  1
  Rh  Rh9  1  0.506563  0.506563  0.730785  1
  Rh  Rh10  1  0.830203  0.830203  0.420323  1
  Rh  Rh11  1  0.493680  0.493680  0.268452  1
  Rh  Rh12  1  0.167218  0.167218  0.577261  1
  Rh  Rh13  1  0.002837  0.002837  0.497610  1
