# generated using pymatgen
data_Y12Th4Mg3Co4Cu
_symmetry_space_group_name_H-M   'P 1'
_cell_length_a   9.59293896
_cell_length_b   9.59293807
_cell_length_c   9.59293911
_cell_angle_alpha   59.98573863
_cell_angle_beta   59.98574008
_cell_angle_gamma   59.98574355
_symmetry_Int_Tables_number   1
_chemical_formula_structural   Y12Th4Mg3Co4Cu
_chemical_formula_sum   'Y12 Th4 Mg3 Co4 Cu1'
_cell_volume   624.02152750
_cell_formula_units_Z   1
loop_
 _symmetry_equiv_pos_site_id
 _symmetry_equiv_pos_as_xyz
  1  'x, y, z'
loop_
 _atom_site_type_symbol
 _atom_site_label
 _atom_site_symmetry_multiplicity
 _atom_site_fract_x
 _atom_site_fract_y
 _atom_site_fract_z
 _atom_site_occupancy
  Y  Y0  1  0.811483  0.187734  0.187734  1
  Y  Y1  1  0.187292  0.812598  0.812598  1
  Y  Y2  1  0.187734  0.811483  0.187734  1
  Y  Y3  1  0.812598  0.187292  0.812598  1
  Y  Y4  1  0.187734  0.187734  0.811483  1
  Y  Y5  1  0.812598  0.812598  0.187292  1
  Y  Y6  1  0.929157  0.564242  0.564242  1
  Y  Y7  1  0.563472  0.935377  0.935377  1
  Y  Y8  1  0.564242  0.929157  0.564242  1
  Y  Y9  1  0.935377  0.563472  0.935377  1
  Y  Y10  1  0.564242  0.564242  0.929157  1
  Y  Y11  1  0.935377  0.935377  0.563472  1
  Th  Th12  1  0.344078  0.344078  0.344078  1
  Th  Th13  1  0.345138  0.345138  0.964844  1
  Th  Th14  1  0.345138  0.964844  0.345138  1
  Th  Th15  1  0.964844  0.345138  0.345138  1
  Mg  Mg16  1  0.580256  0.580256  0.266385  1
  Mg  Mg17  1  0.580256  0.266385  0.580256  1
  Mg  Mg18  1  0.266385  0.580256  0.580256  1
  Co  Co19  1  0.145055  0.145055  0.145055  1
  Co  Co20  1  0.145364  0.145364  0.562718  1
  Co  Co21  1  0.145364  0.562718  0.145364  1
  Co  Co22  1  0.562718  0.145364  0.145364  1
  Cu  Cu23  1  0.584098  0.584098  0.584098  1
