# generated using pymatgen
data_Hf6Al3(GaCu4)4
_symmetry_space_group_name_H-M   'P 1'
_cell_length_a   8.41263401
_cell_length_b   8.41263404
_cell_length_c   8.39210425
_cell_angle_alpha   59.92751852
_cell_angle_beta   59.92751557
_cell_angle_gamma   59.80800399
_symmetry_Int_Tables_number   1
_chemical_formula_structural   Hf6Al3(GaCu4)4
_chemical_formula_sum   'Hf6 Al3 Ga4 Cu16'
_cell_volume   418.90007728
_cell_formula_units_Z   1
loop_
 _symmetry_equiv_pos_site_id
 _symmetry_equiv_pos_as_xyz
  1  'x, y, z'
loop_
 _atom_site_type_symbol
 _atom_site_label
 _atom_site_symmetry_multiplicity
 _atom_site_fract_x
 _atom_site_fract_y
 _atom_site_fract_z
 _atom_site_occupancy
  Hf  Hf0  1  0.703133  0.703133  0.295869  1
  Hf  Hf1  1  0.296870  0.704031  0.295985  1
  Hf  Hf2  1  0.704031  0.296870  0.295985  1
  Hf  Hf3  1  0.296867  0.296867  0.704131  1
  Hf  Hf4  1  0.703130  0.295969  0.704015  1
  Hf  Hf5  1  0.295969  0.703130  0.704015  1
  Al  Al6  1  0.000000  0.000000  0.000000  1
  Al  Al7  1  0.500000  0.000000  0.500000  1
  Al  Al8  1  0.000000  0.500000  0.500000  1
  Ga  Ga9  1  0.000000  0.000000  0.500000  1
  Ga  Ga10  1  0.500000  0.500000  0.000000  1
  Ga  Ga11  1  0.000000  0.500000  0.000000  1
  Ga  Ga12  1  0.500000  0.000000  0.000000  1
  Cu  Cu13  1  0.879591  0.879591  0.357594  1
  Cu  Cu14  1  0.882272  0.356825  0.878457  1
  Cu  Cu15  1  0.356825  0.882272  0.878457  1
  Cu  Cu16  1  0.881331  0.881331  0.881020  1
  Cu  Cu17  1  0.120409  0.120409  0.642406  1
  Cu  Cu18  1  0.117728  0.643175  0.121543  1
  Cu  Cu19  1  0.643175  0.117728  0.121543  1
  Cu  Cu20  1  0.118669  0.118669  0.118980  1
  Cu  Cu21  1  0.669229  0.669229  0.992051  1
  Cu  Cu22  1  0.668489  0.992478  0.668506  1
  Cu  Cu23  1  0.992478  0.668489  0.668506  1
  Cu  Cu24  1  0.669883  0.669883  0.667904  1
  Cu  Cu25  1  0.330771  0.330771  0.007949  1
  Cu  Cu26  1  0.331511  0.007522  0.331494  1
  Cu  Cu27  1  0.007522  0.331511  0.331494  1
  Cu  Cu28  1  0.330117  0.330117  0.332096  1
