# generated using pymatgen
data_ErPu4(SiAs)2
_symmetry_space_group_name_H-M   'P 1'
_cell_length_a   8.23452400
_cell_length_b   8.23452472
_cell_length_c   7.65727400
_cell_angle_alpha   90.00000000
_cell_angle_beta   90.00000000
_cell_angle_gamma   125.00336932
_symmetry_Int_Tables_number   1
_chemical_formula_structural   ErPu4(SiAs)2
_chemical_formula_sum   'Er2 Pu8 Si4 As4'
_cell_volume   425.30242673
_cell_formula_units_Z   2
loop_
 _symmetry_equiv_pos_site_id
 _symmetry_equiv_pos_as_xyz
  1  'x, y, z'
loop_
 _atom_site_type_symbol
 _atom_site_label
 _atom_site_symmetry_multiplicity
 _atom_site_fract_x
 _atom_site_fract_y
 _atom_site_fract_z
 _atom_site_occupancy
  Er  Er0  1  0.000000  0.000000  0.000000  1
  Er  Er1  1  0.500000  0.500000  0.500000  1
  Pu  Pu2  1  0.028354  0.312434  0.330755  1
  Pu  Pu3  1  0.971646  0.687566  0.669245  1
  Pu  Pu4  1  0.471646  0.187566  0.830755  1
  Pu  Pu5  1  0.812434  0.528354  0.169245  1
  Pu  Pu6  1  0.528354  0.812434  0.169245  1
  Pu  Pu7  1  0.187566  0.471646  0.830755  1
  Pu  Pu8  1  0.687566  0.971646  0.669245  1
  Pu  Pu9  1  0.312434  0.028354  0.330755  1
  Si  Si10  1  0.383525  0.383525  0.116623  1
  Si  Si11  1  0.616475  0.616475  0.883377  1
  Si  Si12  1  0.116475  0.116475  0.616623  1
  Si  Si13  1  0.883525  0.883525  0.383377  1
  As  As14  1  0.800867  0.199133  0.000000  1
  As  As15  1  0.199133  0.800867  0.000000  1
  As  As16  1  0.699133  0.300867  0.500000  1
  As  As17  1  0.300867  0.699133  0.500000  1
