# generated using pymatgen
data_NaHf2PSe2
_symmetry_space_group_name_H-M   'P 1'
_cell_length_a   3.79581401
_cell_length_b   3.79429802
_cell_length_c   30.22642400
_cell_angle_alpha   90.00000000
_cell_angle_beta   90.00329059
_cell_angle_gamma   119.98678371
_symmetry_Int_Tables_number   1
_chemical_formula_structural   NaHf2PSe2
_chemical_formula_sum   'Na3 Hf6 P3 Se6'
_cell_volume   377.06097543
_cell_formula_units_Z   3
loop_
 _symmetry_equiv_pos_site_id
 _symmetry_equiv_pos_as_xyz
  1  'x, y, z'
loop_
 _atom_site_type_symbol
 _atom_site_label
 _atom_site_symmetry_multiplicity
 _atom_site_fract_x
 _atom_site_fract_y
 _atom_site_fract_z
 _atom_site_occupancy
  Na  Na0  1  0.333192  0.666597  0.166955  1
  Na  Na1  1  0.000724  0.000363  0.499995  1
  Na  Na2  1  0.666517  0.333259  0.833066  1
  Hf  Hf3  1  0.333752  0.666876  0.044987  1
  Hf  Hf4  1  0.333023  0.666510  0.288448  1
  Hf  Hf5  1  0.000481  0.000241  0.378307  1
  Hf  Hf6  1  0.999280  0.999640  0.621856  1
  Hf  Hf7  1  0.666839  0.333420  0.711446  1
  Hf  Hf8  1  0.666520  0.333260  0.954960  1
  P  P9  1  0.000144  0.000073  0.999970  1
  P  P10  1  0.666728  0.333365  0.333383  1
  P  P11  1  0.333064  0.666531  0.666650  1
  Se  Se12  1  0.666750  0.333375  0.100593  1
  Se  Se13  1  0.999835  0.999917  0.232894  1
  Se  Se14  1  0.333903  0.666951  0.433816  1
  Se  Se15  1  0.666056  0.333029  0.566326  1
  Se  Se16  1  0.000071  0.000036  0.767023  1
  Se  Se17  1  0.333112  0.666555  0.899359  1
