# generated using pymatgen
data_PrMg(Si7Ir3)2
_symmetry_space_group_name_H-M   'P 1'
_cell_length_a   8.04481834
_cell_length_b   8.04481805
_cell_length_c   8.04481724
_cell_angle_alpha   56.64680993
_cell_angle_beta   56.64681254
_cell_angle_gamma   56.64681381
_symmetry_Int_Tables_number   1
_chemical_formula_structural   PrMg(Si7Ir3)2
_chemical_formula_sum   'Pr1 Mg1 Si14 Ir6'
_cell_volume   339.64371829
_cell_formula_units_Z   1
loop_
 _symmetry_equiv_pos_site_id
 _symmetry_equiv_pos_as_xyz
  1  'x, y, z'
loop_
 _atom_site_type_symbol
 _atom_site_label
 _atom_site_symmetry_multiplicity
 _atom_site_fract_x
 _atom_site_fract_y
 _atom_site_fract_z
 _atom_site_occupancy
  Pr  Pr0  1  0.500000  0.500000  0.500000  1
  Mg  Mg1  1  0.000000  0.000000  0.000000  1
  Si  Si2  1  0.852859  0.062074  0.675450  1
  Si  Si3  1  0.675450  0.852859  0.062074  1
  Si  Si4  1  0.062074  0.675450  0.852859  1
  Si  Si5  1  0.652180  0.828840  0.433391  1
  Si  Si6  1  0.250333  0.250333  0.250333  1
  Si  Si7  1  0.749667  0.749667  0.749667  1
  Si  Si8  1  0.171160  0.566609  0.347820  1
  Si  Si9  1  0.566609  0.347820  0.171160  1
  Si  Si10  1  0.347820  0.171160  0.566609  1
  Si  Si11  1  0.937926  0.324550  0.147141  1
  Si  Si12  1  0.324550  0.147141  0.937926  1
  Si  Si13  1  0.147141  0.937926  0.324550  1
  Si  Si14  1  0.828840  0.433391  0.652180  1
  Si  Si15  1  0.433391  0.652180  0.828840  1
  Ir  Ir16  1  0.752486  0.069465  0.426870  1
  Ir  Ir17  1  0.426870  0.752486  0.069465  1
  Ir  Ir18  1  0.069465  0.426870  0.752486  1
  Ir  Ir19  1  0.247514  0.930535  0.573130  1
  Ir  Ir20  1  0.573130  0.247514  0.930535  1
  Ir  Ir21  1  0.930535  0.573130  0.247514  1
