# generated using pymatgen
data_Ti8Co4Tc3Mo
_symmetry_space_group_name_H-M   'P 1'
_cell_length_a   6.06215600
_cell_length_b   4.31231000
_cell_length_c   8.62860400
_cell_angle_alpha   90.00000000
_cell_angle_beta   90.00010038
_cell_angle_gamma   90.00000000
_symmetry_Int_Tables_number   1
_chemical_formula_structural   Ti8Co4Tc3Mo
_chemical_formula_sum   'Ti8 Co4 Tc3 Mo1'
_cell_volume   225.56806788
_cell_formula_units_Z   1
loop_
 _symmetry_equiv_pos_site_id
 _symmetry_equiv_pos_as_xyz
  1  'x, y, z'
loop_
 _atom_site_type_symbol
 _atom_site_label
 _atom_site_symmetry_multiplicity
 _atom_site_fract_x
 _atom_site_fract_y
 _atom_site_fract_z
 _atom_site_occupancy
  Ti  Ti0  1  0.500939  0.749999  0.124989  1
  Ti  Ti1  1  0.999040  0.749999  0.124995  1
  Ti  Ti2  1  0.499894  0.250000  0.375445  1
  Ti  Ti3  1  0.000099  0.250000  0.375451  1
  Ti  Ti4  1  0.000128  0.749999  0.625007  1
  Ti  Ti5  1  0.499878  0.749999  0.625012  1
  Ti  Ti6  1  0.000117  0.250000  0.874547  1
  Ti  Ti7  1  0.499904  0.250000  0.874553  1
  Co  Co8  1  0.749994  0.250000  0.125004  1
  Co  Co9  1  0.249994  0.749999  0.376494  1
  Co  Co10  1  0.750006  0.250000  0.624992  1
  Co  Co11  1  0.250008  0.749999  0.873507  1
  Tc  Tc12  1  0.749997  0.749999  0.376008  1
  Tc  Tc13  1  0.250005  0.250000  0.625003  1
  Tc  Tc14  1  0.750005  0.749999  0.873991  1
  Mo  Mo15  1  0.249993  0.250000  0.125000  1
