# generated using pymatgen
data_Ac2Sm3Pb4
_symmetry_space_group_name_H-M   'P 1'
_cell_length_a   8.60929000
_cell_length_b   8.65352100
_cell_length_c   16.47518800
_cell_angle_alpha   90.00000000
_cell_angle_beta   90.00000000
_cell_angle_gamma   90.00000000
_symmetry_Int_Tables_number   1
_chemical_formula_structural   Ac2Sm3Pb4
_chemical_formula_sum   'Ac8 Sm12 Pb16'
_cell_volume   1227.41257420
_cell_formula_units_Z   4
loop_
 _symmetry_equiv_pos_site_id
 _symmetry_equiv_pos_as_xyz
  1  'x, y, z'
loop_
 _atom_site_type_symbol
 _atom_site_label
 _atom_site_symmetry_multiplicity
 _atom_site_fract_x
 _atom_site_fract_y
 _atom_site_fract_z
 _atom_site_occupancy
  Ac  Ac0  1  0.027220  0.178181  0.098306  1
  Ac  Ac1  1  0.527220  0.321819  0.401694  1
  Ac  Ac2  1  0.472780  0.678181  0.901694  1
  Ac  Ac3  1  0.972780  0.821819  0.598306  1
  Ac  Ac4  1  0.972780  0.821819  0.901694  1
  Ac  Ac5  1  0.472780  0.678181  0.598306  1
  Ac  Ac6  1  0.527220  0.321819  0.098306  1
  Ac  Ac7  1  0.027220  0.178181  0.401694  1
  Sm  Sm8  1  0.871944  0.657446  0.120591  1
  Sm  Sm9  1  0.371944  0.842554  0.379409  1
  Sm  Sm10  1  0.628056  0.157446  0.879409  1
  Sm  Sm11  1  0.128056  0.342554  0.620591  1
  Sm  Sm12  1  0.128056  0.342554  0.879409  1
  Sm  Sm13  1  0.628056  0.157446  0.620591  1
  Sm  Sm14  1  0.371944  0.842554  0.120591  1
  Sm  Sm15  1  0.871944  0.657446  0.379409  1
  Sm  Sm16  1  0.707731  0.995415  0.250000  1
  Sm  Sm17  1  0.207731  0.504585  0.250000  1
  Sm  Sm18  1  0.792269  0.495415  0.750000  1
  Sm  Sm19  1  0.292269  0.004585  0.750000  1
  Pb  Pb20  1  0.068901  0.865863  0.250000  1
  Pb  Pb21  1  0.568901  0.634137  0.250000  1
  Pb  Pb22  1  0.431099  0.365863  0.750000  1
  Pb  Pb23  1  0.931099  0.134137  0.750000  1
  Pb  Pb24  1  0.837436  0.358805  0.250000  1
  Pb  Pb25  1  0.337436  0.141195  0.250000  1
  Pb  Pb26  1  0.662564  0.858805  0.750000  1
  Pb  Pb27  1  0.162564  0.641195  0.750000  1
  Pb  Pb28  1  0.793077  0.459002  0.954520  1
  Pb  Pb29  1  0.293077  0.040998  0.545480  1
  Pb  Pb30  1  0.706923  0.959002  0.045480  1
  Pb  Pb31  1  0.206923  0.540998  0.454520  1
  Pb  Pb32  1  0.206923  0.540998  0.045480  1
  Pb  Pb33  1  0.706923  0.959002  0.454520  1
  Pb  Pb34  1  0.293077  0.040998  0.954520  1
  Pb  Pb35  1  0.793077  0.459002  0.545480  1
