# generated using pymatgen
data_ThGe4(Ir2Rh)2
_symmetry_space_group_name_H-M   'P 1'
_cell_length_a   7.26288870
_cell_length_b   7.26288930
_cell_length_c   3.93399400
_cell_angle_alpha   90.00000000
_cell_angle_beta   90.00000000
_cell_angle_gamma   120.34386430
_symmetry_Int_Tables_number   1
_chemical_formula_structural   ThGe4(Ir2Rh)2
_chemical_formula_sum   'Th1 Ge4 Ir4 Rh2'
_cell_volume   179.08856355
_cell_formula_units_Z   1
loop_
 _symmetry_equiv_pos_site_id
 _symmetry_equiv_pos_as_xyz
  1  'x, y, z'
loop_
 _atom_site_type_symbol
 _atom_site_label
 _atom_site_symmetry_multiplicity
 _atom_site_fract_x
 _atom_site_fract_y
 _atom_site_fract_z
 _atom_site_occupancy
  Th  Th0  1  0.000369  0.999631  0.000000  1
  Ge  Ge1  1  0.667895  0.332105  0.000000  1
  Ge  Ge2  1  0.197747  0.802253  0.500000  1
  Ge  Ge3  1  0.199002  0.397809  0.500000  1
  Ge  Ge4  1  0.602191  0.800998  0.500000  1
  Ir  Ir5  1  0.467428  0.532572  0.000000  1
  Ir  Ir6  1  0.802488  0.197512  0.500000  1
  Ir  Ir7  1  0.800515  0.602500  0.500000  1
  Ir  Ir8  1  0.397500  0.199485  0.500000  1
  Rh  Rh9  1  0.466235  0.934700  0.000000  1
  Rh  Rh10  1  0.065300  0.533765  0.000000  1
