# generated using pymatgen
data_Tb3Lu2In3Br
_symmetry_space_group_name_H-M   'P 1'
_cell_length_a   9.17319800
_cell_length_b   9.17319843
_cell_length_c   6.66478400
_cell_angle_alpha   90.00000000
_cell_angle_beta   90.00000000
_cell_angle_gamma   119.99999844
_symmetry_Int_Tables_number   1
_chemical_formula_structural   Tb3Lu2In3Br
_chemical_formula_sum   'Tb6 Lu4 In6 Br2'
_cell_volume   485.68900625
_cell_formula_units_Z   2
loop_
 _symmetry_equiv_pos_site_id
 _symmetry_equiv_pos_as_xyz
  1  'x, y, z'
loop_
 _atom_site_type_symbol
 _atom_site_label
 _atom_site_symmetry_multiplicity
 _atom_site_fract_x
 _atom_site_fract_y
 _atom_site_fract_z
 _atom_site_occupancy
  Tb  Tb0  1  0.732601  0.732601  0.250000  1
  Tb  Tb1  1  0.000000  0.732601  0.750000  1
  Tb  Tb2  1  0.732601  0.000000  0.750000  1
  Tb  Tb3  1  0.267399  0.267399  0.750000  1
  Tb  Tb4  1  0.000000  0.267399  0.250000  1
  Tb  Tb5  1  0.267399  0.000000  0.250000  1
  Lu  Lu6  1  0.333333  0.666667  0.500000  1
  Lu  Lu7  1  0.666667  0.333333  0.500000  1
  Lu  Lu8  1  0.333333  0.666667  0.000000  1
  Lu  Lu9  1  0.666667  0.333333  0.000000  1
  In  In10  1  0.393405  0.000000  0.750000  1
  In  In11  1  0.000000  0.606595  0.250000  1
  In  In12  1  0.606595  0.000000  0.250000  1
  In  In13  1  0.000000  0.393405  0.750000  1
  In  In14  1  0.393405  0.393405  0.250000  1
  In  In15  1  0.606595  0.606595  0.750000  1
  Br  Br16  1  0.000000  0.000000  0.500000  1
  Br  Br17  1  0.000000  0.000000  0.000000  1
