# generated using pymatgen
data_Tb3DyMg3ZnRh4
_symmetry_space_group_name_H-M   'P 1'
_cell_length_a   4.10997600
_cell_length_b   7.07459435
_cell_length_c   8.43821903
_cell_angle_alpha   90.02274072
_cell_angle_beta   90.00000000
_cell_angle_gamma   90.00000000
_symmetry_Int_Tables_number   1
_chemical_formula_structural   Tb3DyMg3ZnRh4
_chemical_formula_sum   'Tb3 Dy1 Mg3 Zn1 Rh4'
_cell_volume   245.35312196
_cell_formula_units_Z   1
loop_
 _symmetry_equiv_pos_site_id
 _symmetry_equiv_pos_as_xyz
  1  'x, y, z'
loop_
 _atom_site_type_symbol
 _atom_site_label
 _atom_site_symmetry_multiplicity
 _atom_site_fract_x
 _atom_site_fract_y
 _atom_site_fract_z
 _atom_site_occupancy
  Tb  Tb0  1  0.250000  0.534137  0.183881  1
  Tb  Tb1  1  0.750000  0.459714  0.819183  1
  Tb  Tb2  1  0.250000  0.048686  0.328063  1
  Dy  Dy3  1  0.750000  0.962645  0.675075  1
  Mg  Mg4  1  0.250000  0.135364  0.939957  1
  Mg  Mg5  1  0.750000  0.863174  0.059925  1
  Mg  Mg6  1  0.250000  0.630799  0.555426  1
  Zn  Zn7  1  0.750000  0.366104  0.439304  1
  Rh  Rh8  1  0.750000  0.748999  0.372437  1
  Rh  Rh9  1  0.250000  0.253415  0.625220  1
  Rh  Rh10  1  0.750000  0.248672  0.131862  1
  Rh  Rh11  1  0.250000  0.748292  0.869668  1
