# generated using pymatgen
data_TbDy3Y12Cd2(AgPt2)2
_symmetry_space_group_name_H-M   'P 1'
_cell_length_a   9.71371358
_cell_length_b   9.71435107
_cell_length_c   9.71435100
_cell_angle_alpha   60.00000365
_cell_angle_beta   59.99783267
_cell_angle_gamma   59.99783205
_symmetry_Int_Tables_number   1
_chemical_formula_structural   TbDy3Y12Cd2(AgPt2)2
_chemical_formula_sum   'Tb1 Dy3 Y12 Cd2 Ag2 Pt4'
_cell_volume   648.16214633
_cell_formula_units_Z   1
loop_
 _symmetry_equiv_pos_site_id
 _symmetry_equiv_pos_as_xyz
  1  'x, y, z'
loop_
 _atom_site_type_symbol
 _atom_site_label
 _atom_site_symmetry_multiplicity
 _atom_site_fract_x
 _atom_site_fract_y
 _atom_site_fract_z
 _atom_site_occupancy
  Tb  Tb0  1  0.940902  0.353266  0.352916  1
  Dy  Dy1  1  0.352595  0.352453  0.351654  1
  Dy  Dy2  1  0.352595  0.352453  0.943297  1
  Dy  Dy3  1  0.353088  0.941602  0.352654  1
  Y  Y4  1  0.810389  0.189319  0.189498  1
  Y  Y5  1  0.189374  0.810353  0.810565  1
  Y  Y6  1  0.189374  0.810353  0.189708  1
  Y  Y7  1  0.810389  0.189319  0.810795  1
  Y  Y8  1  0.189374  0.189460  0.810583  1
  Y  Y9  1  0.809981  0.810222  0.189899  1
  Y  Y10  1  0.932960  0.565523  0.564798  1
  Y  Y11  1  0.565392  0.933009  0.936957  1
  Y  Y12  1  0.565392  0.933009  0.564641  1
  Y  Y13  1  0.932960  0.565523  0.936718  1
  Y  Y14  1  0.564998  0.564909  0.935046  1
  Y  Y15  1  0.935071  0.934834  0.565047  1
  Cd  Cd16  1  0.581661  0.255997  0.581171  1
  Cd  Cd17  1  0.256199  0.582001  0.580899  1
  Ag  Ag18  1  0.582615  0.583123  0.582993  1
  Ag  Ag19  1  0.582615  0.583123  0.251269  1
  Pt  Pt20  1  0.144376  0.143498  0.143539  1
  Pt  Pt21  1  0.144376  0.143498  0.568586  1
  Pt  Pt22  1  0.143864  0.569731  0.143202  1
  Pt  Pt23  1  0.569456  0.143418  0.143563  1
