# generated using pymatgen
data_Ca3Tb(AgPb)2
_symmetry_space_group_name_H-M   'P 1'
_cell_length_a   7.56060800
_cell_length_b   5.38311300
_cell_length_c   10.76859600
_cell_angle_alpha   90.00000000
_cell_angle_beta   90.00052740
_cell_angle_gamma   90.00000000
_symmetry_Int_Tables_number   1
_chemical_formula_structural   Ca3Tb(AgPb)2
_chemical_formula_sum   'Ca6 Tb2 Ag4 Pb4'
_cell_volume   438.27762742
_cell_formula_units_Z   2
loop_
 _symmetry_equiv_pos_site_id
 _symmetry_equiv_pos_as_xyz
  1  'x, y, z'
loop_
 _atom_site_type_symbol
 _atom_site_label
 _atom_site_symmetry_multiplicity
 _atom_site_fract_x
 _atom_site_fract_y
 _atom_site_fract_z
 _atom_site_occupancy
  Ca  Ca0  1  0.000154  0.249999  0.378782  1
  Ca  Ca1  1  0.500041  0.249999  0.378951  1
  Ca  Ca2  1  0.502072  0.750000  0.625003  1
  Ca  Ca3  1  0.997727  0.750000  0.625075  1
  Ca  Ca4  1  0.499859  0.249999  0.870972  1
  Ca  Ca5  1  0.999971  0.249999  0.871134  1
  Tb  Tb6  1  0.003305  0.750000  0.125020  1
  Tb  Tb7  1  0.496889  0.750000  0.125084  1
  Ag  Ag8  1  0.749995  0.249999  0.124915  1
  Ag  Ag9  1  0.249987  0.750000  0.366136  1
  Ag  Ag10  1  0.750066  0.249999  0.624911  1
  Ag  Ag11  1  0.249942  0.750000  0.884169  1
  Pb  Pb12  1  0.250051  0.249999  0.124887  1
  Pb  Pb13  1  0.750094  0.750000  0.368295  1
  Pb  Pb14  1  0.249936  0.249999  0.624866  1
  Pb  Pb15  1  0.749912  0.750000  0.881800  1
