# generated using pymatgen
data_RbCoAs3F18
_symmetry_space_group_name_H-M   'P 1'
_cell_length_a   9.72328500
_cell_length_b   10.67050100
_cell_length_c   14.30829300
_cell_angle_alpha   90.00000000
_cell_angle_beta   90.00000000
_cell_angle_gamma   90.00000000
_symmetry_Int_Tables_number   1
_chemical_formula_structural   RbCoAs3F18
_chemical_formula_sum   'Rb4 Co4 As12 F72'
_cell_volume   1484.51862712
_cell_formula_units_Z   4
loop_
 _symmetry_equiv_pos_site_id
 _symmetry_equiv_pos_as_xyz
  1  'x, y, z'
loop_
 _atom_site_type_symbol
 _atom_site_label
 _atom_site_symmetry_multiplicity
 _atom_site_fract_x
 _atom_site_fract_y
 _atom_site_fract_z
 _atom_site_occupancy
  Rb  Rb0  1  0.524510  0.925118  0.750000  1
  Rb  Rb1  1  0.975490  0.425118  0.750000  1
  Rb  Rb2  1  0.475490  0.074882  0.250000  1
  Rb  Rb3  1  0.024510  0.574882  0.250000  1
  Co  Co4  1  0.000000  0.000000  0.500000  1
  Co  Co5  1  0.500000  0.500000  0.000000  1
  Co  Co6  1  0.000000  0.000000  0.000000  1
  Co  Co7  1  0.500000  0.500000  0.500000  1
  As  As8  1  0.104525  0.018775  0.750000  1
  As  As9  1  0.395475  0.518775  0.750000  1
  As  As10  1  0.895475  0.981225  0.250000  1
  As  As11  1  0.604525  0.481225  0.250000  1
  As  As12  1  0.695168  0.204838  0.547241  1
  As  As13  1  0.804832  0.704838  0.952759  1
  As  As14  1  0.304832  0.795162  0.047241  1
  As  As15  1  0.195168  0.295162  0.452759  1
  As  As16  1  0.304832  0.795162  0.452759  1
  As  As17  1  0.195168  0.295162  0.047241  1
  As  As18  1  0.695168  0.204838  0.952759  1
  As  As19  1  0.804832  0.704838  0.547241  1
  F  F20  1  0.107150  0.021786  0.622140  1
  F  F21  1  0.392850  0.521786  0.877860  1
  F  F22  1  0.892850  0.978214  0.122140  1
  F  F23  1  0.607150  0.478214  0.377860  1
  F  F24  1  0.892850  0.978214  0.377860  1
  F  F25  1  0.607150  0.478214  0.122140  1
  F  F26  1  0.107150  0.021786  0.877860  1
  F  F27  1  0.392850  0.521786  0.622140  1
  F  F28  1  0.155679  0.862315  0.750000  1
  F  F29  1  0.344321  0.362315  0.750000  1
  F  F30  1  0.844321  0.137685  0.250000  1
  F  F31  1  0.655679  0.637685  0.250000  1
  F  F32  1  0.277739  0.065460  0.750000  1
  F  F33  1  0.222261  0.565460  0.750000  1
  F  F34  1  0.722261  0.934540  0.250000  1
  F  F35  1  0.777739  0.434540  0.250000  1
  F  F36  1  0.056369  0.177585  0.750000  1
  F  F37  1  0.443631  0.677585  0.750000  1
  F  F38  1  0.943631  0.822415  0.250000  1
  F  F39  1  0.556369  0.322415  0.250000  1
  F  F40  1  0.931280  0.975870  0.750000  1
  F  F41  1  0.568720  0.475870  0.750000  1
  F  F42  1  0.068720  0.024130  0.250000  1
  F  F43  1  0.431280  0.524130  0.250000  1
  F  F44  1  0.822607  0.078364  0.554366  1
  F  F45  1  0.677393  0.578364  0.945634  1
  F  F46  1  0.177393  0.921636  0.054366  1
  F  F47  1  0.322607  0.421636  0.445634  1
  F  F48  1  0.177393  0.921636  0.445634  1
  F  F49  1  0.322607  0.421636  0.054366  1
  F  F50  1  0.822607  0.078364  0.945634  1
  F  F51  1  0.677393  0.578364  0.554366  1
  F  F52  1  0.792976  0.285294  0.464880  1
  F  F53  1  0.707024  0.785294  0.035120  1
  F  F54  1  0.207024  0.714706  0.964880  1
  F  F55  1  0.292976  0.214706  0.535120  1
  F  F56  1  0.207024  0.714706  0.535120  1
  F  F57  1  0.292976  0.214706  0.964880  1
  F  F58  1  0.792976  0.285294  0.035120  1
  F  F59  1  0.707024  0.785294  0.464880  1
  F  F60  1  0.608201  0.125556  0.457745  1
  F  F61  1  0.891799  0.625556  0.042255  1
  F  F62  1  0.391799  0.874444  0.957745  1
  F  F63  1  0.108201  0.374444  0.542255  1
  F  F64  1  0.391799  0.874444  0.542255  1
  F  F65  1  0.108201  0.374444  0.957745  1
  F  F66  1  0.608201  0.125556  0.042255  1
  F  F67  1  0.891799  0.625556  0.457745  1
  F  F68  1  0.564608  0.328380  0.546501  1
  F  F69  1  0.935392  0.828380  0.953499  1
  F  F70  1  0.435392  0.671620  0.046501  1
  F  F71  1  0.064608  0.171620  0.453499  1
  F  F72  1  0.435392  0.671620  0.453499  1
  F  F73  1  0.064608  0.171620  0.046501  1
  F  F74  1  0.564608  0.328380  0.953499  1
  F  F75  1  0.935392  0.828380  0.546501  1
  F  F76  1  0.596540  0.124911  0.630759  1
  F  F77  1  0.903460  0.624911  0.869241  1
  F  F78  1  0.403460  0.875089  0.130759  1
  F  F79  1  0.096540  0.375089  0.369241  1
  F  F80  1  0.403460  0.875089  0.369241  1
  F  F81  1  0.096540  0.375089  0.130759  1
  F  F82  1  0.596540  0.124911  0.869241  1
  F  F83  1  0.903460  0.624911  0.630759  1
  F  F84  1  0.781847  0.283328  0.637757  1
  F  F85  1  0.718153  0.783328  0.862243  1
  F  F86  1  0.218153  0.716672  0.137757  1
  F  F87  1  0.281847  0.216672  0.362243  1
  F  F88  1  0.218153  0.716672  0.362243  1
  F  F89  1  0.281847  0.216672  0.137757  1
  F  F90  1  0.781847  0.283328  0.862243  1
  F  F91  1  0.718153  0.783328  0.637757  1
