# generated using pymatgen
data_Y9LuCd3Ni
_symmetry_space_group_name_H-M   'P 1'
_cell_length_a   9.63950500
_cell_length_b   9.63950543
_cell_length_c   9.74926300
_cell_angle_alpha   90.00000000
_cell_angle_beta   90.00000000
_cell_angle_gamma   119.99999508
_symmetry_Int_Tables_number   1
_chemical_formula_structural   Y9LuCd3Ni
_chemical_formula_sum   'Y18 Lu2 Cd6 Ni2'
_cell_volume   784.53428039
_cell_formula_units_Z   2
loop_
 _symmetry_equiv_pos_site_id
 _symmetry_equiv_pos_as_xyz
  1  'x, y, z'
loop_
 _atom_site_type_symbol
 _atom_site_label
 _atom_site_symmetry_multiplicity
 _atom_site_fract_x
 _atom_site_fract_y
 _atom_site_fract_z
 _atom_site_occupancy
  Y  Y0  1  0.543560  0.456440  0.250000  1
  Y  Y1  1  0.543560  0.087120  0.250000  1
  Y  Y2  1  0.912880  0.456440  0.250000  1
  Y  Y3  1  0.456440  0.543560  0.750000  1
  Y  Y4  1  0.456440  0.912880  0.750000  1
  Y  Y5  1  0.087120  0.543560  0.750000  1
  Y  Y6  1  0.209179  0.790821  0.437558  1
  Y  Y7  1  0.209179  0.418358  0.437558  1
  Y  Y8  1  0.581642  0.790821  0.437558  1
  Y  Y9  1  0.790821  0.209179  0.562442  1
  Y  Y10  1  0.790821  0.581642  0.562442  1
  Y  Y11  1  0.418358  0.209179  0.562442  1
  Y  Y12  1  0.790821  0.209179  0.937558  1
  Y  Y13  1  0.790821  0.581642  0.937558  1
  Y  Y14  1  0.418358  0.209179  0.937558  1
  Y  Y15  1  0.209179  0.790821  0.062442  1
  Y  Y16  1  0.209179  0.418358  0.062442  1
  Y  Y17  1  0.581642  0.790821  0.062442  1
  Lu  Lu18  1  0.000000  0.000000  0.500000  1
  Lu  Lu19  1  0.000000  0.000000  0.000000  1
  Cd  Cd20  1  0.885850  0.114150  0.250000  1
  Cd  Cd21  1  0.885850  0.771699  0.250000  1
  Cd  Cd22  1  0.228301  0.114150  0.250000  1
  Cd  Cd23  1  0.114150  0.885850  0.750000  1
  Cd  Cd24  1  0.114150  0.228301  0.750000  1
  Cd  Cd25  1  0.771699  0.885850  0.750000  1
  Ni  Ni26  1  0.333333  0.666667  0.250000  1
  Ni  Ni27  1  0.666667  0.333333  0.750000  1
