# generated using pymatgen
data_TbSm7(PCl6)2
_symmetry_space_group_name_H-M   'P 1'
_cell_length_a   3.97235700
_cell_length_b   12.98552768
_cell_length_c   13.70511900
_cell_angle_alpha   90.41746271
_cell_angle_beta   90.00000000
_cell_angle_gamma   90.00000000
_symmetry_Int_Tables_number   1
_chemical_formula_structural   TbSm7(PCl6)2
_chemical_formula_sum   'Tb1 Sm7 P2 Cl12'
_cell_volume   706.93446858
_cell_formula_units_Z   1
loop_
 _symmetry_equiv_pos_site_id
 _symmetry_equiv_pos_as_xyz
  1  'x, y, z'
loop_
 _atom_site_type_symbol
 _atom_site_label
 _atom_site_symmetry_multiplicity
 _atom_site_fract_x
 _atom_site_fract_y
 _atom_site_fract_z
 _atom_site_occupancy
  Tb  Tb0  1  0.500000  0.379769  0.838275  1
  Sm  Sm1  1  0.500000  0.120281  0.338849  1
  Sm  Sm2  1  0.500000  0.880466  0.661416  1
  Sm  Sm3  1  0.500000  0.619683  0.160795  1
  Sm  Sm4  1  0.000000  0.120945  0.580831  1
  Sm  Sm5  1  0.000000  0.879934  0.419970  1
  Sm  Sm6  1  0.000000  0.620594  0.920713  1
  Sm  Sm7  1  0.000000  0.380026  0.080282  1
  P  P8  1  0.500000  0.000697  0.500324  1
  P  P9  1  0.500000  0.498461  0.997983  1
  Cl  Cl10  1  0.500000  0.242486  0.163265  1
  Cl  Cl11  1  0.500000  0.755623  0.834485  1
  Cl  Cl12  1  0.500000  0.742896  0.335265  1
  Cl  Cl13  1  0.500000  0.258033  0.668267  1
  Cl  Cl14  1  0.000000  0.251500  0.412628  1
  Cl  Cl15  1  0.000000  0.749128  0.587938  1
  Cl  Cl16  1  0.000000  0.751432  0.088837  1
  Cl  Cl17  1  0.000000  0.252911  0.906980  1
  Cl  Cl18  1  0.000000  0.002302  0.246993  1
  Cl  Cl19  1  0.000000  0.998185  0.753703  1
  Cl  Cl20  1  0.000000  0.502957  0.253280  1
  Cl  Cl21  1  0.000000  0.491693  0.748923  1
