# generated using pymatgen
data_CeTm(MnAl5)4
_symmetry_space_group_name_H-M   'P 1'
_cell_length_a   6.79827800
_cell_length_b   6.79827760
_cell_length_c   9.04007700
_cell_angle_alpha   90.00000000
_cell_angle_beta   90.00000000
_cell_angle_gamma   97.37127323
_symmetry_Int_Tables_number   1
_chemical_formula_structural   CeTm(MnAl5)4
_chemical_formula_sum   'Ce1 Tm1 Mn4 Al20'
_cell_volume   414.34857827
_cell_formula_units_Z   1
loop_
 _symmetry_equiv_pos_site_id
 _symmetry_equiv_pos_as_xyz
  1  'x, y, z'
loop_
 _atom_site_type_symbol
 _atom_site_label
 _atom_site_symmetry_multiplicity
 _atom_site_fract_x
 _atom_site_fract_y
 _atom_site_fract_z
 _atom_site_occupancy
  Ce  Ce0  1  0.125540  0.874460  0.250000  1
  Tm  Tm1  1  0.872449  0.127551  0.750000  1
  Mn  Mn2  1  0.499257  0.999573  0.999434  1
  Mn  Mn3  1  0.000427  0.500743  0.999434  1
  Mn  Mn4  1  0.499257  0.999573  0.500566  1
  Mn  Mn5  1  0.000427  0.500743  0.500566  1
  Al  Al6  1  0.413877  0.134099  0.750000  1
  Al  Al7  1  0.134217  0.410469  0.250000  1
  Al  Al8  1  0.589531  0.865783  0.250000  1
  Al  Al9  1  0.865901  0.586123  0.750000  1
  Al  Al10  1  0.524516  0.783421  0.750000  1
  Al  Al11  1  0.781617  0.522301  0.250000  1
  Al  Al12  1  0.477699  0.218383  0.250000  1
  Al  Al13  1  0.216579  0.475484  0.750000  1
  Al  Al14  1  0.843744  0.156256  0.403820  1
  Al  Al15  1  0.154945  0.845055  0.597818  1
  Al  Al16  1  0.843744  0.156256  0.096180  1
  Al  Al17  1  0.154945  0.845055  0.902182  1
  Al  Al18  1  0.626786  0.373214  0.955732  1
  Al  Al19  1  0.373989  0.626011  0.043799  1
  Al  Al20  1  0.626786  0.373214  0.544268  1
  Al  Al21  1  0.373989  0.626011  0.456201  1
  Al  Al22  1  0.770437  0.770547  0.998684  1
  Al  Al23  1  0.770437  0.770547  0.501316  1
  Al  Al24  1  0.229452  0.229563  0.998684  1
  Al  Al25  1  0.229452  0.229563  0.501316  1
