# generated using pymatgen
data_Ho4MgPd4Pb
_symmetry_space_group_name_H-M   'P 1'
_cell_length_a   3.61820800
_cell_length_b   7.86090300
_cell_length_c   7.86090300
_cell_angle_alpha   90.00000000
_cell_angle_beta   90.00000000
_cell_angle_gamma   90.00000000
_symmetry_Int_Tables_number   1
_chemical_formula_structural   Ho4MgPd4Pb
_chemical_formula_sum   'Ho4 Mg1 Pd4 Pb1'
_cell_volume   223.58280695
_cell_formula_units_Z   1
loop_
 _symmetry_equiv_pos_site_id
 _symmetry_equiv_pos_as_xyz
  1  'x, y, z'
loop_
 _atom_site_type_symbol
 _atom_site_label
 _atom_site_symmetry_multiplicity
 _atom_site_fract_x
 _atom_site_fract_y
 _atom_site_fract_z
 _atom_site_occupancy
  Ho  Ho0  1  0.500000  0.160901  0.675849  1
  Ho  Ho1  1  0.500000  0.839099  0.324151  1
  Ho  Ho2  1  0.500000  0.324151  0.160901  1
  Ho  Ho3  1  0.500000  0.675849  0.839099  1
  Mg  Mg4  1  0.000000  0.500000  0.500000  1
  Pd  Pd5  1  0.000000  0.616633  0.141495  1
  Pd  Pd6  1  0.000000  0.383367  0.858505  1
  Pd  Pd7  1  0.000000  0.858505  0.616633  1
  Pd  Pd8  1  0.000000  0.141495  0.383367  1
  Pb  Pb9  1  0.000000  0.000000  0.000000  1
