# generated using pymatgen
data_Yb20(IrAu3)3
_symmetry_space_group_name_H-M   'P 1'
_cell_length_a   6.61935500
_cell_length_b   11.20295400
_cell_length_c   11.20295400
_cell_angle_alpha   90.00000000
_cell_angle_beta   90.00000000
_cell_angle_gamma   90.00000000
_symmetry_Int_Tables_number   1
_chemical_formula_structural   Yb20(IrAu3)3
_chemical_formula_sum   'Yb20 Ir3 Au9'
_cell_volume   830.76994903
_cell_formula_units_Z   1
loop_
 _symmetry_equiv_pos_site_id
 _symmetry_equiv_pos_as_xyz
  1  'x, y, z'
loop_
 _atom_site_type_symbol
 _atom_site_label
 _atom_site_symmetry_multiplicity
 _atom_site_fract_x
 _atom_site_fract_y
 _atom_site_fract_z
 _atom_site_occupancy
  Yb  Yb0  1  0.374772  0.834019  0.546894  1
  Yb  Yb1  1  0.855912  0.665966  0.546294  1
  Yb  Yb2  1  0.855912  0.834034  0.953706  1
  Yb  Yb3  1  0.374772  0.665981  0.953106  1
  Yb  Yb4  1  0.855912  0.546294  0.834034  1
  Yb  Yb5  1  0.374772  0.953106  0.834019  1
  Yb  Yb6  1  0.374772  0.546894  0.665981  1
  Yb  Yb7  1  0.855912  0.953706  0.665966  1
  Yb  Yb8  1  0.633951  0.168395  0.448730  1
  Yb  Yb9  1  0.134712  0.332023  0.448913  1
  Yb  Yb10  1  0.134712  0.167977  0.051088  1
  Yb  Yb11  1  0.633951  0.331605  0.051271  1
  Yb  Yb12  1  0.134712  0.448913  0.167977  1
  Yb  Yb13  1  0.633951  0.051271  0.168395  1
  Yb  Yb14  1  0.633951  0.448730  0.331605  1
  Yb  Yb15  1  0.134712  0.051088  0.332023  1
  Yb  Yb16  1  0.500499  0.750000  0.250000  1
  Yb  Yb17  1  0.001061  0.750000  0.250000  1
  Yb  Yb18  1  0.001061  0.250000  0.750000  1
  Yb  Yb19  1  0.500499  0.250000  0.750000  1
  Ir  Ir20  1  0.614249  0.750000  0.750000  1
  Ir  Ir21  1  0.885333  0.250000  0.250000  1
  Ir  Ir22  1  0.386291  0.250000  0.250000  1
  Au  Au23  1  0.249215  0.902727  0.094618  1
  Au  Au24  1  0.750646  0.596281  0.096132  1
  Au  Au25  1  0.750646  0.903719  0.403868  1
  Au  Au26  1  0.249215  0.597273  0.405382  1
  Au  Au27  1  0.750646  0.096132  0.903719  1
  Au  Au28  1  0.249215  0.405382  0.902727  1
  Au  Au29  1  0.249215  0.094618  0.597273  1
  Au  Au30  1  0.750646  0.403868  0.596281  1
  Au  Au31  1  0.114177  0.750000  0.750000  1
