# generated using pymatgen
data_CeEu3(CuH6)2
_symmetry_space_group_name_H-M   'P 1'
_cell_length_a   7.09354101
_cell_length_b   7.09353910
_cell_length_c   5.24471001
_cell_angle_alpha   89.99786151
_cell_angle_beta   89.99786816
_cell_angle_gamma   136.62697321
_symmetry_Int_Tables_number   1
_chemical_formula_structural   CeEu3(CuH6)2
_chemical_formula_sum   'Ce1 Eu3 Cu2 H12'
_cell_volume   181.23550285
_cell_formula_units_Z   1
loop_
 _symmetry_equiv_pos_site_id
 _symmetry_equiv_pos_as_xyz
  1  'x, y, z'
loop_
 _atom_site_type_symbol
 _atom_site_label
 _atom_site_symmetry_multiplicity
 _atom_site_fract_x
 _atom_site_fract_y
 _atom_site_fract_z
 _atom_site_occupancy
  Ce  Ce0  1  0.144293  0.855707  0.500000  1
  Eu  Eu1  1  0.643965  0.356035  0.000000  1
  Eu  Eu2  1  0.857891  0.142109  0.500000  1
  Eu  Eu3  1  0.357678  0.642322  0.000000  1
  Cu  Cu4  1  0.500446  0.499554  0.500000  1
  Cu  Cu5  1  0.000666  0.999334  0.000000  1
  H  H6  1  0.002148  0.506573  0.745665  1
  H  H7  1  0.493427  0.997852  0.254335  1
  H  H8  1  0.002178  0.506612  0.254364  1
  H  H9  1  0.493388  0.997822  0.745636  1
  H  H10  1  0.371187  0.628813  0.500000  1
  H  H11  1  0.871554  0.128446  0.000000  1
  H  H12  1  0.627512  0.372488  0.500000  1
  H  H13  1  0.127406  0.872594  0.000000  1
  H  H14  1  0.248745  0.245623  0.746017  1
  H  H15  1  0.754377  0.751255  0.253983  1
  H  H16  1  0.247684  0.244545  0.253199  1
  H  H17  1  0.755455  0.752316  0.746801  1
