# generated using pymatgen
data_Y2In(PRh2)6
_symmetry_space_group_name_H-M   'P 1'
_cell_length_a   9.77390400
_cell_length_b   9.77390423
_cell_length_c   3.88548800
_cell_angle_alpha   90.00000000
_cell_angle_beta   90.00000000
_cell_angle_gamma   119.99999246
_symmetry_Int_Tables_number   1
_chemical_formula_structural   Y2In(PRh2)6
_chemical_formula_sum   'Y2 In1 P6 Rh12'
_cell_volume   321.44922645
_cell_formula_units_Z   1
loop_
 _symmetry_equiv_pos_site_id
 _symmetry_equiv_pos_as_xyz
  1  'x, y, z'
loop_
 _atom_site_type_symbol
 _atom_site_label
 _atom_site_symmetry_multiplicity
 _atom_site_fract_x
 _atom_site_fract_y
 _atom_site_fract_z
 _atom_site_occupancy
  Y  Y0  1  0.333333  0.666667  0.753876  1
  Y  Y1  1  0.666667  0.333333  0.246124  1
  In  In2  1  0.000000  0.000000  0.500000  1
  P  P3  1  0.403972  0.287149  0.746314  1
  P  P4  1  0.712851  0.116823  0.746314  1
  P  P5  1  0.883177  0.596028  0.746314  1
  P  P6  1  0.596028  0.712851  0.253686  1
  P  P7  1  0.287149  0.883177  0.253686  1
  P  P8  1  0.116823  0.403972  0.253686  1
  Rh  Rh9  1  0.453758  0.066657  0.747836  1
  Rh  Rh10  1  0.933343  0.387101  0.747836  1
  Rh  Rh11  1  0.612899  0.546242  0.747836  1
  Rh  Rh12  1  0.546242  0.933343  0.252164  1
  Rh  Rh13  1  0.066657  0.612899  0.252164  1
  Rh  Rh14  1  0.387101  0.453758  0.252164  1
  Rh  Rh15  1  0.163017  0.291374  0.758569  1
  Rh  Rh16  1  0.708626  0.871643  0.758569  1
  Rh  Rh17  1  0.128357  0.836983  0.758569  1
  Rh  Rh18  1  0.836983  0.708626  0.241431  1
  Rh  Rh19  1  0.291374  0.128357  0.241431  1
  Rh  Rh20  1  0.871643  0.163017  0.241431  1
