# generated using pymatgen
data_Y4Ga4IrPt2Rh
_symmetry_space_group_name_H-M   'P 1'
_cell_length_a   4.42805200
_cell_length_b   6.87928008
_cell_length_c   7.71054543
_cell_angle_alpha   89.89172796
_cell_angle_beta   90.00000000
_cell_angle_gamma   90.00000000
_symmetry_Int_Tables_number   1
_chemical_formula_structural   Y4Ga4IrPt2Rh
_chemical_formula_sum   'Y4 Ga4 Ir1 Pt2 Rh1'
_cell_volume   234.87674992
_cell_formula_units_Z   1
loop_
 _symmetry_equiv_pos_site_id
 _symmetry_equiv_pos_as_xyz
  1  'x, y, z'
loop_
 _atom_site_type_symbol
 _atom_site_label
 _atom_site_symmetry_multiplicity
 _atom_site_fract_x
 _atom_site_fract_y
 _atom_site_fract_z
 _atom_site_occupancy
  Y  Y0  1  0.250000  0.983207  0.302694  1
  Y  Y1  1  0.250000  0.485767  0.196234  1
  Y  Y2  1  0.750000  0.020565  0.691086  1
  Y  Y3  1  0.750000  0.520831  0.809309  1
  Ga  Ga4  1  0.250000  0.331396  0.570683  1
  Ga  Ga5  1  0.250000  0.831548  0.928887  1
  Ga  Ga6  1  0.750000  0.663828  0.423562  1
  Ga  Ga7  1  0.750000  0.163406  0.075976  1
  Ir  Ir8  1  0.750000  0.775169  0.102198  1
  Pt  Pt9  1  0.250000  0.224583  0.897659  1
  Pt  Pt10  1  0.250000  0.724043  0.602291  1
  Rh  Rh11  1  0.750000  0.275657  0.399422  1
