# generated using pymatgen
data_Y2B6Ir5Rh4
_symmetry_space_group_name_H-M   'P 1'
_cell_length_a   5.63476142
_cell_length_b   5.62783741
_cell_length_c   8.62363700
_cell_angle_alpha   90.00000000
_cell_angle_beta   90.00000000
_cell_angle_gamma   119.95935069
_symmetry_Int_Tables_number   1
_chemical_formula_structural   Y2B6Ir5Rh4
_chemical_formula_sum   'Y2 B6 Ir5 Rh4'
_cell_volume   236.92774390
_cell_formula_units_Z   1
loop_
 _symmetry_equiv_pos_site_id
 _symmetry_equiv_pos_as_xyz
  1  'x, y, z'
loop_
 _atom_site_type_symbol
 _atom_site_label
 _atom_site_symmetry_multiplicity
 _atom_site_fract_x
 _atom_site_fract_y
 _atom_site_fract_z
 _atom_site_occupancy
  Y  Y0  1  0.000000  0.000000  0.701670  1
  Y  Y1  1  0.000000  0.000000  0.298330  1
  B  B2  1  0.666834  0.333416  0.000000  1
  B  B3  1  0.333166  0.666584  0.000000  1
  B  B4  1  0.667083  0.333541  0.667792  1
  B  B5  1  0.332917  0.666459  0.667792  1
  B  B6  1  0.332917  0.666459  0.332208  1
  B  B7  1  0.667083  0.333541  0.332208  1
  Ir  Ir8  1  0.000000  0.500000  0.836555  1
  Ir  Ir9  1  0.000000  0.500000  0.163445  1
  Ir  Ir10  1  0.500000  0.500000  0.500000  1
  Ir  Ir11  1  0.500000  0.000000  0.500000  1
  Ir  Ir12  1  0.000000  0.500000  0.500000  1
  Rh  Rh13  1  0.500000  0.500000  0.836547  1
  Rh  Rh14  1  0.500000  0.000000  0.836547  1
  Rh  Rh15  1  0.500000  0.500000  0.163453  1
  Rh  Rh16  1  0.500000  0.000000  0.163453  1
