# generated using pymatgen
data_Er2PaMnGa5
_symmetry_space_group_name_H-M   'P 1'
_cell_length_a   6.91819856
_cell_length_b   6.91819912
_cell_length_c   4.33181900
_cell_angle_alpha   90.00000000
_cell_angle_beta   90.00000000
_cell_angle_gamma   121.86578207
_symmetry_Int_Tables_number   1
_chemical_formula_structural   Er2PaMnGa5
_chemical_formula_sum   'Er2 Pa1 Mn1 Ga5'
_cell_volume   176.08036278
_cell_formula_units_Z   1
loop_
 _symmetry_equiv_pos_site_id
 _symmetry_equiv_pos_as_xyz
  1  'x, y, z'
loop_
 _atom_site_type_symbol
 _atom_site_label
 _atom_site_symmetry_multiplicity
 _atom_site_fract_x
 _atom_site_fract_y
 _atom_site_fract_z
 _atom_site_occupancy
  Er  Er0  1  0.598375  0.990340  0.000000  1
  Er  Er1  1  0.990340  0.598375  0.000000  1
  Pa  Pa2  1  0.378364  0.378364  0.000000  1
  Mn  Mn3  1  0.057452  0.057452  0.000000  1
  Ga  Ga4  1  0.232366  0.988852  0.500000  1
  Ga  Ga5  1  0.988852  0.232366  0.500000  1
  Ga  Ga6  1  0.763500  0.763500  0.500000  1
  Ga  Ga7  1  0.328237  0.662517  0.500000  1
  Ga  Ga8  1  0.662517  0.328237  0.500000  1
