# generated using pymatgen
data_V2GeO7
_symmetry_space_group_name_H-M   'P 1'
_cell_length_a   5.23990300
_cell_length_b   5.23990179
_cell_length_c   13.81727200
_cell_angle_alpha   90.00000000
_cell_angle_beta   90.00000000
_cell_angle_gamma   120.00000134
_symmetry_Int_Tables_number   1
_chemical_formula_structural   V2GeO7
_chemical_formula_sum   'V4 Ge2 O14'
_cell_volume   328.54837786
_cell_formula_units_Z   2
loop_
 _symmetry_equiv_pos_site_id
 _symmetry_equiv_pos_as_xyz
  1  'x, y, z'
loop_
 _atom_site_type_symbol
 _atom_site_label
 _atom_site_symmetry_multiplicity
 _atom_site_fract_x
 _atom_site_fract_y
 _atom_site_fract_z
 _atom_site_occupancy
  V  V0  1  0.333333  0.666667  0.879482  1
  V  V1  1  0.666667  0.333333  0.120518  1
  V  V2  1  0.666667  0.333333  0.379482  1
  V  V3  1  0.333333  0.666667  0.620518  1
  Ge  Ge4  1  0.000000  0.000000  0.000000  1
  Ge  Ge5  1  0.000000  0.000000  0.500000  1
  O  O6  1  0.929670  0.252370  0.080610  1
  O  O7  1  0.747630  0.677300  0.080610  1
  O  O8  1  0.070330  0.747630  0.580610  1
  O  O9  1  0.252370  0.322700  0.919390  1
  O  O10  1  0.333333  0.666667  0.750000  1
  O  O11  1  0.677300  0.929670  0.580610  1
  O  O12  1  0.747630  0.677300  0.419390  1
  O  O13  1  0.677300  0.929670  0.919390  1
  O  O14  1  0.322700  0.070330  0.080610  1
  O  O15  1  0.252370  0.322700  0.580610  1
  O  O16  1  0.929670  0.252370  0.419390  1
  O  O17  1  0.322700  0.070330  0.419390  1
  O  O18  1  0.070330  0.747630  0.919390  1
  O  O19  1  0.666667  0.333333  0.250000  1
