# generated using pymatgen
data_HoEr2Sc2Si3
_symmetry_space_group_name_H-M   'P 1'
_cell_length_a   8.23360342
_cell_length_b   8.22907425
_cell_length_c   6.00976700
_cell_angle_alpha   90.00000000
_cell_angle_beta   90.00000000
_cell_angle_gamma   119.98179376
_symmetry_Int_Tables_number   1
_chemical_formula_structural   HoEr2Sc2Si3
_chemical_formula_sum   'Ho2 Er4 Sc4 Si6'
_cell_volume   352.70274328
_cell_formula_units_Z   2
loop_
 _symmetry_equiv_pos_site_id
 _symmetry_equiv_pos_as_xyz
  1  'x, y, z'
loop_
 _atom_site_type_symbol
 _atom_site_label
 _atom_site_symmetry_multiplicity
 _atom_site_fract_x
 _atom_site_fract_y
 _atom_site_fract_z
 _atom_site_occupancy
  Ho  Ho0  1  0.000000  0.755119  0.750000  1
  Ho  Ho1  1  0.000000  0.244881  0.250000  1
  Er  Er2  1  0.754711  0.754828  0.250000  1
  Er  Er3  1  0.754711  0.999883  0.750000  1
  Er  Er4  1  0.245289  0.245172  0.750000  1
  Er  Er5  1  0.245289  0.000117  0.250000  1
  Sc  Sc6  1  0.333420  0.666711  0.500000  1
  Sc  Sc7  1  0.666580  0.333289  0.000000  1
  Sc  Sc8  1  0.666580  0.333289  0.500000  1
  Sc  Sc9  1  0.333420  0.666711  0.000000  1
  Si  Si10  1  0.398621  0.000179  0.750000  1
  Si  Si11  1  0.398621  0.398441  0.250000  1
  Si  Si12  1  0.000000  0.601951  0.250000  1
  Si  Si13  1  0.000000  0.398049  0.750000  1
  Si  Si14  1  0.601379  0.601559  0.750000  1
  Si  Si15  1  0.601379  0.999821  0.250000  1
