# generated using pymatgen
data_Hf8FeOs2Rh
_symmetry_space_group_name_H-M   'P 1'
_cell_length_a   8.66604463
_cell_length_b   8.66604466
_cell_length_c   8.62829800
_cell_angle_alpha   60.14398099
_cell_angle_beta   60.14398088
_cell_angle_gamma   60.15926260
_symmetry_Int_Tables_number   1
_chemical_formula_structural   Hf8FeOs2Rh
_chemical_formula_sum   'Hf16 Fe2 Os4 Rh2'
_cell_volume   459.74390228
_cell_formula_units_Z   2
loop_
 _symmetry_equiv_pos_site_id
 _symmetry_equiv_pos_as_xyz
  1  'x, y, z'
loop_
 _atom_site_type_symbol
 _atom_site_label
 _atom_site_symmetry_multiplicity
 _atom_site_fract_x
 _atom_site_fract_y
 _atom_site_fract_z
 _atom_site_occupancy
  Hf  Hf0  1  0.173406  0.615983  0.605305  1
  Hf  Hf1  1  0.615983  0.173406  0.605305  1
  Hf  Hf2  1  0.603818  0.603818  0.198924  1
  Hf  Hf3  1  0.603818  0.603818  0.593440  1
  Hf  Hf4  1  0.817007  0.817007  0.182993  1
  Hf  Hf5  1  0.184534  0.184534  0.815466  1
  Hf  Hf6  1  0.819057  0.186000  0.811342  1
  Hf  Hf7  1  0.186000  0.819057  0.183602  1
  Hf  Hf8  1  0.186000  0.819057  0.811342  1
  Hf  Hf9  1  0.819057  0.186000  0.183602  1
  Hf  Hf10  1  0.465938  0.465938  0.034062  1
  Hf  Hf11  1  0.053548  0.053548  0.446452  1
  Hf  Hf12  1  0.459178  0.035869  0.452791  1
  Hf  Hf13  1  0.035869  0.459178  0.052162  1
  Hf  Hf14  1  0.035869  0.459178  0.452791  1
  Hf  Hf15  1  0.459178  0.035869  0.052162  1
  Fe  Fe16  1  0.830087  0.384332  0.392791  1
  Fe  Fe17  1  0.384332  0.830087  0.392791  1
  Os  Os18  1  0.498825  0.831452  0.834862  1
  Os  Os19  1  0.831452  0.498825  0.834862  1
  Os  Os20  1  0.831207  0.831207  0.501860  1
  Os  Os21  1  0.831207  0.831207  0.835728  1
  Rh  Rh22  1  0.387316  0.387316  0.828782  1
  Rh  Rh23  1  0.387316  0.387316  0.396585  1
