# generated using pymatgen
data_Er12IrPd2Pt
_symmetry_space_group_name_H-M   'P 1'
_cell_length_a   6.40177495
_cell_length_b   7.01852997
_cell_length_c   9.45554700
_cell_angle_alpha   90.00000000
_cell_angle_beta   90.00000000
_cell_angle_gamma   89.81809932
_symmetry_Int_Tables_number   1
_chemical_formula_structural   Er12IrPd2Pt
_chemical_formula_sum   'Er12 Ir1 Pd2 Pt1'
_cell_volume   424.84550783
_cell_formula_units_Z   1
loop_
 _symmetry_equiv_pos_site_id
 _symmetry_equiv_pos_as_xyz
  1  'x, y, z'
loop_
 _atom_site_type_symbol
 _atom_site_label
 _atom_site_symmetry_multiplicity
 _atom_site_fract_x
 _atom_site_fract_y
 _atom_site_fract_z
 _atom_site_occupancy
  Er  Er0  1  0.325059  0.684048  0.056884  1
  Er  Er1  1  0.173191  0.178849  0.439982  1
  Er  Er2  1  0.673001  0.322702  0.562551  1
  Er  Er3  1  0.821308  0.815491  0.938254  1
  Er  Er4  1  0.673001  0.322702  0.937449  1
  Er  Er5  1  0.821308  0.815491  0.561746  1
  Er  Er6  1  0.325059  0.684048  0.443116  1
  Er  Er7  1  0.173191  0.178849  0.060018  1
  Er  Er8  1  0.870934  0.526197  0.250000  1
  Er  Er9  1  0.634457  0.024833  0.250000  1
  Er  Er10  1  0.136730  0.477133  0.750000  1
  Er  Er11  1  0.374075  0.967141  0.750000  1
  Ir  Ir12  1  0.550668  0.614105  0.750000  1
  Pd  Pd13  1  0.443630  0.390858  0.250000  1
  Pd  Pd14  1  0.950103  0.111531  0.750000  1
  Pt  Pt15  1  0.054287  0.886023  0.250000  1
