# generated using pymatgen
data_Hf16TcNi4Os3
_symmetry_space_group_name_H-M   'P 1'
_cell_length_a   8.61478008
_cell_length_b   8.61477972
_cell_length_c   8.61478147
_cell_angle_alpha   59.94489085
_cell_angle_beta   59.94488830
_cell_angle_gamma   59.94488912
_symmetry_Int_Tables_number   1
_chemical_formula_structural   Hf16TcNi4Os3
_chemical_formula_sum   'Hf16 Tc1 Ni4 Os3'
_cell_volume   451.51737136
_cell_formula_units_Z   1
loop_
 _symmetry_equiv_pos_site_id
 _symmetry_equiv_pos_as_xyz
  1  'x, y, z'
loop_
 _atom_site_type_symbol
 _atom_site_label
 _atom_site_symmetry_multiplicity
 _atom_site_fract_x
 _atom_site_fract_y
 _atom_site_fract_z
 _atom_site_occupancy
  Hf  Hf0  1  0.682517  0.105902  0.105902  1
  Hf  Hf1  1  0.105902  0.682517  0.105902  1
  Hf  Hf2  1  0.105902  0.105902  0.682517  1
  Hf  Hf3  1  0.105464  0.105464  0.105464  1
  Hf  Hf4  1  0.315537  0.315537  0.683866  1
  Hf  Hf5  1  0.684737  0.684737  0.315383  1
  Hf  Hf6  1  0.315537  0.683866  0.315537  1
  Hf  Hf7  1  0.684737  0.315383  0.684737  1
  Hf  Hf8  1  0.683866  0.315537  0.315537  1
  Hf  Hf9  1  0.315383  0.684737  0.684737  1
  Hf  Hf10  1  0.952766  0.952766  0.547343  1
  Hf  Hf11  1  0.547892  0.547892  0.952579  1
  Hf  Hf12  1  0.952766  0.547343  0.952766  1
  Hf  Hf13  1  0.547892  0.952579  0.547892  1
  Hf  Hf14  1  0.547343  0.952766  0.952766  1
  Hf  Hf15  1  0.952579  0.547892  0.547892  1
  Tc  Tc16  1  0.333617  0.333617  0.333617  1
  Ni  Ni17  1  0.322047  0.892477  0.892477  1
  Ni  Ni18  1  0.892477  0.322047  0.892477  1
  Ni  Ni19  1  0.892477  0.892477  0.322047  1
  Ni  Ni20  1  0.892747  0.892747  0.892747  1
  Os  Os21  1  0.998005  0.333904  0.333904  1
  Os  Os22  1  0.333904  0.998005  0.333904  1
  Os  Os23  1  0.333904  0.333904  0.998005  1
