# generated using pymatgen
data_Pr6MgCd22P
_symmetry_space_group_name_H-M   'P 1'
_cell_length_a   10.08977038
_cell_length_b   10.08977082
_cell_length_c   10.08976900
_cell_angle_alpha   59.99999614
_cell_angle_beta   59.99999469
_cell_angle_gamma   59.99999601
_symmetry_Int_Tables_number   1
_chemical_formula_structural   Pr6MgCd22P
_chemical_formula_sum   'Pr6 Mg1 Cd22 P1'
_cell_volume   726.32127761
_cell_formula_units_Z   1
loop_
 _symmetry_equiv_pos_site_id
 _symmetry_equiv_pos_as_xyz
  1  'x, y, z'
loop_
 _atom_site_type_symbol
 _atom_site_label
 _atom_site_symmetry_multiplicity
 _atom_site_fract_x
 _atom_site_fract_y
 _atom_site_fract_z
 _atom_site_occupancy
  Pr  Pr0  1  0.796280  0.796280  0.203720  1
  Pr  Pr1  1  0.203720  0.796280  0.203720  1
  Pr  Pr2  1  0.796280  0.203720  0.203720  1
  Pr  Pr3  1  0.203720  0.203720  0.796280  1
  Pr  Pr4  1  0.796280  0.203720  0.796280  1
  Pr  Pr5  1  0.203720  0.796280  0.796280  1
  Mg  Mg6  1  0.500000  0.500000  0.500000  1
  Cd  Cd7  1  0.832913  0.832913  0.501259  1
  Cd  Cd8  1  0.832913  0.501259  0.832913  1
  Cd  Cd9  1  0.501259  0.832913  0.832913  1
  Cd  Cd10  1  0.832913  0.832913  0.832913  1
  Cd  Cd11  1  0.167087  0.167087  0.498741  1
  Cd  Cd12  1  0.167087  0.498741  0.167087  1
  Cd  Cd13  1  0.498741  0.167087  0.167087  1
  Cd  Cd14  1  0.167087  0.167087  0.167087  1
  Cd  Cd15  1  0.620670  0.620670  0.137989  1
  Cd  Cd16  1  0.620670  0.137989  0.620670  1
  Cd  Cd17  1  0.137989  0.620670  0.620670  1
  Cd  Cd18  1  0.620670  0.620670  0.620670  1
  Cd  Cd19  1  0.379330  0.379330  0.862011  1
  Cd  Cd20  1  0.379330  0.862011  0.379330  1
  Cd  Cd21  1  0.862011  0.379330  0.379330  1
  Cd  Cd22  1  0.379330  0.379330  0.379330  1
  Cd  Cd23  1  0.000000  0.000000  0.500000  1
  Cd  Cd24  1  0.500000  0.000000  0.500000  1
  Cd  Cd25  1  0.000000  0.500000  0.500000  1
  Cd  Cd26  1  0.500000  0.500000  0.000000  1
  Cd  Cd27  1  0.000000  0.500000  0.000000  1
  Cd  Cd28  1  0.500000  0.000000  0.000000  1
  P  P29  1  0.000000  0.000000  0.000000  1
