# generated using pymatgen
data_DyAg(CO3)2
_symmetry_space_group_name_H-M   'P 1'
_cell_length_a   6.38404861
_cell_length_b   6.38404952
_cell_length_c   6.38405033
_cell_angle_alpha   47.67928578
_cell_angle_beta   47.67927433
_cell_angle_gamma   47.67930239
_symmetry_Int_Tables_number   1
_chemical_formula_structural   DyAg(CO3)2
_chemical_formula_sum   'Dy1 Ag1 C2 O6'
_cell_volume   130.22083072
_cell_formula_units_Z   1
loop_
 _symmetry_equiv_pos_site_id
 _symmetry_equiv_pos_as_xyz
  1  'x, y, z'
loop_
 _atom_site_type_symbol
 _atom_site_label
 _atom_site_symmetry_multiplicity
 _atom_site_fract_x
 _atom_site_fract_y
 _atom_site_fract_z
 _atom_site_occupancy
  Dy  Dy0  1  0.000000  0.000000  0.000000  1
  Ag  Ag1  1  0.500000  0.500000  0.500000  1
  C  C2  1  0.256144  0.256144  0.256144  1
  C  C3  1  0.743856  0.743856  0.743856  1
  O  O4  1  0.022614  0.223233  0.522369  1
  O  O5  1  0.477631  0.977386  0.776767  1
  O  O6  1  0.776767  0.477631  0.977386  1
  O  O7  1  0.223233  0.522369  0.022614  1
  O  O8  1  0.522369  0.022614  0.223233  1
  O  O9  1  0.977386  0.776767  0.477631  1
