# generated using pymatgen
data_DyTl3Sb2(RhO7)2
_symmetry_space_group_name_H-M   'P 1'
_cell_length_a   7.29795914
_cell_length_b   7.32652670
_cell_length_c   7.29795963
_cell_angle_alpha   60.93778991
_cell_angle_beta   61.04120363
_cell_angle_gamma   60.93778902
_symmetry_Int_Tables_number   1
_chemical_formula_structural   DyTl3Sb2(RhO7)2
_chemical_formula_sum   'Dy1 Tl3 Sb2 Rh2 O14'
_cell_volume   281.96504567
_cell_formula_units_Z   1
loop_
 _symmetry_equiv_pos_site_id
 _symmetry_equiv_pos_as_xyz
  1  'x, y, z'
loop_
 _atom_site_type_symbol
 _atom_site_label
 _atom_site_symmetry_multiplicity
 _atom_site_fract_x
 _atom_site_fract_y
 _atom_site_fract_z
 _atom_site_occupancy
  Dy  Dy0  1  0.125000  0.625000  0.125000  1
  Tl  Tl1  1  0.125000  0.125000  0.625000  1
  Tl  Tl2  1  0.625000  0.125000  0.125000  1
  Tl  Tl3  1  0.125000  0.125000  0.125000  1
  Sb  Sb4  1  0.125000  0.625000  0.625000  1
  Sb  Sb5  1  0.625000  0.625000  0.125000  1
  Rh  Rh6  1  0.625000  0.625000  0.625000  1
  Rh  Rh7  1  0.625000  0.125000  0.625000  1
  O  O8  1  0.291566  0.694393  0.721095  1
  O  O9  1  0.539298  0.954390  0.957119  1
  O  O10  1  0.713341  0.289046  0.713341  1
  O  O11  1  0.292881  0.295610  0.710702  1
  O  O12  1  0.721095  0.694393  0.291566  1
  O  O13  1  0.009433  0.993909  0.009433  1
  O  O14  1  0.300895  0.686606  0.300895  1
  O  O15  1  0.949105  0.563394  0.949105  1
  O  O16  1  0.957119  0.954390  0.539298  1
  O  O17  1  0.528905  0.555607  0.958434  1
  O  O18  1  0.240567  0.256091  0.240567  1
  O  O19  1  0.536659  0.960954  0.536659  1
  O  O20  1  0.710702  0.295610  0.292881  1
  O  O21  1  0.958434  0.555607  0.528905  1
