# generated using pymatgen
data_PaInBr6
_symmetry_space_group_name_H-M   'P 1'
_cell_length_a   7.38459131
_cell_length_b   7.38458940
_cell_length_c   8.27398801
_cell_angle_alpha   63.49646032
_cell_angle_beta   63.49646533
_cell_angle_gamma   60.00001687
_symmetry_Int_Tables_number   1
_chemical_formula_structural   PaInBr6
_chemical_formula_sum   'Pa1 In1 Br6'
_cell_volume   334.87881651
_cell_formula_units_Z   1
loop_
 _symmetry_equiv_pos_site_id
 _symmetry_equiv_pos_as_xyz
  1  'x, y, z'
loop_
 _atom_site_type_symbol
 _atom_site_label
 _atom_site_symmetry_multiplicity
 _atom_site_fract_x
 _atom_site_fract_y
 _atom_site_fract_z
 _atom_site_occupancy
  Pa  Pa0  1  0.000000  0.000000  0.000000  1
  In  In1  1  0.500003  0.500000  0.499999  1
  Br  Br2  1  0.611636  0.212863  0.221375  1
  Br  Br3  1  0.212863  0.954126  0.221375  1
  Br  Br4  1  0.954127  0.611634  0.221375  1
  Br  Br5  1  0.045875  0.388362  0.778624  1
  Br  Br6  1  0.787139  0.045873  0.778624  1
  Br  Br7  1  0.388364  0.787139  0.778624  1
