# generated using pymatgen
data_Nd16MgHg3Ru3Pt
_symmetry_space_group_name_H-M   'P 1'
_cell_length_a   9.92658990
_cell_length_b   9.94748961
_cell_length_c   9.94749010
_cell_angle_alpha   60.05810807
_cell_angle_beta   59.94204712
_cell_angle_gamma   59.94204870
_symmetry_Int_Tables_number   1
_chemical_formula_structural   Nd16MgHg3Ru3Pt
_chemical_formula_sum   'Nd16 Mg1 Hg3 Ru3 Pt1'
_cell_volume   694.25839556
_cell_formula_units_Z   1
loop_
 _symmetry_equiv_pos_site_id
 _symmetry_equiv_pos_as_xyz
  1  'x, y, z'
loop_
 _atom_site_type_symbol
 _atom_site_label
 _atom_site_symmetry_multiplicity
 _atom_site_fract_x
 _atom_site_fract_y
 _atom_site_fract_z
 _atom_site_occupancy
  Nd  Nd0  1  0.556713  0.557777  0.942283  1
  Nd  Nd1  1  0.189916  0.813023  0.185269  1
  Nd  Nd2  1  0.811298  0.809283  0.188405  1
  Nd  Nd3  1  0.189916  0.185269  0.813023  1
  Nd  Nd4  1  0.407441  0.793982  0.399885  1
  Nd  Nd5  1  0.811298  0.188405  0.809283  1
  Nd  Nd6  1  0.934074  0.944524  0.559546  1
  Nd  Nd7  1  0.813149  0.187213  0.187213  1
  Nd  Nd8  1  0.934074  0.559546  0.944524  1
  Nd  Nd9  1  0.788257  0.404924  0.404924  1
  Nd  Nd10  1  0.560604  0.938551  0.938551  1
  Nd  Nd11  1  0.190984  0.809994  0.809994  1
  Nd  Nd12  1  0.556713  0.942283  0.557777  1
  Nd  Nd13  1  0.403523  0.397729  0.397729  1
  Nd  Nd14  1  0.937343  0.556691  0.556691  1
  Nd  Nd15  1  0.407441  0.399885  0.793982  1
  Mg  Mg16  1  0.179739  0.180986  0.180986  1
  Hg  Hg17  1  0.163272  0.504004  0.163595  1
  Hg  Hg18  1  0.163272  0.163595  0.504004  1
  Hg  Hg19  1  0.504077  0.163491  0.163491  1
  Ru  Ru20  1  0.606991  0.611096  0.168189  1
  Ru  Ru21  1  0.607560  0.612073  0.612073  1
  Ru  Ru22  1  0.606991  0.168189  0.611096  1
  Pt  Pt23  1  0.175354  0.607485  0.607485  1
