# generated using pymatgen
data_Eu3Ga4CoRu3
_symmetry_space_group_name_H-M   'P 1'
_cell_length_a   6.67595395
_cell_length_b   6.54567467
_cell_length_c   6.67595250
_cell_angle_alpha   109.07638832
_cell_angle_beta   109.86314069
_cell_angle_gamma   109.07638985
_symmetry_Int_Tables_number   1
_chemical_formula_structural   Eu3Ga4CoRu3
_chemical_formula_sum   'Eu3 Ga4 Co1 Ru3'
_cell_volume   225.65875614
_cell_formula_units_Z   1
loop_
 _symmetry_equiv_pos_site_id
 _symmetry_equiv_pos_as_xyz
  1  'x, y, z'
loop_
 _atom_site_type_symbol
 _atom_site_label
 _atom_site_symmetry_multiplicity
 _atom_site_fract_x
 _atom_site_fract_y
 _atom_site_fract_z
 _atom_site_occupancy
  Eu  Eu0  1  0.503380  0.006810  0.503380  1
  Eu  Eu1  1  0.000000  0.503429  0.496620  1
  Eu  Eu2  1  0.496620  0.503429  0.000000  1
  Ga  Ga3  1  0.000000  0.008066  0.614797  1
  Ga  Ga4  1  0.385203  0.393270  0.385203  1
  Ga  Ga5  1  0.000000  0.594127  0.000000  1
  Ga  Ga6  1  0.614797  0.008066  0.000000  1
  Co  Co7  1  0.000000  0.231938  0.000000  1
  Ru  Ru8  1  0.000000  0.997948  0.242979  1
  Ru  Ru9  1  0.757021  0.754970  0.757021  1
  Ru  Ru10  1  0.242979  0.997948  0.000000  1
