# generated using pymatgen
data_Li4Co7Ni13P12
_symmetry_space_group_name_H-M   'P 1'
_cell_length_a   3.55652800
_cell_length_b   10.17445974
_cell_length_c   11.69133520
_cell_angle_alpha   89.87780712
_cell_angle_beta   90.00000000
_cell_angle_gamma   90.00000000
_symmetry_Int_Tables_number   1
_chemical_formula_structural   Li4Co7Ni13P12
_chemical_formula_sum   'Li4 Co7 Ni13 P12'
_cell_volume   423.05878185
_cell_formula_units_Z   1
loop_
 _symmetry_equiv_pos_site_id
 _symmetry_equiv_pos_as_xyz
  1  'x, y, z'
loop_
 _atom_site_type_symbol
 _atom_site_label
 _atom_site_symmetry_multiplicity
 _atom_site_fract_x
 _atom_site_fract_y
 _atom_site_fract_z
 _atom_site_occupancy
  Li  Li0  1  0.250000  0.577302  0.704663  1
  Li  Li1  1  0.250000  0.921201  0.205000  1
  Li  Li2  1  0.750000  0.420698  0.294724  1
  Li  Li3  1  0.750000  0.079650  0.795275  1
  Co  Co4  1  0.250000  0.623640  0.200235  1
  Co  Co5  1  0.750000  0.124265  0.299916  1
  Co  Co6  1  0.750000  0.376682  0.800212  1
  Co  Co7  1  0.250000  0.463583  0.932021  1
  Co  Co8  1  0.250000  0.037212  0.431325  1
  Co  Co9  1  0.750000  0.537942  0.067636  1
  Co  Co10  1  0.750000  0.961597  0.568825  1
  Ni  Ni11  1  0.250000  0.713988  0.990436  1
  Ni  Ni12  1  0.250000  0.784617  0.491125  1
  Ni  Ni13  1  0.750000  0.286845  0.010549  1
  Ni  Ni14  1  0.750000  0.212823  0.511803  1
  Ni  Ni15  1  0.250000  0.406982  0.481846  1
  Ni  Ni16  1  0.250000  0.092416  0.982785  1
  Ni  Ni17  1  0.750000  0.589737  0.516474  1
  Ni  Ni18  1  0.750000  0.908166  0.017709  1
  Ni  Ni19  1  0.250000  0.222722  0.173011  1
  Ni  Ni20  1  0.250000  0.278435  0.673925  1
  Ni  Ni21  1  0.750000  0.777719  0.824380  1
  Ni  Ni22  1  0.750000  0.722763  0.327232  1
  Ni  Ni23  1  0.250000  0.877958  0.701022  1
  P  P24  1  0.250000  0.426614  0.117888  1
  P  P25  1  0.250000  0.077562  0.615491  1
  P  P26  1  0.750000  0.574590  0.881507  1
  P  P27  1  0.750000  0.926101  0.382027  1
  P  P28  1  0.250000  0.262874  0.864673  1
  P  P29  1  0.250000  0.237759  0.363417  1
  P  P30  1  0.750000  0.737639  0.136474  1
  P  P31  1  0.750000  0.758549  0.633195  1
  P  P32  1  0.250000  0.596097  0.386879  1
  P  P33  1  0.250000  0.903362  0.890316  1
  P  P34  1  0.750000  0.402703  0.613040  1
  P  P35  1  0.750000  0.097209  0.112964  1
