# generated using pymatgen
data_Nd12Ga(SiI4)3
_symmetry_space_group_name_H-M   'P 1'
_cell_length_a   10.85315410
_cell_length_b   10.80192559
_cell_length_c   10.85315310
_cell_angle_alpha   109.37563764
_cell_angle_beta   109.56663480
_cell_angle_gamma   109.37563968
_symmetry_Int_Tables_number   1
_chemical_formula_structural   Nd12Ga(SiI4)3
_chemical_formula_sum   'Nd12 Ga1 Si3 I12'
_cell_volume   980.62310151
_cell_formula_units_Z   1
loop_
 _symmetry_equiv_pos_site_id
 _symmetry_equiv_pos_as_xyz
  1  'x, y, z'
loop_
 _atom_site_type_symbol
 _atom_site_label
 _atom_site_symmetry_multiplicity
 _atom_site_fract_x
 _atom_site_fract_y
 _atom_site_fract_z
 _atom_site_occupancy
  Nd  Nd0  1  0.266978  0.016978  0.033956  1
  Nd  Nd1  1  0.035557  0.267779  0.017779  1
  Nd  Nd2  1  0.482221  0.750000  0.017779  1
  Nd  Nd3  1  0.746169  0.232111  0.264186  1
  Nd  Nd4  1  0.018018  0.032074  0.264186  1
  Nd  Nd5  1  0.018018  0.485943  0.753831  1
  Nd  Nd6  1  0.235814  0.267889  0.753831  1
  Nd  Nd7  1  0.266978  0.750000  0.233022  1
  Nd  Nd8  1  0.235814  0.467926  0.481982  1
  Nd  Nd9  1  0.466044  0.483022  0.233022  1
  Nd  Nd10  1  0.746169  0.014057  0.481982  1
  Nd  Nd11  1  0.482221  0.232221  0.464443  1
  Ga  Ga12  1  0.000000  0.250000  0.500000  1
  Si  Si13  1  0.250050  0.500050  0.000100  1
  Si  Si14  1  0.499900  0.999950  0.249950  1
  Si  Si15  1  0.250050  0.250000  0.249950  1
  I  I16  1  0.757295  0.742238  0.249883  1
  I  I17  1  0.507553  0.250000  0.992447  1
  I  I18  1  0.250117  0.992355  0.507413  1
  I  I19  1  0.515745  0.507873  0.757873  1
  I  I20  1  0.992587  0.984943  0.742705  1
  I  I21  1  0.742127  0.992127  0.984255  1
  I  I22  1  0.507553  0.757553  0.515106  1
  I  I23  1  0.757295  0.515057  0.507413  1
  I  I24  1  0.992587  0.507645  0.249883  1
  I  I25  1  0.984894  0.742447  0.992447  1
  I  I26  1  0.250117  0.757762  0.742705  1
  I  I27  1  0.742127  0.250000  0.757873  1
