# generated using pymatgen
data_Ho2Zn2IrRh
_symmetry_space_group_name_H-M   'P 1'
_cell_length_a   4.03419900
_cell_length_b   6.98156698
_cell_length_c   8.09079412
_cell_angle_alpha   90.15095403
_cell_angle_beta   90.00000000
_cell_angle_gamma   90.00000000
_symmetry_Int_Tables_number   1
_chemical_formula_structural   Ho2Zn2IrRh
_chemical_formula_sum   'Ho4 Zn4 Ir2 Rh2'
_cell_volume   227.87667225
_cell_formula_units_Z   2
loop_
 _symmetry_equiv_pos_site_id
 _symmetry_equiv_pos_as_xyz
  1  'x, y, z'
loop_
 _atom_site_type_symbol
 _atom_site_label
 _atom_site_symmetry_multiplicity
 _atom_site_fract_x
 _atom_site_fract_y
 _atom_site_fract_z
 _atom_site_occupancy
  Ho  Ho0  1  0.250000  0.540113  0.183984  1
  Ho  Ho1  1  0.750000  0.459887  0.816016  1
  Ho  Ho2  1  0.250000  0.037546  0.317790  1
  Ho  Ho3  1  0.750000  0.962454  0.682210  1
  Zn  Zn4  1  0.250000  0.135951  0.936280  1
  Zn  Zn5  1  0.750000  0.864049  0.063720  1
  Zn  Zn6  1  0.250000  0.636459  0.563926  1
  Zn  Zn7  1  0.750000  0.363541  0.436074  1
  Ir  Ir8  1  0.750000  0.744590  0.375301  1
  Ir  Ir9  1  0.250000  0.255410  0.624699  1
  Rh  Rh10  1  0.750000  0.245680  0.122888  1
  Rh  Rh11  1  0.250000  0.754320  0.877112  1
