# generated using pymatgen
data_Tl(SiPd3)2
_symmetry_space_group_name_H-M   'P 1'
_cell_length_a   6.89849500
_cell_length_b   6.89849582
_cell_length_c   3.49045700
_cell_angle_alpha   90.00000000
_cell_angle_beta   90.00000000
_cell_angle_gamma   120.00001045
_symmetry_Int_Tables_number   1
_chemical_formula_structural   Tl(SiPd3)2
_chemical_formula_sum   'Tl1 Si2 Pd6'
_cell_volume   143.85389903
_cell_formula_units_Z   1
loop_
 _symmetry_equiv_pos_site_id
 _symmetry_equiv_pos_as_xyz
  1  'x, y, z'
loop_
 _atom_site_type_symbol
 _atom_site_label
 _atom_site_symmetry_multiplicity
 _atom_site_fract_x
 _atom_site_fract_y
 _atom_site_fract_z
 _atom_site_occupancy
  Tl  Tl0  1  0.666667  0.333333  0.000000  1
  Si  Si1  1  0.333333  0.666667  0.000000  1
  Si  Si2  1  0.000000  0.000000  0.500000  1
  Pd  Pd3  1  0.750624  0.761304  0.000000  1
  Pd  Pd4  1  0.238696  0.989320  0.000000  1
  Pd  Pd5  1  0.010680  0.249376  0.000000  1
  Pd  Pd6  1  0.379847  0.435499  0.500000  1
  Pd  Pd7  1  0.564501  0.944348  0.500000  1
  Pd  Pd8  1  0.055652  0.620153  0.500000  1
