# generated using pymatgen
data_La4In2CuAg2Rh
_symmetry_space_group_name_H-M   'P 1'
_cell_length_a   8.15180830
_cell_length_b   8.15180839
_cell_length_c   3.90617900
_cell_angle_alpha   90.00000000
_cell_angle_beta   90.00000000
_cell_angle_gamma   88.82847928
_symmetry_Int_Tables_number   1
_chemical_formula_structural   La4In2CuAg2Rh
_chemical_formula_sum   'La4 In2 Cu1 Ag2 Rh1'
_cell_volume   259.51906728
_cell_formula_units_Z   1
loop_
 _symmetry_equiv_pos_site_id
 _symmetry_equiv_pos_as_xyz
  1  'x, y, z'
loop_
 _atom_site_type_symbol
 _atom_site_label
 _atom_site_symmetry_multiplicity
 _atom_site_fract_x
 _atom_site_fract_y
 _atom_site_fract_z
 _atom_site_occupancy
  La  La0  1  0.672219  0.157858  0.500000  1
  La  La1  1  0.342142  0.827781  0.500000  1
  La  La2  1  0.803528  0.696472  0.500000  1
  La  La3  1  0.186065  0.313935  0.500000  1
  In  In4  1  0.498937  0.495370  0.000000  1
  In  In5  1  0.004630  0.001063  0.000000  1
  Cu  Cu6  1  0.380092  0.119908  0.000000  1
  Ag  Ag7  1  0.120405  0.625692  0.000000  1
  Ag  Ag8  1  0.874308  0.379595  0.000000  1
  Rh  Rh9  1  0.617672  0.882328  0.000000  1
