# generated using pymatgen
data_Tb3Ho5In3Ir
_symmetry_space_group_name_H-M   'P 1'
_cell_length_a   10.41107700
_cell_length_b   10.41107661
_cell_length_c   7.08906800
_cell_angle_alpha   90.00000000
_cell_angle_beta   90.00000000
_cell_angle_gamma   119.99999806
_symmetry_Int_Tables_number   1
_chemical_formula_structural   Tb3Ho5In3Ir
_chemical_formula_sum   'Tb6 Ho10 In6 Ir2'
_cell_volume   665.44334042
_cell_formula_units_Z   2
loop_
 _symmetry_equiv_pos_site_id
 _symmetry_equiv_pos_as_xyz
  1  'x, y, z'
loop_
 _atom_site_type_symbol
 _atom_site_label
 _atom_site_symmetry_multiplicity
 _atom_site_fract_x
 _atom_site_fract_y
 _atom_site_fract_z
 _atom_site_occupancy
  Tb  Tb0  1  0.533516  0.067033  0.506253  1
  Tb  Tb1  1  0.932967  0.466484  0.506253  1
  Tb  Tb2  1  0.533516  0.466484  0.506253  1
  Tb  Tb3  1  0.466484  0.932967  0.006253  1
  Tb  Tb4  1  0.067033  0.533516  0.006253  1
  Tb  Tb5  1  0.466484  0.533516  0.006253  1
  Ho  Ho6  1  0.176514  0.353027  0.712091  1
  Ho  Ho7  1  0.646973  0.823486  0.712091  1
  Ho  Ho8  1  0.176514  0.823486  0.712091  1
  Ho  Ho9  1  0.823486  0.646973  0.212091  1
  Ho  Ho10  1  0.353027  0.176514  0.212091  1
  Ho  Ho11  1  0.823486  0.176514  0.212091  1
  Ho  Ho12  1  0.666667  0.333333  0.889341  1
  Ho  Ho13  1  0.333333  0.666667  0.389341  1
  Ho  Ho14  1  0.000000  0.000000  0.493120  1
  Ho  Ho15  1  0.000000  0.000000  0.993120  1
  In  In16  1  0.837446  0.674893  0.753371  1
  In  In17  1  0.325107  0.162554  0.753371  1
  In  In18  1  0.837446  0.162554  0.753371  1
  In  In19  1  0.162554  0.325107  0.253371  1
  In  In20  1  0.674893  0.837446  0.253371  1
  In  In21  1  0.162554  0.837446  0.253371  1
  Ir  Ir22  1  0.666667  0.333333  0.281417  1
  Ir  Ir23  1  0.333333  0.666667  0.781417  1
