# generated using pymatgen
data_Zr16ZnCo4Cu3N4
_symmetry_space_group_name_H-M   'P 1'
_cell_length_a   8.71313960
_cell_length_b   8.70724490
_cell_length_c   8.70724500
_cell_angle_alpha   60.00000342
_cell_angle_beta   60.02238032
_cell_angle_gamma   60.02237979
_symmetry_Int_Tables_number   1
_chemical_formula_structural   Zr16ZnCo4Cu3N4
_chemical_formula_sum   'Zr16 Zn1 Co4 Cu3 N4'
_cell_volume   467.27014919
_cell_formula_units_Z   1
loop_
 _symmetry_equiv_pos_site_id
 _symmetry_equiv_pos_as_xyz
  1  'x, y, z'
loop_
 _atom_site_type_symbol
 _atom_site_label
 _atom_site_symmetry_multiplicity
 _atom_site_fract_x
 _atom_site_fract_y
 _atom_site_fract_z
 _atom_site_occupancy
  Zr  Zr0  1  0.086326  0.637891  0.637891  1
  Zr  Zr1  1  0.638347  0.077379  0.642137  1
  Zr  Zr2  1  0.638347  0.642137  0.077379  1
  Zr  Zr3  1  0.638347  0.642137  0.642137  1
  Zr  Zr4  1  0.816517  0.816566  0.183459  1
  Zr  Zr5  1  0.182246  0.183662  0.817046  1
  Zr  Zr6  1  0.816517  0.183459  0.816566  1
  Zr  Zr7  1  0.182246  0.817046  0.183662  1
  Zr  Zr8  1  0.182246  0.817046  0.817046  1
  Zr  Zr9  1  0.816517  0.183459  0.183459  1
  Zr  Zr10  1  0.431991  0.431739  0.068135  1
  Zr  Zr11  1  0.069095  0.067059  0.431923  1
  Zr  Zr12  1  0.431991  0.068135  0.431739  1
  Zr  Zr13  1  0.069095  0.431923  0.067059  1
  Zr  Zr14  1  0.069095  0.431923  0.431923  1
  Zr  Zr15  1  0.431991  0.068135  0.068135  1
  Zn  Zn16  1  0.736418  0.421194  0.421194  1
  Co  Co17  1  0.445107  0.851632  0.851632  1
  Co  Co18  1  0.852815  0.449129  0.849029  1
  Co  Co19  1  0.852815  0.849029  0.449129  1
  Co  Co20  1  0.852815  0.849029  0.849029  1
  Cu  Cu21  1  0.418993  0.741815  0.419596  1
  Cu  Cu22  1  0.418993  0.419596  0.741815  1
  Cu  Cu23  1  0.418993  0.419596  0.419596  1
  N  N24  1  0.624930  0.125023  0.125023  1
  N  N25  1  0.125737  0.623327  0.125468  1
  N  N26  1  0.125737  0.125468  0.623327  1
  N  N27  1  0.125737  0.125468  0.125468  1
