# generated using pymatgen
data_LaSm4Sc15(BO3)20
_symmetry_space_group_name_H-M   'P 1'
_cell_length_a   7.80704684
_cell_length_b   7.80704730
_cell_length_c   18.85998302
_cell_angle_alpha   87.78148246
_cell_angle_beta   87.78147404
_cell_angle_gamma   78.27371597
_symmetry_Int_Tables_number   1
_chemical_formula_structural   LaSm4Sc15(BO3)20
_chemical_formula_sum   'La1 Sm4 Sc15 B20 O60'
_cell_volume   1124.12228281
_cell_formula_units_Z   1
loop_
 _symmetry_equiv_pos_site_id
 _symmetry_equiv_pos_as_xyz
  1  'x, y, z'
loop_
 _atom_site_type_symbol
 _atom_site_label
 _atom_site_symmetry_multiplicity
 _atom_site_fract_x
 _atom_site_fract_y
 _atom_site_fract_z
 _atom_site_occupancy
  La  La0  1  0.999917  0.000083  0.500000  1
  Sm  Sm1  1  0.400246  0.400226  0.700402  1
  Sm  Sm2  1  0.800000  0.799932  0.900037  1
  Sm  Sm3  1  0.200068  0.200000  0.099963  1
  Sm  Sm4  1  0.599774  0.599754  0.299598  1
  Sc  Sc5  1  0.709386  0.162447  0.081235  1
  Sc  Sc6  1  0.109605  0.562067  0.281088  1
  Sc  Sc7  1  0.509617  0.961655  0.480822  1
  Sc  Sc8  1  0.909279  0.362555  0.681237  1
  Sc  Sc9  1  0.309430  0.762439  0.881213  1
  Sc  Sc10  1  0.237561  0.690570  0.118787  1
  Sc  Sc11  1  0.637445  0.090721  0.318763  1
  Sc  Sc12  1  0.038345  0.490383  0.519178  1
  Sc  Sc13  1  0.437933  0.890395  0.718912  1
  Sc  Sc14  1  0.837553  0.290614  0.918765  1
  Sc  Sc15  1  0.253027  0.346943  0.899955  1
  Sc  Sc16  1  0.653057  0.746973  0.100045  1
  Sc  Sc17  1  0.052893  0.147718  0.299286  1
  Sc  Sc18  1  0.452687  0.547313  0.500000  1
  Sc  Sc19  1  0.852282  0.947107  0.700714  1
  B  B20  1  0.500023  0.499977  0.000000  1
  B  B21  1  0.899878  0.899910  0.200046  1
  B  B22  1  0.300408  0.300271  0.399877  1
  B  B23  1  0.699729  0.699592  0.600123  1
  B  B24  1  0.100090  0.100122  0.799954  1
  B  B25  1  0.847132  0.749038  0.399361  1
  B  B26  1  0.250962  0.152868  0.600639  1
  B  B27  1  0.648143  0.551741  0.799945  1
  B  B28  1  0.048178  0.951822  0.000000  1
  B  B29  1  0.448259  0.351857  0.200055  1
  B  B30  1  0.390461  0.938481  0.219264  1
  B  B31  1  0.789151  0.341814  0.418681  1
  B  B32  1  0.191296  0.736520  0.620583  1
  B  B33  1  0.590138  0.138752  0.819272  1
  B  B34  1  0.990360  0.538539  0.019260  1
  B  B35  1  0.658186  0.210849  0.581319  1
  B  B36  1  0.061519  0.609538  0.780736  1
  B  B37  1  0.461461  0.009640  0.980740  1
  B  B38  1  0.861248  0.409862  0.180728  1
  B  B39  1  0.263480  0.808704  0.379417  1
  O  O40  1  0.640637  0.359363  0.000000  1
  O  O41  1  0.040649  0.759424  0.199984  1
  O  O42  1  0.440848  0.159419  0.399761  1
  O  O43  1  0.840581  0.559152  0.600239  1
  O  O44  1  0.240576  0.959351  0.800016  1
  O  O45  1  0.471937  0.612412  0.056261  1
  O  O46  1  0.871459  0.012434  0.256266  1
  O  O47  1  0.272423  0.412414  0.456255  1
  O  O48  1  0.671826  0.812468  0.656271  1
  O  O49  1  0.071875  0.212485  0.856248  1
  O  O50  1  0.387588  0.528063  0.943739  1
  O  O51  1  0.787515  0.928125  0.143752  1
  O  O52  1  0.187532  0.328174  0.343729  1
  O  O53  1  0.587586  0.727577  0.543745  1
  O  O54  1  0.987566  0.128541  0.743734  1
  O  O55  1  0.907623  0.092377  0.000000  1
  O  O56  1  0.307637  0.492338  0.199969  1
  O  O57  1  0.709347  0.892254  0.400175  1
  O  O58  1  0.107746  0.290653  0.599825  1
  O  O59  1  0.507662  0.692363  0.800031  1
  O  O60  1  0.418497  0.826094  0.163021  1
  O  O61  1  0.818938  0.225635  0.363711  1
  O  O62  1  0.217867  0.627978  0.563107  1
  O  O63  1  0.618172  0.026147  0.763148  1
  O  O64  1  0.018443  0.426139  0.963027  1
  O  O65  1  0.173906  0.581503  0.836979  1
  O  O66  1  0.573861  0.981557  0.036973  1
  O  O67  1  0.973853  0.381828  0.236852  1
  O  O68  1  0.372022  0.782133  0.436893  1
  O  O69  1  0.774365  0.181062  0.636289  1
  O  O70  1  0.077117  0.849661  0.940564  1
  O  O71  1  0.477231  0.249651  0.140655  1
  O  O72  1  0.875580  0.649384  0.339302  1
  O  O73  1  0.284336  0.050963  0.541505  1
  O  O74  1  0.677127  0.449565  0.740506  1
  O  O75  1  0.712489  0.111488  0.871942  1
  O  O76  1  0.112593  0.511321  0.072004  1
  O  O77  1  0.512511  0.911224  0.272088  1
  O  O78  1  0.910505  0.319554  0.471338  1
  O  O79  1  0.315806  0.709110  0.672337  1
  O  O80  1  0.729222  0.558187  0.181092  1
  O  O81  1  0.133002  0.957442  0.377662  1
  O  O82  1  0.528151  0.360828  0.581893  1
  O  O83  1  0.929293  0.757790  0.781223  1
  O  O84  1  0.329417  0.158072  0.981020  1
  O  O85  1  0.441813  0.270778  0.818908  1
  O  O86  1  0.841928  0.670583  0.018980  1
  O  O87  1  0.242210  0.070707  0.218777  1
  O  O88  1  0.639172  0.471849  0.418107  1
  O  O89  1  0.042558  0.866998  0.622338  1
  O  O90  1  0.150339  0.922883  0.059436  1
  O  O91  1  0.550435  0.322873  0.259494  1
  O  O92  1  0.949037  0.715664  0.458495  1
  O  O93  1  0.350616  0.124420  0.660698  1
  O  O94  1  0.750349  0.522769  0.859345  1
  O  O95  1  0.888512  0.287511  0.128058  1
  O  O96  1  0.290890  0.684194  0.327663  1
  O  O97  1  0.680446  0.089495  0.528662  1
  O  O98  1  0.088776  0.487489  0.727912  1
  O  O99  1  0.488679  0.887407  0.927996  1
