# generated using pymatgen
data_La3AlS6
_symmetry_space_group_name_H-M   'P 1'
_cell_length_a   8.95186812
_cell_length_b   8.95186842
_cell_length_c   6.72309200
_cell_angle_alpha   90.00000000
_cell_angle_beta   90.00000000
_cell_angle_gamma   102.90687373
_symmetry_Int_Tables_number   1
_chemical_formula_structural   La3AlS6
_chemical_formula_sum   'La6 Al2 S12'
_cell_volume   525.14920762
_cell_formula_units_Z   2
loop_
 _symmetry_equiv_pos_site_id
 _symmetry_equiv_pos_as_xyz
  1  'x, y, z'
loop_
 _atom_site_type_symbol
 _atom_site_label
 _atom_site_symmetry_multiplicity
 _atom_site_fract_x
 _atom_site_fract_y
 _atom_site_fract_z
 _atom_site_occupancy
  La  La0  1  0.084416  0.289191  0.466717  1
  La  La1  1  0.289191  0.084416  0.966717  1
  La  La2  1  0.605186  0.394814  0.409404  1
  La  La3  1  0.394814  0.605186  0.909404  1
  La  La4  1  0.710809  0.915584  0.466717  1
  La  La5  1  0.915584  0.710809  0.966717  1
  Al  Al6  1  0.804495  0.195505  0.016504  1
  Al  Al7  1  0.195505  0.804495  0.516504  1
  S  S8  1  0.323274  0.356981  0.191425  1
  S  S9  1  0.356981  0.323274  0.691425  1
  S  S10  1  0.102076  0.580289  0.675350  1
  S  S11  1  0.580289  0.102076  0.175350  1
  S  S12  1  0.956889  0.043111  0.140341  1
  S  S13  1  0.785534  0.214466  0.680712  1
  S  S14  1  0.214466  0.785534  0.180712  1
  S  S15  1  0.043111  0.956889  0.640341  1
  S  S16  1  0.419711  0.897924  0.675350  1
  S  S17  1  0.897924  0.419711  0.175350  1
  S  S18  1  0.643019  0.676726  0.191425  1
  S  S19  1  0.676726  0.643019  0.691425  1
