# generated using pymatgen
data_Ta6V4Zn3
_symmetry_space_group_name_H-M   'P 1'
_cell_length_a   9.67240286
_cell_length_b   9.67240284
_cell_length_c   9.67240331
_cell_angle_alpha   30.41951589
_cell_angle_beta   30.41951406
_cell_angle_gamma   30.41951710
_symmetry_Int_Tables_number   1
_chemical_formula_structural   Ta6V4Zn3
_chemical_formula_sum   'Ta6 V4 Zn3'
_cell_volume   205.61978457
_cell_formula_units_Z   1
loop_
 _symmetry_equiv_pos_site_id
 _symmetry_equiv_pos_as_xyz
  1  'x, y, z'
loop_
 _atom_site_type_symbol
 _atom_site_label
 _atom_site_symmetry_multiplicity
 _atom_site_fract_x
 _atom_site_fract_y
 _atom_site_fract_z
 _atom_site_occupancy
  Ta  Ta0  1  0.831470  0.831470  0.831470  1
  Ta  Ta1  1  0.164096  0.164096  0.164096  1
  Ta  Ta2  1  0.651726  0.651726  0.651726  1
  Ta  Ta3  1  0.352623  0.352623  0.352623  1
  Ta  Ta4  1  0.549369  0.549369  0.549369  1
  Ta  Ta5  1  0.456620  0.456620  0.456620  1
  V  V6  1  0.000808  0.000808  0.000808  1
  V  V7  1  0.906076  0.410004  0.906076  1
  V  V8  1  0.906076  0.906076  0.410004  1
  V  V9  1  0.410004  0.906076  0.906076  1
  Zn  Zn10  1  0.092390  0.586353  0.092390  1
  Zn  Zn11  1  0.092390  0.092390  0.586353  1
  Zn  Zn12  1  0.586353  0.092390  0.092390  1
