# generated using pymatgen
data_DyHo5ScFeO12
_symmetry_space_group_name_H-M   'P 1'
_cell_length_a   6.55005241
_cell_length_b   6.54885337
_cell_length_c   6.54844604
_cell_angle_alpha   92.62194170
_cell_angle_beta   92.62338312
_cell_angle_gamma   92.63248353
_symmetry_Int_Tables_number   1
_chemical_formula_structural   DyHo5ScFeO12
_chemical_formula_sum   'Dy1 Ho5 Sc1 Fe1 O12'
_cell_volume   279.98485301
_cell_formula_units_Z   1
loop_
 _symmetry_equiv_pos_site_id
 _symmetry_equiv_pos_as_xyz
  1  'x, y, z'
loop_
 _atom_site_type_symbol
 _atom_site_label
 _atom_site_symmetry_multiplicity
 _atom_site_fract_x
 _atom_site_fract_y
 _atom_site_fract_z
 _atom_site_occupancy
  Dy  Dy0  1  0.743556  0.927644  0.436804  1
  Ho  Ho1  1  0.927627  0.436828  0.743697  1
  Ho  Ho2  1  0.436732  0.743623  0.927519  1
  Ho  Ho3  1  0.256355  0.072524  0.563250  1
  Ho  Ho4  1  0.072547  0.563104  0.256341  1
  Ho  Ho5  1  0.563132  0.256427  0.072352  1
  Sc  Sc6  1  0.000111  0.000034  0.999933  1
  Fe  Fe7  1  0.499819  0.499856  0.500059  1
  O  O8  1  0.589359  0.461299  0.801414  1
  O  O9  1  0.460664  0.801093  0.589676  1
  O  O10  1  0.801511  0.588554  0.461340  1
  O  O11  1  0.410686  0.538744  0.198592  1
  O  O12  1  0.538177  0.199145  0.410592  1
  O  O13  1  0.198569  0.410655  0.538688  1
  O  O14  1  0.069329  0.913891  0.308105  1
  O  O15  1  0.913939  0.308305  0.068795  1
  O  O16  1  0.691665  0.931334  0.085342  1
  O  O17  1  0.086024  0.691689  0.931248  1
  O  O18  1  0.931832  0.086504  0.692287  1
  O  O19  1  0.308364  0.068749  0.913966  1
