# generated using pymatgen
data_Ho12Cu3Si8Os
_symmetry_space_group_name_H-M   'P 1'
_cell_length_a   4.17263600
_cell_length_b   11.27879739
_cell_length_c   11.36809500
_cell_angle_alpha   89.84107849
_cell_angle_beta   90.00000000
_cell_angle_gamma   90.00000000
_symmetry_Int_Tables_number   1
_chemical_formula_structural   Ho12Cu3Si8Os
_chemical_formula_sum   'Ho12 Cu3 Si8 Os1'
_cell_volume   535.00682130
_cell_formula_units_Z   1
loop_
 _symmetry_equiv_pos_site_id
 _symmetry_equiv_pos_as_xyz
  1  'x, y, z'
loop_
 _atom_site_type_symbol
 _atom_site_label
 _atom_site_symmetry_multiplicity
 _atom_site_fract_x
 _atom_site_fract_y
 _atom_site_fract_z
 _atom_site_occupancy
  Ho  Ho0  1  0.250000  0.058815  0.877128  1
  Ho  Ho1  1  0.250000  0.437498  0.378056  1
  Ho  Ho2  1  0.750000  0.936288  0.120535  1
  Ho  Ho3  1  0.750000  0.561548  0.619622  1
  Ho  Ho4  1  0.250000  0.122407  0.555908  1
  Ho  Ho5  1  0.250000  0.383292  0.059827  1
  Ho  Ho6  1  0.750000  0.878902  0.440816  1
  Ho  Ho7  1  0.750000  0.622781  0.939395  1
  Ho  Ho8  1  0.250000  0.801515  0.712122  1
  Ho  Ho9  1  0.250000  0.696285  0.209216  1
  Ho  Ho10  1  0.750000  0.195233  0.290512  1
  Ho  Ho11  1  0.750000  0.303833  0.790849  1
  Cu  Cu12  1  0.250000  0.363649  0.631099  1
  Cu  Cu13  1  0.250000  0.137657  0.130880  1
  Cu  Cu14  1  0.750000  0.636131  0.368210  1
  Si  Si15  1  0.250000  0.812941  0.978551  1
  Si  Si16  1  0.250000  0.683988  0.474820  1
  Si  Si17  1  0.750000  0.188929  0.026659  1
  Si  Si18  1  0.750000  0.314767  0.524152  1
  Si  Si19  1  0.250000  0.493639  0.805020  1
  Si  Si20  1  0.250000  0.004518  0.305408  1
  Si  Si21  1  0.750000  0.503371  0.197150  1
  Si  Si22  1  0.750000  0.996050  0.692481  1
  Os  Os23  1  0.750000  0.865962  0.871586  1
