# generated using pymatgen
data_SmZr3(Ga3Rh)6
_symmetry_space_group_name_H-M   'P 1'
_cell_length_a   7.51367937
_cell_length_b   7.50922639
_cell_length_c   9.42696200
_cell_angle_alpha   90.00000000
_cell_angle_beta   90.00000000
_cell_angle_gamma   120.02032899
_symmetry_Int_Tables_number   1
_chemical_formula_structural   SmZr3(Ga3Rh)6
_chemical_formula_sum   'Sm1 Zr3 Ga18 Rh6'
_cell_volume   460.53351730
_cell_formula_units_Z   1
loop_
 _symmetry_equiv_pos_site_id
 _symmetry_equiv_pos_as_xyz
  1  'x, y, z'
loop_
 _atom_site_type_symbol
 _atom_site_label
 _atom_site_symmetry_multiplicity
 _atom_site_fract_x
 _atom_site_fract_y
 _atom_site_fract_z
 _atom_site_occupancy
  Sm  Sm0  1  0.331059  0.003781  0.750000  1
  Zr  Zr1  1  0.995990  0.669526  0.250000  1
  Zr  Zr2  1  0.004354  0.331497  0.750000  1
  Zr  Zr3  1  0.669217  0.996257  0.250000  1
  Ga  Ga4  1  0.122090  0.124245  0.250000  1
  Ga  Ga5  1  0.872160  0.875140  0.750000  1
  Ga  Ga6  1  0.995757  0.333750  0.079191  1
  Ga  Ga7  1  0.000415  0.662032  0.923298  1
  Ga  Ga8  1  0.000415  0.662032  0.576702  1
  Ga  Ga9  1  0.333995  0.996439  0.415519  1
  Ga  Ga10  1  0.995757  0.333750  0.420809  1
  Ga  Ga11  1  0.670257  0.003895  0.577031  1
  Ga  Ga12  1  0.670257  0.003895  0.922969  1
  Ga  Ga13  1  0.333995  0.996439  0.084481  1
  Ga  Ga14  1  0.330522  0.334024  0.568011  1
  Ga  Ga15  1  0.669248  0.669322  0.427598  1
  Ga  Ga16  1  0.669248  0.669322  0.072402  1
  Ga  Ga17  1  0.330522  0.334024  0.931989  1
  Ga  Ga18  1  0.335599  0.549740  0.250000  1
  Ga  Ga19  1  0.667399  0.454627  0.750000  1
  Ga  Ga20  1  0.552376  0.337612  0.250000  1
  Ga  Ga21  1  0.449447  0.660102  0.750000  1
  Rh  Rh22  1  0.670957  0.328376  0.001234  1
  Rh  Rh23  1  0.329465  0.672558  0.002031  1
  Rh  Rh24  1  0.329465  0.672558  0.497969  1
  Rh  Rh25  1  0.670957  0.328376  0.498766  1
  Rh  Rh26  1  0.999539  0.998340  0.001733  1
  Rh  Rh27  1  0.999539  0.998340  0.498267  1
