# generated using pymatgen
data_Tb6Sb7Pd16Se
_symmetry_space_group_name_H-M   'P 1'
_cell_length_a   9.36238740
_cell_length_b   9.36240161
_cell_length_c   9.36243500
_cell_angle_alpha   60.00020367
_cell_angle_beta   60.00014286
_cell_angle_gamma   60.00000722
_symmetry_Int_Tables_number   1
_chemical_formula_structural   Tb6Sb7Pd16Se
_chemical_formula_sum   'Tb6 Sb7 Pd16 Se1'
_cell_volume   580.29503246
_cell_formula_units_Z   1
loop_
 _symmetry_equiv_pos_site_id
 _symmetry_equiv_pos_as_xyz
  1  'x, y, z'
loop_
 _atom_site_type_symbol
 _atom_site_label
 _atom_site_symmetry_multiplicity
 _atom_site_fract_x
 _atom_site_fract_y
 _atom_site_fract_z
 _atom_site_occupancy
  Tb  Tb0  1  0.718722  0.281279  0.281278  1
  Tb  Tb1  1  0.281278  0.718721  0.718722  1
  Tb  Tb2  1  0.281279  0.718722  0.281278  1
  Tb  Tb3  1  0.718721  0.281278  0.718722  1
  Tb  Tb4  1  0.281278  0.281278  0.718722  1
  Tb  Tb5  1  0.718722  0.718722  0.281278  1
  Sb  Sb6  1  0.000000  0.000000  0.000000  1
  Sb  Sb7  1  0.500000  0.000000  0.000000  1
  Sb  Sb8  1  0.000000  0.500000  0.500000  1
  Sb  Sb9  1  0.000000  0.500000  0.000000  1
  Sb  Sb10  1  0.500000  0.000000  0.500000  1
  Sb  Sb11  1  0.000000  0.000000  0.500000  1
  Sb  Sb12  1  0.500000  0.500000  0.000000  1
  Pd  Pd13  1  0.118069  0.118069  0.118070  1
  Pd  Pd14  1  0.881931  0.881931  0.881930  1
  Pd  Pd15  1  0.118069  0.118069  0.645791  1
  Pd  Pd16  1  0.118069  0.645792  0.118070  1
  Pd  Pd17  1  0.881931  0.881931  0.354209  1
  Pd  Pd18  1  0.881931  0.354208  0.881930  1
  Pd  Pd19  1  0.645792  0.118069  0.118070  1
  Pd  Pd20  1  0.354208  0.881931  0.881930  1
  Pd  Pd21  1  0.333256  0.333256  0.333257  1
  Pd  Pd22  1  0.666744  0.666744  0.666743  1
  Pd  Pd23  1  0.333256  0.333257  0.000230  1
  Pd  Pd24  1  0.333256  0.000230  0.333257  1
  Pd  Pd25  1  0.666744  0.666743  0.999770  1
  Pd  Pd26  1  0.666744  0.999770  0.666743  1
  Pd  Pd27  1  0.000229  0.333256  0.333257  1
  Pd  Pd28  1  0.999771  0.666744  0.666743  1
  Se  Se29  1  0.500000  0.500000  0.500000  1
