# generated using pymatgen
data_Li2Ho3In4
_symmetry_space_group_name_H-M   'P 1'
_cell_length_a   7.29618516
_cell_length_b   7.41271870
_cell_length_c   4.69810900
_cell_angle_alpha   90.00000000
_cell_angle_beta   90.00000000
_cell_angle_gamma   120.52977867
_symmetry_Int_Tables_number   1
_chemical_formula_structural   Li2Ho3In4
_chemical_formula_sum   'Li2 Ho3 In4'
_cell_volume   218.86877452
_cell_formula_units_Z   1
loop_
 _symmetry_equiv_pos_site_id
 _symmetry_equiv_pos_as_xyz
  1  'x, y, z'
loop_
 _atom_site_type_symbol
 _atom_site_label
 _atom_site_symmetry_multiplicity
 _atom_site_fract_x
 _atom_site_fract_y
 _atom_site_fract_z
 _atom_site_occupancy
  Li  Li0  1  0.770213  0.766700  0.500000  1
  Li  Li1  1  0.229787  0.996487  0.500000  1
  Ho  Ho2  1  0.000000  0.556645  0.000000  1
  Ho  Ho3  1  0.437401  0.443713  0.000000  1
  Ho  Ho4  1  0.562599  0.006312  0.000000  1
  In  In5  1  0.000000  0.230381  0.500000  1
  In  In6  1  0.657939  0.339213  0.500000  1
  In  In7  1  0.000000  0.979274  0.000000  1
  In  In8  1  0.342061  0.681275  0.500000  1
