# generated using pymatgen
data_K2Mn(GeO3)2
_symmetry_space_group_name_H-M   'P 1'
_cell_length_a   6.05260035
_cell_length_b   6.05260077
_cell_length_c   11.16721400
_cell_angle_alpha   90.00000000
_cell_angle_beta   90.00000000
_cell_angle_gamma   114.77551067
_symmetry_Int_Tables_number   1
_chemical_formula_structural   K2Mn(GeO3)2
_chemical_formula_sum   'K4 Mn2 Ge4 O12'
_cell_volume   371.44455178
_cell_formula_units_Z   2
loop_
 _symmetry_equiv_pos_site_id
 _symmetry_equiv_pos_as_xyz
  1  'x, y, z'
loop_
 _atom_site_type_symbol
 _atom_site_label
 _atom_site_symmetry_multiplicity
 _atom_site_fract_x
 _atom_site_fract_y
 _atom_site_fract_z
 _atom_site_occupancy
  K  K0  1  0.778055  0.426480  0.926654  1
  K  K1  1  0.573520  0.221945  0.573346  1
  K  K2  1  0.221945  0.573520  0.426654  1
  K  K3  1  0.426480  0.778055  0.073346  1
  Mn  Mn4  1  0.692488  0.307512  0.250000  1
  Mn  Mn5  1  0.307512  0.692488  0.750000  1
  Ge  Ge6  1  0.829905  0.863114  0.364378  1
  Ge  Ge7  1  0.136886  0.170095  0.135622  1
  Ge  Ge8  1  0.170095  0.136886  0.864378  1
  Ge  Ge9  1  0.863114  0.829905  0.635622  1
  O  O10  1  0.612987  0.975980  0.333724  1
  O  O11  1  0.546666  0.711947  0.616665  1
  O  O12  1  0.711947  0.546666  0.383335  1
  O  O13  1  0.387013  0.024020  0.833724  1
  O  O14  1  0.003056  0.003056  0.500000  1
  O  O15  1  0.453334  0.288053  0.116665  1
  O  O16  1  0.059905  0.940095  0.250000  1
  O  O17  1  0.288053  0.453334  0.883335  1
  O  O18  1  0.996944  0.996944  0.000000  1
  O  O19  1  0.940095  0.059905  0.750000  1
  O  O20  1  0.024020  0.387013  0.166276  1
  O  O21  1  0.975980  0.612987  0.666276  1
