# generated using pymatgen
data_TbTm2Mg(AlPt)4
_symmetry_space_group_name_H-M   'P 1'
_cell_length_a   4.33344000
_cell_length_b   6.82320933
_cell_length_c   7.73401726
_cell_angle_alpha   92.97026937
_cell_angle_beta   90.00000000
_cell_angle_gamma   90.00000000
_symmetry_Int_Tables_number   1
_chemical_formula_structural   TbTm2Mg(AlPt)4
_chemical_formula_sum   'Tb1 Tm2 Mg1 Al4 Pt4'
_cell_volume   228.37195934
_cell_formula_units_Z   1
loop_
 _symmetry_equiv_pos_site_id
 _symmetry_equiv_pos_as_xyz
  1  'x, y, z'
loop_
 _atom_site_type_symbol
 _atom_site_label
 _atom_site_symmetry_multiplicity
 _atom_site_fract_x
 _atom_site_fract_y
 _atom_site_fract_z
 _atom_site_occupancy
  Tb  Tb0  1  0.250000  0.527605  0.817414  1
  Tm  Tm1  1  0.750000  0.975097  0.328211  1
  Tm  Tm2  1  0.750000  0.469362  0.181539  1
  Mg  Mg3  1  0.250000  0.027086  0.676333  1
  Al  Al4  1  0.250000  0.138392  0.056371  1
  Al  Al5  1  0.250000  0.648850  0.439275  1
  Al  Al6  1  0.750000  0.859276  0.937146  1
  Al  Al7  1  0.750000  0.354536  0.563350  1
  Pt  Pt8  1  0.250000  0.271774  0.381690  1
  Pt  Pt9  1  0.250000  0.773631  0.126861  1
  Pt  Pt10  1  0.750000  0.732781  0.616639  1
  Pt  Pt11  1  0.750000  0.221610  0.875172  1
