# generated using pymatgen
data_YbEu2Cu7Ni5B2Rh
_symmetry_space_group_name_H-M   'P 1'
_cell_length_a   5.16754600
_cell_length_b   5.16754640
_cell_length_c   11.09640200
_cell_angle_alpha   90.00000000
_cell_angle_beta   90.00000000
_cell_angle_gamma   120.00001022
_symmetry_Int_Tables_number   1
_chemical_formula_structural   YbEu2Cu7Ni5B2Rh
_chemical_formula_sum   'Yb1 Eu2 Cu7 Ni5 B2 Rh1'
_cell_volume   256.61468487
_cell_formula_units_Z   1
loop_
 _symmetry_equiv_pos_site_id
 _symmetry_equiv_pos_as_xyz
  1  'x, y, z'
loop_
 _atom_site_type_symbol
 _atom_site_label
 _atom_site_symmetry_multiplicity
 _atom_site_fract_x
 _atom_site_fract_y
 _atom_site_fract_z
 _atom_site_occupancy
  Yb  Yb0  1  0.000000  0.000000  0.999658  1
  Eu  Eu1  1  0.000000  0.000000  0.308075  1
  Eu  Eu2  1  0.000000  0.000000  0.689528  1
  Cu  Cu3  1  0.657635  0.328817  0.316208  1
  Cu  Cu4  1  0.342365  0.671183  0.316208  1
  Cu  Cu5  1  0.000000  0.500000  0.500030  1
  Cu  Cu6  1  0.500000  0.000000  0.501215  1
  Cu  Cu7  1  0.500000  0.500000  0.501215  1
  Cu  Cu8  1  0.332815  0.666408  0.687447  1
  Cu  Cu9  1  0.667185  0.333592  0.687447  1
  Ni  Ni10  1  0.500000  0.500000  0.123920  1
  Ni  Ni11  1  0.500000  0.000000  0.123920  1
  Ni  Ni12  1  0.500000  0.000000  0.874692  1
  Ni  Ni13  1  0.000000  0.500000  0.874243  1
  Ni  Ni14  1  0.500000  0.500000  0.874692  1
  B  B15  1  0.340224  0.670112  0.997513  1
  B  B16  1  0.659776  0.329888  0.997513  1
  Rh  Rh17  1  0.000000  0.500000  0.126478  1
