# generated using pymatgen
data_Nd8Tm11Si16Au
_symmetry_space_group_name_H-M   'P 1'
_cell_length_a   7.71718422
_cell_length_b   7.71718401
_cell_length_c   14.06680700
_cell_angle_alpha   90.21078036
_cell_angle_beta   89.78921964
_cell_angle_gamma   90.03979060
_symmetry_Int_Tables_number   1
_chemical_formula_structural   Nd8Tm11Si16Au
_chemical_formula_sum   'Nd8 Tm11 Si16 Au1'
_cell_volume   837.73618368
_cell_formula_units_Z   1
loop_
 _symmetry_equiv_pos_site_id
 _symmetry_equiv_pos_as_xyz
  1  'x, y, z'
loop_
 _atom_site_type_symbol
 _atom_site_label
 _atom_site_symmetry_multiplicity
 _atom_site_fract_x
 _atom_site_fract_y
 _atom_site_fract_z
 _atom_site_occupancy
  Nd  Nd0  1  0.636198  0.000258  0.462754  1
  Nd  Nd1  1  0.356455  0.006848  0.959988  1
  Nd  Nd2  1  0.000258  0.636198  0.537246  1
  Nd  Nd3  1  0.491954  0.854864  0.213029  1
  Nd  Nd4  1  0.500636  0.144968  0.702651  1
  Nd  Nd5  1  0.854864  0.491954  0.786971  1
  Nd  Nd6  1  0.144968  0.500636  0.297349  1
  Nd  Nd7  1  0.006848  0.356455  0.040012  1
  Tm  Tm8  1  0.491997  0.363742  0.124812  1
  Tm  Tm9  1  0.006867  0.141817  0.620991  1
  Tm  Tm10  1  0.859449  0.006342  0.872534  1
  Tm  Tm11  1  0.141817  0.006867  0.379009  1
  Tm  Tm12  1  0.501435  0.630113  0.619009  1
  Tm  Tm13  1  0.363742  0.491997  0.875188  1
  Tm  Tm14  1  0.630113  0.501435  0.380991  1
  Tm  Tm15  1  0.006342  0.859449  0.127466  1
  Tm  Tm16  1  0.183312  0.815880  0.748436  1
  Tm  Tm17  1  0.815880  0.183312  0.251564  1
  Tm  Tm18  1  0.683762  0.683762  0.000000  1
  Si  Si19  1  0.286803  0.918399  0.563414  1
  Si  Si20  1  0.709859  0.063184  0.062020  1
  Si  Si21  1  0.918399  0.286803  0.436586  1
  Si  Si22  1  0.435324  0.210742  0.311167  1
  Si  Si23  1  0.564513  0.791998  0.808302  1
  Si  Si24  1  0.210742  0.435324  0.688833  1
  Si  Si25  1  0.791998  0.564513  0.191698  1
  Si  Si26  1  0.063184  0.709859  0.937980  1
  Si  Si27  1  0.792126  0.850743  0.683593  1
  Si  Si28  1  0.204633  0.150935  0.189167  1
  Si  Si29  1  0.850743  0.792126  0.316407  1
  Si  Si30  1  0.356713  0.724754  0.430974  1
  Si  Si31  1  0.650347  0.294747  0.937102  1
  Si  Si32  1  0.724754  0.356713  0.569026  1
  Si  Si33  1  0.294747  0.650347  0.062898  1
  Si  Si34  1  0.150935  0.204633  0.810833  1
  Au  Au35  1  0.317285  0.317285  0.500000  1
