# generated using pymatgen
data_Pr11YTh4(MgRu)4
_symmetry_space_group_name_H-M   'P 1'
_cell_length_a   10.04541443
_cell_length_b   10.04541540
_cell_length_c   10.04377000
_cell_angle_alpha   60.00541820
_cell_angle_beta   60.00541499
_cell_angle_gamma   60.05991739
_symmetry_Int_Tables_number   1
_chemical_formula_structural   Pr11YTh4(MgRu)4
_chemical_formula_sum   'Pr11 Y1 Th4 Mg4 Ru4'
_cell_volume   717.04989736
_cell_formula_units_Z   1
loop_
 _symmetry_equiv_pos_site_id
 _symmetry_equiv_pos_as_xyz
  1  'x, y, z'
loop_
 _atom_site_type_symbol
 _atom_site_label
 _atom_site_symmetry_multiplicity
 _atom_site_fract_x
 _atom_site_fract_y
 _atom_site_fract_z
 _atom_site_occupancy
  Pr  Pr0  1  0.060073  0.439634  0.440872  1
  Pr  Pr1  1  0.439634  0.060073  0.059422  1
  Pr  Pr2  1  0.439634  0.060073  0.440872  1
  Pr  Pr3  1  0.060073  0.439634  0.059422  1
  Pr  Pr4  1  0.439131  0.439131  0.060869  1
  Pr  Pr5  1  0.060095  0.060095  0.439905  1
  Pr  Pr6  1  0.188749  0.813421  0.810871  1
  Pr  Pr7  1  0.813421  0.188749  0.186959  1
  Pr  Pr8  1  0.813421  0.188749  0.810871  1
  Pr  Pr9  1  0.188749  0.813421  0.186959  1
  Pr  Pr10  1  0.810940  0.810940  0.189060  1
  Y  Y11  1  0.192758  0.192758  0.807242  1
  Th  Th12  1  0.592549  0.592549  0.594064  1
  Th  Th13  1  0.592549  0.592549  0.220841  1
  Th  Th14  1  0.593833  0.218761  0.593704  1
  Th  Th15  1  0.218761  0.593833  0.593704  1
  Mg  Mg16  1  0.828444  0.828444  0.829239  1
  Mg  Mg17  1  0.828444  0.828444  0.513871  1
  Mg  Mg18  1  0.829934  0.512694  0.828686  1
  Mg  Mg19  1  0.512694  0.829934  0.828686  1
  Ru  Ru20  1  0.393953  0.393953  0.399542  1
  Ru  Ru21  1  0.393953  0.393953  0.812553  1
  Ru  Ru22  1  0.396818  0.811396  0.395893  1
  Ru  Ru23  1  0.811396  0.396818  0.395893  1
