# generated using pymatgen
data_CsYEr9(C2Br9)2
_symmetry_space_group_name_H-M   'P 1'
_cell_length_a   10.62454425
_cell_length_b   10.70348982
_cell_length_c   10.81706708
_cell_angle_alpha   113.45294209
_cell_angle_beta   87.49913638
_cell_angle_gamma   118.89647157
_symmetry_Int_Tables_number   1
_chemical_formula_structural   CsYEr9(C2Br9)2
_chemical_formula_sum   'Cs1 Y1 Er9 C4 Br18'
_cell_volume   970.90920298
_cell_formula_units_Z   1
loop_
 _symmetry_equiv_pos_site_id
 _symmetry_equiv_pos_as_xyz
  1  'x, y, z'
loop_
 _atom_site_type_symbol
 _atom_site_label
 _atom_site_symmetry_multiplicity
 _atom_site_fract_x
 _atom_site_fract_y
 _atom_site_fract_z
 _atom_site_occupancy
  Cs  Cs0  1  0.499982  0.999976  0.500039  1
  Y  Y1  1  0.888002  0.058127  0.998928  1
  Er  Er2  1  0.664315  0.717776  0.703617  1
  Er  Er3  1  0.282280  0.364435  0.012008  1
  Er  Er4  1  0.093254  0.404991  0.299743  1
  Er  Er5  1  0.959745  0.036266  0.333130  1
  Er  Er6  1  0.906711  0.594400  0.699853  1
  Er  Er7  1  0.110580  0.942183  0.001072  1
  Er  Er8  1  0.040446  0.963696  0.666845  1
  Er  Er9  1  0.336280  0.282495  0.296755  1
  Er  Er10  1  0.717851  0.635470  0.988013  1
  C  C11  1  0.158536  0.228620  0.123924  1
  C  C12  1  0.842851  0.770711  0.876046  1
  C  C13  1  0.922359  0.850488  0.794994  1
  C  C14  1  0.078923  0.148845  0.205036  1
  Br  Br15  1  0.451029  0.530307  0.833643  1
  Br  Br16  1  0.382712  0.040157  0.159664  1
  Br  Br17  1  0.778561  0.857628  0.501095  1
  Br  Br18  1  0.838591  0.313124  0.155879  1
  Br  Br19  1  0.549094  0.469817  0.166351  1
  Br  Br20  1  0.221449  0.142340  0.498996  1
  Br  Br21  1  0.315237  0.100171  0.828645  1
  Br  Br22  1  0.684054  0.899074  0.172182  1
  Br  Br23  1  0.973605  0.760034  0.173179  1
  Br  Br24  1  0.932595  0.302099  0.501014  1
  Br  Br25  1  0.027407  0.240786  0.825857  1
  Br  Br26  1  0.067443  0.697910  0.498943  1
  Br  Br27  1  0.260456  0.623102  0.186961  1
  Br  Br28  1  0.739431  0.376735  0.813010  1
  Br  Br29  1  0.638917  0.434025  0.499506  1
  Br  Br30  1  0.161246  0.689466  0.845779  1
  Br  Br31  1  0.615049  0.958754  0.838784  1
  Br  Br32  1  0.361008  0.565993  0.500510  1
