# generated using pymatgen
data_Ti2BeP
_symmetry_space_group_name_H-M   'P 1'
_cell_length_a   3.39341100
_cell_length_b   4.83297305
_cell_length_c   6.84768785
_cell_angle_alpha   69.13843210
_cell_angle_beta   90.00000000
_cell_angle_gamma   90.00000000
_symmetry_Int_Tables_number   1
_chemical_formula_structural   Ti2BeP
_chemical_formula_sum   'Ti4 Be2 P2'
_cell_volume   104.94164397
_cell_formula_units_Z   2
loop_
 _symmetry_equiv_pos_site_id
 _symmetry_equiv_pos_as_xyz
  1  'x, y, z'
loop_
 _atom_site_type_symbol
 _atom_site_label
 _atom_site_symmetry_multiplicity
 _atom_site_fract_x
 _atom_site_fract_y
 _atom_site_fract_z
 _atom_site_occupancy
  Ti  Ti0  1  0.250000  0.721894  0.074512  1
  Ti  Ti1  1  0.750000  0.278106  0.925488  1
  Ti  Ti2  1  0.250000  0.221455  0.573144  1
  Ti  Ti3  1  0.750000  0.778545  0.426856  1
  Be  Be4  1  0.250000  0.637712  0.713859  1
  Be  Be5  1  0.750000  0.362288  0.286141  1
  P  P6  1  0.250000  0.146575  0.214284  1
  P  P7  1  0.750000  0.853425  0.785716  1
