# generated using pymatgen
data_Fe2Sb12IrAu
_symmetry_space_group_name_H-M   'P 1'
_cell_length_a   8.06360607
_cell_length_b   8.04740093
_cell_length_c   9.35009125
_cell_angle_alpha   55.09724883
_cell_angle_beta   54.81715883
_cell_angle_gamma   70.50923375
_symmetry_Int_Tables_number   1
_chemical_formula_structural   Fe2Sb12IrAu
_chemical_formula_sum   'Fe2 Sb12 Ir1 Au1'
_cell_volume   406.69019801
_cell_formula_units_Z   1
loop_
 _symmetry_equiv_pos_site_id
 _symmetry_equiv_pos_as_xyz
  1  'x, y, z'
loop_
 _atom_site_type_symbol
 _atom_site_label
 _atom_site_symmetry_multiplicity
 _atom_site_fract_x
 _atom_site_fract_y
 _atom_site_fract_z
 _atom_site_occupancy
  Fe  Fe0  1  0.500000  0.000000  0.500000  1
  Fe  Fe1  1  0.000000  0.500000  0.500000  1
  Sb  Sb2  1  0.675416  0.675715  0.484886  1
  Sb  Sb3  1  0.324584  0.324285  0.515114  1
  Sb  Sb4  1  0.641351  0.654905  0.201333  1
  Sb  Sb5  1  0.358649  0.345095  0.798667  1
  Sb  Sb6  1  0.170448  0.860833  0.640586  1
  Sb  Sb7  1  0.829552  0.139167  0.359414  1
  Sb  Sb8  1  0.849430  0.164994  0.659277  1
  Sb  Sb9  1  0.150570  0.835006  0.340723  1
  Sb  Sb10  1  0.810464  0.496792  0.830620  1
  Sb  Sb11  1  0.189536  0.503208  0.169380  1
  Sb  Sb12  1  0.510250  0.175547  0.164502  1
  Sb  Sb13  1  0.489750  0.824453  0.835498  1
  Ir  Ir14  1  0.500000  0.000000  0.000000  1
  Au  Au15  1  0.000000  0.500000  0.000000  1
