# generated using pymatgen
data_CsMn3NiO8
_symmetry_space_group_name_H-M   'P 1'
_cell_length_a   5.80374362
_cell_length_b   5.80374338
_cell_length_c   7.53500938
_cell_angle_alpha   69.62748948
_cell_angle_beta   69.62748716
_cell_angle_gamma   60.63008284
_symmetry_Int_Tables_number   1
_chemical_formula_structural   CsMn3NiO8
_chemical_formula_sum   'Cs1 Mn3 Ni1 O8'
_cell_volume   202.40178030
_cell_formula_units_Z   1
loop_
 _symmetry_equiv_pos_site_id
 _symmetry_equiv_pos_as_xyz
  1  'x, y, z'
loop_
 _atom_site_type_symbol
 _atom_site_label
 _atom_site_symmetry_multiplicity
 _atom_site_fract_x
 _atom_site_fract_y
 _atom_site_fract_z
 _atom_site_occupancy
  Cs  Cs0  1  0.500000  0.500000  0.500000  1
  Mn  Mn1  1  0.000000  0.000000  0.000000  1
  Mn  Mn2  1  0.000000  0.500000  0.000000  1
  Mn  Mn3  1  0.500000  0.000000  0.000000  1
  Ni  Ni4  1  0.500000  0.500000  0.000000  1
  O  O5  1  0.708294  0.708294  0.860285  1
  O  O6  1  0.717628  0.196087  0.856344  1
  O  O7  1  0.196087  0.717628  0.856344  1
  O  O8  1  0.211231  0.211231  0.855406  1
  O  O9  1  0.788769  0.788769  0.144594  1
  O  O10  1  0.803913  0.282372  0.143656  1
  O  O11  1  0.282372  0.803913  0.143656  1
  O  O12  1  0.291706  0.291706  0.139715  1
