# generated using pymatgen
data_CeNp3S4
_symmetry_space_group_name_H-M   'P 1'
_cell_length_a   6.79436124
_cell_length_b   6.79436202
_cell_length_c   6.80895155
_cell_angle_alpha   80.68476012
_cell_angle_beta   80.68475962
_cell_angle_gamma   33.93526047
_symmetry_Int_Tables_number   1
_chemical_formula_structural   CeNp3S4
_chemical_formula_sum   'Ce1 Np3 S4'
_cell_volume   172.94218919
_cell_formula_units_Z   1
loop_
 _symmetry_equiv_pos_site_id
 _symmetry_equiv_pos_as_xyz
  1  'x, y, z'
loop_
 _atom_site_type_symbol
 _atom_site_label
 _atom_site_symmetry_multiplicity
 _atom_site_fract_x
 _atom_site_fract_y
 _atom_site_fract_z
 _atom_site_occupancy
  Ce  Ce0  1  0.000000  0.000000  0.000000  1
  Np  Np1  1  0.747609  0.747609  0.751201  1
  Np  Np2  1  0.500000  0.500000  0.500000  1
  Np  Np3  1  0.252391  0.252391  0.248799  1
  S  S4  1  0.369995  0.369995  0.869274  1
  S  S5  1  0.127348  0.127348  0.615984  1
  S  S6  1  0.872652  0.872652  0.384016  1
  S  S7  1  0.630005  0.630005  0.130726  1
