# generated using pymatgen
data_U2TiTcC3N
_symmetry_space_group_name_H-M   'P 1'
_cell_length_a   3.22072200
_cell_length_b   5.56115500
_cell_length_c   10.97617400
_cell_angle_alpha   90.00000000
_cell_angle_beta   90.00000000
_cell_angle_gamma   90.00000000
_symmetry_Int_Tables_number   1
_chemical_formula_structural   U2TiTcC3N
_chemical_formula_sum   'U4 Ti2 Tc2 C6 N2'
_cell_volume   196.59353087
_cell_formula_units_Z   2
loop_
 _symmetry_equiv_pos_site_id
 _symmetry_equiv_pos_as_xyz
  1  'x, y, z'
loop_
 _atom_site_type_symbol
 _atom_site_label
 _atom_site_symmetry_multiplicity
 _atom_site_fract_x
 _atom_site_fract_y
 _atom_site_fract_z
 _atom_site_occupancy
  U  U0  1  0.250000  0.081296  0.857980  1
  U  U1  1  0.250000  0.581296  0.642020  1
  U  U2  1  0.750000  0.919792  0.142722  1
  U  U3  1  0.750000  0.419792  0.357278  1
  Ti  Ti4  1  0.250000  0.419533  0.100850  1
  Ti  Ti5  1  0.250000  0.919533  0.399150  1
  Tc  Tc6  1  0.750000  0.578917  0.899164  1
  Tc  Tc7  1  0.750000  0.078917  0.600836  1
  C  C8  1  0.750000  0.841312  0.753659  1
  C  C9  1  0.750000  0.341312  0.746341  1
  C  C10  1  0.250000  0.749245  0.995033  1
  C  C11  1  0.250000  0.249245  0.504967  1
  C  C12  1  0.750000  0.248869  0.007649  1
  C  C13  1  0.750000  0.748869  0.492351  1
  N  N14  1  0.250000  0.161035  0.242980  1
  N  N15  1  0.250000  0.661035  0.257020  1
