# generated using pymatgen
data_Pr3Nd3(PtBr3)2
_symmetry_space_group_name_H-M   'P 1'
_cell_length_a   10.62120850
_cell_length_b   10.62151708
_cell_length_c   10.61828790
_cell_angle_alpha   109.49929431
_cell_angle_beta   109.51152784
_cell_angle_gamma   109.51296097
_symmetry_Int_Tables_number   1
_chemical_formula_structural   Pr3Nd3(PtBr3)2
_chemical_formula_sum   'Pr6 Nd6 Pt4 Br12'
_cell_volume   920.87663664
_cell_formula_units_Z   2
loop_
 _symmetry_equiv_pos_site_id
 _symmetry_equiv_pos_as_xyz
  1  'x, y, z'
loop_
 _atom_site_type_symbol
 _atom_site_label
 _atom_site_symmetry_multiplicity
 _atom_site_fract_x
 _atom_site_fract_y
 _atom_site_fract_z
 _atom_site_occupancy
  Pr  Pr0  1  0.234558  0.265159  0.749992  1
  Pr  Pr1  1  0.485133  0.234442  0.469988  1
  Pr  Pr2  1  0.469544  0.484892  0.234972  1
  Pr  Pr3  1  0.264939  0.014982  0.029402  1
  Pr  Pr4  1  0.014552  0.029859  0.264125  1
  Pr  Pr5  1  0.234601  0.470215  0.484909  1
  Nd  Nd6  1  0.031224  0.266060  0.015714  1
  Nd  Nd7  1  0.749652  0.015964  0.483623  1
  Nd  Nd8  1  0.265535  0.749210  0.233828  1
  Nd  Nd9  1  0.484134  0.750767  0.016831  1
  Nd  Nd10  1  0.750321  0.234097  0.266061  1
  Nd  Nd11  1  0.015394  0.484126  0.750343  1
  Pt  Pt12  1  0.499726  0.999836  0.249885  1
  Pt  Pt13  1  0.249392  0.500193  0.999783  1
  Pt  Pt14  1  0.249518  0.249835  0.249606  1
  Pt  Pt15  1  0.999479  0.250187  0.500135  1
  Br  Br16  1  0.752300  0.747613  0.249907  1
  Br  Br17  1  0.995075  0.501644  0.247232  1
  Br  Br18  1  0.249786  0.752132  0.747889  1
  Br  Br19  1  0.756262  0.506114  0.503852  1
  Br  Br20  1  0.506253  0.250327  0.998062  1
  Br  Br21  1  0.745499  0.998573  0.993576  1
  Br  Br22  1  0.992911  0.993948  0.746114  1
  Br  Br23  1  0.507493  0.506097  0.755814  1
  Br  Br24  1  0.249539  0.993856  0.501525  1
  Br  Br25  1  0.749726  0.249748  0.754233  1
  Br  Br26  1  0.503642  0.756373  0.506468  1
  Br  Br27  1  0.993812  0.743751  0.996133  1
