# generated using pymatgen
data_Li3LaYbThGe3
_symmetry_space_group_name_H-M   'P 1'
_cell_length_a   7.38897669
_cell_length_b   7.26770899
_cell_length_c   4.40855900
_cell_angle_alpha   90.00000000
_cell_angle_beta   90.00000000
_cell_angle_gamma   120.73003275
_symmetry_Int_Tables_number   1
_chemical_formula_structural   Li3LaYbThGe3
_chemical_formula_sum   'Li3 La1 Yb1 Th1 Ge3'
_cell_volume   203.50124937
_cell_formula_units_Z   1
loop_
 _symmetry_equiv_pos_site_id
 _symmetry_equiv_pos_as_xyz
  1  'x, y, z'
loop_
 _atom_site_type_symbol
 _atom_site_label
 _atom_site_symmetry_multiplicity
 _atom_site_fract_x
 _atom_site_fract_y
 _atom_site_fract_z
 _atom_site_occupancy
  Li  Li0  1  0.770337  0.773827  0.500000  1
  Li  Li1  1  0.234663  0.000570  0.500000  1
  Li  Li2  1  0.998744  0.228108  0.500000  1
  La  La3  1  0.000241  0.575833  0.000000  1
  Yb  Yb4  1  0.577893  0.999240  0.000000  1
  Th  Th5  1  0.421039  0.420357  0.000000  1
  Ge  Ge6  1  0.336108  0.661214  0.500000  1
  Ge  Ge7  1  0.656866  0.334100  0.500000  1
  Ge  Ge8  1  0.004109  0.006750  0.000000  1
