# generated using pymatgen
data_Tm3Al12Fe3Ni
_symmetry_space_group_name_H-M   'P 1'
_cell_length_a   8.65317100
_cell_length_b   8.60273144
_cell_length_c   9.25062100
_cell_angle_alpha   90.00000000
_cell_angle_beta   90.00000000
_cell_angle_gamma   120.19414733
_symmetry_Int_Tables_number   1
_chemical_formula_structural   Tm3Al12Fe3Ni
_chemical_formula_sum   'Tm6 Al24 Fe6 Ni2'
_cell_volume   595.19627864
_cell_formula_units_Z   2
loop_
 _symmetry_equiv_pos_site_id
 _symmetry_equiv_pos_as_xyz
  1  'x, y, z'
loop_
 _atom_site_type_symbol
 _atom_site_label
 _atom_site_symmetry_multiplicity
 _atom_site_fract_x
 _atom_site_fract_y
 _atom_site_fract_z
 _atom_site_occupancy
  Tm  Tm0  1  0.195487  0.390974  0.250000  1
  Tm  Tm1  1  0.804513  0.609026  0.750000  1
  Tm  Tm2  1  0.612374  0.800398  0.250000  1
  Tm  Tm3  1  0.387626  0.199602  0.750000  1
  Tm  Tm4  1  0.188023  0.800398  0.250000  1
  Tm  Tm5  1  0.811977  0.199602  0.750000  1
  Al  Al6  1  0.332058  0.664118  0.015267  1
  Al  Al7  1  0.667942  0.335882  0.984733  1
  Al  Al8  1  0.667942  0.335882  0.515267  1
  Al  Al9  1  0.332058  0.664118  0.484733  1
  Al  Al10  1  0.162222  0.324443  0.574746  1
  Al  Al11  1  0.837778  0.675557  0.425254  1
  Al  Al12  1  0.678735  0.836738  0.575754  1
  Al  Al13  1  0.837778  0.675557  0.074746  1
  Al  Al14  1  0.321265  0.163262  0.424246  1
  Al  Al15  1  0.162222  0.324443  0.925254  1
  Al  Al16  1  0.158003  0.836738  0.575754  1
  Al  Al17  1  0.321265  0.163262  0.075754  1
  Al  Al18  1  0.841997  0.163262  0.424246  1
  Al  Al19  1  0.678735  0.836738  0.924246  1
  Al  Al20  1  0.841997  0.163262  0.075754  1
  Al  Al21  1  0.158003  0.836738  0.924246  1
  Al  Al22  1  0.557943  0.115885  0.250000  1
  Al  Al23  1  0.442057  0.884115  0.750000  1
  Al  Al24  1  0.880195  0.438423  0.250000  1
  Al  Al25  1  0.119805  0.561577  0.750000  1
  Al  Al26  1  0.558228  0.438423  0.250000  1
  Al  Al27  1  0.441772  0.561577  0.750000  1
  Al  Al28  1  0.999057  0.998113  0.250000  1
  Al  Al29  1  0.000943  0.001887  0.750000  1
  Fe  Fe30  1  0.000000  0.500000  0.000000  1
  Fe  Fe31  1  0.500000  0.500000  0.000000  1
  Fe  Fe32  1  0.000000  0.500000  0.500000  1
  Fe  Fe33  1  0.500000  0.500000  0.500000  1
  Fe  Fe34  1  0.000000  0.000000  0.000000  1
  Fe  Fe35  1  0.000000  0.000000  0.500000  1
  Ni  Ni36  1  0.500000  0.000000  0.000000  1
  Ni  Ni37  1  0.500000  0.000000  0.500000  1
