# generated using pymatgen
data_Tb4DyLu(Si3Ru)8
_symmetry_space_group_name_H-M   'P 1'
_cell_length_a   10.11557998
_cell_length_b   10.11558076
_cell_length_c   8.15984610
_cell_angle_alpha   90.02140554
_cell_angle_beta   90.02140709
_cell_angle_gamma   132.44539079
_symmetry_Int_Tables_number   1
_chemical_formula_structural   Tb4DyLu(Si3Ru)8
_chemical_formula_sum   'Tb4 Dy1 Lu1 Si24 Ru8'
_cell_volume   616.13121289
_cell_formula_units_Z   1
loop_
 _symmetry_equiv_pos_site_id
 _symmetry_equiv_pos_as_xyz
  1  'x, y, z'
loop_
 _atom_site_type_symbol
 _atom_site_label
 _atom_site_symmetry_multiplicity
 _atom_site_fract_x
 _atom_site_fract_y
 _atom_site_fract_z
 _atom_site_occupancy
  Tb  Tb0  1  0.502684  0.002495  0.749585  1
  Tb  Tb1  1  0.997505  0.497316  0.250415  1
  Tb  Tb2  1  0.497316  0.997505  0.250415  1
  Tb  Tb3  1  0.002495  0.502684  0.749585  1
  Dy  Dy4  1  0.000000  0.000000  0.000000  1
  Lu  Lu5  1  0.500000  0.500000  0.500000  1
  Si  Si6  1  0.794419  0.205581  0.500000  1
  Si  Si7  1  0.295010  0.704990  0.000000  1
  Si  Si8  1  0.205581  0.794419  0.500000  1
  Si  Si9  1  0.704990  0.295010  0.000000  1
  Si  Si10  1  0.331811  0.331811  0.833107  1
  Si  Si11  1  0.668189  0.668189  0.166893  1
  Si  Si12  1  0.167397  0.167397  0.332737  1
  Si  Si13  1  0.832603  0.832603  0.667263  1
  Si  Si14  1  0.121322  0.887090  0.728472  1
  Si  Si15  1  0.112910  0.878678  0.271528  1
  Si  Si16  1  0.611147  0.377505  0.229182  1
  Si  Si17  1  0.622495  0.388853  0.770818  1
  Si  Si18  1  0.878678  0.112910  0.271528  1
  Si  Si19  1  0.887090  0.121322  0.728472  1
  Si  Si20  1  0.388853  0.622495  0.770818  1
  Si  Si21  1  0.377505  0.611147  0.229182  1
  Si  Si22  1  0.345386  0.112141  0.505099  1
  Si  Si23  1  0.887859  0.654614  0.494901  1
  Si  Si24  1  0.387375  0.154292  0.005106  1
  Si  Si25  1  0.845708  0.612625  0.994894  1
  Si  Si26  1  0.654614  0.887859  0.494901  1
  Si  Si27  1  0.112141  0.345386  0.505099  1
  Si  Si28  1  0.612625  0.845708  0.994894  1
  Si  Si29  1  0.154292  0.387375  0.005106  1
  Ru  Ru30  1  0.667917  0.332083  0.500000  1
  Ru  Ru31  1  0.169068  0.830932  0.000000  1
  Ru  Ru32  1  0.332083  0.667917  0.500000  1
  Ru  Ru33  1  0.830932  0.169068  0.000000  1
  Ru  Ru34  1  0.127329  0.127329  0.625505  1
  Ru  Ru35  1  0.872671  0.872671  0.374495  1
  Ru  Ru36  1  0.374821  0.374821  0.128731  1
  Ru  Ru37  1  0.625179  0.625179  0.871269  1
