# generated using pymatgen
data_Li3TbDy2CdP2
_symmetry_space_group_name_H-M   'P 1'
_cell_length_a   7.04701270
_cell_length_b   7.04701232
_cell_length_c   4.13888100
_cell_angle_alpha   90.00000000
_cell_angle_beta   90.00000000
_cell_angle_gamma   120.05110155
_symmetry_Int_Tables_number   1
_chemical_formula_structural   Li3TbDy2CdP2
_chemical_formula_sum   'Li3 Tb1 Dy2 Cd1 P2'
_cell_volume   177.90976802
_cell_formula_units_Z   1
loop_
 _symmetry_equiv_pos_site_id
 _symmetry_equiv_pos_as_xyz
  1  'x, y, z'
loop_
 _atom_site_type_symbol
 _atom_site_label
 _atom_site_symmetry_multiplicity
 _atom_site_fract_x
 _atom_site_fract_y
 _atom_site_fract_z
 _atom_site_occupancy
  Li  Li0  1  0.743747  0.743747  0.500000  1
  Li  Li1  1  0.256290  0.999976  0.500000  1
  Li  Li2  1  0.999976  0.256290  0.500000  1
  Tb  Tb3  1  0.436731  0.436731  0.000000  1
  Dy  Dy4  1  0.563153  0.000028  0.000000  1
  Dy  Dy5  1  0.000028  0.563153  0.000000  1
  Cd  Cd6  1  0.999766  0.999766  0.000000  1
  P  P7  1  0.667028  0.333280  0.500000  1
  P  P8  1  0.333280  0.667028  0.500000  1
