# generated using pymatgen
data_Ti8Al15Ru(PtRh2)2
_symmetry_space_group_name_H-M   'P 1'
_cell_length_a   8.66327645
_cell_length_b   8.65151992
_cell_length_c   8.66327677
_cell_angle_alpha   120.11263776
_cell_angle_beta   119.74819086
_cell_angle_gamma   90.16008429
_symmetry_Int_Tables_number   1
_chemical_formula_structural   Ti8Al15Ru(PtRh2)2
_chemical_formula_sum   'Ti8 Al15 Ru1 Pt2 Rh4'
_cell_volume   459.45455662
_cell_formula_units_Z   1
loop_
 _symmetry_equiv_pos_site_id
 _symmetry_equiv_pos_as_xyz
  1  'x, y, z'
loop_
 _atom_site_type_symbol
 _atom_site_label
 _atom_site_symmetry_multiplicity
 _atom_site_fract_x
 _atom_site_fract_y
 _atom_site_fract_z
 _atom_site_occupancy
  Ti  Ti0  1  0.788624  0.290913  0.073862  1
  Ti  Ti1  1  0.217051  0.290913  0.502288  1
  Ti  Ti2  1  0.209994  0.710677  0.500683  1
  Ti  Ti3  1  0.215431  0.714803  0.924106  1
  Ti  Ti4  1  0.790697  0.714803  0.499372  1
  Ti  Ti5  1  0.783509  0.283765  0.500256  1
  Ti  Ti6  1  0.383242  0.129982  0.746741  1
  Ti  Ti7  1  0.380129  0.635168  0.255037  1
  Al  Al8  1  0.997735  0.496899  0.499163  1
  Al  Al9  1  0.153429  0.345277  0.191847  1
  Al  Al10  1  0.152994  0.964182  0.811188  1
  Al  Al11  1  0.151898  0.349392  0.807328  1
  Al  Al12  1  0.542063  0.349392  0.197495  1
  Al  Al13  1  0.845036  0.652219  0.807184  1
  Al  Al14  1  0.847610  0.038732  0.191121  1
  Al  Al15  1  0.841441  0.650738  0.184875  1
  Al  Al16  1  0.465863  0.650738  0.809296  1
  Al  Al17  1  0.377519  0.123870  0.261181  1
  Al  Al18  1  0.862691  0.123870  0.746352  1
  Al  Al19  1  0.618492  0.872942  0.254450  1
  Al  Al20  1  0.621093  0.365492  0.744398  1
  Al  Al21  1  0.622048  0.875809  0.739446  1
  Al  Al22  1  0.136360  0.875809  0.253759  1
  Ru  Ru23  1  0.496797  0.497144  0.000347  1
  Pt  Pt24  1  0.000286  0.999666  0.500450  1
  Pt  Pt25  1  0.499215  0.999666  0.999380  1
  Rh  Rh26  1  0.498239  0.498938  0.497841  1
  Rh  Rh27  1  0.001096  0.498938  0.000698  1
  Rh  Rh28  1  0.999679  0.999370  0.999691  1
  Rh  Rh29  1  0.499732  0.999892  0.500161  1
