# generated using pymatgen
data_Ho6NbP12Rh17
_symmetry_space_group_name_H-M   'P 1'
_cell_length_a   3.93254700
_cell_length_b   11.18874900
_cell_length_c   12.78431500
_cell_angle_alpha   90.00000000
_cell_angle_beta   90.00000000
_cell_angle_gamma   90.00000000
_symmetry_Int_Tables_number   1
_chemical_formula_structural   Ho6NbP12Rh17
_chemical_formula_sum   'Ho6 Nb1 P12 Rh17'
_cell_volume   562.51345640
_cell_formula_units_Z   1
loop_
 _symmetry_equiv_pos_site_id
 _symmetry_equiv_pos_as_xyz
  1  'x, y, z'
loop_
 _atom_site_type_symbol
 _atom_site_label
 _atom_site_symmetry_multiplicity
 _atom_site_fract_x
 _atom_site_fract_y
 _atom_site_fract_z
 _atom_site_occupancy
  Ho  Ho0  1  0.000000  0.500000  0.522088  1
  Ho  Ho1  1  0.500000  0.000000  0.478145  1
  Ho  Ho2  1  0.500000  0.815785  0.206119  1
  Ho  Ho3  1  0.500000  0.184215  0.206119  1
  Ho  Ho4  1  0.000000  0.683098  0.797673  1
  Ho  Ho5  1  0.000000  0.316902  0.797673  1
  Nb  Nb6  1  0.500000  0.500000  0.157494  1
  P  P7  1  0.500000  0.315476  0.619204  1
  P  P8  1  0.500000  0.684524  0.619204  1
  P  P9  1  0.000000  0.185309  0.382767  1
  P  P10  1  0.000000  0.814691  0.382767  1
  P  P11  1  0.500000  0.500000  0.875690  1
  P  P12  1  0.000000  0.000000  0.123077  1
  P  P13  1  0.500000  0.849579  0.889710  1
  P  P14  1  0.500000  0.150421  0.889710  1
  P  P15  1  0.000000  0.656301  0.108167  1
  P  P16  1  0.000000  0.343699  0.108167  1
  P  P17  1  0.500000  0.500000  0.351150  1
  P  P18  1  0.000000  0.000000  0.648779  1
  Rh  Rh19  1  0.000000  0.500000  0.984220  1
  Rh  Rh20  1  0.500000  0.000000  0.022375  1
  Rh  Rh21  1  0.500000  0.292408  0.433401  1
  Rh  Rh22  1  0.500000  0.707592  0.433401  1
  Rh  Rh23  1  0.000000  0.202609  0.569560  1
  Rh  Rh24  1  0.000000  0.797391  0.569560  1
  Rh  Rh25  1  0.500000  0.873306  0.709246  1
  Rh  Rh26  1  0.500000  0.126694  0.709246  1
  Rh  Rh27  1  0.000000  0.627445  0.290856  1
  Rh  Rh28  1  0.000000  0.372555  0.290856  1
  Rh  Rh29  1  0.500000  0.331081  0.987140  1
  Rh  Rh30  1  0.500000  0.668919  0.987140  1
  Rh  Rh31  1  0.000000  0.165479  0.009442  1
  Rh  Rh32  1  0.000000  0.834521  0.009442  1
  Rh  Rh33  1  0.000000  0.000000  0.831229  1
  Rh  Rh34  1  0.500000  0.500000  0.698864  1
  Rh  Rh35  1  0.000000  0.000000  0.300320  1
