# generated using pymatgen
data_Ho12Co4NiPb
_symmetry_space_group_name_H-M   'P 1'
_cell_length_a   8.27301203
_cell_length_b   8.27303823
_cell_length_c   8.27301304
_cell_angle_alpha   110.81454964
_cell_angle_beta   110.66076427
_cell_angle_gamma   106.96690597
_symmetry_Int_Tables_number   1
_chemical_formula_structural   Ho12Co4NiPb
_chemical_formula_sum   'Ho12 Co4 Ni1 Pb1'
_cell_volume   435.26237357
_cell_formula_units_Z   1
loop_
 _symmetry_equiv_pos_site_id
 _symmetry_equiv_pos_as_xyz
  1  'x, y, z'
loop_
 _atom_site_type_symbol
 _atom_site_label
 _atom_site_symmetry_multiplicity
 _atom_site_fract_x
 _atom_site_fract_y
 _atom_site_fract_z
 _atom_site_occupancy
  Ho  Ho0  1  0.313965  0.620598  0.306633  1
  Ho  Ho1  1  0.686035  0.379402  0.693367  1
  Ho  Ho2  1  0.313968  0.007333  0.693367  1
  Ho  Ho3  1  0.686032  0.992667  0.306633  1
  Ho  Ho4  1  0.184730  0.290985  0.475716  1
  Ho  Ho5  1  0.815270  0.709015  0.524284  1
  Ho  Ho6  1  0.184731  0.709015  0.893746  1
  Ho  Ho7  1  0.815269  0.290985  0.106254  1
  Ho  Ho8  1  0.407327  0.210496  0.196829  1
  Ho  Ho9  1  0.592673  0.789504  0.803171  1
  Ho  Ho10  1  0.013668  0.210496  0.803169  1
  Ho  Ho11  1  0.986332  0.789504  0.196831  1
  Co  Co12  1  0.112466  0.612464  0.499999  1
  Co  Co13  1  0.887534  0.387536  0.500001  1
  Co  Co14  1  0.376208  0.000000  0.376208  1
  Co  Co15  1  0.623792  0.000000  0.623792  1
  Ni  Ni16  1  0.000000  0.000000  0.000000  1
  Pb  Pb17  1  0.500000  0.500000  0.000000  1
