# generated using pymatgen
data_Er4Tm3Lu(ReB6)4
_symmetry_space_group_name_H-M   'P 1'
_cell_length_a   3.64675400
_cell_length_b   9.10911301
_cell_length_c   11.47816701
_cell_angle_alpha   90.00515959
_cell_angle_beta   90.00000000
_cell_angle_gamma   90.00000000
_symmetry_Int_Tables_number   1
_chemical_formula_structural   Er4Tm3Lu(ReB6)4
_chemical_formula_sum   'Er4 Tm3 Lu1 Re4 B24'
_cell_volume   381.28971957
_cell_formula_units_Z   1
loop_
 _symmetry_equiv_pos_site_id
 _symmetry_equiv_pos_as_xyz
  1  'x, y, z'
loop_
 _atom_site_type_symbol
 _atom_site_label
 _atom_site_symmetry_multiplicity
 _atom_site_fract_x
 _atom_site_fract_y
 _atom_site_fract_z
 _atom_site_occupancy
  Er  Er0  1  0.000000  0.323345  0.413964  1
  Er  Er1  1  0.000000  0.676751  0.586222  1
  Er  Er2  1  0.000000  0.823004  0.085964  1
  Er  Er3  1  0.000000  0.176839  0.913888  1
  Tm  Tm4  1  0.000000  0.943352  0.370292  1
  Tm  Tm5  1  0.000000  0.056689  0.629863  1
  Tm  Tm6  1  0.000000  0.443427  0.129376  1
  Lu  Lu7  1  0.000000  0.556685  0.870133  1
  Re  Re8  1  0.000000  0.639032  0.320396  1
  Re  Re9  1  0.000000  0.361460  0.679862  1
  Re  Re10  1  0.000000  0.139046  0.179365  1
  Re  Re11  1  0.000000  0.860423  0.820558  1
  B  B12  1  0.500000  0.553276  0.433161  1
  B  B13  1  0.500000  0.446847  0.567034  1
  B  B14  1  0.500000  0.053203  0.066786  1
  B  B15  1  0.500000  0.946432  0.933122  1
  B  B16  1  0.500000  0.749964  0.418864  1
  B  B17  1  0.500000  0.250102  0.581263  1
  B  B18  1  0.500000  0.250066  0.081058  1
  B  B19  1  0.500000  0.749302  0.918799  1
  B  B20  1  0.500000  0.792874  0.265096  1
  B  B21  1  0.500000  0.207362  0.734989  1
  B  B22  1  0.500000  0.292922  0.234813  1
  B  B23  1  0.500000  0.706612  0.765346  1
  B  B24  1  0.500000  0.630600  0.184699  1
  B  B25  1  0.500000  0.369883  0.815448  1
  B  B26  1  0.500000  0.130673  0.315159  1
  B  B27  1  0.500000  0.869123  0.684984  1
  B  B28  1  0.500000  0.981667  0.212107  1
  B  B29  1  0.500000  0.018202  0.787977  1
  B  B30  1  0.500000  0.481667  0.287838  1
  B  B31  1  0.500000  0.518635  0.712524  1
  B  B32  1  0.500000  0.599119  0.026985  1
  B  B33  1  0.500000  0.401420  0.971922  1
  B  B34  1  0.500000  0.099410  0.472404  1
  B  B35  1  0.500000  0.900589  0.527739  1
