# generated using pymatgen
data_CeSm3(HgPt2)2
_symmetry_space_group_name_H-M   'P 1'
_cell_length_a   7.84242503
_cell_length_b   7.84242569
_cell_length_c   3.78391100
_cell_angle_alpha   90.00000000
_cell_angle_beta   90.00000000
_cell_angle_gamma   90.98939361
_symmetry_Int_Tables_number   1
_chemical_formula_structural   CeSm3(HgPt2)2
_chemical_formula_sum   'Ce1 Sm3 Hg2 Pt4'
_cell_volume   232.68958559
_cell_formula_units_Z   1
loop_
 _symmetry_equiv_pos_site_id
 _symmetry_equiv_pos_as_xyz
  1  'x, y, z'
loop_
 _atom_site_type_symbol
 _atom_site_label
 _atom_site_symmetry_multiplicity
 _atom_site_fract_x
 _atom_site_fract_y
 _atom_site_fract_z
 _atom_site_occupancy
  Ce  Ce0  1  0.669534  0.169534  0.500000  1
  Sm  Sm1  1  0.170191  0.330477  0.500000  1
  Sm  Sm2  1  0.328987  0.828987  0.500000  1
  Sm  Sm3  1  0.830477  0.670191  0.500000  1
  Hg  Hg4  1  0.499864  0.502749  0.000000  1
  Hg  Hg5  1  0.002749  0.999864  0.000000  1
  Pt  Pt6  1  0.631953  0.876475  0.000000  1
  Pt  Pt7  1  0.126128  0.626128  0.000000  1
  Pt  Pt8  1  0.863644  0.363644  0.000000  1
  Pt  Pt9  1  0.376475  0.131953  0.000000  1
