# generated using pymatgen
data_La4(PrAu)3
_symmetry_space_group_name_H-M   'P 1'
_cell_length_a   10.63639700
_cell_length_b   10.63639638
_cell_length_c   6.59967800
_cell_angle_alpha   90.00000000
_cell_angle_beta   90.00000000
_cell_angle_gamma   120.00000504
_symmetry_Int_Tables_number   1
_chemical_formula_structural   La4(PrAu)3
_chemical_formula_sum   'La8 Pr6 Au6'
_cell_volume   646.60998788
_cell_formula_units_Z   2
loop_
 _symmetry_equiv_pos_site_id
 _symmetry_equiv_pos_as_xyz
  1  'x, y, z'
loop_
 _atom_site_type_symbol
 _atom_site_label
 _atom_site_symmetry_multiplicity
 _atom_site_fract_x
 _atom_site_fract_y
 _atom_site_fract_z
 _atom_site_occupancy
  La  La0  1  0.333333  0.666667  0.438433  1
  La  La1  1  0.666667  0.333333  0.938433  1
  La  La2  1  0.129934  0.870066  0.250303  1
  La  La3  1  0.740132  0.870066  0.250303  1
  La  La4  1  0.129934  0.259868  0.250303  1
  La  La5  1  0.870066  0.129934  0.750303  1
  La  La6  1  0.259868  0.129934  0.750303  1
  La  La7  1  0.870066  0.740132  0.750303  1
  Pr  Pr8  1  0.538032  0.461968  0.449710  1
  Pr  Pr9  1  0.923935  0.461968  0.449710  1
  Pr  Pr10  1  0.538032  0.076065  0.449710  1
  Pr  Pr11  1  0.461968  0.538032  0.949710  1
  Pr  Pr12  1  0.076065  0.538032  0.949710  1
  Pr  Pr13  1  0.461968  0.923935  0.949710  1
  Au  Au14  1  0.811313  0.188687  0.187525  1
  Au  Au15  1  0.377374  0.188687  0.187525  1
  Au  Au16  1  0.811313  0.622626  0.187525  1
  Au  Au17  1  0.188687  0.811313  0.687525  1
  Au  Au18  1  0.622626  0.811313  0.687525  1
  Au  Au19  1  0.188687  0.377374  0.687525  1
