# generated using pymatgen
data_Ba3GdEr3O9
_symmetry_space_group_name_H-M   'P 1'
_cell_length_a   9.21270397
_cell_length_b   9.21270439
_cell_length_c   9.21270301
_cell_angle_alpha   38.83764521
_cell_angle_beta   38.83765293
_cell_angle_gamma   38.83764766
_symmetry_Int_Tables_number   1
_chemical_formula_structural   Ba3GdEr3O9
_chemical_formula_sum   'Ba3 Gd1 Er3 O9'
_cell_volume   276.46272860
_cell_formula_units_Z   1
loop_
 _symmetry_equiv_pos_site_id
 _symmetry_equiv_pos_as_xyz
  1  'x, y, z'
loop_
 _atom_site_type_symbol
 _atom_site_label
 _atom_site_symmetry_multiplicity
 _atom_site_fract_x
 _atom_site_fract_y
 _atom_site_fract_z
 _atom_site_occupancy
  Ba  Ba0  1  0.999371  0.999371  0.999371  1
  Ba  Ba1  1  0.833169  0.833169  0.833169  1
  Ba  Ba2  1  0.405106  0.405106  0.405106  1
  Gd  Gd3  1  0.573321  0.573321  0.573321  1
  Er  Er4  1  0.135148  0.135148  0.135148  1
  Er  Er5  1  0.260266  0.260266  0.260266  1
  Er  Er6  1  0.699679  0.699679  0.699679  1
  O  O7  1  0.436883  0.969063  0.522365  1
  O  O8  1  0.969063  0.522365  0.436883  1
  O  O9  1  0.522365  0.436883  0.969063  1
  O  O10  1  0.277794  0.886302  0.424811  1
  O  O11  1  0.886302  0.424811  0.277794  1
  O  O12  1  0.424811  0.277794  0.886302  1
  O  O13  1  0.413697  0.860361  0.976466  1
  O  O14  1  0.976466  0.413697  0.860361  1
  O  O15  1  0.860361  0.976466  0.413697  1
