# generated using pymatgen
data_NdBeCo12
_symmetry_space_group_name_H-M   'P 1'
_cell_length_a   7.88095678
_cell_length_b   7.88095658
_cell_length_c   7.88095600
_cell_angle_alpha   60.00000244
_cell_angle_beta   60.00000326
_cell_angle_gamma   59.99999651
_symmetry_Int_Tables_number   1
_chemical_formula_structural   NdBeCo12
_chemical_formula_sum   'Nd2 Be2 Co24'
_cell_volume   346.11609309
_cell_formula_units_Z   2
loop_
 _symmetry_equiv_pos_site_id
 _symmetry_equiv_pos_as_xyz
  1  'x, y, z'
loop_
 _atom_site_type_symbol
 _atom_site_label
 _atom_site_symmetry_multiplicity
 _atom_site_fract_x
 _atom_site_fract_y
 _atom_site_fract_z
 _atom_site_occupancy
  Nd  Nd0  1  0.250000  0.250000  0.250000  1
  Nd  Nd1  1  0.750000  0.750000  0.750000  1
  Be  Be2  1  0.500000  0.500000  0.500000  1
  Be  Be3  1  0.000000  0.000000  0.000000  1
  Co  Co4  1  0.793153  0.559909  0.206847  1
  Co  Co5  1  0.206847  0.440091  0.793153  1
  Co  Co6  1  0.559909  0.793153  0.440091  1
  Co  Co7  1  0.440091  0.206847  0.559909  1
  Co  Co8  1  0.293153  0.940091  0.706847  1
  Co  Co9  1  0.706847  0.059909  0.293153  1
  Co  Co10  1  0.940091  0.293153  0.059909  1
  Co  Co11  1  0.059909  0.706847  0.940091  1
  Co  Co12  1  0.206847  0.793153  0.559909  1
  Co  Co13  1  0.793153  0.206847  0.440091  1
  Co  Co14  1  0.440091  0.559909  0.793153  1
  Co  Co15  1  0.559909  0.440091  0.206847  1
  Co  Co16  1  0.706847  0.293153  0.940091  1
  Co  Co17  1  0.293153  0.706847  0.059909  1
  Co  Co18  1  0.059909  0.940091  0.293153  1
  Co  Co19  1  0.940091  0.059909  0.706847  1
  Co  Co20  1  0.559909  0.206847  0.793153  1
  Co  Co21  1  0.440091  0.793153  0.206847  1
  Co  Co22  1  0.793153  0.440091  0.559909  1
  Co  Co23  1  0.206847  0.559909  0.440091  1
  Co  Co24  1  0.940091  0.706847  0.293153  1
  Co  Co25  1  0.059909  0.293153  0.706847  1
  Co  Co26  1  0.293153  0.059909  0.940091  1
  Co  Co27  1  0.706847  0.940091  0.059909  1
