# generated using pymatgen
data_Y3Sc7Si20Ir7Pt
_symmetry_space_group_name_H-M   'P 1'
_cell_length_a   12.45975100
_cell_length_b   12.48197788
_cell_length_c   4.15161400
_cell_angle_alpha   90.00000000
_cell_angle_beta   90.00000000
_cell_angle_gamma   90.10388098
_symmetry_Int_Tables_number   1
_chemical_formula_structural   Y3Sc7Si20Ir7Pt
_chemical_formula_sum   'Y3 Sc7 Si20 Ir7 Pt1'
_cell_volume   645.66764818
_cell_formula_units_Z   1
loop_
 _symmetry_equiv_pos_site_id
 _symmetry_equiv_pos_as_xyz
  1  'x, y, z'
loop_
 _atom_site_type_symbol
 _atom_site_label
 _atom_site_symmetry_multiplicity
 _atom_site_fract_x
 _atom_site_fract_y
 _atom_site_fract_z
 _atom_site_occupancy
  Y  Y0  1  0.115222  0.615335  0.500000  1
  Y  Y1  1  0.884074  0.385124  0.500000  1
  Y  Y2  1  0.615372  0.884794  0.500000  1
  Sc  Sc3  1  0.384585  0.115520  0.500000  1
  Sc  Sc4  1  0.673043  0.174295  0.500000  1
  Sc  Sc5  1  0.325713  0.826824  0.500000  1
  Sc  Sc6  1  0.175869  0.325732  0.500000  1
  Sc  Sc7  1  0.825929  0.673993  0.500000  1
  Sc  Sc8  1  0.000173  0.997158  0.000000  1
  Sc  Sc9  1  0.499959  0.499850  0.000000  1
  Si  Si10  1  0.566319  0.067479  0.000000  1
  Si  Si11  1  0.432280  0.933556  0.000000  1
  Si  Si12  1  0.068473  0.434569  0.000000  1
  Si  Si13  1  0.931701  0.568355  0.000000  1
  Si  Si14  1  0.204571  0.165274  0.000000  1
  Si  Si15  1  0.800194  0.834569  0.000000  1
  Si  Si16  1  0.165816  0.801174  0.000000  1
  Si  Si17  1  0.697989  0.334990  0.000000  1
  Si  Si18  1  0.831847  0.199709  0.000000  1
  Si  Si19  1  0.300586  0.665396  0.000000  1
  Si  Si20  1  0.665224  0.699624  0.000000  1
  Si  Si21  1  0.335747  0.300005  0.000000  1
  Si  Si22  1  0.007180  0.147435  0.500000  1
  Si  Si23  1  0.992766  0.848800  0.500000  1
  Si  Si24  1  0.152286  0.994093  0.500000  1
  Si  Si25  1  0.505899  0.347419  0.500000  1
  Si  Si26  1  0.849416  0.008388  0.500000  1
  Si  Si27  1  0.491554  0.651234  0.500000  1
  Si  Si28  1  0.650456  0.507344  0.500000  1
  Si  Si29  1  0.349012  0.491983  0.500000  1
  Ir  Ir30  1  0.979354  0.756621  0.000000  1
  Ir  Ir31  1  0.245743  0.981089  0.000000  1
  Ir  Ir32  1  0.519288  0.253840  0.000000  1
  Ir  Ir33  1  0.755735  0.020794  0.000000  1
  Ir  Ir34  1  0.479269  0.744865  0.000000  1
  Ir  Ir35  1  0.743314  0.520559  0.000000  1
  Ir  Ir36  1  0.256879  0.478457  0.000000  1
  Pt  Pt37  1  0.021164  0.243756  0.000000  1
