# generated using pymatgen
data_Ce4P7(IrRh3)2
_symmetry_space_group_name_H-M   'P 1'
_cell_length_a   4.00229800
_cell_length_b   12.76192975
_cell_length_c   13.19704784
_cell_angle_alpha   80.70577302
_cell_angle_beta   90.00000000
_cell_angle_gamma   90.00000000
_symmetry_Int_Tables_number   1
_chemical_formula_structural   Ce4P7(IrRh3)2
_chemical_formula_sum   'Ce8 P14 Ir4 Rh12'
_cell_volume   665.21707362
_cell_formula_units_Z   2
loop_
 _symmetry_equiv_pos_site_id
 _symmetry_equiv_pos_as_xyz
  1  'x, y, z'
loop_
 _atom_site_type_symbol
 _atom_site_label
 _atom_site_symmetry_multiplicity
 _atom_site_fract_x
 _atom_site_fract_y
 _atom_site_fract_z
 _atom_site_occupancy
  Ce  Ce0  1  0.750000  0.790606  0.561204  1
  Ce  Ce1  1  0.250000  0.209394  0.438796  1
  Ce  Ce2  1  0.750000  0.482700  0.708180  1
  Ce  Ce3  1  0.250000  0.517300  0.291820  1
  Ce  Ce4  1  0.750000  0.722481  0.896865  1
  Ce  Ce5  1  0.250000  0.103544  0.785772  1
  Ce  Ce6  1  0.750000  0.896456  0.214228  1
  Ce  Ce7  1  0.250000  0.277519  0.103135  1
  P  P8  1  0.250000  0.908718  0.409128  1
  P  P9  1  0.750000  0.472438  0.127518  1
  P  P10  1  0.250000  0.527562  0.872482  1
  P  P11  1  0.750000  0.091282  0.590872  1
  P  P12  1  0.250000  0.742774  0.077561  1
  P  P13  1  0.750000  0.257226  0.922439  1
  P  P14  1  0.750000  0.158134  0.281536  1
  P  P15  1  0.250000  0.841866  0.718464  1
  P  P16  1  0.250000  0.051056  0.099744  1
  P  P17  1  0.750000  0.948944  0.900256  1
  P  P18  1  0.250000  0.312602  0.690535  1
  P  P19  1  0.750000  0.687398  0.309465  1
  P  P20  1  0.250000  0.608060  0.560666  1
  P  P21  1  0.750000  0.391940  0.439334  1
  Ir  Ir22  1  0.250000  0.727952  0.396369  1
  Ir  Ir23  1  0.750000  0.272048  0.603631  1
  Ir  Ir24  1  0.250000  0.340733  0.861433  1
  Ir  Ir25  1  0.750000  0.659267  0.138567  1
  Rh  Rh26  1  0.250000  0.988075  0.575065  1
  Rh  Rh27  1  0.750000  0.011925  0.424935  1
  Rh  Rh28  1  0.250000  0.659870  0.726208  1
  Rh  Rh29  1  0.750000  0.340130  0.273792  1
  Rh  Rh30  1  0.250000  0.552768  0.046175  1
  Rh  Rh31  1  0.750000  0.447232  0.953825  1
  Rh  Rh32  1  0.250000  0.061292  0.275399  1
  Rh  Rh33  1  0.750000  0.938708  0.724601  1
  Rh  Rh34  1  0.250000  0.425196  0.530166  1
  Rh  Rh35  1  0.750000  0.574804  0.469834  1
  Rh  Rh36  1  0.250000  0.918340  0.996862  1
  Rh  Rh37  1  0.750000  0.081660  0.003138  1
