# generated using pymatgen
data_Tb2Nd3P12Ru15Rh4
_symmetry_space_group_name_H-M   'P 1'
_cell_length_a   3.99864300
_cell_length_b   12.59393895
_cell_length_c   12.60895407
_cell_angle_alpha   119.75263510
_cell_angle_beta   90.00000000
_cell_angle_gamma   90.00000000
_symmetry_Int_Tables_number   1
_chemical_formula_structural   Tb2Nd3P12Ru15Rh4
_chemical_formula_sum   'Tb2 Nd3 P12 Ru15 Rh4'
_cell_volume   551.26580009
_cell_formula_units_Z   1
loop_
 _symmetry_equiv_pos_site_id
 _symmetry_equiv_pos_as_xyz
  1  'x, y, z'
loop_
 _atom_site_type_symbol
 _atom_site_label
 _atom_site_symmetry_multiplicity
 _atom_site_fract_x
 _atom_site_fract_y
 _atom_site_fract_z
 _atom_site_occupancy
  Tb  Tb0  1  0.000000  0.333713  0.667261  1
  Tb  Tb1  1  0.000000  0.666252  0.333047  1
  Nd  Nd2  1  0.500000  0.998999  0.182198  1
  Nd  Nd3  1  0.500000  0.183078  0.998422  1
  Nd  Nd4  1  0.500000  0.816637  0.816191  1
  P  P5  1  0.000000  0.999442  0.810611  1
  P  P6  1  0.000000  0.811217  0.999798  1
  P  P7  1  0.000000  0.187557  0.184979  1
  P  P8  1  0.500000  0.307751  0.481942  1
  P  P9  1  0.500000  0.177586  0.697344  1
  P  P10  1  0.500000  0.521377  0.824563  1
  P  P11  1  0.500000  0.822751  0.520345  1
  P  P12  1  0.500000  0.478861  0.302660  1
  P  P13  1  0.500000  0.697642  0.177590  1
  P  P14  1  0.000000  0.996134  0.371116  1
  P  P15  1  0.000000  0.371852  0.000170  1
  P  P16  1  0.000000  0.627848  0.627975  1
  Ru  Ru17  1  0.500000  0.999703  0.711107  1
  Ru  Ru18  1  0.500000  0.711914  0.000391  1
  Ru  Ru19  1  0.500000  0.286414  0.288312  1
  Ru  Ru20  1  0.000000  0.185879  0.804821  1
  Ru  Ru21  1  0.000000  0.619853  0.814936  1
  Ru  Ru22  1  0.000000  0.814008  0.618189  1
  Ru  Ru23  1  0.000000  0.380131  0.196051  1
  Ru  Ru24  1  0.000000  0.804194  0.185183  1
  Ru  Ru25  1  0.500000  0.127964  0.493261  1
  Ru  Ru26  1  0.500000  0.368651  0.875517  1
  Ru  Ru27  1  0.500000  0.508898  0.633860  1
  Ru  Ru28  1  0.500000  0.630591  0.506115  1
  Ru  Ru29  1  0.500000  0.493296  0.125334  1
  Ru  Ru30  1  0.500000  0.876514  0.369284  1
  Ru  Ru31  1  0.000000  0.000021  0.999730  1
  Rh  Rh32  1  0.000000  0.002613  0.553888  1
  Rh  Rh33  1  0.000000  0.552748  0.000149  1
  Rh  Rh34  1  0.000000  0.445656  0.449115  1
  Rh  Rh35  1  0.000000  0.192156  0.378545  1
