# generated using pymatgen
data_CsGaSbS4
_symmetry_space_group_name_H-M   'P 1'
_cell_length_a   6.87410765
_cell_length_b   8.36111724
_cell_length_c   9.37393403
_cell_angle_alpha   105.51014471
_cell_angle_beta   100.70621807
_cell_angle_gamma   101.23055903
_symmetry_Int_Tables_number   1
_chemical_formula_structural   CsGaSbS4
_chemical_formula_sum   'Cs2 Ga2 Sb2 S8'
_cell_volume   492.81901024
_cell_formula_units_Z   2
loop_
 _symmetry_equiv_pos_site_id
 _symmetry_equiv_pos_as_xyz
  1  'x, y, z'
loop_
 _atom_site_type_symbol
 _atom_site_label
 _atom_site_symmetry_multiplicity
 _atom_site_fract_x
 _atom_site_fract_y
 _atom_site_fract_z
 _atom_site_occupancy
  Cs  Cs0  1  0.882615  0.797095  0.168295  1
  Cs  Cs1  1  0.117385  0.202905  0.831705  1
  Ga  Ga2  1  0.660543  0.284057  0.247367  1
  Ga  Ga3  1  0.339457  0.715943  0.752633  1
  Sb  Sb4  1  0.217089  0.412864  0.373010  1
  Sb  Sb5  1  0.782911  0.587136  0.626990  1
  S  S6  1  0.471870  0.479170  0.226709  1
  S  S7  1  0.528130  0.520830  0.773291  1
  S  S8  1  0.933597  0.366999  0.150712  1
  S  S9  1  0.066403  0.633001  0.849288  1
  S  S10  1  0.478628  0.003322  0.109215  1
  S  S11  1  0.521372  0.996678  0.890785  1
  S  S12  1  0.766040  0.282683  0.494541  1
  S  S13  1  0.233960  0.717317  0.505459  1
