# generated using pymatgen
data_Er6Al24Ru3PtRh4
_symmetry_space_group_name_H-M   'P 1'
_cell_length_a   8.78170876
_cell_length_b   8.79709491
_cell_length_c   9.50560059
_cell_angle_alpha   90.24278495
_cell_angle_beta   89.89046832
_cell_angle_gamma   119.64376043
_symmetry_Int_Tables_number   1
_chemical_formula_structural   Er6Al24Ru3PtRh4
_chemical_formula_sum   'Er6 Al24 Ru3 Pt1 Rh4'
_cell_volume   638.22294835
_cell_formula_units_Z   1
loop_
 _symmetry_equiv_pos_site_id
 _symmetry_equiv_pos_as_xyz
  1  'x, y, z'
loop_
 _atom_site_type_symbol
 _atom_site_label
 _atom_site_symmetry_multiplicity
 _atom_site_fract_x
 _atom_site_fract_y
 _atom_site_fract_z
 _atom_site_occupancy
  Er  Er0  1  0.191792  0.385301  0.250575  1
  Er  Er1  1  0.808208  0.614699  0.749425  1
  Er  Er2  1  0.614009  0.810041  0.251061  1
  Er  Er3  1  0.385991  0.189959  0.748939  1
  Er  Er4  1  0.195363  0.808534  0.250421  1
  Er  Er5  1  0.804637  0.191466  0.749579  1
  Al  Al6  1  0.332892  0.666917  0.028628  1
  Al  Al7  1  0.667108  0.333083  0.971372  1
  Al  Al8  1  0.667870  0.329839  0.528109  1
  Al  Al9  1  0.332130  0.670161  0.471891  1
  Al  Al10  1  0.159724  0.324950  0.577607  1
  Al  Al11  1  0.840276  0.675050  0.422393  1
  Al  Al12  1  0.674072  0.841090  0.577434  1
  Al  Al13  1  0.837065  0.674832  0.077378  1
  Al  Al14  1  0.325928  0.158910  0.422566  1
  Al  Al15  1  0.162935  0.325168  0.922622  1
  Al  Al16  1  0.164615  0.838025  0.578159  1
  Al  Al17  1  0.326135  0.164130  0.077269  1
  Al  Al18  1  0.835385  0.161975  0.421841  1
  Al  Al19  1  0.673865  0.835870  0.922731  1
  Al  Al20  1  0.837307  0.164147  0.077932  1
  Al  Al21  1  0.162693  0.835853  0.922068  1
  Al  Al22  1  0.561988  0.124311  0.251025  1
  Al  Al23  1  0.438012  0.875689  0.748975  1
  Al  Al24  1  0.877270  0.439289  0.250055  1
  Al  Al25  1  0.122730  0.560711  0.749945  1
  Al  Al26  1  0.563212  0.437925  0.247082  1
  Al  Al27  1  0.436788  0.562075  0.752918  1
  Al  Al28  1  0.000241  0.001839  0.250038  1
  Al  Al29  1  0.999759  0.998161  0.749962  1
  Ru  Ru30  1  0.500000  0.000000  0.500000  1
  Ru  Ru31  1  0.000000  0.000000  0.000000  1
  Ru  Ru32  1  0.000000  0.000000  0.500000  1
  Pt  Pt33  1  0.500000  0.500000  0.500000  1
  Rh  Rh34  1  0.500000  0.000000  0.000000  1
  Rh  Rh35  1  0.000000  0.500000  0.000000  1
  Rh  Rh36  1  0.500000  0.500000  0.000000  1
  Rh  Rh37  1  0.000000  0.500000  0.500000  1
