# generated using pymatgen
data_SmDy(ThNi7)2
_symmetry_space_group_name_H-M   'P 1'
_cell_length_a   4.95894587
_cell_length_b   4.95894568
_cell_length_c   12.53822862
_cell_angle_alpha   78.59441254
_cell_angle_beta   78.59441462
_cell_angle_gamma   59.99999314
_symmetry_Int_Tables_number   1
_chemical_formula_structural   SmDy(ThNi7)2
_chemical_formula_sum   'Sm1 Dy1 Th2 Ni14'
_cell_volume   259.96640732
_cell_formula_units_Z   1
loop_
 _symmetry_equiv_pos_site_id
 _symmetry_equiv_pos_as_xyz
  1  'x, y, z'
loop_
 _atom_site_type_symbol
 _atom_site_label
 _atom_site_symmetry_multiplicity
 _atom_site_fract_x
 _atom_site_fract_y
 _atom_site_fract_z
 _atom_site_occupancy
  Sm  Sm0  1  0.147974  0.147974  0.556077  1
  Dy  Dy1  1  0.852546  0.852546  0.442364  1
  Th  Th2  1  0.948687  0.948687  0.153940  1
  Th  Th3  1  0.050935  0.050935  0.847195  1
  Ni  Ni4  1  0.500189  0.500189  0.499433  1
  Ni  Ni5  1  0.721925  0.721925  0.834225  1
  Ni  Ni6  1  0.278015  0.278015  0.165956  1
  Ni  Ni7  1  0.611552  0.611552  0.165346  1
  Ni  Ni8  1  0.388476  0.388476  0.834572  1
  Ni  Ni9  1  0.000000  0.499984  0.000031  1
  Ni  Ni10  1  0.499984  0.000000  0.000031  1
  Ni  Ni11  1  0.499984  0.499984  0.000031  1
  Ni  Ni12  1  0.389883  0.389883  0.330207  1
  Ni  Ni13  1  0.890029  0.389883  0.330207  1
  Ni  Ni14  1  0.389883  0.890029  0.330207  1
  Ni  Ni15  1  0.610285  0.610285  0.670059  1
  Ni  Ni16  1  0.109368  0.610285  0.670059  1
  Ni  Ni17  1  0.610285  0.109368  0.670059  1
