# generated using pymatgen
data_HoEr11Co5Sn
_symmetry_space_group_name_H-M   'P 1'
_cell_length_a   8.20104229
_cell_length_b   8.20104123
_cell_length_c   8.19919580
_cell_angle_alpha   110.86401917
_cell_angle_beta   110.81536189
_cell_angle_gamma   106.77721051
_symmetry_Int_Tables_number   1
_chemical_formula_structural   HoEr11Co5Sn
_chemical_formula_sum   'Ho1 Er11 Co5 Sn1'
_cell_volume   423.75712765
_cell_formula_units_Z   1
loop_
 _symmetry_equiv_pos_site_id
 _symmetry_equiv_pos_as_xyz
  1  'x, y, z'
loop_
 _atom_site_type_symbol
 _atom_site_label
 _atom_site_symmetry_multiplicity
 _atom_site_fract_x
 _atom_site_fract_y
 _atom_site_fract_z
 _atom_site_occupancy
  Ho  Ho0  1  0.289673  0.185936  0.475609  1
  Er  Er1  1  0.710697  0.814156  0.524853  1
  Er  Er2  1  0.289799  0.813534  0.103333  1
  Er  Er3  1  0.710646  0.186000  0.896647  1
  Er  Er4  1  0.619424  0.313204  0.306152  1
  Er  Er5  1  0.380722  0.687229  0.693945  1
  Er  Er6  1  0.006715  0.313223  0.693945  1
  Er  Er7  1  0.992946  0.686727  0.306152  1
  Er  Er8  1  0.210252  0.403547  0.192893  1
  Er  Er9  1  0.790193  0.597297  0.807471  1
  Er  Er10  1  0.210174  0.017277  0.807471  1
  Er  Er11  1  0.789346  0.982641  0.192893  1
  Co  Co12  1  0.999433  0.376131  0.375565  1
  Co  Co13  1  0.000007  0.623967  0.623974  1
  Co  Co14  1  0.387960  0.887134  0.499737  1
  Co  Co15  1  0.612603  0.111778  0.499737  1
  Co  Co16  1  0.999479  0.000239  0.999718  1
  Sn  Sn17  1  0.499927  0.499978  0.999905  1
