# generated using pymatgen
data_LaCoH4
_symmetry_space_group_name_H-M   'P 1'
_cell_length_a   6.31462052
_cell_length_b   6.31462065
_cell_length_c   4.97534500
_cell_angle_alpha   90.00000000
_cell_angle_beta   90.00000000
_cell_angle_gamma   144.84190149
_symmetry_Int_Tables_number   1
_chemical_formula_structural   LaCoH4
_chemical_formula_sum   'La2 Co2 H8'
_cell_volume   114.23927950
_cell_formula_units_Z   2
loop_
 _symmetry_equiv_pos_site_id
 _symmetry_equiv_pos_as_xyz
  1  'x, y, z'
loop_
 _atom_site_type_symbol
 _atom_site_label
 _atom_site_symmetry_multiplicity
 _atom_site_fract_x
 _atom_site_fract_y
 _atom_site_fract_z
 _atom_site_occupancy
  La  La0  1  0.868946  0.131054  0.750000  1
  La  La1  1  0.130862  0.869138  0.250000  1
  Co  Co2  1  0.592940  0.407060  0.750000  1
  Co  Co3  1  0.407119  0.592881  0.250000  1
  H  H4  1  0.088514  0.911486  0.750000  1
  H  H5  1  0.911946  0.088054  0.250000  1
  H  H6  1  0.688685  0.311315  0.517546  1
  H  H7  1  0.311217  0.688783  0.482194  1
  H  H8  1  0.688685  0.311315  0.982454  1
  H  H9  1  0.311217  0.688783  0.017806  1
  H  H10  1  0.499934  0.500066  0.999999  1
  H  H11  1  0.499934  0.500066  0.500001  1
