# generated using pymatgen
data_Tb2DyHoAl2
_symmetry_space_group_name_H-M   'P 1'
_cell_length_a   5.11342800
_cell_length_b   6.56126787
_cell_length_c   9.44467604
_cell_angle_alpha   90.07497298
_cell_angle_beta   90.00000000
_cell_angle_gamma   90.00000000
_symmetry_Int_Tables_number   1
_chemical_formula_structural   Tb2DyHoAl2
_chemical_formula_sum   'Tb4 Dy2 Ho2 Al4'
_cell_volume   316.87400116
_cell_formula_units_Z   2
loop_
 _symmetry_equiv_pos_site_id
 _symmetry_equiv_pos_as_xyz
  1  'x, y, z'
loop_
 _atom_site_type_symbol
 _atom_site_label
 _atom_site_symmetry_multiplicity
 _atom_site_fract_x
 _atom_site_fract_y
 _atom_site_fract_z
 _atom_site_occupancy
  Tb  Tb0  1  0.750000  0.688475  0.427096  1
  Tb  Tb1  1  0.250000  0.311525  0.572904  1
  Tb  Tb2  1  0.750000  0.187644  0.072964  1
  Tb  Tb3  1  0.250000  0.812356  0.927036  1
  Dy  Dy4  1  0.750000  0.527789  0.789957  1
  Dy  Dy5  1  0.250000  0.472211  0.210043  1
  Ho  Ho6  1  0.750000  0.027782  0.710321  1
  Ho  Ho7  1  0.250000  0.972218  0.289679  1
  Al  Al8  1  0.750000  0.208157  0.397811  1
  Al  Al9  1  0.250000  0.791843  0.602189  1
  Al  Al10  1  0.750000  0.708574  0.102551  1
  Al  Al11  1  0.250000  0.291426  0.897449  1
