# generated using pymatgen
data_Er6AlZn5C2
_symmetry_space_group_name_H-M   'P 1'
_cell_length_a   9.13963294
_cell_length_b   9.09916195
_cell_length_c   9.09916161
_cell_angle_alpha   59.65082662
_cell_angle_beta   59.85275232
_cell_angle_gamma   59.85276464
_symmetry_Int_Tables_number   1
_chemical_formula_structural   Er6AlZn5C2
_chemical_formula_sum   'Er12 Al2 Zn10 C4'
_cell_volume   532.46653284
_cell_formula_units_Z   2
loop_
 _symmetry_equiv_pos_site_id
 _symmetry_equiv_pos_as_xyz
  1  'x, y, z'
loop_
 _atom_site_type_symbol
 _atom_site_label
 _atom_site_symmetry_multiplicity
 _atom_site_fract_x
 _atom_site_fract_y
 _atom_site_fract_z
 _atom_site_occupancy
  Er  Er0  1  0.445592  0.446149  0.053726  1
  Er  Er1  1  0.054534  0.446149  0.053726  1
  Er  Er2  1  0.445828  0.054172  0.054172  1
  Er  Er3  1  0.054534  0.053726  0.446149  1
  Er  Er4  1  0.445592  0.053726  0.446149  1
  Er  Er5  1  0.053870  0.446130  0.446130  1
  Er  Er6  1  0.804408  0.803851  0.196274  1
  Er  Er7  1  0.195466  0.803851  0.196274  1
  Er  Er8  1  0.804172  0.195828  0.195828  1
  Er  Er9  1  0.195466  0.196274  0.803851  1
  Er  Er10  1  0.804408  0.196274  0.803851  1
  Er  Er11  1  0.196130  0.803870  0.803870  1
  Al  Al12  1  0.625000  0.625000  0.125000  1
  Al  Al13  1  0.625000  0.125000  0.625000  1
  Zn  Zn14  1  0.827748  0.825742  0.518760  1
  Zn  Zn15  1  0.827748  0.518760  0.825742  1
  Zn  Zn16  1  0.517314  0.826896  0.826896  1
  Zn  Zn17  1  0.828893  0.826896  0.826896  1
  Zn  Zn18  1  0.422252  0.424258  0.731240  1
  Zn  Zn19  1  0.422252  0.731240  0.424258  1
  Zn  Zn20  1  0.732686  0.423104  0.423104  1
  Zn  Zn21  1  0.421107  0.423104  0.423104  1
  Zn  Zn22  1  0.125000  0.625000  0.625000  1
  Zn  Zn23  1  0.625000  0.625000  0.625000  1
  C  C24  1  0.125000  0.125000  0.625000  1
  C  C25  1  0.125000  0.625000  0.125000  1
  C  C26  1  0.625000  0.125000  0.125000  1
  C  C27  1  0.125000  0.125000  0.125000  1
