# generated using pymatgen
data_YErTm4(ReB7)2
_symmetry_space_group_name_H-M   'P 1'
_cell_length_a   7.98890222
_cell_length_b   7.98890224
_cell_length_c   9.30874800
_cell_angle_alpha   90.00000000
_cell_angle_beta   90.00000000
_cell_angle_gamma   154.62355486
_symmetry_Int_Tables_number   1
_chemical_formula_structural   YErTm4(ReB7)2
_chemical_formula_sum   'Y1 Er1 Tm4 Re2 B14'
_cell_volume   254.61318888
_cell_formula_units_Z   1
loop_
 _symmetry_equiv_pos_site_id
 _symmetry_equiv_pos_as_xyz
  1  'x, y, z'
loop_
 _atom_site_type_symbol
 _atom_site_label
 _atom_site_symmetry_multiplicity
 _atom_site_fract_x
 _atom_site_fract_y
 _atom_site_fract_z
 _atom_site_occupancy
  Y  Y0  1  0.244357  0.755643  0.250000  1
  Er  Er1  1  0.756804  0.243196  0.750000  1
  Tm  Tm2  1  0.894827  0.105173  0.058415  1
  Tm  Tm3  1  0.105388  0.894612  0.559206  1
  Tm  Tm4  1  0.105388  0.894612  0.940794  1
  Tm  Tm5  1  0.894827  0.105173  0.441585  1
  Re  Re6  1  0.051802  0.948198  0.250000  1
  Re  Re7  1  0.948193  0.051807  0.750000  1
  B  B8  1  0.453873  0.546127  0.250000  1
  B  B9  1  0.545893  0.454107  0.750000  1
  B  B10  1  0.727113  0.272887  0.031940  1
  B  B11  1  0.272580  0.727420  0.534603  1
  B  B12  1  0.272580  0.727420  0.965397  1
  B  B13  1  0.727113  0.272887  0.468060  1
  B  B14  1  0.631872  0.368128  0.349824  1
  B  B15  1  0.367873  0.632127  0.849270  1
  B  B16  1  0.367873  0.632127  0.650730  1
  B  B17  1  0.631872  0.368128  0.150176  1
  B  B18  1  0.519688  0.480312  0.405257  1
  B  B19  1  0.480198  0.519802  0.905188  1
  B  B20  1  0.480198  0.519802  0.594812  1
  B  B21  1  0.519688  0.480312  0.094743  1
