# generated using pymatgen
data_Lu2NbB2Ru5
_symmetry_space_group_name_H-M   'P 1'
_cell_length_a   9.61190200
_cell_length_b   9.61190200
_cell_length_c   3.10642100
_cell_angle_alpha   90.00000000
_cell_angle_beta   90.00000000
_cell_angle_gamma   90.00000000
_symmetry_Int_Tables_number   1
_chemical_formula_structural   Lu2NbB2Ru5
_chemical_formula_sum   'Lu4 Nb2 B4 Ru10'
_cell_volume   286.99807376
_cell_formula_units_Z   2
loop_
 _symmetry_equiv_pos_site_id
 _symmetry_equiv_pos_as_xyz
  1  'x, y, z'
loop_
 _atom_site_type_symbol
 _atom_site_label
 _atom_site_symmetry_multiplicity
 _atom_site_fract_x
 _atom_site_fract_y
 _atom_site_fract_z
 _atom_site_occupancy
  Lu  Lu0  1  0.825154  0.674846  0.000000  1
  Lu  Lu1  1  0.174846  0.325154  0.000000  1
  Lu  Lu2  1  0.325154  0.825154  0.000000  1
  Lu  Lu3  1  0.674846  0.174846  0.000000  1
  Nb  Nb4  1  0.500000  0.500000  0.000000  1
  Nb  Nb5  1  0.000000  0.000000  0.000000  1
  B  B6  1  0.620170  0.879830  0.000000  1
  B  B7  1  0.379830  0.120170  0.000000  1
  B  B8  1  0.120170  0.620170  0.000000  1
  B  B9  1  0.879830  0.379830  0.000000  1
  Ru  Ru10  1  0.571222  0.718137  0.500000  1
  Ru  Ru11  1  0.428778  0.281863  0.500000  1
  Ru  Ru12  1  0.071222  0.781863  0.500000  1
  Ru  Ru13  1  0.928778  0.218137  0.500000  1
  Ru  Ru14  1  0.281863  0.571222  0.500000  1
  Ru  Ru15  1  0.718137  0.428778  0.500000  1
  Ru  Ru16  1  0.218137  0.071222  0.500000  1
  Ru  Ru17  1  0.781863  0.928778  0.500000  1
  Ru  Ru18  1  0.500000  0.000000  0.500000  1
  Ru  Ru19  1  0.000000  0.500000  0.500000  1
