# generated using pymatgen
data_LiDySiO4
_symmetry_space_group_name_H-M   'P 1'
_cell_length_a   6.24018600
_cell_length_b   5.44518063
_cell_length_c   10.93613775
_cell_angle_alpha   66.39676177
_cell_angle_beta   90.00000000
_cell_angle_gamma   90.00000000
_symmetry_Int_Tables_number   1
_chemical_formula_structural   LiDySiO4
_chemical_formula_sum   'Li4 Dy4 Si4 O16'
_cell_volume   340.51048547
_cell_formula_units_Z   4
loop_
 _symmetry_equiv_pos_site_id
 _symmetry_equiv_pos_as_xyz
  1  'x, y, z'
loop_
 _atom_site_type_symbol
 _atom_site_label
 _atom_site_symmetry_multiplicity
 _atom_site_fract_x
 _atom_site_fract_y
 _atom_site_fract_z
 _atom_site_occupancy
  Li  Li0  1  0.134010  0.918979  0.429877  1
  Li  Li1  1  0.634010  0.081021  0.070123  1
  Li  Li2  1  0.865990  0.081021  0.570123  1
  Li  Li3  1  0.365990  0.918979  0.929877  1
  Dy  Dy4  1  0.116098  0.445434  0.847638  1
  Dy  Dy5  1  0.883902  0.554566  0.152362  1
  Dy  Dy6  1  0.616098  0.554566  0.652362  1
  Dy  Dy7  1  0.383902  0.445434  0.347638  1
  Si  Si8  1  0.651970  0.904371  0.359092  1
  Si  Si9  1  0.348030  0.095629  0.640908  1
  Si  Si10  1  0.151970  0.095629  0.140908  1
  Si  Si11  1  0.848030  0.904371  0.859092  1
  O  O12  1  0.858607  0.231238  0.775932  1
  O  O13  1  0.641393  0.231238  0.275932  1
  O  O14  1  0.163802  0.185420  0.523923  1
  O  O15  1  0.837257  0.757755  0.752718  1
  O  O16  1  0.141393  0.768762  0.224068  1
  O  O17  1  0.570690  0.226694  0.555159  1
  O  O18  1  0.662743  0.757755  0.252718  1
  O  O19  1  0.429310  0.773306  0.444841  1
  O  O20  1  0.070690  0.773306  0.944841  1
  O  O21  1  0.663802  0.814580  0.976077  1
  O  O22  1  0.162743  0.242245  0.247282  1
  O  O23  1  0.929310  0.226694  0.055159  1
  O  O24  1  0.336198  0.185420  0.023923  1
  O  O25  1  0.337257  0.242245  0.747282  1
  O  O26  1  0.358607  0.768762  0.724068  1
  O  O27  1  0.836198  0.814580  0.476077  1
