# generated using pymatgen
data_KNi9Sb2As3
_symmetry_space_group_name_H-M   'P 1'
_cell_length_a   6.90479700
_cell_length_b   6.90479622
_cell_length_c   11.69022000
_cell_angle_alpha   90.00000000
_cell_angle_beta   90.00000000
_cell_angle_gamma   119.99999894
_symmetry_Int_Tables_number   1
_chemical_formula_structural   KNi9Sb2As3
_chemical_formula_sum   'K2 Ni18 Sb4 As6'
_cell_volume   482.67532925
_cell_formula_units_Z   2
loop_
 _symmetry_equiv_pos_site_id
 _symmetry_equiv_pos_as_xyz
  1  'x, y, z'
loop_
 _atom_site_type_symbol
 _atom_site_label
 _atom_site_symmetry_multiplicity
 _atom_site_fract_x
 _atom_site_fract_y
 _atom_site_fract_z
 _atom_site_occupancy
  K  K0  1  0.000000  0.000000  0.000000  1
  K  K1  1  0.000000  0.000000  0.500000  1
  Ni  Ni2  1  0.539793  0.460207  0.116694  1
  Ni  Ni3  1  0.079586  0.539793  0.616694  1
  Ni  Ni4  1  0.460207  0.920414  0.616694  1
  Ni  Ni5  1  0.539793  0.079586  0.116694  1
  Ni  Ni6  1  0.920414  0.460207  0.116694  1
  Ni  Ni7  1  0.079586  0.539793  0.883306  1
  Ni  Ni8  1  0.460207  0.920414  0.883306  1
  Ni  Ni9  1  0.460207  0.539793  0.616694  1
  Ni  Ni10  1  0.460207  0.539793  0.883306  1
  Ni  Ni11  1  0.539793  0.460207  0.383306  1
  Ni  Ni12  1  0.920414  0.460207  0.383306  1
  Ni  Ni13  1  0.539793  0.079586  0.383306  1
  Ni  Ni14  1  0.206827  0.793173  0.250000  1
  Ni  Ni15  1  0.413654  0.206827  0.750000  1
  Ni  Ni16  1  0.793173  0.586346  0.750000  1
  Ni  Ni17  1  0.206827  0.413654  0.250000  1
  Ni  Ni18  1  0.586346  0.793173  0.250000  1
  Ni  Ni19  1  0.793173  0.206827  0.750000  1
  Sb  Sb20  1  0.333333  0.666667  0.060515  1
  Sb  Sb21  1  0.666667  0.333333  0.560515  1
  Sb  Sb22  1  0.666667  0.333333  0.939485  1
  Sb  Sb23  1  0.333333  0.666667  0.439485  1
  As  As24  1  0.830658  0.169342  0.250000  1
  As  As25  1  0.661316  0.830658  0.750000  1
  As  As26  1  0.169342  0.338684  0.750000  1
  As  As27  1  0.830658  0.661316  0.250000  1
  As  As28  1  0.338684  0.169342  0.250000  1
  As  As29  1  0.169342  0.830658  0.750000  1
