# generated using pymatgen
data_Yb2GaClO3
_symmetry_space_group_name_H-M   'P 1'
_cell_length_a   3.76927000
_cell_length_b   3.76927000
_cell_length_c   13.72739100
_cell_angle_alpha   90.00000000
_cell_angle_beta   90.00000000
_cell_angle_gamma   90.00000000
_symmetry_Int_Tables_number   1
_chemical_formula_structural   Yb2GaClO3
_chemical_formula_sum   'Yb4 Ga2 Cl2 O6'
_cell_volume   195.03048455
_cell_formula_units_Z   2
loop_
 _symmetry_equiv_pos_site_id
 _symmetry_equiv_pos_as_xyz
  1  'x, y, z'
loop_
 _atom_site_type_symbol
 _atom_site_label
 _atom_site_symmetry_multiplicity
 _atom_site_fract_x
 _atom_site_fract_y
 _atom_site_fract_z
 _atom_site_occupancy
  Yb  Yb0  1  0.500000  0.000000  0.093683  1
  Yb  Yb1  1  0.500000  0.000000  0.335846  1
  Yb  Yb2  1  0.000000  0.500000  0.664154  1
  Yb  Yb3  1  0.000000  0.500000  0.906317  1
  Ga  Ga4  1  0.000000  0.500000  0.203093  1
  Ga  Ga5  1  0.500000  0.000000  0.796907  1
  Cl  Cl6  1  0.000000  0.500000  0.419365  1
  Cl  Cl7  1  0.500000  0.000000  0.580635  1
  O  O8  1  0.000000  0.500000  0.066531  1
  O  O9  1  0.000000  0.000000  0.230224  1
  O  O10  1  0.500000  0.500000  0.230224  1
  O  O11  1  0.000000  0.000000  0.769776  1
  O  O12  1  0.500000  0.500000  0.769776  1
  O  O13  1  0.500000  0.000000  0.933468  1
