# generated using pymatgen
data_DyY2Tm5(CdPt)2
_symmetry_space_group_name_H-M   'P 1'
_cell_length_a   9.60396554
_cell_length_b   9.60476759
_cell_length_c   9.60476603
_cell_angle_alpha   59.99448548
_cell_angle_beta   60.00276044
_cell_angle_gamma   60.00275852
_symmetry_Int_Tables_number   1
_chemical_formula_structural   DyY2Tm5(CdPt)2
_chemical_formula_sum   'Dy2 Y4 Tm10 Cd4 Pt4'
_cell_volume   626.48294783
_cell_formula_units_Z   2
loop_
 _symmetry_equiv_pos_site_id
 _symmetry_equiv_pos_as_xyz
  1  'x, y, z'
loop_
 _atom_site_type_symbol
 _atom_site_label
 _atom_site_symmetry_multiplicity
 _atom_site_fract_x
 _atom_site_fract_y
 _atom_site_fract_z
 _atom_site_occupancy
  Dy  Dy0  1  0.937162  0.562838  0.562838  1
  Dy  Dy1  1  0.562838  0.937162  0.937162  1
  Y  Y2  1  0.562940  0.937060  0.562940  1
  Y  Y3  1  0.937060  0.562940  0.937060  1
  Y  Y4  1  0.562940  0.562940  0.937060  1
  Y  Y5  1  0.937060  0.937060  0.562940  1
  Tm  Tm6  1  0.351982  0.352091  0.352091  1
  Tm  Tm7  1  0.352091  0.351982  0.943834  1
  Tm  Tm8  1  0.352091  0.943834  0.351982  1
  Tm  Tm9  1  0.943834  0.352091  0.352091  1
  Tm  Tm10  1  0.811397  0.188603  0.188603  1
  Tm  Tm11  1  0.188603  0.811397  0.811397  1
  Tm  Tm12  1  0.188615  0.811385  0.188615  1
  Tm  Tm13  1  0.811385  0.188615  0.811385  1
  Tm  Tm14  1  0.188615  0.188615  0.811385  1
  Tm  Tm15  1  0.811385  0.811385  0.188615  1
  Cd  Cd16  1  0.581430  0.581431  0.581431  1
  Cd  Cd17  1  0.581431  0.581430  0.255709  1
  Cd  Cd18  1  0.581431  0.255709  0.581430  1
  Cd  Cd19  1  0.255709  0.581431  0.581431  1
  Pt  Pt20  1  0.143263  0.143218  0.143218  1
  Pt  Pt21  1  0.143218  0.143263  0.570302  1
  Pt  Pt22  1  0.143218  0.570302  0.143263  1
  Pt  Pt23  1  0.570302  0.143218  0.143218  1
