# generated using pymatgen
data_Dy16Er4Si15As
_symmetry_space_group_name_H-M   'P 1'
_cell_length_a   7.50250487
_cell_length_b   7.63649566
_cell_length_c   14.62933318
_cell_angle_alpha   89.89093779
_cell_angle_beta   85.60224669
_cell_angle_gamma   89.95736376
_symmetry_Int_Tables_number   1
_chemical_formula_structural   Dy16Er4Si15As
_chemical_formula_sum   'Dy16 Er4 Si15 As1'
_cell_volume   835.68673304
_cell_formula_units_Z   1
loop_
 _symmetry_equiv_pos_site_id
 _symmetry_equiv_pos_as_xyz
  1  'x, y, z'
loop_
 _atom_site_type_symbol
 _atom_site_label
 _atom_site_symmetry_multiplicity
 _atom_site_fract_x
 _atom_site_fract_y
 _atom_site_fract_z
 _atom_site_occupancy
  Dy  Dy0  1  0.010717  0.823118  0.102828  1
  Dy  Dy1  1  0.472417  0.685558  0.397701  1
  Dy  Dy2  1  0.488070  0.319682  0.897707  1
  Dy  Dy3  1  0.027914  0.186094  0.603103  1
  Dy  Dy4  1  0.992535  0.178683  0.898030  1
  Dy  Dy5  1  0.526601  0.314067  0.602123  1
  Dy  Dy6  1  0.506325  0.681667  0.102641  1
  Dy  Dy7  1  0.972126  0.812833  0.397364  1
  Dy  Dy8  1  0.639154  0.838212  0.881337  1
  Dy  Dy9  1  0.174679  0.677386  0.622253  1
  Dy  Dy10  1  0.861372  0.335799  0.117640  1
  Dy  Dy11  1  0.325208  0.176269  0.378178  1
  Dy  Dy12  1  0.360090  0.163188  0.118610  1
  Dy  Dy13  1  0.825346  0.322355  0.378329  1
  Dy  Dy14  1  0.140686  0.665089  0.882312  1
  Dy  Dy15  1  0.675114  0.823777  0.622253  1
  Er  Er16  1  0.672737  0.995162  0.245538  1
  Er  Er17  1  0.171512  0.503491  0.245429  1
  Er  Er18  1  0.828440  0.495970  0.751418  1
  Er  Er19  1  0.327363  0.004889  0.753919  1
  Si  Si20  1  0.785565  0.627941  0.251717  1
  Si  Si21  1  0.285921  0.870223  0.252121  1
  Si  Si22  1  0.712966  0.130682  0.748509  1
  Si  Si23  1  0.213190  0.371513  0.748665  1
  Si  Si24  1  0.045542  0.109125  0.251911  1
  Si  Si25  1  0.545915  0.390341  0.251283  1
  Si  Si26  1  0.454763  0.609517  0.749272  1
  Si  Si27  1  0.954295  0.891344  0.749196  1
  Si  Si28  1  0.357060  0.972344  0.542885  1
  Si  Si29  1  0.710687  0.031822  0.043471  1
  Si  Si30  1  0.144073  0.471216  0.458142  1
  Si  Si31  1  0.214063  0.468063  0.043780  1
  Si  Si32  1  0.643426  0.026724  0.457190  1
  Si  Si33  1  0.291290  0.968360  0.955693  1
  Si  Si34  1  0.856515  0.527315  0.542742  1
  As  As35  1  0.786323  0.530186  0.954711  1
