# generated using pymatgen
data_Th2Mn14(SiC)3
_symmetry_space_group_name_H-M   'P 1'
_cell_length_a   6.58445298
_cell_length_b   6.58445412
_cell_length_c   6.58445400
_cell_angle_alpha   82.92087176
_cell_angle_beta   82.92087053
_cell_angle_gamma   82.92087087
_symmetry_Int_Tables_number   1
_chemical_formula_structural   Th2Mn14(SiC)3
_chemical_formula_sum   'Th2 Mn14 Si3 C3'
_cell_volume   279.43617649
_cell_formula_units_Z   1
loop_
 _symmetry_equiv_pos_site_id
 _symmetry_equiv_pos_as_xyz
  1  'x, y, z'
loop_
 _atom_site_type_symbol
 _atom_site_label
 _atom_site_symmetry_multiplicity
 _atom_site_fract_x
 _atom_site_fract_y
 _atom_site_fract_z
 _atom_site_occupancy
  Th  Th0  1  0.650578  0.650578  0.650578  1
  Th  Th1  1  0.349422  0.349422  0.349422  1
  Mn  Mn2  1  0.718862  0.281138  0.000000  1
  Mn  Mn3  1  0.000000  0.718862  0.281138  1
  Mn  Mn4  1  0.281138  0.000000  0.718862  1
  Mn  Mn5  1  0.000000  0.281138  0.718862  1
  Mn  Mn6  1  0.718862  0.000000  0.281138  1
  Mn  Mn7  1  0.281138  0.718862  0.000000  1
  Mn  Mn8  1  0.340075  0.340075  0.863815  1
  Mn  Mn9  1  0.863815  0.340075  0.340075  1
  Mn  Mn10  1  0.340075  0.863815  0.340075  1
  Mn  Mn11  1  0.659925  0.659925  0.136185  1
  Mn  Mn12  1  0.136185  0.659925  0.659925  1
  Mn  Mn13  1  0.659925  0.136185  0.659925  1
  Mn  Mn14  1  0.907020  0.907020  0.907020  1
  Mn  Mn15  1  0.092980  0.092980  0.092980  1
  Si  Si16  1  0.000000  0.000000  0.500000  1
  Si  Si17  1  0.500000  0.000000  0.000000  1
  Si  Si18  1  0.000000  0.500000  0.000000  1
  C  C19  1  0.500000  0.500000  0.000000  1
  C  C20  1  0.000000  0.500000  0.500000  1
  C  C21  1  0.500000  0.000000  0.500000  1
