# generated using pymatgen
data_Ho5Er6TmOs4
_symmetry_space_group_name_H-M   'P 1'
_cell_length_a   7.38295438
_cell_length_b   8.96518324
_cell_length_c   6.27655339
_cell_angle_alpha   89.97177965
_cell_angle_beta   89.95718761
_cell_angle_gamma   89.98963544
_symmetry_Int_Tables_number   1
_chemical_formula_structural   Ho5Er6TmOs4
_chemical_formula_sum   'Ho5 Er6 Tm1 Os4'
_cell_volume   415.44200148
_cell_formula_units_Z   1
loop_
 _symmetry_equiv_pos_site_id
 _symmetry_equiv_pos_as_xyz
  1  'x, y, z'
loop_
 _atom_site_type_symbol
 _atom_site_label
 _atom_site_symmetry_multiplicity
 _atom_site_fract_x
 _atom_site_fract_y
 _atom_site_fract_z
 _atom_site_occupancy
  Ho  Ho0  1  0.039959  0.250353  0.630484  1
  Ho  Ho1  1  0.959947  0.749691  0.369971  1
  Ho  Ho2  1  0.460064  0.749622  0.129998  1
  Ho  Ho3  1  0.540052  0.250235  0.869544  1
  Ho  Ho4  1  0.174846  0.062704  0.167006  1
  Er  Er5  1  0.825118  0.937051  0.832803  1
  Er  Er6  1  0.325423  0.936871  0.666910  1
  Er  Er7  1  0.825268  0.562753  0.832982  1
  Er  Er8  1  0.674633  0.062774  0.333196  1
  Er  Er9  1  0.174664  0.437614  0.166941  1
  Er  Er10  1  0.674613  0.437295  0.333197  1
  Tm  Tm11  1  0.325514  0.562873  0.666899  1
  Os  Os12  1  0.382981  0.250502  0.460382  1
  Os  Os13  1  0.617041  0.749992  0.540283  1
  Os  Os14  1  0.117353  0.749409  0.959332  1
  Os  Os15  1  0.882523  0.250261  0.040074  1
