# generated using pymatgen
data_Li2DyY(Co4P3)2
_symmetry_space_group_name_H-M   'P 1'
_cell_length_a   3.70106500
_cell_length_b   10.27533403
_cell_length_c   11.93326403
_cell_angle_alpha   90.00859495
_cell_angle_beta   90.00000000
_cell_angle_gamma   90.00000000
_symmetry_Int_Tables_number   1
_chemical_formula_structural   Li2DyY(Co4P3)2
_chemical_formula_sum   'Li4 Dy2 Y2 Co16 P12'
_cell_volume   453.81819716
_cell_formula_units_Z   2
loop_
 _symmetry_equiv_pos_site_id
 _symmetry_equiv_pos_as_xyz
  1  'x, y, z'
loop_
 _atom_site_type_symbol
 _atom_site_label
 _atom_site_symmetry_multiplicity
 _atom_site_fract_x
 _atom_site_fract_y
 _atom_site_fract_z
 _atom_site_occupancy
  Li  Li0  1  0.250000  0.797499  0.492473  1
  Li  Li1  1  0.750000  0.202501  0.507527  1
  Li  Li2  1  0.750000  0.297357  0.007264  1
  Li  Li3  1  0.250000  0.702643  0.992736  1
  Dy  Dy4  1  0.250000  0.921316  0.202111  1
  Dy  Dy5  1  0.750000  0.078684  0.797889  1
  Y  Y6  1  0.750000  0.421480  0.297845  1
  Y  Y7  1  0.250000  0.578520  0.702155  1
  Co  Co8  1  0.250000  0.094097  0.985098  1
  Co  Co9  1  0.750000  0.905903  0.014902  1
  Co  Co10  1  0.750000  0.594243  0.514481  1
  Co  Co11  1  0.250000  0.405757  0.485519  1
  Co  Co12  1  0.250000  0.277938  0.672886  1
  Co  Co13  1  0.750000  0.722062  0.327114  1
  Co  Co14  1  0.750000  0.778095  0.827242  1
  Co  Co15  1  0.250000  0.221905  0.172758  1
  Co  Co16  1  0.250000  0.621582  0.199717  1
  Co  Co17  1  0.750000  0.378418  0.800283  1
  Co  Co18  1  0.750000  0.121213  0.300184  1
  Co  Co19  1  0.250000  0.878787  0.699816  1
  Co  Co20  1  0.250000  0.034482  0.432700  1
  Co  Co21  1  0.750000  0.965518  0.567300  1
  Co  Co22  1  0.750000  0.534798  0.067293  1
  Co  Co23  1  0.250000  0.465202  0.932707  1
  P  P24  1  0.250000  0.074958  0.614908  1
  P  P25  1  0.750000  0.925042  0.385092  1
  P  P26  1  0.750000  0.574867  0.885208  1
  P  P27  1  0.250000  0.425133  0.114792  1
  P  P28  1  0.250000  0.229922  0.359738  1
  P  P29  1  0.750000  0.770078  0.640262  1
  P  P30  1  0.750000  0.730245  0.140481  1
  P  P31  1  0.250000  0.269755  0.859519  1
  P  P32  1  0.250000  0.898004  0.893170  1
  P  P33  1  0.750000  0.101996  0.106830  1
  P  P34  1  0.750000  0.397714  0.606748  1
  P  P35  1  0.250000  0.602286  0.393252  1
