# generated using pymatgen
data_Nb9Ga2Si4Mo
_symmetry_space_group_name_H-M   'P 1'
_cell_length_a   7.57730731
_cell_length_b   7.57730728
_cell_length_c   7.57730800
_cell_angle_alpha   128.49607073
_cell_angle_beta   128.49607051
_cell_angle_gamma   75.82278057
_symmetry_Int_Tables_number   1
_chemical_formula_structural   Nb9Ga2Si4Mo
_chemical_formula_sum   'Nb9 Ga2 Si4 Mo1'
_cell_volume   259.17473264
_cell_formula_units_Z   1
loop_
 _symmetry_equiv_pos_site_id
 _symmetry_equiv_pos_as_xyz
  1  'x, y, z'
loop_
 _atom_site_type_symbol
 _atom_site_label
 _atom_site_symmetry_multiplicity
 _atom_site_fract_x
 _atom_site_fract_y
 _atom_site_fract_z
 _atom_site_occupancy
  Nb  Nb0  1  0.015819  0.186322  0.499334  1
  Nb  Nb1  1  0.686987  0.516484  0.500666  1
  Nb  Nb2  1  0.516484  0.015819  0.829498  1
  Nb  Nb3  1  0.186322  0.686987  0.170502  1
  Nb  Nb4  1  0.984181  0.813678  0.500666  1
  Nb  Nb5  1  0.313013  0.483516  0.499334  1
  Nb  Nb6  1  0.483516  0.984181  0.170502  1
  Nb  Nb7  1  0.813678  0.313013  0.829498  1
  Nb  Nb8  1  0.500000  0.500000  0.000000  1
  Ga  Ga9  1  0.749916  0.749916  0.000000  1
  Ga  Ga10  1  0.250084  0.250084  0.000000  1
  Si  Si11  1  0.366872  0.128431  0.495303  1
  Si  Si12  1  0.633128  0.871569  0.504697  1
  Si  Si13  1  0.871569  0.366872  0.238441  1
  Si  Si14  1  0.128431  0.633128  0.761559  1
  Mo  Mo15  1  0.000000  0.000000  0.000000  1
