# generated using pymatgen
data_Pr4Ga4CuRu3
_symmetry_space_group_name_H-M   'P 1'
_cell_length_a   4.64635600
_cell_length_b   7.41629895
_cell_length_c   7.22414258
_cell_angle_alpha   89.30824913
_cell_angle_beta   90.00000000
_cell_angle_gamma   90.00000000
_symmetry_Int_Tables_number   1
_chemical_formula_structural   Pr4Ga4CuRu3
_chemical_formula_sum   'Pr4 Ga4 Cu1 Ru3'
_cell_volume   248.91688965
_cell_formula_units_Z   1
loop_
 _symmetry_equiv_pos_site_id
 _symmetry_equiv_pos_as_xyz
  1  'x, y, z'
loop_
 _atom_site_type_symbol
 _atom_site_label
 _atom_site_symmetry_multiplicity
 _atom_site_fract_x
 _atom_site_fract_y
 _atom_site_fract_z
 _atom_site_occupancy
  Pr  Pr0  1  0.250000  0.032078  0.806714  1
  Pr  Pr1  1  0.250000  0.528038  0.690136  1
  Pr  Pr2  1  0.750000  0.979743  0.195718  1
  Pr  Pr3  1  0.750000  0.469186  0.310052  1
  Ga  Ga4  1  0.250000  0.193125  0.397087  1
  Ga  Ga5  1  0.250000  0.686064  0.116909  1
  Ga  Ga6  1  0.750000  0.803697  0.597956  1
  Ga  Ga7  1  0.750000  0.309274  0.892997  1
  Cu  Cu8  1  0.750000  0.660926  0.929848  1
  Ru  Ru9  1  0.250000  0.844230  0.435901  1
  Ru  Ru10  1  0.250000  0.341554  0.060415  1
  Ru  Ru11  1  0.750000  0.152087  0.566266  1
