# generated using pymatgen
data_TmSc2Ni8Pt
_symmetry_space_group_name_H-M   'P 1'
_cell_length_a   4.84888912
_cell_length_b   4.84888963
_cell_length_c   8.64562721
_cell_angle_alpha   73.71446322
_cell_angle_beta   73.71447476
_cell_angle_gamma   59.99999157
_symmetry_Int_Tables_number   1
_chemical_formula_structural   TmSc2Ni8Pt
_chemical_formula_sum   'Tm1 Sc2 Ni8 Pt1'
_cell_volume   166.55568670
_cell_formula_units_Z   1
loop_
 _symmetry_equiv_pos_site_id
 _symmetry_equiv_pos_as_xyz
  1  'x, y, z'
loop_
 _atom_site_type_symbol
 _atom_site_label
 _atom_site_symmetry_multiplicity
 _atom_site_fract_x
 _atom_site_fract_y
 _atom_site_fract_z
 _atom_site_occupancy
  Tm  Tm0  1  0.000000  0.000000  0.000000  1
  Sc  Sc1  1  0.138182  0.138182  0.585455  1
  Sc  Sc2  1  0.861818  0.861818  0.414545  1
  Ni  Ni3  1  0.076297  0.583817  0.756069  1
  Ni  Ni4  1  0.583817  0.583817  0.756069  1
  Ni  Ni5  1  0.583817  0.076297  0.756069  1
  Ni  Ni6  1  0.923703  0.416183  0.243931  1
  Ni  Ni7  1  0.416183  0.416183  0.243931  1
  Ni  Ni8  1  0.416183  0.923703  0.243931  1
  Ni  Ni9  1  0.333564  0.333564  0.999310  1
  Ni  Ni10  1  0.666436  0.666436  0.000690  1
  Pt  Pt11  1  0.500000  0.500000  0.500000  1
