# generated using pymatgen
data_SrNd2Lu(Ir2O7)2
_symmetry_space_group_name_H-M   'P 1'
_cell_length_a   7.33829397
_cell_length_b   7.32142432
_cell_length_c   7.33829571
_cell_angle_alpha   60.15910376
_cell_angle_beta   60.43593650
_cell_angle_gamma   60.15910065
_symmetry_Int_Tables_number   1
_chemical_formula_structural   SrNd2Lu(Ir2O7)2
_chemical_formula_sum   'Sr1 Nd2 Lu1 Ir4 O14'
_cell_volume   280.36799926
_cell_formula_units_Z   1
loop_
 _symmetry_equiv_pos_site_id
 _symmetry_equiv_pos_as_xyz
  1  'x, y, z'
loop_
 _atom_site_type_symbol
 _atom_site_label
 _atom_site_symmetry_multiplicity
 _atom_site_fract_x
 _atom_site_fract_y
 _atom_site_fract_z
 _atom_site_occupancy
  Sr  Sr0  1  0.125000  0.625000  0.125000  1
  Nd  Nd1  1  0.625000  0.125000  0.125000  1
  Nd  Nd2  1  0.125000  0.125000  0.625000  1
  Lu  Lu3  1  0.125000  0.125000  0.125000  1
  Ir  Ir4  1  0.125000  0.625000  0.625000  1
  Ir  Ir5  1  0.625000  0.125000  0.625000  1
  Ir  Ir6  1  0.625000  0.625000  0.125000  1
  Ir  Ir7  1  0.625000  0.625000  0.625000  1
  O  O8  1  0.697766  0.709570  0.295705  1
  O  O9  1  0.294430  0.292703  0.717802  1
  O  O10  1  0.706997  0.291319  0.706997  1
  O  O11  1  0.295589  0.723323  0.295589  1
  O  O12  1  0.295705  0.709570  0.697766  1
  O  O13  1  0.717802  0.292703  0.294430  1
  O  O14  1  0.552234  0.540430  0.954295  1
  O  O15  1  0.955570  0.957297  0.532198  1
  O  O16  1  0.543003  0.958681  0.543003  1
  O  O17  1  0.954411  0.526677  0.954411  1
  O  O18  1  0.954295  0.540430  0.552234  1
  O  O19  1  0.532198  0.957297  0.955570  1
  O  O20  1  0.248219  0.231752  0.248219  1
  O  O21  1  0.001781  0.018248  0.001781  1
