# generated using pymatgen
data_SrLi4Eu3Pd4
_symmetry_space_group_name_H-M   'P 1'
_cell_length_a   4.40233900
_cell_length_b   7.39672009
_cell_length_c   8.38774485
_cell_angle_alpha   90.39724874
_cell_angle_beta   90.00000000
_cell_angle_gamma   90.00000000
_symmetry_Int_Tables_number   1
_chemical_formula_structural   SrLi4Eu3Pd4
_chemical_formula_sum   'Sr1 Li4 Eu3 Pd4'
_cell_volume   273.12247463
_cell_formula_units_Z   1
loop_
 _symmetry_equiv_pos_site_id
 _symmetry_equiv_pos_as_xyz
  1  'x, y, z'
loop_
 _atom_site_type_symbol
 _atom_site_label
 _atom_site_symmetry_multiplicity
 _atom_site_fract_x
 _atom_site_fract_y
 _atom_site_fract_z
 _atom_site_occupancy
  Sr  Sr0  1  0.250000  0.017376  0.313583  1
  Li  Li1  1  0.250000  0.638395  0.565707  1
  Li  Li2  1  0.250000  0.147517  0.933503  1
  Li  Li3  1  0.750000  0.358466  0.441239  1
  Li  Li4  1  0.750000  0.853425  0.059688  1
  Eu  Eu5  1  0.250000  0.518552  0.182622  1
  Eu  Eu6  1  0.750000  0.984021  0.691151  1
  Eu  Eu7  1  0.750000  0.486277  0.811224  1
  Pd  Pd8  1  0.250000  0.269930  0.618494  1
  Pd  Pd9  1  0.250000  0.766849  0.888810  1
  Pd  Pd10  1  0.750000  0.716623  0.399646  1
  Pd  Pd11  1  0.750000  0.242569  0.094333  1
