# generated using pymatgen
data_PrPt2Au3
_symmetry_space_group_name_H-M   'P 1'
_cell_length_a   5.50757401
_cell_length_b   5.50757429
_cell_length_c   5.50757403
_cell_angle_alpha   119.95156755
_cell_angle_beta   119.35893793
_cell_angle_gamma   90.59892375
_symmetry_Int_Tables_number   1
_chemical_formula_structural   PrPt2Au3
_chemical_formula_sum   'Pr1 Pt2 Au3'
_cell_volume   118.73621197
_cell_formula_units_Z   1
loop_
 _symmetry_equiv_pos_site_id
 _symmetry_equiv_pos_as_xyz
  1  'x, y, z'
loop_
 _atom_site_type_symbol
 _atom_site_label
 _atom_site_symmetry_multiplicity
 _atom_site_fract_x
 _atom_site_fract_y
 _atom_site_fract_z
 _atom_site_occupancy
  Pr  Pr0  1  0.006384  0.006384  0.000000  1
  Pt  Pt1  1  0.125215  0.374172  0.751042  1
  Pt  Pt2  1  0.623130  0.374172  0.248958  1
  Au  Au3  1  0.623133  0.871988  0.248856  1
  Au  Au4  1  0.623133  0.374277  0.751144  1
  Au  Au5  1  0.249006  0.749006  0.500000  1
