# generated using pymatgen
data_Sm5Zr3(As3Pd4)4
_symmetry_space_group_name_H-M   'P 1'
_cell_length_a   13.57722600
_cell_length_b   13.57722596
_cell_length_c   4.14496600
_cell_angle_alpha   90.00000000
_cell_angle_beta   90.00000000
_cell_angle_gamma   120.00000498
_symmetry_Int_Tables_number   1
_chemical_formula_structural   Sm5Zr3(As3Pd4)4
_chemical_formula_sum   'Sm5 Zr3 As12 Pd16'
_cell_volume   661.71910734
_cell_formula_units_Z   1
loop_
 _symmetry_equiv_pos_site_id
 _symmetry_equiv_pos_as_xyz
  1  'x, y, z'
loop_
 _atom_site_type_symbol
 _atom_site_label
 _atom_site_symmetry_multiplicity
 _atom_site_fract_x
 _atom_site_fract_y
 _atom_site_fract_z
 _atom_site_occupancy
  Sm  Sm0  1  0.190019  0.190019  0.500000  1
  Sm  Sm1  1  0.809981  0.000000  0.500000  1
  Sm  Sm2  1  0.000000  0.809981  0.500000  1
  Sm  Sm3  1  0.333333  0.666667  0.000000  1
  Sm  Sm4  1  0.666667  0.333333  0.000000  1
  Zr  Zr5  1  0.557787  0.557787  0.000000  1
  Zr  Zr6  1  0.442213  0.000000  0.000000  1
  Zr  Zr7  1  0.000000  0.442213  0.000000  1
  As  As8  1  0.825214  0.825214  0.000000  1
  As  As9  1  0.174786  0.000000  0.000000  1
  As  As10  1  0.000000  0.174786  0.000000  1
  As  As11  1  0.166372  0.482307  0.500000  1
  As  As12  1  0.517693  0.684065  0.500000  1
  As  As13  1  0.315935  0.833628  0.500000  1
  As  As14  1  0.684065  0.517693  0.500000  1
  As  As15  1  0.833628  0.315935  0.500000  1
  As  As16  1  0.482307  0.166372  0.500000  1
  As  As17  1  0.359900  0.359900  0.000000  1
  As  As18  1  0.640100  0.000000  0.000000  1
  As  As19  1  0.000000  0.640100  0.000000  1
  Pd  Pd20  1  0.721795  0.721795  0.500000  1
  Pd  Pd21  1  0.278205  0.000000  0.500000  1
  Pd  Pd22  1  0.000000  0.278205  0.500000  1
  Pd  Pd23  1  0.181340  0.373348  0.000000  1
  Pd  Pd24  1  0.626652  0.807992  0.000000  1
  Pd  Pd25  1  0.192008  0.818660  0.000000  1
  Pd  Pd26  1  0.807992  0.626652  0.000000  1
  Pd  Pd27  1  0.818660  0.192008  0.000000  1
  Pd  Pd28  1  0.373348  0.181340  0.000000  1
  Pd  Pd29  1  0.357625  0.484324  0.500000  1
  Pd  Pd30  1  0.515676  0.873301  0.500000  1
  Pd  Pd31  1  0.126699  0.642375  0.500000  1
  Pd  Pd32  1  0.873301  0.515676  0.500000  1
  Pd  Pd33  1  0.642375  0.126699  0.500000  1
  Pd  Pd34  1  0.484324  0.357625  0.500000  1
  Pd  Pd35  1  0.000000  0.000000  0.000000  1
