# generated using pymatgen
data_Li2B2IrRh2
_symmetry_space_group_name_H-M   'P 1'
_cell_length_a   2.85705300
_cell_length_b   5.80884500
_cell_length_c   9.53528000
_cell_angle_alpha   90.00000000
_cell_angle_beta   90.00000000
_cell_angle_gamma   90.00000000
_symmetry_Int_Tables_number   1
_chemical_formula_structural   Li2B2IrRh2
_chemical_formula_sum   'Li4 B4 Ir2 Rh4'
_cell_volume   158.24920448
_cell_formula_units_Z   2
loop_
 _symmetry_equiv_pos_site_id
 _symmetry_equiv_pos_as_xyz
  1  'x, y, z'
loop_
 _atom_site_type_symbol
 _atom_site_label
 _atom_site_symmetry_multiplicity
 _atom_site_fract_x
 _atom_site_fract_y
 _atom_site_fract_z
 _atom_site_occupancy
  Li  Li0  1  0.500000  0.339370  0.072187  1
  Li  Li1  1  0.500000  0.661092  0.925996  1
  Li  Li2  1  0.500000  0.160630  0.572187  1
  Li  Li3  1  0.500000  0.838908  0.425996  1
  B  B4  1  0.500000  0.064653  0.830838  1
  B  B5  1  0.500000  0.561078  0.669348  1
  B  B6  1  0.500000  0.435347  0.330838  1
  B  B7  1  0.500000  0.938922  0.169348  1
  Ir  Ir8  1  0.000000  0.335975  0.780371  1
  Ir  Ir9  1  0.000000  0.164025  0.280371  1
  Rh  Rh10  1  0.000000  0.500404  0.499700  1
  Rh  Rh11  1  0.000000  0.666189  0.221560  1
  Rh  Rh12  1  0.000000  0.833811  0.721560  1
  Rh  Rh13  1  0.000000  0.999596  0.999700  1
