# generated using pymatgen
data_Ca6Tb2Zn3Si12Pd
_symmetry_space_group_name_H-M   'P 1'
_cell_length_a   8.19928000
_cell_length_b   8.19927933
_cell_length_c   8.41700600
_cell_angle_alpha   90.00000000
_cell_angle_beta   90.00000000
_cell_angle_gamma   120.00000270
_symmetry_Int_Tables_number   1
_chemical_formula_structural   Ca6Tb2Zn3Si12Pd
_chemical_formula_sum   'Ca6 Tb2 Zn3 Si12 Pd1'
_cell_volume   490.04916808
_cell_formula_units_Z   1
loop_
 _symmetry_equiv_pos_site_id
 _symmetry_equiv_pos_as_xyz
  1  'x, y, z'
loop_
 _atom_site_type_symbol
 _atom_site_label
 _atom_site_symmetry_multiplicity
 _atom_site_fract_x
 _atom_site_fract_y
 _atom_site_fract_z
 _atom_site_occupancy
  Ca  Ca0  1  0.499591  0.999181  0.253350  1
  Ca  Ca1  1  0.498222  0.996446  0.746518  1
  Ca  Ca2  1  0.000819  0.500409  0.253350  1
  Ca  Ca3  1  0.003554  0.501778  0.746518  1
  Ca  Ca4  1  0.499591  0.500409  0.253350  1
  Ca  Ca5  1  0.498222  0.501778  0.746518  1
  Tb  Tb6  1  0.000000  0.000000  0.251883  1
  Tb  Tb7  1  0.000000  0.000000  0.748389  1
  Zn  Zn8  1  0.333333  0.666667  0.005088  1
  Zn  Zn9  1  0.666667  0.333333  0.995646  1
  Zn  Zn10  1  0.666667  0.333333  0.501306  1
  Si  Si11  1  0.164675  0.329352  0.997985  1
  Si  Si12  1  0.836055  0.672110  0.001973  1
  Si  Si13  1  0.670648  0.835325  0.997985  1
  Si  Si14  1  0.838752  0.677504  0.501391  1
  Si  Si15  1  0.327890  0.163945  0.001973  1
  Si  Si16  1  0.166562  0.333122  0.498593  1
  Si  Si17  1  0.164675  0.835325  0.997985  1
  Si  Si18  1  0.322496  0.161248  0.501391  1
  Si  Si19  1  0.836055  0.163945  0.001973  1
  Si  Si20  1  0.666878  0.833438  0.498593  1
  Si  Si21  1  0.838752  0.161248  0.501391  1
  Si  Si22  1  0.166562  0.833438  0.498593  1
  Pd  Pd23  1  0.333333  0.666667  0.498256  1
