# generated using pymatgen
data_Tb5HoCoTe2
_symmetry_space_group_name_H-M   'P 1'
_cell_length_a   8.37129116
_cell_length_b   8.37197453
_cell_length_c   3.92494800
_cell_angle_alpha   90.00000000
_cell_angle_beta   90.00000000
_cell_angle_gamma   119.81022711
_symmetry_Int_Tables_number   1
_chemical_formula_structural   Tb5HoCoTe2
_chemical_formula_sum   'Tb5 Ho1 Co1 Te2'
_cell_volume   238.67789773
_cell_formula_units_Z   1
loop_
 _symmetry_equiv_pos_site_id
 _symmetry_equiv_pos_as_xyz
  1  'x, y, z'
loop_
 _atom_site_type_symbol
 _atom_site_label
 _atom_site_symmetry_multiplicity
 _atom_site_fract_x
 _atom_site_fract_y
 _atom_site_fract_z
 _atom_site_occupancy
  Tb  Tb0  1  0.236764  0.000103  0.000000  1
  Tb  Tb1  1  0.000097  0.236748  0.000000  1
  Tb  Tb2  1  0.600018  0.000287  0.500000  1
  Tb  Tb3  1  0.000284  0.600006  0.500000  1
  Tb  Tb4  1  0.402015  0.402023  0.500000  1
  Ho  Ho5  1  0.763989  0.763988  0.000000  1
  Co  Co6  1  0.995733  0.995743  0.500000  1
  Te  Te7  1  0.334587  0.666517  0.000000  1
  Te  Te8  1  0.666511  0.334584  0.000000  1
