# generated using pymatgen
data_Nd6OsO12
_symmetry_space_group_name_H-M   'P 1'
_cell_length_a   6.72608542
_cell_length_b   6.72608568
_cell_length_c   6.72608533
_cell_angle_alpha   98.52836824
_cell_angle_beta   98.52837587
_cell_angle_gamma   98.52836566
_symmetry_Int_Tables_number   1
_chemical_formula_structural   Nd6OsO12
_chemical_formula_sum   'Nd6 Os1 O12'
_cell_volume   293.05147247
_cell_formula_units_Z   1
loop_
 _symmetry_equiv_pos_site_id
 _symmetry_equiv_pos_as_xyz
  1  'x, y, z'
loop_
 _atom_site_type_symbol
 _atom_site_label
 _atom_site_symmetry_multiplicity
 _atom_site_fract_x
 _atom_site_fract_y
 _atom_site_fract_z
 _atom_site_occupancy
  Nd  Nd0  1  0.144376  0.309025  0.610755  1
  Nd  Nd1  1  0.389245  0.855624  0.690975  1
  Nd  Nd2  1  0.690975  0.389245  0.855624  1
  Nd  Nd3  1  0.309025  0.610755  0.144376  1
  Nd  Nd4  1  0.610755  0.144376  0.309025  1
  Nd  Nd5  1  0.855624  0.690975  0.389245  1
  Os  Os6  1  0.000000  0.000000  0.000000  1
  O  O7  1  0.068095  0.287782  0.967261  1
  O  O8  1  0.032739  0.931905  0.712218  1
  O  O9  1  0.407536  0.560062  0.822608  1
  O  O10  1  0.177392  0.592464  0.439938  1
  O  O11  1  0.712218  0.032739  0.931905  1
  O  O12  1  0.439938  0.177392  0.592464  1
  O  O13  1  0.560062  0.822608  0.407536  1
  O  O14  1  0.287782  0.967261  0.068095  1
  O  O15  1  0.822608  0.407536  0.560062  1
  O  O16  1  0.592464  0.439938  0.177392  1
  O  O17  1  0.967261  0.068095  0.287782  1
  O  O18  1  0.931905  0.712218  0.032739  1
