# generated using pymatgen
data_Tb8ReMo(OsC4)2
_symmetry_space_group_name_H-M   'P 1'
_cell_length_a   5.14754000
_cell_length_b   6.59004138
_cell_length_c   9.91544959
_cell_angle_alpha   90.27047011
_cell_angle_beta   90.00000000
_cell_angle_gamma   90.00000000
_symmetry_Int_Tables_number   1
_chemical_formula_structural   Tb8ReMo(OsC4)2
_chemical_formula_sum   'Tb8 Re1 Mo1 Os2 C8'
_cell_volume   336.35310676
_cell_formula_units_Z   1
loop_
 _symmetry_equiv_pos_site_id
 _symmetry_equiv_pos_as_xyz
  1  'x, y, z'
loop_
 _atom_site_type_symbol
 _atom_site_label
 _atom_site_symmetry_multiplicity
 _atom_site_fract_x
 _atom_site_fract_y
 _atom_site_fract_z
 _atom_site_occupancy
  Tb  Tb0  1  0.750000  0.819862  0.054523  1
  Tb  Tb1  1  0.250000  0.677967  0.555575  1
  Tb  Tb2  1  0.750000  0.318729  0.443929  1
  Tb  Tb3  1  0.250000  0.182192  0.943802  1
  Tb  Tb4  1  0.750000  0.468850  0.783385  1
  Tb  Tb5  1  0.250000  0.033322  0.281504  1
  Tb  Tb6  1  0.750000  0.968614  0.714289  1
  Tb  Tb7  1  0.250000  0.529774  0.214834  1
  Re  Re8  1  0.250000  0.724138  0.863404  1
  Mo  Mo9  1  0.750000  0.778027  0.365686  1
  Os  Os10  1  0.750000  0.276429  0.134712  1
  Os  Os11  1  0.250000  0.222942  0.636439  1
  C  C12  1  0.750000  0.177945  0.951922  1
  C  C13  1  0.250000  0.821160  0.048026  1
  C  C14  1  0.750000  0.676314  0.552282  1
  C  C15  1  0.250000  0.321018  0.454450  1
  C  C16  1  0.750000  0.046062  0.258110  1
  C  C17  1  0.250000  0.457108  0.760344  1
  C  C18  1  0.750000  0.540816  0.240136  1
  C  C19  1  0.250000  0.958728  0.742647  1
