# generated using pymatgen
data_Pr4Al11Ga13Ni2
_symmetry_space_group_name_H-M   'P 1'
_cell_length_a   6.04978628
_cell_length_b   6.04978627
_cell_length_c   15.90808800
_cell_angle_alpha   90.14835886
_cell_angle_beta   90.14835886
_cell_angle_gamma   89.96679047
_symmetry_Int_Tables_number   1
_chemical_formula_structural   Pr4Al11Ga13Ni2
_chemical_formula_sum   'Pr4 Al11 Ga13 Ni2'
_cell_volume   582.23065349
_cell_formula_units_Z   1
loop_
 _symmetry_equiv_pos_site_id
 _symmetry_equiv_pos_as_xyz
  1  'x, y, z'
loop_
 _atom_site_type_symbol
 _atom_site_label
 _atom_site_symmetry_multiplicity
 _atom_site_fract_x
 _atom_site_fract_y
 _atom_site_fract_z
 _atom_site_occupancy
  Pr  Pr0  1  0.751911  0.251911  0.248825  1
  Pr  Pr1  1  0.251375  0.751375  0.248235  1
  Pr  Pr2  1  0.248961  0.748961  0.750865  1
  Pr  Pr3  1  0.748708  0.248708  0.751116  1
  Al  Al4  1  0.499558  0.999558  0.916910  1
  Al  Al5  1  0.000136  0.999978  0.916916  1
  Al  Al6  1  0.499978  0.500136  0.916916  1
  Al  Al7  1  0.999518  0.499518  0.916953  1
  Al  Al8  1  0.500319  0.000319  0.082887  1
  Al  Al9  1  0.999929  0.000235  0.082977  1
  Al  Al10  1  0.500235  0.499929  0.082977  1
  Al  Al11  1  0.000359  0.500359  0.082978  1
  Al  Al12  1  0.581179  0.081179  0.432992  1
  Al  Al13  1  0.082791  0.920707  0.431828  1
  Al  Al14  1  0.420707  0.582791  0.431828  1
  Ga  Ga15  1  0.250896  0.250784  0.184041  1
  Ga  Ga16  1  0.750784  0.750896  0.184041  1
  Ga  Ga17  1  0.749238  0.748973  0.815935  1
  Ga  Ga18  1  0.248973  0.249238  0.815935  1
  Ga  Ga19  1  0.254657  0.250077  0.341821  1
  Ga  Ga20  1  0.750077  0.754657  0.341821  1
  Ga  Ga21  1  0.748805  0.747044  0.657879  1
  Ga  Ga22  1  0.247044  0.248805  0.657879  1
  Ga  Ga23  1  0.921742  0.421742  0.429995  1
  Ga  Ga24  1  0.418632  0.918632  0.569440  1
  Ga  Ga25  1  0.916688  0.077512  0.568970  1
  Ga  Ga26  1  0.577512  0.416688  0.568970  1
  Ga  Ga27  1  0.079502  0.579502  0.568115  1
  Ni  Ni28  1  0.749913  0.249913  0.999941  1
  Ni  Ni29  1  0.249870  0.749870  0.000012  1
