# generated using pymatgen
data_TaTl5O5
_symmetry_space_group_name_H-M   'P 1'
_cell_length_a   8.00659000
_cell_length_b   8.00658937
_cell_length_c   13.78014100
_cell_angle_alpha   90.00000000
_cell_angle_beta   90.00000000
_cell_angle_gamma   95.12383773
_symmetry_Int_Tables_number   1
_chemical_formula_structural   TaTl5O5
_chemical_formula_sum   'Ta4 Tl20 O20'
_cell_volume   879.85253012
_cell_formula_units_Z   4
loop_
 _symmetry_equiv_pos_site_id
 _symmetry_equiv_pos_as_xyz
  1  'x, y, z'
loop_
 _atom_site_type_symbol
 _atom_site_label
 _atom_site_symmetry_multiplicity
 _atom_site_fract_x
 _atom_site_fract_y
 _atom_site_fract_z
 _atom_site_occupancy
  Ta  Ta0  1  0.247632  0.752368  0.894739  1
  Ta  Ta1  1  0.752368  0.247632  0.394739  1
  Ta  Ta2  1  0.010128  0.989872  0.481061  1
  Ta  Ta3  1  0.989872  0.010128  0.981061  1
  Tl  Tl4  1  0.735642  0.264358  0.100747  1
  Tl  Tl5  1  0.264358  0.735642  0.600747  1
  Tl  Tl6  1  0.486407  0.513593  0.757808  1
  Tl  Tl7  1  0.513593  0.486407  0.257808  1
  Tl  Tl8  1  0.318646  0.355791  0.005311  1
  Tl  Tl9  1  0.681354  0.644209  0.505311  1
  Tl  Tl10  1  0.644209  0.681354  0.005311  1
  Tl  Tl11  1  0.355791  0.318646  0.505311  1
  Tl  Tl12  1  0.198066  0.123854  0.745970  1
  Tl  Tl13  1  0.801934  0.876146  0.245970  1
  Tl  Tl14  1  0.876146  0.801934  0.745970  1
  Tl  Tl15  1  0.123854  0.198066  0.245970  1
  Tl  Tl16  1  0.961797  0.368700  0.612674  1
  Tl  Tl17  1  0.038203  0.631300  0.112674  1
  Tl  Tl18  1  0.631300  0.038203  0.612674  1
  Tl  Tl19  1  0.368700  0.961797  0.112674  1
  Tl  Tl20  1  0.920423  0.404537  0.865171  1
  Tl  Tl21  1  0.079577  0.595463  0.365171  1
  Tl  Tl22  1  0.595463  0.079577  0.865171  1
  Tl  Tl23  1  0.404537  0.920423  0.365171  1
  O  O24  1  0.065617  0.934383  0.343771  1
  O  O25  1  0.934383  0.065617  0.843771  1
  O  O26  1  0.945719  0.054281  0.615125  1
  O  O27  1  0.054281  0.945719  0.115125  1
  O  O28  1  0.817397  0.182603  0.261049  1
  O  O29  1  0.182603  0.817397  0.761049  1
  O  O30  1  0.689631  0.310369  0.532441  1
  O  O31  1  0.310369  0.689631  0.032441  1
  O  O32  1  0.249965  0.018980  0.513390  1
  O  O33  1  0.750035  0.981020  0.013390  1
  O  O34  1  0.981020  0.750035  0.513390  1
  O  O35  1  0.018980  0.249965  0.013390  1
  O  O36  1  0.488209  0.777960  0.860747  1
  O  O37  1  0.511791  0.222040  0.360747  1
  O  O38  1  0.222040  0.511791  0.860747  1
  O  O39  1  0.777960  0.488209  0.360747  1
  O  O40  1  0.244609  0.999884  0.940065  1
  O  O41  1  0.755391  0.000116  0.440065  1
  O  O42  1  0.000116  0.755391  0.940065  1
  O  O43  1  0.999884  0.244609  0.440065  1
