# generated using pymatgen
data_Li8YU4Ta3N16
_symmetry_space_group_name_H-M   'P 1'
_cell_length_a   20.79723701
_cell_length_b   4.29889209
_cell_length_c   4.30715007
_cell_angle_alpha   89.99718788
_cell_angle_beta   90.00932955
_cell_angle_gamma   90.01272707
_symmetry_Int_Tables_number   1
_chemical_formula_structural   Li8YU4Ta3N16
_chemical_formula_sum   'Li8 Y1 U4 Ta3 N16'
_cell_volume   385.08107079
_cell_formula_units_Z   1
loop_
 _symmetry_equiv_pos_site_id
 _symmetry_equiv_pos_as_xyz
  1  'x, y, z'
loop_
 _atom_site_type_symbol
 _atom_site_label
 _atom_site_symmetry_multiplicity
 _atom_site_fract_x
 _atom_site_fract_y
 _atom_site_fract_z
 _atom_site_occupancy
  Li  Li0  1  0.192100  0.999647  0.748242  1
  Li  Li1  1  0.796993  0.000787  0.252710  1
  Li  Li2  1  0.284465  0.999756  0.248081  1
  Li  Li3  1  0.698210  0.000113  0.752194  1
  Li  Li4  1  0.079174  0.499362  0.748812  1
  Li  Li5  1  0.908087  0.500067  0.250384  1
  Li  Li6  1  0.440992  0.500003  0.249340  1
  Li  Li7  1  0.598950  0.499633  0.750778  1
  Y  Y8  1  0.441284  0.000299  0.749512  1
  U  U9  1  0.575005  0.000118  0.250158  1
  U  U10  1  0.061369  0.999543  0.249029  1
  U  U11  1  0.928579  0.000743  0.749582  1
  U  U12  1  0.306514  0.499897  0.748289  1
  Ta  Ta13  1  0.698132  0.510492  0.254398  1
  Ta  Ta14  1  0.183892  0.499395  0.247868  1
  Ta  Ta15  1  0.805752  0.510284  0.755945  1
  N  N16  1  0.311956  0.999903  0.748327  1
  N  N17  1  0.686337  0.992456  0.252291  1
  N  N18  1  0.170872  0.999773  0.248367  1
  N  N19  1  0.819659  0.992558  0.752175  1
  N  N20  1  0.405716  0.500219  0.748991  1
  N  N21  1  0.598805  0.500832  0.250284  1
  N  N22  1  0.082853  0.499596  0.248791  1
  N  N23  1  0.907210  0.500928  0.749800  1
  N  N24  1  0.041275  0.000217  0.749000  1
  N  N25  1  0.948632  0.000518  0.249579  1
  N  N26  1  0.475515  0.001170  0.249587  1
  N  N27  1  0.567833  0.000206  0.750099  1
  N  N28  1  0.196250  0.499661  0.748551  1
  N  N29  1  0.798834  0.496406  0.249976  1
  N  N30  1  0.282549  0.499774  0.248250  1
  N  N31  1  0.706210  0.495642  0.750610  1
