# generated using pymatgen
data_NdNp4O10
_symmetry_space_group_name_H-M   'P 1'
_cell_length_a   6.62448992
_cell_length_b   7.68564079
_cell_length_c   8.59060409
_cell_angle_alpha   102.92596803
_cell_angle_beta   97.56201601
_cell_angle_gamma   106.85602214
_symmetry_Int_Tables_number   1
_chemical_formula_structural   NdNp4O10
_chemical_formula_sum   'Nd2 Np8 O20'
_cell_volume   398.82726506
_cell_formula_units_Z   2
loop_
 _symmetry_equiv_pos_site_id
 _symmetry_equiv_pos_as_xyz
  1  'x, y, z'
loop_
 _atom_site_type_symbol
 _atom_site_label
 _atom_site_symmetry_multiplicity
 _atom_site_fract_x
 _atom_site_fract_y
 _atom_site_fract_z
 _atom_site_occupancy
  Nd  Nd0  1  0.000000  0.500000  0.000000  1
  Nd  Nd1  1  0.000000  0.000000  0.000000  1
  Np  Np2  1  0.798727  0.599278  0.598605  1
  Np  Np3  1  0.602047  0.200692  0.200479  1
  Np  Np4  1  0.798485  0.099281  0.598664  1
  Np  Np5  1  0.397953  0.799308  0.799521  1
  Np  Np6  1  0.201273  0.400722  0.401395  1
  Np  Np7  1  0.602197  0.700656  0.200290  1
  Np  Np8  1  0.397803  0.299344  0.799710  1
  Np  Np9  1  0.201515  0.900719  0.401336  1
  O  O10  1  0.851523  0.326704  0.455219  1
  O  O11  1  0.635257  0.922070  0.053439  1
  O  O12  1  0.947282  0.777983  0.164700  1
  O  O13  1  0.442757  0.522187  0.646039  1
  O  O14  1  0.851895  0.826698  0.455104  1
  O  O15  1  0.635466  0.422261  0.053318  1
  O  O16  1  0.732015  0.368326  0.740775  1
  O  O17  1  0.268075  0.131881  0.259299  1
  O  O18  1  0.946736  0.277857  0.164748  1
  O  O19  1  0.442844  0.022351  0.645962  1
  O  O20  1  0.557156  0.977649  0.354038  1
  O  O21  1  0.053264  0.722143  0.835252  1
  O  O22  1  0.731925  0.868119  0.740701  1
  O  O23  1  0.364534  0.577739  0.946682  1
  O  O24  1  0.267985  0.631674  0.259225  1
  O  O25  1  0.557243  0.477813  0.353961  1
  O  O26  1  0.148105  0.173302  0.544896  1
  O  O27  1  0.052718  0.222017  0.835300  1
  O  O28  1  0.364743  0.077930  0.946561  1
  O  O29  1  0.148477  0.673296  0.544781  1
