# generated using pymatgen
data_TlS8I3
_symmetry_space_group_name_H-M   'P 1'
_cell_length_a   8.29722105
_cell_length_b   11.05894170
_cell_length_c   11.73755205
_cell_angle_alpha   102.81180905
_cell_angle_beta   97.08710422
_cell_angle_gamma   110.86767303
_symmetry_Int_Tables_number   1
_chemical_formula_structural   TlS8I3
_chemical_formula_sum   'Tl2 S16 I6'
_cell_volume   956.80824834
_cell_formula_units_Z   2
loop_
 _symmetry_equiv_pos_site_id
 _symmetry_equiv_pos_as_xyz
  1  'x, y, z'
loop_
 _atom_site_type_symbol
 _atom_site_label
 _atom_site_symmetry_multiplicity
 _atom_site_fract_x
 _atom_site_fract_y
 _atom_site_fract_z
 _atom_site_occupancy
  Tl  Tl0  1  0.148362  0.855101  0.140409  1
  Tl  Tl1  1  0.851642  0.144901  0.859595  1
  S  S2  1  0.767418  0.494290  0.122678  1
  S  S3  1  0.923017  0.390410  0.156651  1
  S  S4  1  0.185673  0.520520  0.191747  1
  S  S5  1  0.688288  0.558499  0.275841  1
  S  S6  1  0.853743  0.757527  0.363155  1
  S  S7  1  0.281667  0.596274  0.374274  1
  S  S8  1  0.272158  0.783702  0.431680  1
  S  S9  1  0.953243  0.235712  0.503471  1
  S  S10  1  0.046761  0.764285  0.496529  1
  S  S11  1  0.727847  0.216299  0.568323  1
  S  S12  1  0.718339  0.403729  0.625724  1
  S  S13  1  0.146259  0.242471  0.636845  1
  S  S14  1  0.311713  0.441504  0.724166  1
  S  S15  1  0.814330  0.479483  0.808253  1
  S  S16  1  0.076982  0.609591  0.843350  1
  S  S17  1  0.232584  0.505706  0.877324  1
  I  I18  1  0.681534  0.864145  0.969339  1
  I  I19  1  0.579860  0.908416  0.201560  1
  I  I20  1  0.228450  0.173645  0.268624  1
  I  I21  1  0.771524  0.826351  0.731367  1
  I  I22  1  0.420145  0.091583  0.798437  1
  I  I23  1  0.318462  0.135855  0.030656  1
