# generated using pymatgen
data_Pu2F5
_symmetry_space_group_name_H-M   'P 1'
_cell_length_a   7.09784061
_cell_length_b   7.08977004
_cell_length_c   6.32122256
_cell_angle_alpha   80.54153178
_cell_angle_beta   80.49389670
_cell_angle_gamma   45.48874441
_symmetry_Int_Tables_number   1
_chemical_formula_structural   Pu2F5
_chemical_formula_sum   'Pu4 F10'
_cell_volume   223.19029812
_cell_formula_units_Z   2
loop_
 _symmetry_equiv_pos_site_id
 _symmetry_equiv_pos_as_xyz
  1  'x, y, z'
loop_
 _atom_site_type_symbol
 _atom_site_label
 _atom_site_symmetry_multiplicity
 _atom_site_fract_x
 _atom_site_fract_y
 _atom_site_fract_z
 _atom_site_occupancy
  Pu  Pu0  1  0.883591  0.347852  0.416486  1
  Pu  Pu1  1  0.652081  0.116498  0.083495  1
  Pu  Pu2  1  0.347919  0.883502  0.916505  1
  Pu  Pu3  1  0.116409  0.652148  0.583514  1
  F  F4  1  0.700650  0.455936  0.074802  1
  F  F5  1  0.860146  0.709735  0.315897  1
  F  F6  1  0.937183  0.062773  0.749683  1
  F  F7  1  0.709671  0.860184  0.816294  1
  F  F8  1  0.456562  0.700294  0.574856  1
  F  F9  1  0.543438  0.299706  0.425144  1
  F  F10  1  0.290329  0.139816  0.183706  1
  F  F11  1  0.139854  0.290265  0.684103  1
  F  F12  1  0.299350  0.544064  0.925198  1
  F  F13  1  0.062817  0.937227  0.250317  1
