# generated using pymatgen
data_Ho14Tm6Bi11Sb
_symmetry_space_group_name_H-M   'P 1'
_cell_length_a   8.19201928
_cell_length_b   9.44525401
_cell_length_c   11.96197044
_cell_angle_alpha   89.99246226
_cell_angle_beta   90.02971572
_cell_angle_gamma   90.00024802
_symmetry_Int_Tables_number   1
_chemical_formula_structural   Ho14Tm6Bi11Sb
_chemical_formula_sum   'Ho14 Tm6 Bi11 Sb1'
_cell_volume   925.56573873
_cell_formula_units_Z   1
loop_
 _symmetry_equiv_pos_site_id
 _symmetry_equiv_pos_as_xyz
  1  'x, y, z'
loop_
 _atom_site_type_symbol
 _atom_site_label
 _atom_site_symmetry_multiplicity
 _atom_site_fract_x
 _atom_site_fract_y
 _atom_site_fract_z
 _atom_site_occupancy
  Ho  Ho0  1  0.353826  0.750061  0.213882  1
  Ho  Ho1  1  0.853248  0.749921  0.283230  1
  Ho  Ho2  1  0.647112  0.249921  0.783348  1
  Ho  Ho3  1  0.147112  0.250103  0.716793  1
  Ho  Ho4  1  0.689426  0.933731  0.057868  1
  Ho  Ho5  1  0.191867  0.564428  0.440984  1
  Ho  Ho6  1  0.476584  0.249907  0.488762  1
  Ho  Ho7  1  0.977018  0.250092  0.011109  1
  Ho  Ho8  1  0.523996  0.750152  0.511498  1
  Ho  Ho9  1  0.027158  0.749832  0.988381  1
  Ho  Ho10  1  0.314175  0.250019  0.218125  1
  Ho  Ho11  1  0.814069  0.249998  0.281942  1
  Ho  Ho12  1  0.682431  0.749834  0.784055  1
  Ho  Ho13  1  0.187264  0.750151  0.719565  1
  Tm  Tm14  1  0.689470  0.567245  0.057984  1
  Tm  Tm15  1  0.191864  0.934526  0.440880  1
  Tm  Tm16  1  0.309271  0.062125  0.941203  1
  Tm  Tm17  1  0.808240  0.434690  0.558927  1
  Tm  Tm18  1  0.308952  0.437998  0.941022  1
  Tm  Tm19  1  0.807889  0.065224  0.559121  1
  Bi  Bi20  1  0.905466  0.750366  0.543003  1
  Bi  Bi21  1  0.594398  0.251311  0.042412  1
  Bi  Bi22  1  0.094302  0.248684  0.457690  1
  Bi  Bi23  1  0.566171  0.995868  0.325705  1
  Bi  Bi24  1  0.066150  0.503946  0.174188  1
  Bi  Bi25  1  0.433588  0.495863  0.674413  1
  Bi  Bi26  1  0.933418  0.003895  0.825592  1
  Bi  Bi27  1  0.433570  0.004202  0.674299  1
  Bi  Bi28  1  0.933419  0.496057  0.825704  1
  Bi  Bi29  1  0.566476  0.504173  0.325635  1
  Bi  Bi30  1  0.066438  0.996029  0.174253  1
  Sb  Sb31  1  0.405631  0.749649  0.958424  1
