# generated using pymatgen
data_PuTh2(B2C)3
_symmetry_space_group_name_H-M   'P 1'
_cell_length_a   5.38726813
_cell_length_b   5.38726826
_cell_length_c   5.38726839
_cell_angle_alpha   76.25045513
_cell_angle_beta   76.25046118
_cell_angle_gamma   76.25043980
_symmetry_Int_Tables_number   1
_chemical_formula_structural   PuTh2(B2C)3
_chemical_formula_sum   'Pu1 Th2 B6 C3'
_cell_volume   144.77467849
_cell_formula_units_Z   1
loop_
 _symmetry_equiv_pos_site_id
 _symmetry_equiv_pos_as_xyz
  1  'x, y, z'
loop_
 _atom_site_type_symbol
 _atom_site_label
 _atom_site_symmetry_multiplicity
 _atom_site_fract_x
 _atom_site_fract_y
 _atom_site_fract_z
 _atom_site_occupancy
  Pu  Pu0  1  0.687889  0.687889  0.687889  1
  Th  Th1  1  0.313644  0.313644  0.313644  1
  Th  Th2  1  0.998780  0.998780  0.998780  1
  B  B3  1  0.503197  0.775783  0.226127  1
  B  B4  1  0.226127  0.503197  0.775783  1
  B  B5  1  0.775783  0.226127  0.503197  1
  B  B6  1  0.503197  0.226127  0.775783  1
  B  B7  1  0.226127  0.775783  0.503197  1
  B  B8  1  0.775783  0.503197  0.226127  1
  C  C9  1  0.995204  0.995204  0.499063  1
  C  C10  1  0.995204  0.499063  0.995204  1
  C  C11  1  0.499063  0.995204  0.995204  1
