# generated using pymatgen
data_Dy12Si(BBr4)3
_symmetry_space_group_name_H-M   'P 1'
_cell_length_a   9.88455792
_cell_length_b   9.88455710
_cell_length_c   9.88455703
_cell_angle_alpha   109.81356714
_cell_angle_beta   109.81357536
_cell_angle_gamma   109.81357045
_symmetry_Int_Tables_number   1
_chemical_formula_structural   Dy12Si(BBr4)3
_chemical_formula_sum   'Dy12 Si1 B3 Br12'
_cell_volume   733.87209432
_cell_formula_units_Z   1
loop_
 _symmetry_equiv_pos_site_id
 _symmetry_equiv_pos_as_xyz
  1  'x, y, z'
loop_
 _atom_site_type_symbol
 _atom_site_label
 _atom_site_symmetry_multiplicity
 _atom_site_fract_x
 _atom_site_fract_y
 _atom_site_fract_z
 _atom_site_occupancy
  Dy  Dy0  1  0.468011  0.494733  0.224785  1
  Dy  Dy1  1  0.750000  0.227711  0.272289  1
  Dy  Dy2  1  0.750000  0.020076  0.479924  1
  Dy  Dy3  1  0.224785  0.468011  0.494733  1
  Dy  Dy4  1  0.272289  0.750000  0.227711  1
  Dy  Dy5  1  0.031989  0.275215  0.005267  1
  Dy  Dy6  1  0.005267  0.031989  0.275215  1
  Dy  Dy7  1  0.479924  0.750000  0.020076  1
  Dy  Dy8  1  0.494733  0.224785  0.468011  1
  Dy  Dy9  1  0.020076  0.479924  0.750000  1
  Dy  Dy10  1  0.275215  0.005267  0.031989  1
  Dy  Dy11  1  0.227711  0.272289  0.750000  1
  Si  Si12  1  0.250000  0.250000  0.250000  1
  B  B13  1  0.500979  0.999021  0.250000  1
  B  B14  1  0.999021  0.250000  0.500979  1
  B  B15  1  0.250000  0.500979  0.999021  1
  Br  Br16  1  0.250000  0.757765  0.742235  1
  Br  Br17  1  0.512888  0.506913  0.758043  1
  Br  Br18  1  0.987112  0.741957  0.993087  1
  Br  Br19  1  0.742235  0.250000  0.757765  1
  Br  Br20  1  0.993087  0.987112  0.741957  1
  Br  Br21  1  0.250000  0.993685  0.506315  1
  Br  Br22  1  0.758043  0.512888  0.506913  1
  Br  Br23  1  0.506315  0.250000  0.993685  1
  Br  Br24  1  0.757765  0.742235  0.250000  1
  Br  Br25  1  0.741957  0.993087  0.987112  1
  Br  Br26  1  0.993685  0.506315  0.250000  1
  Br  Br27  1  0.506913  0.758043  0.512888  1
