# generated using pymatgen
data_Dy4Ga3SiRh4
_symmetry_space_group_name_H-M   'P 1'
_cell_length_a   4.48001100
_cell_length_b   7.06186809
_cell_length_c   7.21387938
_cell_angle_alpha   90.39885439
_cell_angle_beta   90.00000000
_cell_angle_gamma   90.00000000
_symmetry_Int_Tables_number   1
_chemical_formula_structural   Dy4Ga3SiRh4
_chemical_formula_sum   'Dy4 Ga3 Si1 Rh4'
_cell_volume   228.22175185
_cell_formula_units_Z   1
loop_
 _symmetry_equiv_pos_site_id
 _symmetry_equiv_pos_as_xyz
  1  'x, y, z'
loop_
 _atom_site_type_symbol
 _atom_site_label
 _atom_site_symmetry_multiplicity
 _atom_site_fract_x
 _atom_site_fract_y
 _atom_site_fract_z
 _atom_site_occupancy
  Dy  Dy0  1  0.250000  0.484703  0.193219  1
  Dy  Dy1  1  0.750000  0.513441  0.810146  1
  Dy  Dy2  1  0.750000  0.019007  0.693293  1
  Dy  Dy3  1  0.250000  0.988083  0.306145  1
  Ga  Ga4  1  0.250000  0.802599  0.894456  1
  Ga  Ga5  1  0.750000  0.202003  0.103362  1
  Ga  Ga6  1  0.750000  0.700323  0.399586  1
  Si  Si7  1  0.250000  0.301252  0.601849  1
  Rh  Rh8  1  0.250000  0.644868  0.567315  1
  Rh  Rh9  1  0.750000  0.335689  0.442350  1
  Rh  Rh10  1  0.750000  0.837580  0.068743  1
  Rh  Rh11  1  0.250000  0.170452  0.919536  1
