# generated using pymatgen
data_Hf16Ir7PtO4
_symmetry_space_group_name_H-M   'P 1'
_cell_length_a   8.74357319
_cell_length_b   8.74390343
_cell_length_c   8.74390400
_cell_angle_alpha   59.99999784
_cell_angle_beta   59.99874842
_cell_angle_gamma   59.99874627
_symmetry_Int_Tables_number   1
_chemical_formula_structural   Hf16Ir7PtO4
_chemical_formula_sum   'Hf16 Ir7 Pt1 O4'
_cell_volume   472.69004373
_cell_formula_units_Z   1
loop_
 _symmetry_equiv_pos_site_id
 _symmetry_equiv_pos_as_xyz
  1  'x, y, z'
loop_
 _atom_site_type_symbol
 _atom_site_label
 _atom_site_symmetry_multiplicity
 _atom_site_fract_x
 _atom_site_fract_y
 _atom_site_fract_z
 _atom_site_occupancy
  Hf  Hf0  1  0.125649  0.624784  0.624784  1
  Hf  Hf1  1  0.624246  0.122705  0.626524  1
  Hf  Hf2  1  0.624246  0.626524  0.122705  1
  Hf  Hf3  1  0.624246  0.626524  0.626524  1
  Hf  Hf4  1  0.815177  0.815816  0.184503  1
  Hf  Hf5  1  0.185015  0.185108  0.814939  1
  Hf  Hf6  1  0.815177  0.184503  0.815816  1
  Hf  Hf7  1  0.185015  0.814939  0.185108  1
  Hf  Hf8  1  0.185015  0.814939  0.814939  1
  Hf  Hf9  1  0.815177  0.184503  0.184503  1
  Hf  Hf10  1  0.435404  0.435310  0.064643  1
  Hf  Hf11  1  0.067205  0.061080  0.435858  1
  Hf  Hf12  1  0.435404  0.064643  0.435310  1
  Hf  Hf13  1  0.067205  0.435858  0.061080  1
  Hf  Hf14  1  0.067205  0.435858  0.435858  1
  Hf  Hf15  1  0.435404  0.064643  0.064643  1
  Ir  Ir16  1  0.404246  0.785251  0.405251  1
  Ir  Ir17  1  0.404246  0.405251  0.785251  1
  Ir  Ir18  1  0.404246  0.405251  0.405251  1
  Ir  Ir19  1  0.464688  0.845104  0.845104  1
  Ir  Ir20  1  0.844957  0.465997  0.844524  1
  Ir  Ir21  1  0.844957  0.844524  0.465997  1
  Ir  Ir22  1  0.844957  0.844524  0.844524  1
  Pt  Pt23  1  0.781978  0.406007  0.406007  1
  O  O24  1  0.625054  0.124982  0.124982  1
  O  O25  1  0.124628  0.624648  0.125362  1
  O  O26  1  0.124628  0.125362  0.624648  1
  O  O27  1  0.124628  0.125362  0.125362  1
