# generated using pymatgen
data_Ta3NbNi4P4W
_symmetry_space_group_name_H-M   'P 1'
_cell_length_a   7.21173535
_cell_length_b   7.21173697
_cell_length_c   7.22631043
_cell_angle_alpha   93.56451569
_cell_angle_beta   93.32056228
_cell_angle_gamma   151.60168187
_symmetry_Int_Tables_number   1
_chemical_formula_structural   Ta3NbNi4P4W
_chemical_formula_sum   'Ta3 Nb1 Ni4 P4 W1'
_cell_volume   173.30715956
_cell_formula_units_Z   1
loop_
 _symmetry_equiv_pos_site_id
 _symmetry_equiv_pos_as_xyz
  1  'x, y, z'
loop_
 _atom_site_type_symbol
 _atom_site_label
 _atom_site_symmetry_multiplicity
 _atom_site_fract_x
 _atom_site_fract_y
 _atom_site_fract_z
 _atom_site_occupancy
  Ta  Ta0  1  0.804206  0.129239  0.933445  1
  Ta  Ta1  1  0.129454  0.195123  0.324578  1
  Ta  Ta2  1  0.870407  0.805040  0.675446  1
  Nb  Nb3  1  0.195205  0.870430  0.065635  1
  Ni  Ni4  1  0.914463  0.389604  0.304069  1
  Ni  Ni5  1  0.086514  0.609296  0.695810  1
  Ni  Ni6  1  0.610751  0.912398  0.523149  1
  Ni  Ni7  1  0.389685  0.088420  0.478104  1
  P  P8  1  0.556297  0.243050  0.799347  1
  P  P9  1  0.242896  0.443816  0.686711  1
  P  P10  1  0.757208  0.555931  0.313140  1
  P  P11  1  0.443718  0.757217  0.200935  1
  W  W12  1  0.499198  0.500435  0.999633  1
