# generated using pymatgen
data_Zr6Ti4Al12Re2Pd5
_symmetry_space_group_name_H-M   'P 1'
_cell_length_a   8.88384831
_cell_length_b   8.83978580
_cell_length_c   8.88384997
_cell_angle_alpha   60.16403189
_cell_angle_beta   59.52284137
_cell_angle_gamma   60.16403584
_symmetry_Int_Tables_number   1
_chemical_formula_structural   Zr6Ti4Al12Re2Pd5
_chemical_formula_sum   'Zr6 Ti4 Al12 Re2 Pd5'
_cell_volume   492.72337007
_cell_formula_units_Z   1
loop_
 _symmetry_equiv_pos_site_id
 _symmetry_equiv_pos_as_xyz
  1  'x, y, z'
loop_
 _atom_site_type_symbol
 _atom_site_label
 _atom_site_symmetry_multiplicity
 _atom_site_fract_x
 _atom_site_fract_y
 _atom_site_fract_z
 _atom_site_occupancy
  Zr  Zr0  1  0.694832  0.684561  0.306272  1
  Zr  Zr1  1  0.300714  0.699284  0.300714  1
  Zr  Zr2  1  0.694856  0.314310  0.306247  1
  Zr  Zr3  1  0.306247  0.314310  0.694856  1
  Zr  Zr4  1  0.698975  0.301022  0.698975  1
  Zr  Zr5  1  0.306272  0.684561  0.694832  1
  Ti  Ti6  1  0.880274  0.882209  0.355313  1
  Ti  Ti7  1  0.884717  0.358206  0.884717  1
  Ti  Ti8  1  0.355313  0.882209  0.880274  1
  Ti  Ti9  1  0.884706  0.872385  0.884706  1
  Al  Al10  1  0.116721  0.119278  0.644742  1
  Al  Al11  1  0.116728  0.642696  0.116728  1
  Al  Al12  1  0.644742  0.119278  0.116721  1
  Al  Al13  1  0.116750  0.123846  0.116750  1
  Al  Al14  1  0.662057  0.667690  0.002549  1
  Al  Al15  1  0.664813  0.006642  0.664813  1
  Al  Al16  1  0.002549  0.667690  0.662057  1
  Al  Al17  1  0.664820  0.663718  0.664820  1
  Al  Al18  1  0.335101  0.333059  0.998772  1
  Al  Al19  1  0.336437  0.991848  0.336437  1
  Al  Al20  1  0.998772  0.333059  0.335101  1
  Al  Al21  1  0.336438  0.335270  0.336438  1
  Re  Re22  1  0.001024  0.999076  0.001024  1
  Re  Re23  1  0.997099  0.502863  0.997099  1
  Pd  Pd24  1  0.000307  0.999794  0.499134  1
  Pd  Pd25  1  0.500168  0.999826  0.500168  1
  Pd  Pd26  1  0.000313  0.500755  0.499123  1
  Pd  Pd27  1  0.499123  0.500755  0.000313  1
  Pd  Pd28  1  0.499134  0.999794  0.000307  1
