# generated using pymatgen
data_Pr3In2SnPd3
_symmetry_space_group_name_H-M   'P 1'
_cell_length_a   7.79905900
_cell_length_b   7.81670143
_cell_length_c   4.07308600
_cell_angle_alpha   90.00000000
_cell_angle_beta   90.00000000
_cell_angle_gamma   119.92537073
_symmetry_Int_Tables_number   1
_chemical_formula_structural   Pr3In2SnPd3
_chemical_formula_sum   'Pr3 In2 Sn1 Pd3'
_cell_volume   215.20187252
_cell_formula_units_Z   1
loop_
 _symmetry_equiv_pos_site_id
 _symmetry_equiv_pos_as_xyz
  1  'x, y, z'
loop_
 _atom_site_type_symbol
 _atom_site_label
 _atom_site_symmetry_multiplicity
 _atom_site_fract_x
 _atom_site_fract_y
 _atom_site_fract_z
 _atom_site_occupancy
  Pr  Pr0  1  0.000492  0.588548  0.000000  1
  Pr  Pr1  1  0.411944  0.411452  0.000000  1
  Pr  Pr2  1  0.589383  0.000000  0.000000  1
  In  In3  1  0.747315  0.747080  0.500000  1
  In  In4  1  0.000236  0.252920  0.500000  1
  Sn  Sn5  1  0.249414  0.000000  0.500000  1
  Pd  Pd6  1  0.665287  0.331824  0.500000  1
  Pd  Pd7  1  0.002469  0.000000  0.000000  1
  Pd  Pd8  1  0.333461  0.668176  0.500000  1
