# generated using pymatgen
data_Ta8V3B8Os
_symmetry_space_group_name_H-M   'P 1'
_cell_length_a   6.00743400
_cell_length_b   6.00743400
_cell_length_c   6.54293800
_cell_angle_alpha   90.00000000
_cell_angle_beta   90.00000000
_cell_angle_gamma   90.00000000
_symmetry_Int_Tables_number   1
_chemical_formula_structural   Ta8V3B8Os
_chemical_formula_sum   'Ta8 V3 B8 Os1'
_cell_volume   236.12981200
_cell_formula_units_Z   1
loop_
 _symmetry_equiv_pos_site_id
 _symmetry_equiv_pos_as_xyz
  1  'x, y, z'
loop_
 _atom_site_type_symbol
 _atom_site_label
 _atom_site_symmetry_multiplicity
 _atom_site_fract_x
 _atom_site_fract_y
 _atom_site_fract_z
 _atom_site_occupancy
  Ta  Ta0  1  0.677412  0.819016  0.502936  1
  Ta  Ta1  1  0.322588  0.180984  0.502936  1
  Ta  Ta2  1  0.819121  0.322412  0.997023  1
  Ta  Ta3  1  0.180879  0.677588  0.997023  1
  Ta  Ta4  1  0.819016  0.322588  0.502936  1
  Ta  Ta5  1  0.180984  0.677412  0.502936  1
  Ta  Ta6  1  0.322412  0.180879  0.997023  1
  Ta  Ta7  1  0.677588  0.819121  0.997023  1
  V  V8  1  0.500000  0.500000  0.249656  1
  V  V9  1  0.000000  0.000000  0.749039  1
  V  V10  1  0.500000  0.500000  0.750116  1
  B  B11  1  0.389495  0.888107  0.250115  1
  B  B12  1  0.610505  0.111893  0.250115  1
  B  B13  1  0.111393  0.388983  0.750081  1
  B  B14  1  0.888607  0.611017  0.750081  1
  B  B15  1  0.888107  0.610505  0.250115  1
  B  B16  1  0.111893  0.389495  0.250115  1
  B  B17  1  0.388983  0.888607  0.750081  1
  B  B18  1  0.611017  0.111393  0.750081  1
  Os  Os19  1  0.000000  0.000000  0.250568  1
