# generated using pymatgen
data_Na2Pr(PuSe3)2
_symmetry_space_group_name_H-M   'P 1'
_cell_length_a   7.34778159
_cell_length_b   7.34778287
_cell_length_c   7.44714488
_cell_angle_alpha   80.56957856
_cell_angle_beta   80.56958071
_cell_angle_gamma   119.86344744
_symmetry_Int_Tables_number   1
_chemical_formula_structural   Na2Pr(PuSe3)2
_chemical_formula_sum   'Na2 Pr1 Pu2 Se6'
_cell_volume   329.50953679
_cell_formula_units_Z   1
loop_
 _symmetry_equiv_pos_site_id
 _symmetry_equiv_pos_as_xyz
  1  'x, y, z'
loop_
 _atom_site_type_symbol
 _atom_site_label
 _atom_site_symmetry_multiplicity
 _atom_site_fract_x
 _atom_site_fract_y
 _atom_site_fract_z
 _atom_site_occupancy
  Na  Na0  1  0.166843  0.833157  0.500000  1
  Na  Na1  1  0.832855  0.167145  0.500000  1
  Pr  Pr2  1  0.334533  0.665467  0.000000  1
  Pu  Pu3  1  0.000566  0.999434  0.000000  1
  Pu  Pu4  1  0.665803  0.334197  0.000000  1
  Se  Se5  1  0.917359  0.592672  0.223113  1
  Se  Se6  1  0.255186  0.243279  0.223798  1
  Se  Se7  1  0.603912  0.941106  0.223045  1
  Se  Se8  1  0.756721  0.744814  0.776202  1
  Se  Se9  1  0.058894  0.396088  0.776955  1
  Se  Se10  1  0.407328  0.082641  0.776887  1
