# generated using pymatgen
data_Hf6Zr4AlSn5GeSb
_symmetry_space_group_name_H-M   'P 1'
_cell_length_a   8.68869517
_cell_length_b   8.68935065
_cell_length_c   5.86871900
_cell_angle_alpha   89.97733054
_cell_angle_beta   90.01133559
_cell_angle_gamma   120.00249183
_symmetry_Int_Tables_number   1
_chemical_formula_structural   Hf6Zr4AlSn5GeSb
_chemical_formula_sum   'Hf6 Zr4 Al1 Sn5 Ge1 Sb1'
_cell_volume   383.71156740
_cell_formula_units_Z   1
loop_
 _symmetry_equiv_pos_site_id
 _symmetry_equiv_pos_as_xyz
  1  'x, y, z'
loop_
 _atom_site_type_symbol
 _atom_site_label
 _atom_site_symmetry_multiplicity
 _atom_site_fract_x
 _atom_site_fract_y
 _atom_site_fract_z
 _atom_site_occupancy
  Hf  Hf0  1  0.333674  0.667177  0.999434  1
  Hf  Hf1  1  0.666021  0.332334  0.500510  1
  Hf  Hf2  1  0.665685  0.332140  0.999434  1
  Hf  Hf3  1  0.333761  0.667283  0.500482  1
  Hf  Hf4  1  0.268424  0.000653  0.245757  1
  Hf  Hf5  1  0.268413  0.267303  0.754382  1
  Zr  Zr6  1  0.000494  0.733030  0.753639  1
  Zr  Zr7  1  0.999330  0.266212  0.246689  1
  Zr  Zr8  1  0.732720  0.734176  0.246615  1
  Zr  Zr9  1  0.731447  0.999345  0.752893  1
  Al  Al10  1  0.001284  0.000397  0.500825  1
  Sn  Sn11  1  0.609614  0.608954  0.747282  1
  Sn  Sn12  1  0.001108  0.389597  0.747376  1
  Sn  Sn13  1  0.000434  0.611179  0.252563  1
  Sn  Sn14  1  0.389424  0.389034  0.252428  1
  Sn  Sn15  1  0.388852  0.000360  0.747951  1
  Ge  Ge16  1  0.001927  0.000850  0.999231  1
  Sb  Sb17  1  0.607391  0.999973  0.252509  1
