# generated using pymatgen
data_Ce3In3PtRhAu
_symmetry_space_group_name_H-M   'P 1'
_cell_length_a   7.67941300
_cell_length_b   7.67941311
_cell_length_c   4.10508700
_cell_angle_alpha   90.00000000
_cell_angle_beta   90.00000000
_cell_angle_gamma   120.00001247
_symmetry_Int_Tables_number   1
_chemical_formula_structural   Ce3In3PtRhAu
_chemical_formula_sum   'Ce3 In3 Pt1 Rh1 Au1'
_cell_volume   209.65682181
_cell_formula_units_Z   1
loop_
 _symmetry_equiv_pos_site_id
 _symmetry_equiv_pos_as_xyz
  1  'x, y, z'
loop_
 _atom_site_type_symbol
 _atom_site_label
 _atom_site_symmetry_multiplicity
 _atom_site_fract_x
 _atom_site_fract_y
 _atom_site_fract_z
 _atom_site_occupancy
  Ce  Ce0  1  0.988052  0.585569  0.000000  1
  Ce  Ce1  1  0.414431  0.402483  0.000000  1
  Ce  Ce2  1  0.597517  0.011948  0.000000  1
  In  In3  1  0.753364  0.752259  0.500000  1
  In  In4  1  0.998895  0.246636  0.500000  1
  In  In5  1  0.247741  0.001105  0.500000  1
  Pt  Pt6  1  0.666667  0.333333  0.500000  1
  Rh  Rh7  1  0.000000  0.000000  0.000000  1
  Au  Au8  1  0.333333  0.666667  0.500000  1
