# generated using pymatgen
data_HoEr5Al21Si3Os8
_symmetry_space_group_name_H-M   'P 1'
_cell_length_a   8.70228300
_cell_length_b   8.70183076
_cell_length_c   9.62661001
_cell_angle_alpha   90.00210597
_cell_angle_beta   89.99956313
_cell_angle_gamma   120.00116516
_symmetry_Int_Tables_number   1
_chemical_formula_structural   HoEr5Al21Si3Os8
_chemical_formula_sum   'Ho1 Er5 Al21 Si3 Os8'
_cell_volume   631.31011169
_cell_formula_units_Z   1
loop_
 _symmetry_equiv_pos_site_id
 _symmetry_equiv_pos_as_xyz
  1  'x, y, z'
loop_
 _atom_site_type_symbol
 _atom_site_label
 _atom_site_symmetry_multiplicity
 _atom_site_fract_x
 _atom_site_fract_y
 _atom_site_fract_z
 _atom_site_occupancy
  Ho  Ho0  1  0.195212  0.390403  0.248070  1
  Er  Er1  1  0.803607  0.607216  0.752290  1
  Er  Er2  1  0.608650  0.804406  0.248011  1
  Er  Er3  1  0.392868  0.196408  0.752305  1
  Er  Er4  1  0.195760  0.804419  0.248017  1
  Er  Er5  1  0.803539  0.196397  0.752298  1
  Al  Al6  1  0.333383  0.666766  0.475977  1
  Al  Al7  1  0.164254  0.328505  0.574623  1
  Al  Al8  1  0.835139  0.670276  0.423441  1
  Al  Al9  1  0.671578  0.835793  0.574467  1
  Al  Al10  1  0.834968  0.669931  0.076468  1
  Al  Al11  1  0.329894  0.164862  0.423509  1
  Al  Al12  1  0.165475  0.330948  0.922748  1
  Al  Al13  1  0.164218  0.835789  0.574467  1
  Al  Al14  1  0.330218  0.165025  0.076425  1
  Al  Al15  1  0.834968  0.164859  0.423503  1
  Al  Al16  1  0.669145  0.834597  0.922867  1
  Al  Al17  1  0.834809  0.165022  0.076423  1
  Al  Al18  1  0.165454  0.834590  0.922868  1
  Al  Al19  1  0.563339  0.126678  0.248800  1
  Al  Al20  1  0.436984  0.873966  0.748770  1
  Al  Al21  1  0.873146  0.436694  0.248803  1
  Al  Al22  1  0.126068  0.563078  0.748790  1
  Al  Al23  1  0.563546  0.436699  0.248801  1
  Al  Al24  1  0.437017  0.563080  0.748788  1
  Al  Al25  1  0.999698  0.999392  0.248848  1
  Al  Al26  1  0.000016  0.000028  0.749345  1
  Si  Si27  1  0.333425  0.666843  0.040313  1
  Si  Si28  1  0.666700  0.333406  0.961322  1
  Si  Si29  1  0.666675  0.333360  0.540037  1
  Os  Os30  1  0.500149  0.000304  0.998676  1
  Os  Os31  1  0.999686  0.499982  0.998598  1
  Os  Os32  1  0.504222  0.008452  0.501428  1
  Os  Os33  1  0.500253  0.499954  0.998630  1
  Os  Os34  1  0.991503  0.495873  0.501604  1
  Os  Os35  1  0.504368  0.495871  0.501590  1
  Os  Os36  1  0.000030  0.000072  0.998638  1
  Os  Os37  1  0.000037  0.000055  0.499440  1
