# generated using pymatgen
data_La8Pr8Mg3CdIr4
_symmetry_space_group_name_H-M   'P 1'
_cell_length_a   10.10765527
_cell_length_b   10.11516298
_cell_length_c   10.17635100
_cell_angle_alpha   59.79969684
_cell_angle_beta   59.77492416
_cell_angle_gamma   60.40114491
_symmetry_Int_Tables_number   1
_chemical_formula_structural   La8Pr8Mg3CdIr4
_chemical_formula_sum   'La8 Pr8 Mg3 Cd1 Ir4'
_cell_volume   735.50802541
_cell_formula_units_Z   1
loop_
 _symmetry_equiv_pos_site_id
 _symmetry_equiv_pos_as_xyz
  1  'x, y, z'
loop_
 _atom_site_type_symbol
 _atom_site_label
 _atom_site_symmetry_multiplicity
 _atom_site_fract_x
 _atom_site_fract_y
 _atom_site_fract_z
 _atom_site_occupancy
  La  La0  1  0.344666  0.345137  0.348653  1
  La  La1  1  0.344666  0.345137  0.961542  1
  La  La2  1  0.349651  0.962114  0.344117  1
  La  La3  1  0.962952  0.349727  0.343659  1
  La  La4  1  0.812171  0.186737  0.188979  1
  La  La5  1  0.189496  0.810134  0.810425  1
  La  La6  1  0.189496  0.810134  0.189945  1
  La  La7  1  0.812171  0.186737  0.812112  1
  Pr  Pr8  1  0.191291  0.191267  0.808722  1
  Pr  Pr9  1  0.808582  0.807651  0.191883  1
  Pr  Pr10  1  0.937628  0.562854  0.564930  1
  Pr  Pr11  1  0.564051  0.935889  0.934657  1
  Pr  Pr12  1  0.564051  0.935889  0.565403  1
  Pr  Pr13  1  0.937628  0.562854  0.934588  1
  Pr  Pr14  1  0.561912  0.560126  0.938981  1
  Pr  Pr15  1  0.941965  0.939128  0.559453  1
  Mg  Mg16  1  0.576291  0.579980  0.577773  1
  Mg  Mg17  1  0.576291  0.579980  0.265955  1
  Mg  Mg18  1  0.574252  0.264314  0.580716  1
  Cd  Cd19  1  0.256627  0.579703  0.581834  1
  Ir  Ir20  1  0.138949  0.139222  0.145972  1
  Ir  Ir21  1  0.138949  0.139222  0.575856  1
  Ir  Ir22  1  0.148392  0.577180  0.137214  1
  Ir  Ir23  1  0.577872  0.148881  0.136624  1
