# generated using pymatgen
data_Tb16Al4TcPd3
_symmetry_space_group_name_H-M   'P 1'
_cell_length_a   9.65098849
_cell_length_b   9.65098833
_cell_length_c   9.65098867
_cell_angle_alpha   59.61316574
_cell_angle_beta   59.61317141
_cell_angle_gamma   59.61316433
_symmetry_Int_Tables_number   1
_chemical_formula_structural   Tb16Al4TcPd3
_chemical_formula_sum   'Tb16 Al4 Tc1 Pd3'
_cell_volume   630.03603673
_cell_formula_units_Z   1
loop_
 _symmetry_equiv_pos_site_id
 _symmetry_equiv_pos_as_xyz
  1  'x, y, z'
loop_
 _atom_site_type_symbol
 _atom_site_label
 _atom_site_symmetry_multiplicity
 _atom_site_fract_x
 _atom_site_fract_y
 _atom_site_fract_z
 _atom_site_occupancy
  Tb  Tb0  1  0.355173  0.355173  0.355173  1
  Tb  Tb1  1  0.354238  0.354238  0.936335  1
  Tb  Tb2  1  0.354238  0.936335  0.354238  1
  Tb  Tb3  1  0.936335  0.354238  0.354238  1
  Tb  Tb4  1  0.813706  0.191129  0.191129  1
  Tb  Tb5  1  0.191059  0.806561  0.806561  1
  Tb  Tb6  1  0.191129  0.813706  0.191129  1
  Tb  Tb7  1  0.806561  0.191059  0.806561  1
  Tb  Tb8  1  0.191129  0.191129  0.813706  1
  Tb  Tb9  1  0.806561  0.806561  0.191059  1
  Tb  Tb10  1  0.934064  0.565002  0.565002  1
  Tb  Tb11  1  0.556252  0.937737  0.937737  1
  Tb  Tb12  1  0.565002  0.934064  0.565002  1
  Tb  Tb13  1  0.937737  0.556252  0.937737  1
  Tb  Tb14  1  0.565002  0.565002  0.934064  1
  Tb  Tb15  1  0.937737  0.937737  0.556252  1
  Al  Al16  1  0.577517  0.577517  0.577517  1
  Al  Al17  1  0.576656  0.576656  0.268430  1
  Al  Al18  1  0.576656  0.268430  0.576656  1
  Al  Al19  1  0.268430  0.576656  0.576656  1
  Tc  Tc20  1  0.145796  0.145796  0.145796  1
  Pd  Pd21  1  0.145426  0.145426  0.568172  1
  Pd  Pd22  1  0.145426  0.568172  0.145426  1
  Pd  Pd23  1  0.568172  0.145426  0.145426  1
