# generated using pymatgen
data_Li11Pt2
_symmetry_space_group_name_H-M   'P 1'
_cell_length_a   8.14551809
_cell_length_b   8.14551844
_cell_length_c   8.14551800
_cell_angle_alpha   109.47122204
_cell_angle_beta   109.47122289
_cell_angle_gamma   109.47121753
_symmetry_Int_Tables_number   1
_chemical_formula_structural   Li11Pt2
_chemical_formula_sum   'Li22 Pt4'
_cell_volume   416.03920486
_cell_formula_units_Z   2
loop_
 _symmetry_equiv_pos_site_id
 _symmetry_equiv_pos_as_xyz
  1  'x, y, z'
loop_
 _atom_site_type_symbol
 _atom_site_label
 _atom_site_symmetry_multiplicity
 _atom_site_fract_x
 _atom_site_fract_y
 _atom_site_fract_z
 _atom_site_occupancy
  Li  Li0  1  0.000000  0.800482  0.000000  1
  Li  Li1  1  0.800482  0.000000  0.000000  1
  Li  Li2  1  0.000000  0.000000  0.800482  1
  Li  Li3  1  0.199518  0.199518  0.199518  1
  Li  Li4  1  0.351526  0.603900  0.351526  1
  Li  Li5  1  0.252374  0.000000  0.648474  1
  Li  Li6  1  0.648474  0.000000  0.252374  1
  Li  Li7  1  0.252374  0.648474  0.000000  1
  Li  Li8  1  0.747626  0.747626  0.396100  1
  Li  Li9  1  0.396100  0.747626  0.747626  1
  Li  Li10  1  0.000000  0.648474  0.252374  1
  Li  Li11  1  0.000000  0.252374  0.648474  1
  Li  Li12  1  0.648474  0.252374  0.000000  1
  Li  Li13  1  0.351526  0.351526  0.603900  1
  Li  Li14  1  0.603900  0.351526  0.351526  1
  Li  Li15  1  0.747626  0.396100  0.747626  1
  Li  Li16  1  0.341190  0.341190  0.000000  1
  Li  Li17  1  0.000000  0.658810  0.658810  1
  Li  Li18  1  0.000000  0.341190  0.341190  1
  Li  Li19  1  0.341190  0.000000  0.341190  1
  Li  Li20  1  0.658810  0.000000  0.658810  1
  Li  Li21  1  0.658810  0.658810  0.000000  1
  Pt  Pt22  1  0.000000  0.338750  0.000000  1
  Pt  Pt23  1  0.338750  0.000000  0.000000  1
  Pt  Pt24  1  0.000000  0.000000  0.338750  1
  Pt  Pt25  1  0.661250  0.661250  0.661250  1
