# generated using pymatgen
data_CsHgRhF6
_symmetry_space_group_name_H-M   'P 1'
_cell_length_a   7.96093006
_cell_length_b   7.96092963
_cell_length_c   7.96093015
_cell_angle_alpha   121.50346459
_cell_angle_beta   121.83870195
_cell_angle_gamma   87.12943490
_symmetry_Int_Tables_number   1
_chemical_formula_structural   CsHgRhF6
_chemical_formula_sum   'Cs2 Hg2 Rh2 F12'
_cell_volume   347.27113928
_cell_formula_units_Z   2
loop_
 _symmetry_equiv_pos_site_id
 _symmetry_equiv_pos_as_xyz
  1  'x, y, z'
loop_
 _atom_site_type_symbol
 _atom_site_label
 _atom_site_symmetry_multiplicity
 _atom_site_fract_x
 _atom_site_fract_y
 _atom_site_fract_z
 _atom_site_occupancy
  Cs  Cs0  1  0.368141  0.618141  0.750000  1
  Cs  Cs1  1  0.631859  0.381859  0.250000  1
  Hg  Hg2  1  0.000000  0.000000  0.500000  1
  Hg  Hg3  1  0.000000  0.500000  0.000000  1
  Rh  Rh4  1  0.000000  0.000000  0.000000  1
  Rh  Rh5  1  0.500000  0.000000  0.500000  1
  F  F6  1  0.301995  0.051995  0.250000  1
  F  F7  1  0.901769  0.651769  0.250000  1
  F  F8  1  0.358593  0.693489  0.290634  1
  F  F9  1  0.902854  0.067959  0.209366  1
  F  F10  1  0.358593  0.067959  0.665104  1
  F  F11  1  0.902854  0.693489  0.834896  1
  F  F12  1  0.698005  0.948005  0.750000  1
  F  F13  1  0.098231  0.348231  0.750000  1
  F  F14  1  0.641407  0.306511  0.709366  1
  F  F15  1  0.097146  0.932041  0.790634  1
  F  F16  1  0.641407  0.932041  0.334896  1
  F  F17  1  0.097146  0.306511  0.165104  1
