# generated using pymatgen
data_Ho5Tc2
_symmetry_space_group_name_H-M   'P 1'
_cell_length_a   6.19776276
_cell_length_b   7.43012200
_cell_length_c   8.45358761
_cell_angle_alpha   96.92985957
_cell_angle_beta   111.50459689
_cell_angle_gamma   90.00000179
_symmetry_Int_Tables_number   1
_chemical_formula_structural   Ho5Tc2
_chemical_formula_sum   'Ho10 Tc4'
_cell_volume   359.13128336
_cell_formula_units_Z   2
loop_
 _symmetry_equiv_pos_site_id
 _symmetry_equiv_pos_as_xyz
  1  'x, y, z'
loop_
 _atom_site_type_symbol
 _atom_site_label
 _atom_site_symmetry_multiplicity
 _atom_site_fract_x
 _atom_site_fract_y
 _atom_site_fract_z
 _atom_site_occupancy
  Ho  Ho0  1  0.972442  0.916319  0.181580  1
  Ho  Ho1  1  0.790862  0.583681  0.818420  1
  Ho  Ho2  1  0.027558  0.083681  0.818420  1
  Ho  Ho3  1  0.209138  0.416319  0.181580  1
  Ho  Ho4  1  0.632800  0.816927  0.434429  1
  Ho  Ho5  1  0.198371  0.683073  0.565571  1
  Ho  Ho6  1  0.367200  0.183073  0.565571  1
  Ho  Ho7  1  0.801629  0.316927  0.434429  1
  Ho  Ho8  1  0.409430  0.750000  0.000000  1
  Ho  Ho9  1  0.590570  0.250000  0.000000  1
  Tc  Tc10  1  0.815001  0.576304  0.219162  1
  Tc  Tc11  1  0.595839  0.923696  0.780838  1
  Tc  Tc12  1  0.184999  0.423696  0.780838  1
  Tc  Tc13  1  0.404161  0.076304  0.219162  1
