# generated using pymatgen
data_LaDyYTaO7
_symmetry_space_group_name_H-M   'P 1'
_cell_length_a   6.54125822
_cell_length_b   6.54125746
_cell_length_c   7.64669500
_cell_angle_alpha   90.00000000
_cell_angle_beta   90.00000000
_cell_angle_gamma   109.05927222
_symmetry_Int_Tables_number   1
_chemical_formula_structural   LaDyYTaO7
_chemical_formula_sum   'La2 Dy2 Y2 Ta2 O14'
_cell_volume   309.25121303
_cell_formula_units_Z   2
loop_
 _symmetry_equiv_pos_site_id
 _symmetry_equiv_pos_as_xyz
  1  'x, y, z'
loop_
 _atom_site_type_symbol
 _atom_site_label
 _atom_site_symmetry_multiplicity
 _atom_site_fract_x
 _atom_site_fract_y
 _atom_site_fract_z
 _atom_site_occupancy
  La  La0  1  0.500022  0.500022  0.500000  1
  La  La1  1  0.500022  0.500022  0.000000  1
  Dy  Dy2  1  0.532573  0.001069  0.750000  1
  Dy  Dy3  1  0.001069  0.532573  0.250000  1
  Y  Y4  1  0.467630  0.999173  0.250000  1
  Y  Y5  1  0.999173  0.467630  0.750000  1
  Ta  Ta6  1  0.999778  0.999778  0.500000  1
  Ta  Ta7  1  0.999778  0.999778  0.000000  1
  O  O8  1  0.682042  0.933943  0.468212  1
  O  O9  1  0.933943  0.682042  0.531788  1
  O  O10  1  0.682042  0.933943  0.031788  1
  O  O11  1  0.933943  0.682042  0.968212  1
  O  O12  1  0.318298  0.066043  0.532469  1
  O  O13  1  0.066043  0.318298  0.467531  1
  O  O14  1  0.318298  0.066043  0.967531  1
  O  O15  1  0.066043  0.318298  0.032469  1
  O  O16  1  0.937928  0.061795  0.750000  1
  O  O17  1  0.061795  0.937928  0.250000  1
  O  O18  1  0.362935  0.637373  0.750000  1
  O  O19  1  0.637373  0.362935  0.250000  1
  O  O20  1  0.643815  0.355454  0.750000  1
  O  O21  1  0.355454  0.643815  0.250000  1
