# generated using pymatgen
data_YSc2SiNi8
_symmetry_space_group_name_H-M   'P 1'
_cell_length_a   8.26982604
_cell_length_b   8.26982581
_cell_length_c   8.26982630
_cell_angle_alpha   34.71975634
_cell_angle_beta   34.71976153
_cell_angle_gamma   34.71975809
_symmetry_Int_Tables_number   1
_chemical_formula_structural   YSc2SiNi8
_chemical_formula_sum   'Y1 Sc2 Si1 Ni8'
_cell_volume   163.74155301
_cell_formula_units_Z   1
loop_
 _symmetry_equiv_pos_site_id
 _symmetry_equiv_pos_as_xyz
  1  'x, y, z'
loop_
 _atom_site_type_symbol
 _atom_site_label
 _atom_site_symmetry_multiplicity
 _atom_site_fract_x
 _atom_site_fract_y
 _atom_site_fract_z
 _atom_site_occupancy
  Y  Y0  1  0.000000  0.000000  0.000000  1
  Sc  Sc1  1  0.859936  0.859936  0.859936  1
  Sc  Sc2  1  0.140064  0.140064  0.140064  1
  Si  Si3  1  0.500000  0.500000  0.500000  1
  Ni  Ni4  1  0.410407  0.410407  0.918107  1
  Ni  Ni5  1  0.918107  0.410407  0.410407  1
  Ni  Ni6  1  0.589593  0.081893  0.589593  1
  Ni  Ni7  1  0.589593  0.589593  0.081893  1
  Ni  Ni8  1  0.333017  0.333017  0.333017  1
  Ni  Ni9  1  0.410407  0.918107  0.410407  1
  Ni  Ni10  1  0.666983  0.666983  0.666983  1
  Ni  Ni11  1  0.081893  0.589593  0.589593  1
