# generated using pymatgen
data_Pr6Cd22AgAs
_symmetry_space_group_name_H-M   'P 1'
_cell_length_a   10.10635547
_cell_length_b   10.10635521
_cell_length_c   10.10635600
_cell_angle_alpha   60.00000395
_cell_angle_beta   60.00000481
_cell_angle_gamma   60.00000613
_symmetry_Int_Tables_number   1
_chemical_formula_structural   Pr6Cd22AgAs
_chemical_formula_sum   'Pr6 Cd22 Ag1 As1'
_cell_volume   729.90908821
_cell_formula_units_Z   1
loop_
 _symmetry_equiv_pos_site_id
 _symmetry_equiv_pos_as_xyz
  1  'x, y, z'
loop_
 _atom_site_type_symbol
 _atom_site_label
 _atom_site_symmetry_multiplicity
 _atom_site_fract_x
 _atom_site_fract_y
 _atom_site_fract_z
 _atom_site_occupancy
  Pr  Pr0  1  0.792195  0.792195  0.207805  1
  Pr  Pr1  1  0.207805  0.792195  0.207805  1
  Pr  Pr2  1  0.792195  0.207805  0.207805  1
  Pr  Pr3  1  0.207805  0.207805  0.792195  1
  Pr  Pr4  1  0.792195  0.207805  0.792195  1
  Pr  Pr5  1  0.207805  0.792195  0.792195  1
  Cd  Cd6  1  0.832863  0.832863  0.501411  1
  Cd  Cd7  1  0.832863  0.501411  0.832863  1
  Cd  Cd8  1  0.501411  0.832863  0.832863  1
  Cd  Cd9  1  0.832863  0.832863  0.832863  1
  Cd  Cd10  1  0.167137  0.167137  0.498589  1
  Cd  Cd11  1  0.167137  0.498589  0.167137  1
  Cd  Cd12  1  0.498589  0.167137  0.167137  1
  Cd  Cd13  1  0.167137  0.167137  0.167137  1
  Cd  Cd14  1  0.619264  0.619264  0.142205  1
  Cd  Cd15  1  0.619264  0.142205  0.619264  1
  Cd  Cd16  1  0.142205  0.619264  0.619264  1
  Cd  Cd17  1  0.619264  0.619264  0.619264  1
  Cd  Cd18  1  0.380736  0.380736  0.857795  1
  Cd  Cd19  1  0.380736  0.857795  0.380736  1
  Cd  Cd20  1  0.857795  0.380736  0.380736  1
  Cd  Cd21  1  0.380736  0.380736  0.380736  1
  Cd  Cd22  1  0.000000  0.000000  0.500000  1
  Cd  Cd23  1  0.500000  0.000000  0.500000  1
  Cd  Cd24  1  0.000000  0.500000  0.500000  1
  Cd  Cd25  1  0.500000  0.500000  0.000000  1
  Cd  Cd26  1  0.000000  0.500000  0.000000  1
  Cd  Cd27  1  0.500000  0.000000  0.000000  1
  Ag  Ag28  1  0.500000  0.500000  0.500000  1
  As  As29  1  0.000000  0.000000  0.000000  1
