# generated using pymatgen
data_AcMg3P6N13
_symmetry_space_group_name_H-M   'P 1'
_cell_length_a   7.19571260
_cell_length_b   7.19571360
_cell_length_c   7.19571243
_cell_angle_alpha   108.92341442
_cell_angle_beta   108.92341783
_cell_angle_gamma   108.92341476
_symmetry_Int_Tables_number   1
_chemical_formula_structural   AcMg3P6N13
_chemical_formula_sum   'Ac1 Mg3 P6 N13'
_cell_volume   292.48599005
_cell_formula_units_Z   1
loop_
 _symmetry_equiv_pos_site_id
 _symmetry_equiv_pos_as_xyz
  1  'x, y, z'
loop_
 _atom_site_type_symbol
 _atom_site_label
 _atom_site_symmetry_multiplicity
 _atom_site_fract_x
 _atom_site_fract_y
 _atom_site_fract_z
 _atom_site_occupancy
  Ac  Ac0  1  0.267870  0.267870  0.267870  1
  Mg  Mg1  1  0.974630  0.676961  0.974630  1
  Mg  Mg2  1  0.676961  0.974630  0.974630  1
  Mg  Mg3  1  0.974630  0.974630  0.676961  1
  P  P4  1  0.510610  0.256749  0.764649  1
  P  P5  1  0.510610  0.764649  0.256749  1
  P  P6  1  0.764649  0.256749  0.510610  1
  P  P7  1  0.256749  0.510610  0.764649  1
  P  P8  1  0.764649  0.510610  0.256749  1
  P  P9  1  0.256749  0.764649  0.510610  1
  N  N10  1  0.946891  0.946891  0.946891  1
  N  N11  1  0.005103  0.735786  0.442909  1
  N  N12  1  0.281317  0.724681  0.281317  1
  N  N13  1  0.287673  0.576208  0.576208  1
  N  N14  1  0.576208  0.576208  0.287673  1
  N  N15  1  0.576208  0.287673  0.576208  1
  N  N16  1  0.735786  0.005103  0.442909  1
  N  N17  1  0.442909  0.005103  0.735786  1
  N  N18  1  0.735786  0.442909  0.005103  1
  N  N19  1  0.281317  0.281317  0.724681  1
  N  N20  1  0.724681  0.281317  0.281317  1
  N  N21  1  0.005103  0.442909  0.735786  1
  N  N22  1  0.442909  0.735786  0.005103  1
