# generated using pymatgen
data_NdSm3(In2Pd3)4
_symmetry_space_group_name_H-M   'P 1'
_cell_length_a   4.66492300
_cell_length_b   9.96293500
_cell_length_c   10.34462100
_cell_angle_alpha   90.00334620
_cell_angle_beta   90.00000000
_cell_angle_gamma   90.00000000
_symmetry_Int_Tables_number   1
_chemical_formula_structural   NdSm3(In2Pd3)4
_chemical_formula_sum   'Nd1 Sm3 In8 Pd12'
_cell_volume   480.77996335
_cell_formula_units_Z   1
loop_
 _symmetry_equiv_pos_site_id
 _symmetry_equiv_pos_as_xyz
  1  'x, y, z'
loop_
 _atom_site_type_symbol
 _atom_site_label
 _atom_site_symmetry_multiplicity
 _atom_site_fract_x
 _atom_site_fract_y
 _atom_site_fract_z
 _atom_site_occupancy
  Nd  Nd0  1  0.250000  0.443126  0.728526  1
  Sm  Sm1  1  0.250000  0.056887  0.227970  1
  Sm  Sm2  1  0.750000  0.556878  0.272010  1
  Sm  Sm3  1  0.750000  0.943100  0.772072  1
  In  In4  1  0.250000  0.884739  0.515771  1
  In  In5  1  0.250000  0.615395  0.016120  1
  In  In6  1  0.750000  0.115255  0.484153  1
  In  In7  1  0.750000  0.384705  0.984394  1
  In  In8  1  0.250000  0.159147  0.894180  1
  In  In9  1  0.250000  0.340428  0.393735  1
  In  In10  1  0.750000  0.840548  0.106081  1
  In  In11  1  0.750000  0.659817  0.605822  1
  Pd  Pd12  1  0.250000  0.143928  0.620121  1
  Pd  Pd13  1  0.250000  0.355721  0.120252  1
  Pd  Pd14  1  0.750000  0.855754  0.379766  1
  Pd  Pd15  1  0.750000  0.644587  0.879949  1
  Pd  Pd16  1  0.250000  0.740511  0.741878  1
  Pd  Pd17  1  0.250000  0.760132  0.241789  1
  Pd  Pd18  1  0.750000  0.260083  0.258173  1
  Pd  Pd19  1  0.750000  0.239203  0.758186  1
  Pd  Pd20  1  0.250000  0.895557  0.973728  1
  Pd  Pd21  1  0.250000  0.604665  0.473278  1
  Pd  Pd22  1  0.750000  0.104372  0.026299  1
  Pd  Pd23  1  0.750000  0.395462  0.525746  1
