# generated using pymatgen
data_Sc7Co6CuSn22
_symmetry_space_group_name_H-M   'P 1'
_cell_length_a   9.48810000
_cell_length_b   9.48809982
_cell_length_c   9.67647800
_cell_angle_alpha   90.00000000
_cell_angle_beta   90.00000000
_cell_angle_gamma   119.99999366
_symmetry_Int_Tables_number   1
_chemical_formula_structural   Sc7Co6CuSn22
_chemical_formula_sum   'Sc7 Co6 Cu1 Sn22'
_cell_volume   754.40832319
_cell_formula_units_Z   1
loop_
 _symmetry_equiv_pos_site_id
 _symmetry_equiv_pos_as_xyz
  1  'x, y, z'
loop_
 _atom_site_type_symbol
 _atom_site_label
 _atom_site_symmetry_multiplicity
 _atom_site_fract_x
 _atom_site_fract_y
 _atom_site_fract_z
 _atom_site_occupancy
  Sc  Sc0  1  0.000000  0.000000  0.000000  1
  Sc  Sc1  1  0.483141  0.516859  0.308172  1
  Sc  Sc2  1  0.516859  0.483141  0.691828  1
  Sc  Sc3  1  0.483141  0.966283  0.308172  1
  Sc  Sc4  1  0.516859  0.033717  0.691828  1
  Sc  Sc5  1  0.033717  0.516859  0.308172  1
  Sc  Sc6  1  0.966283  0.483141  0.691828  1
  Co  Co7  1  0.830060  0.169940  0.199806  1
  Co  Co8  1  0.169940  0.830060  0.800194  1
  Co  Co9  1  0.830060  0.660120  0.199806  1
  Co  Co10  1  0.169940  0.339880  0.800194  1
  Co  Co11  1  0.339880  0.169940  0.199806  1
  Co  Co12  1  0.660120  0.830060  0.800194  1
  Cu  Cu13  1  0.000000  0.000000  0.500000  1
  Sn  Sn14  1  0.346267  0.000000  0.000000  1
  Sn  Sn15  1  0.653733  0.000000  0.000000  1
  Sn  Sn16  1  0.000000  0.346267  0.000000  1
  Sn  Sn17  1  0.000000  0.653733  0.000000  1
  Sn  Sn18  1  0.653733  0.653733  0.000000  1
  Sn  Sn19  1  0.346267  0.346267  0.000000  1
  Sn  Sn20  1  0.333333  0.666667  0.821586  1
  Sn  Sn21  1  0.666667  0.333333  0.178414  1
  Sn  Sn22  1  0.781519  0.218481  0.458352  1
  Sn  Sn23  1  0.218481  0.781519  0.541648  1
  Sn  Sn24  1  0.781519  0.563039  0.458352  1
  Sn  Sn25  1  0.218481  0.436961  0.541648  1
  Sn  Sn26  1  0.436961  0.218481  0.458352  1
  Sn  Sn27  1  0.563039  0.781519  0.541648  1
  Sn  Sn28  1  0.333333  0.666667  0.139112  1
  Sn  Sn29  1  0.666667  0.333333  0.860888  1
  Sn  Sn30  1  0.113338  0.886662  0.283156  1
  Sn  Sn31  1  0.886662  0.113338  0.716844  1
  Sn  Sn32  1  0.113338  0.226675  0.283156  1
  Sn  Sn33  1  0.886662  0.773325  0.716844  1
  Sn  Sn34  1  0.773325  0.886662  0.283156  1
  Sn  Sn35  1  0.226675  0.113338  0.716844  1
