# generated using pymatgen
data_Ca4Nd16(In3Pb)3
_symmetry_space_group_name_H-M   'P 1'
_cell_length_a   8.33747000
_cell_length_b   8.33747000
_cell_length_c   14.85590800
_cell_angle_alpha   90.00000000
_cell_angle_beta   90.00000000
_cell_angle_gamma   90.00000000
_symmetry_Int_Tables_number   1
_chemical_formula_structural   Ca4Nd16(In3Pb)3
_chemical_formula_sum   'Ca4 Nd16 In9 Pb3'
_cell_volume   1032.68476432
_cell_formula_units_Z   1
loop_
 _symmetry_equiv_pos_site_id
 _symmetry_equiv_pos_as_xyz
  1  'x, y, z'
loop_
 _atom_site_type_symbol
 _atom_site_label
 _atom_site_symmetry_multiplicity
 _atom_site_fract_x
 _atom_site_fract_y
 _atom_site_fract_z
 _atom_site_occupancy
  Ca  Ca0  1  0.500000  0.500000  0.755262  1
  Ca  Ca1  1  0.000000  0.000000  0.248423  1
  Ca  Ca2  1  0.000000  0.000000  0.751577  1
  Ca  Ca3  1  0.500000  0.500000  0.244738  1
  Nd  Nd4  1  0.668377  0.165781  0.098454  1
  Nd  Nd5  1  0.167538  0.666394  0.600541  1
  Nd  Nd6  1  0.331623  0.834219  0.098454  1
  Nd  Nd7  1  0.832462  0.333606  0.600541  1
  Nd  Nd8  1  0.834219  0.668377  0.098454  1
  Nd  Nd9  1  0.333606  0.167538  0.600541  1
  Nd  Nd10  1  0.165781  0.331623  0.098454  1
  Nd  Nd11  1  0.666394  0.832462  0.600541  1
  Nd  Nd12  1  0.834219  0.331623  0.901546  1
  Nd  Nd13  1  0.333606  0.832462  0.399459  1
  Nd  Nd14  1  0.165781  0.668377  0.901546  1
  Nd  Nd15  1  0.666394  0.167538  0.399459  1
  Nd  Nd16  1  0.668377  0.834219  0.901546  1
  Nd  Nd17  1  0.167538  0.333606  0.399459  1
  Nd  Nd18  1  0.331623  0.165781  0.901546  1
  Nd  Nd19  1  0.832462  0.666394  0.399459  1
  In  In20  1  0.626874  0.127169  0.750512  1
  In  In21  1  0.127169  0.626874  0.249488  1
  In  In22  1  0.872831  0.373126  0.249488  1
  In  In23  1  0.373126  0.872831  0.750512  1
  In  In24  1  0.872831  0.626874  0.750512  1
  In  In25  1  0.373126  0.127169  0.249488  1
  In  In26  1  0.127169  0.373126  0.750512  1
  In  In27  1  0.626874  0.872831  0.249488  1
  In  In28  1  0.000000  0.000000  0.000000  1
  Pb  Pb29  1  0.500000  0.500000  0.500000  1
  Pb  Pb30  1  0.500000  0.500000  0.000000  1
  Pb  Pb31  1  0.000000  0.000000  0.500000  1
