# generated using pymatgen
data_Np2SbO2
_symmetry_space_group_name_H-M   'P 1'
_cell_length_a   3.91865976
_cell_length_b   3.91866076
_cell_length_c   6.69000485
_cell_angle_alpha   73.44923543
_cell_angle_beta   73.44923344
_cell_angle_gamma   89.95481181
_symmetry_Int_Tables_number   1
_chemical_formula_structural   Np2SbO2
_chemical_formula_sum   'Np2 Sb1 O2'
_cell_volume   94.03293674
_cell_formula_units_Z   1
loop_
 _symmetry_equiv_pos_site_id
 _symmetry_equiv_pos_as_xyz
  1  'x, y, z'
loop_
 _atom_site_type_symbol
 _atom_site_label
 _atom_site_symmetry_multiplicity
 _atom_site_fract_x
 _atom_site_fract_y
 _atom_site_fract_z
 _atom_site_occupancy
  Np  Np0  1  0.654139  0.654139  0.697157  1
  Np  Np1  1  0.345861  0.345861  0.302843  1
  Sb  Sb2  1  0.000000  0.000000  0.000000  1
  O  O3  1  0.250385  0.749615  0.500000  1
  O  O4  1  0.749615  0.250385  0.500000  1
