# generated using pymatgen
data_Gd12ZnNi4Hg
_symmetry_space_group_name_H-M   'P 1'
_cell_length_a   8.38966770
_cell_length_b   8.40667797
_cell_length_c   8.40154800
_cell_angle_alpha   106.42753422
_cell_angle_beta   109.73837624
_cell_angle_gamma   112.39921924
_symmetry_Int_Tables_number   1
_chemical_formula_structural   Gd12ZnNi4Hg
_chemical_formula_sum   'Gd12 Zn1 Ni4 Hg1'
_cell_volume   454.36611825
_cell_formula_units_Z   1
loop_
 _symmetry_equiv_pos_site_id
 _symmetry_equiv_pos_as_xyz
  1  'x, y, z'
loop_
 _atom_site_type_symbol
 _atom_site_label
 _atom_site_symmetry_multiplicity
 _atom_site_fract_x
 _atom_site_fract_y
 _atom_site_fract_z
 _atom_site_occupancy
  Gd  Gd0  1  0.694082  0.266892  0.960919  1
  Gd  Gd1  1  0.305770  0.733143  0.039011  1
  Gd  Gd2  1  0.694626  0.732681  0.427595  1
  Gd  Gd3  1  0.307048  0.266773  0.573577  1
  Gd  Gd4  1  0.808769  0.133829  0.325724  1
  Gd  Gd5  1  0.807840  0.482963  0.674515  1
  Gd  Gd6  1  0.192036  0.867181  0.674643  1
  Gd  Gd7  1  0.192686  0.516533  0.326302  1
  Gd  Gd8  1  0.606481  0.786149  0.820680  1
  Gd  Gd9  1  0.967465  0.787097  0.180298  1
  Gd  Gd10  1  0.033625  0.213839  0.820364  1
  Gd  Gd11  1  0.392758  0.213110  0.179642  1
  Zn  Zn12  1  0.500501  0.500256  0.000747  1
  Ni  Ni13  1  0.848452  0.499666  0.348460  1
  Ni  Ni14  1  0.149576  0.500563  0.649674  1
  Ni  Ni15  1  0.998841  0.121931  0.120954  1
  Ni  Ni16  1  0.999534  0.878226  0.877713  1
  Hg  Hg17  1  0.499911  0.999169  0.499181  1
