# generated using pymatgen
data_Na3Tm2P12Ir10Rh9
_symmetry_space_group_name_H-M   'P 1'
_cell_length_a   12.63377200
_cell_length_b   12.63377194
_cell_length_c   3.94471900
_cell_angle_alpha   90.00000000
_cell_angle_beta   90.00000000
_cell_angle_gamma   119.99999493
_symmetry_Int_Tables_number   1
_chemical_formula_structural   Na3Tm2P12Ir10Rh9
_chemical_formula_sum   'Na3 Tm2 P12 Ir10 Rh9'
_cell_volume   545.27149337
_cell_formula_units_Z   1
loop_
 _symmetry_equiv_pos_site_id
 _symmetry_equiv_pos_as_xyz
  1  'x, y, z'
loop_
 _atom_site_type_symbol
 _atom_site_label
 _atom_site_symmetry_multiplicity
 _atom_site_fract_x
 _atom_site_fract_y
 _atom_site_fract_z
 _atom_site_occupancy
  Na  Na0  1  0.181911  0.181911  0.000000  1
  Na  Na1  1  0.818089  0.000000  0.000000  1
  Na  Na2  1  0.000000  0.818089  0.000000  1
  Tm  Tm3  1  0.333333  0.666667  0.500000  1
  Tm  Tm4  1  0.666667  0.333333  0.500000  1
  P  P5  1  0.312021  0.831196  0.000000  1
  P  P6  1  0.168804  0.480825  0.000000  1
  P  P7  1  0.519175  0.687979  0.000000  1
  P  P8  1  0.831196  0.312021  0.000000  1
  P  P9  1  0.480825  0.168804  0.000000  1
  P  P10  1  0.687979  0.519175  0.000000  1
  P  P11  1  0.361381  0.361381  0.500000  1
  P  P12  1  0.638619  0.000000  0.500000  1
  P  P13  1  0.000000  0.638619  0.500000  1
  P  P14  1  0.821949  0.821949  0.500000  1
  P  P15  1  0.178051  0.000000  0.500000  1
  P  P16  1  0.000000  0.178051  0.500000  1
  Ir  Ir17  1  0.132137  0.639692  0.000000  1
  Ir  Ir18  1  0.360308  0.492445  0.000000  1
  Ir  Ir19  1  0.507555  0.867863  0.000000  1
  Ir  Ir20  1  0.639692  0.132137  0.000000  1
  Ir  Ir21  1  0.492445  0.360308  0.000000  1
  Ir  Ir22  1  0.867863  0.507555  0.000000  1
  Ir  Ir23  1  0.716837  0.716837  0.000000  1
  Ir  Ir24  1  0.283163  0.000000  0.000000  1
  Ir  Ir25  1  0.000000  0.283163  0.000000  1
  Ir  Ir26  1  0.000000  0.000000  0.500000  1
  Rh  Rh27  1  0.195435  0.818085  0.500000  1
  Rh  Rh28  1  0.181915  0.377351  0.500000  1
  Rh  Rh29  1  0.622649  0.804565  0.500000  1
  Rh  Rh30  1  0.818085  0.195435  0.500000  1
  Rh  Rh31  1  0.377351  0.181915  0.500000  1
  Rh  Rh32  1  0.804565  0.622649  0.500000  1
  Rh  Rh33  1  0.541896  0.541896  0.500000  1
  Rh  Rh34  1  0.458104  0.000000  0.500000  1
  Rh  Rh35  1  0.000000  0.458104  0.500000  1
