# generated using pymatgen
data_Tm2ZnGa3Au2
_symmetry_space_group_name_H-M   'P 1'
_cell_length_a   5.54883508
_cell_length_b   5.54883538
_cell_length_c   6.65694867
_cell_angle_alpha   89.84956924
_cell_angle_beta   90.15042943
_cell_angle_gamma   132.34324939
_symmetry_Int_Tables_number   1
_chemical_formula_structural   Tm2ZnGa3Au2
_chemical_formula_sum   'Tm2 Zn1 Ga3 Au2'
_cell_volume   151.49340067
_cell_formula_units_Z   1
loop_
 _symmetry_equiv_pos_site_id
 _symmetry_equiv_pos_as_xyz
  1  'x, y, z'
loop_
 _atom_site_type_symbol
 _atom_site_label
 _atom_site_symmetry_multiplicity
 _atom_site_fract_x
 _atom_site_fract_y
 _atom_site_fract_z
 _atom_site_occupancy
  Tm  Tm0  1  0.591309  0.408691  0.249716  1
  Tm  Tm1  1  0.409182  0.590818  0.751700  1
  Zn  Zn2  1  0.878157  0.121843  0.052515  1
  Ga  Ga3  1  0.877916  0.122084  0.445379  1
  Ga  Ga4  1  0.120835  0.879165  0.550617  1
  Ga  Ga5  1  0.121440  0.878560  0.950453  1
  Au  Au6  1  0.299956  0.700045  0.251770  1
  Au  Au7  1  0.701206  0.298795  0.747848  1
