# generated using pymatgen
data_Er5CoPtO12
_symmetry_space_group_name_H-M   'P 1'
_cell_length_a   6.77707434
_cell_length_b   6.77707547
_cell_length_c   7.13676830
_cell_angle_alpha   74.61350753
_cell_angle_beta   74.61350746
_cell_angle_gamma   50.93185192
_symmetry_Int_Tables_number   1
_chemical_formula_structural   Er5CoPtO12
_chemical_formula_sum   'Er5 Co1 Pt1 O12'
_cell_volume   243.25172285
_cell_formula_units_Z   1
loop_
 _symmetry_equiv_pos_site_id
 _symmetry_equiv_pos_as_xyz
  1  'x, y, z'
loop_
 _atom_site_type_symbol
 _atom_site_label
 _atom_site_symmetry_multiplicity
 _atom_site_fract_x
 _atom_site_fract_y
 _atom_site_fract_z
 _atom_site_occupancy
  Er  Er0  1  0.295653  0.307693  0.359102  1
  Er  Er1  1  0.692307  0.704347  0.640898  1
  Er  Er2  1  0.305921  0.308796  0.832871  1
  Er  Er3  1  0.691204  0.694079  0.167129  1
  Er  Er4  1  0.004660  0.995340  0.500000  1
  Co  Co5  1  0.250160  0.749840  0.000000  1
  Pt  Pt6  1  0.756922  0.243078  0.000000  1
  O  O7  1  0.904802  0.432659  0.915965  1
  O  O8  1  0.421347  0.900076  0.918339  1
  O  O9  1  0.099924  0.578653  0.081661  1
  O  O10  1  0.567341  0.095198  0.084035  1
  O  O11  1  0.096046  0.599342  0.573592  1
  O  O12  1  0.598707  0.098712  0.574333  1
  O  O13  1  0.901288  0.401293  0.425667  1
  O  O14  1  0.400658  0.903954  0.426408  1
  O  O15  1  0.016725  0.984168  0.820624  1
  O  O16  1  0.015832  0.983275  0.179376  1
  O  O17  1  0.490678  0.510174  0.816380  1
  O  O18  1  0.489826  0.509322  0.183620  1
