# generated using pymatgen
data_Y8PPdPt23
_symmetry_space_group_name_H-M   'P 1'
_cell_length_a   8.40415000
_cell_length_b   8.37110100
_cell_length_c   8.37110100
_cell_angle_alpha   90.00000000
_cell_angle_beta   90.00000000
_cell_angle_gamma   90.00000000
_symmetry_Int_Tables_number   1
_chemical_formula_structural   Y8PPdPt23
_chemical_formula_sum   'Y8 P1 Pd1 Pt23'
_cell_volume   588.92360103
_cell_formula_units_Z   1
loop_
 _symmetry_equiv_pos_site_id
 _symmetry_equiv_pos_as_xyz
  1  'x, y, z'
loop_
 _atom_site_type_symbol
 _atom_site_label
 _atom_site_symmetry_multiplicity
 _atom_site_fract_x
 _atom_site_fract_y
 _atom_site_fract_z
 _atom_site_occupancy
  Y  Y0  1  0.254127  0.253677  0.746323  1
  Y  Y1  1  0.254127  0.746323  0.253677  1
  Y  Y2  1  0.744626  0.254197  0.254197  1
  Y  Y3  1  0.744626  0.745803  0.745803  1
  Y  Y4  1  0.744626  0.745803  0.254197  1
  Y  Y5  1  0.744626  0.254197  0.745803  1
  Y  Y6  1  0.254127  0.746323  0.746323  1
  Y  Y7  1  0.254127  0.253677  0.253677  1
  P  P8  1  0.008688  0.000000  0.000000  1
  Pd  Pd9  1  0.730341  0.000000  0.000000  1
  Pt  Pt10  1  0.499298  0.500000  0.748828  1
  Pt  Pt11  1  0.499298  0.251172  0.500000  1
  Pt  Pt12  1  0.251626  0.500000  0.500000  1
  Pt  Pt13  1  0.499298  0.500000  0.251172  1
  Pt  Pt14  1  0.499298  0.748828  0.500000  1
  Pt  Pt15  1  0.748157  0.500000  0.500000  1
  Pt  Pt16  1  0.998158  0.000000  0.724045  1
  Pt  Pt17  1  0.998158  0.275955  0.000000  1
  Pt  Pt18  1  0.280884  0.000000  0.000000  1
  Pt  Pt19  1  0.998158  0.000000  0.275955  1
  Pt  Pt20  1  0.998158  0.724045  0.000000  1
  Pt  Pt21  1  0.999792  0.500000  0.744088  1
  Pt  Pt22  1  0.500225  0.255441  0.000000  1
  Pt  Pt23  1  0.255658  0.000000  0.500000  1
  Pt  Pt24  1  0.999792  0.255912  0.500000  1
  Pt  Pt25  1  0.500225  0.000000  0.744559  1
  Pt  Pt26  1  0.255658  0.500000  0.000000  1
  Pt  Pt27  1  0.999792  0.500000  0.255912  1
  Pt  Pt28  1  0.500225  0.744559  0.000000  1
  Pt  Pt29  1  0.999792  0.744088  0.500000  1
  Pt  Pt30  1  0.500225  0.000000  0.255441  1
  Pt  Pt31  1  0.742042  0.000000  0.500000  1
  Pt  Pt32  1  0.742042  0.500000  0.000000  1
