# generated using pymatgen
data_Tb3Er13InAg3Rh4
_symmetry_space_group_name_H-M   'P 1'
_cell_length_a   9.48950069
_cell_length_b   9.48507732
_cell_length_c   9.48263947
_cell_angle_alpha   60.18214099
_cell_angle_beta   60.17524224
_cell_angle_gamma   60.19513725
_symmetry_Int_Tables_number   1
_chemical_formula_structural   Tb3Er13InAg3Rh4
_chemical_formula_sum   'Tb3 Er13 In1 Ag3 Rh4'
_cell_volume   606.04662786
_cell_formula_units_Z   1
loop_
 _symmetry_equiv_pos_site_id
 _symmetry_equiv_pos_as_xyz
  1  'x, y, z'
loop_
 _atom_site_type_symbol
 _atom_site_label
 _atom_site_symmetry_multiplicity
 _atom_site_fract_x
 _atom_site_fract_y
 _atom_site_fract_z
 _atom_site_occupancy
  Tb  Tb0  1  0.189271  0.190268  0.810531  1
  Tb  Tb1  1  0.436065  0.063151  0.062971  1
  Tb  Tb2  1  0.435189  0.060611  0.435117  1
  Er  Er3  1  0.062572  0.436333  0.063680  1
  Er  Er4  1  0.649629  0.052538  0.647951  1
  Er  Er5  1  0.188715  0.811457  0.812832  1
  Er  Er6  1  0.062140  0.063533  0.435937  1
  Er  Er7  1  0.810306  0.189875  0.189931  1
  Er  Er8  1  0.813298  0.811814  0.188655  1
  Er  Er9  1  0.648717  0.647934  0.053192  1
  Er  Er10  1  0.648820  0.648424  0.648673  1
  Er  Er11  1  0.060051  0.435916  0.434683  1
  Er  Er12  1  0.053020  0.648984  0.648226  1
  Er  Er13  1  0.812321  0.188942  0.811984  1
  Er  Er14  1  0.435045  0.436049  0.060238  1
  Er  Er15  1  0.189316  0.809894  0.190339  1
  In  In16  1  0.421162  0.421621  0.420724  1
  Ag  Ag17  1  0.417064  0.747706  0.418145  1
  Ag  Ag18  1  0.417417  0.418477  0.748497  1
  Ag  Ag19  1  0.749353  0.417316  0.417368  1
  Rh  Rh20  1  0.855760  0.430125  0.856806  1
  Rh  Rh21  1  0.857313  0.856535  0.429107  1
  Rh  Rh22  1  0.429756  0.855327  0.857261  1
  Rh  Rh23  1  0.857700  0.857170  0.857151  1
