# generated using pymatgen
data_CaPr4Nd5Ru4
_symmetry_space_group_name_H-M   'P 1'
_cell_length_a   8.88957109
_cell_length_b   8.84333576
_cell_length_c   7.46357486
_cell_angle_alpha   83.35237201
_cell_angle_beta   83.75509854
_cell_angle_gamma   43.94543315
_symmetry_Int_Tables_number   1
_chemical_formula_structural   CaPr4Nd5Ru4
_chemical_formula_sum   'Ca1 Pr4 Nd5 Ru4'
_cell_volume   404.16711945
_cell_formula_units_Z   1
loop_
 _symmetry_equiv_pos_site_id
 _symmetry_equiv_pos_as_xyz
  1  'x, y, z'
loop_
 _atom_site_type_symbol
 _atom_site_label
 _atom_site_symmetry_multiplicity
 _atom_site_fract_x
 _atom_site_fract_y
 _atom_site_fract_z
 _atom_site_occupancy
  Ca  Ca0  1  0.016753  0.795482  0.918197  1
  Pr  Pr1  1  0.202417  0.981211  0.585107  1
  Pr  Pr2  1  0.982007  0.203787  0.084781  1
  Pr  Pr3  1  0.795751  0.016842  0.413799  1
  Pr  Pr4  1  0.360399  0.208727  0.814190  1
  Nd  Nd5  1  0.795622  0.636866  0.686840  1
  Nd  Nd6  1  0.638832  0.793503  0.187419  1
  Nd  Nd7  1  0.207473  0.359627  0.314914  1
  Nd  Nd8  1  0.571713  0.426860  0.752415  1
  Nd  Nd9  1  0.424741  0.575944  0.249322  1
  Ru  Ru10  1  0.184217  0.593609  0.564683  1
  Ru  Ru11  1  0.404633  0.826840  0.922987  1
  Ru  Ru12  1  0.823409  0.395616  0.425690  1
  Ru  Ru13  1  0.592035  0.185086  0.079658  1
