# generated using pymatgen
data_LiY15HoIn3Rh4
_symmetry_space_group_name_H-M   'P 1'
_cell_length_a   9.70644837
_cell_length_b   9.70644827
_cell_length_c   9.70644830
_cell_angle_alpha   59.80431059
_cell_angle_beta   59.80431301
_cell_angle_gamma   59.80431258
_symmetry_Int_Tables_number   1
_chemical_formula_structural   LiY15HoIn3Rh4
_chemical_formula_sum   'Li1 Y15 Ho1 In3 Rh4'
_cell_volume   643.77266915
_cell_formula_units_Z   1
loop_
 _symmetry_equiv_pos_site_id
 _symmetry_equiv_pos_as_xyz
  1  'x, y, z'
loop_
 _atom_site_type_symbol
 _atom_site_label
 _atom_site_symmetry_multiplicity
 _atom_site_fract_x
 _atom_site_fract_y
 _atom_site_fract_z
 _atom_site_occupancy
  Li  Li0  1  0.821983  0.821983  0.821983  1
  Y  Y1  1  0.188004  0.188004  0.812296  1
  Y  Y2  1  0.600080  0.600080  0.201545  1
  Y  Y3  1  0.441691  0.058436  0.441691  1
  Y  Y4  1  0.441691  0.441691  0.058436  1
  Y  Y5  1  0.812911  0.186953  0.812911  1
  Y  Y6  1  0.188004  0.812296  0.188004  1
  Y  Y7  1  0.436496  0.062744  0.062744  1
  Y  Y8  1  0.186953  0.812911  0.812911  1
  Y  Y9  1  0.062744  0.436496  0.062744  1
  Y  Y10  1  0.812911  0.812911  0.186953  1
  Y  Y11  1  0.201545  0.600080  0.600080  1
  Y  Y12  1  0.058436  0.441691  0.441691  1
  Y  Y13  1  0.062744  0.062744  0.436496  1
  Y  Y14  1  0.812296  0.188004  0.188004  1
  Y  Y15  1  0.600080  0.201545  0.600080  1
  Ho  Ho16  1  0.599623  0.599623  0.599623  1
  In  In17  1  0.832857  0.832857  0.503418  1
  In  In18  1  0.503418  0.832857  0.832857  1
  In  In19  1  0.832857  0.503418  0.832857  1
  Rh  Rh20  1  0.393542  0.822652  0.393542  1
  Rh  Rh21  1  0.392942  0.392942  0.392942  1
  Rh  Rh22  1  0.822652  0.393542  0.393542  1
  Rh  Rh23  1  0.393542  0.393542  0.822652  1
