# generated using pymatgen
data_Y10ZnIn8Ir3
_symmetry_space_group_name_H-M   'P 1'
_cell_length_a   3.66890800
_cell_length_b   8.11495054
_cell_length_c   18.30041912
_cell_angle_alpha   90.13555017
_cell_angle_beta   90.00000000
_cell_angle_gamma   90.00000000
_symmetry_Int_Tables_number   1
_chemical_formula_structural   Y10ZnIn8Ir3
_chemical_formula_sum   'Y10 Zn1 In8 Ir3'
_cell_volume   544.85698089
_cell_formula_units_Z   1
loop_
 _symmetry_equiv_pos_site_id
 _symmetry_equiv_pos_as_xyz
  1  'x, y, z'
loop_
 _atom_site_type_symbol
 _atom_site_label
 _atom_site_symmetry_multiplicity
 _atom_site_fract_x
 _atom_site_fract_y
 _atom_site_fract_z
 _atom_site_occupancy
  Y  Y0  1  0.500000  0.259215  0.781965  1
  Y  Y1  1  0.500000  0.757495  0.222442  1
  Y  Y2  1  0.500000  0.258632  0.277854  1
  Y  Y3  1  0.500000  0.719714  0.721586  1
  Y  Y4  1  0.500000  0.121402  0.580795  1
  Y  Y5  1  0.500000  0.886357  0.410699  1
  Y  Y6  1  0.500000  0.384214  0.089450  1
  Y  Y7  1  0.500000  0.614659  0.914450  1
  Y  Y8  1  0.500000  0.999748  0.001099  1
  Y  Y9  1  0.500000  0.499411  0.498903  1
  Zn  Zn10  1  0.000000  0.020112  0.698669  1
  In  In11  1  0.000000  0.072223  0.149837  1
  In  In12  1  0.000000  0.920483  0.850057  1
  In  In13  1  0.000000  0.421682  0.647992  1
  In  In14  1  0.000000  0.573198  0.350822  1
  In  In15  1  0.000000  0.208795  0.430276  1
  In  In16  1  0.000000  0.794503  0.566910  1
  In  In17  1  0.000000  0.291670  0.933093  1
  In  In18  1  0.000000  0.707019  0.068733  1
  Ir  Ir19  1  0.000000  0.984172  0.303671  1
  Ir  Ir20  1  0.000000  0.483682  0.196124  1
  Ir  Ir21  1  0.000000  0.521614  0.804571  1
