# generated using pymatgen
data_Y19Lu(Cd3Ru)2
_symmetry_space_group_name_H-M   'P 1'
_cell_length_a   9.62241700
_cell_length_b   9.62241626
_cell_length_c   9.86454900
_cell_angle_alpha   90.00000000
_cell_angle_beta   90.00000000
_cell_angle_gamma   119.99999911
_symmetry_Int_Tables_number   1
_chemical_formula_structural   Y19Lu(Cd3Ru)2
_chemical_formula_sum   'Y19 Lu1 Cd6 Ru2'
_cell_volume   790.99945434
_cell_formula_units_Z   1
loop_
 _symmetry_equiv_pos_site_id
 _symmetry_equiv_pos_as_xyz
  1  'x, y, z'
loop_
 _atom_site_type_symbol
 _atom_site_label
 _atom_site_symmetry_multiplicity
 _atom_site_fract_x
 _atom_site_fract_y
 _atom_site_fract_z
 _atom_site_occupancy
  Y  Y0  1  0.000000  0.000000  0.000000  1
  Y  Y1  1  0.208794  0.791206  0.440354  1
  Y  Y2  1  0.208794  0.417589  0.440354  1
  Y  Y3  1  0.582411  0.791206  0.440354  1
  Y  Y4  1  0.791206  0.208794  0.559646  1
  Y  Y5  1  0.791206  0.582411  0.559646  1
  Y  Y6  1  0.417589  0.208794  0.559646  1
  Y  Y7  1  0.790112  0.209888  0.940190  1
  Y  Y8  1  0.790112  0.580222  0.940190  1
  Y  Y9  1  0.419778  0.209888  0.940190  1
  Y  Y10  1  0.209888  0.790112  0.059810  1
  Y  Y11  1  0.209888  0.419778  0.059810  1
  Y  Y12  1  0.580222  0.790112  0.059810  1
  Y  Y13  1  0.541374  0.458626  0.250106  1
  Y  Y14  1  0.541374  0.082747  0.250106  1
  Y  Y15  1  0.917253  0.458626  0.250106  1
  Y  Y16  1  0.458626  0.541374  0.749894  1
  Y  Y17  1  0.458626  0.917253  0.749894  1
  Y  Y18  1  0.082747  0.541374  0.749894  1
  Lu  Lu19  1  0.000000  0.000000  0.500000  1
  Cd  Cd20  1  0.885919  0.114081  0.251537  1
  Cd  Cd21  1  0.885919  0.771839  0.251537  1
  Cd  Cd22  1  0.228161  0.114081  0.251537  1
  Cd  Cd23  1  0.114081  0.885919  0.748463  1
  Cd  Cd24  1  0.114081  0.228161  0.748463  1
  Cd  Cd25  1  0.771839  0.885919  0.748463  1
  Ru  Ru26  1  0.333333  0.666667  0.250103  1
  Ru  Ru27  1  0.666667  0.333333  0.749897  1
