# generated using pymatgen
data_Y4Mg3ZnIr3Pd
_symmetry_space_group_name_H-M   'P 1'
_cell_length_a   4.10247700
_cell_length_b   7.12684080
_cell_length_c   8.48350685
_cell_angle_alpha   90.62850661
_cell_angle_beta   90.00000000
_cell_angle_gamma   90.00000000
_symmetry_Int_Tables_number   1
_chemical_formula_structural   Y4Mg3ZnIr3Pd
_chemical_formula_sum   'Y4 Mg3 Zn1 Ir3 Pd1'
_cell_volume   248.02330905
_cell_formula_units_Z   1
loop_
 _symmetry_equiv_pos_site_id
 _symmetry_equiv_pos_as_xyz
  1  'x, y, z'
loop_
 _atom_site_type_symbol
 _atom_site_label
 _atom_site_symmetry_multiplicity
 _atom_site_fract_x
 _atom_site_fract_y
 _atom_site_fract_z
 _atom_site_occupancy
  Y  Y0  1  0.250000  0.028568  0.325223  1
  Y  Y1  1  0.250000  0.562328  0.172930  1
  Y  Y2  1  0.750000  0.957234  0.681922  1
  Y  Y3  1  0.750000  0.467706  0.816208  1
  Mg  Mg4  1  0.250000  0.634840  0.560767  1
  Mg  Mg5  1  0.250000  0.131056  0.941215  1
  Mg  Mg6  1  0.750000  0.364503  0.440103  1
  Zn  Zn7  1  0.750000  0.862314  0.062102  1
  Ir  Ir8  1  0.250000  0.246858  0.628321  1
  Ir  Ir9  1  0.250000  0.755421  0.876464  1
  Ir  Ir10  1  0.750000  0.745628  0.367812  1
  Pd  Pd11  1  0.750000  0.243542  0.126935  1
