# generated using pymatgen
data_CaNd6IrCl12
_symmetry_space_group_name_H-M   'P 1'
_cell_length_a   9.33573394
_cell_length_b   9.19636209
_cell_length_c   9.35384590
_cell_angle_alpha   107.30075491
_cell_angle_beta   107.53406535
_cell_angle_gamma   106.70534460
_symmetry_Int_Tables_number   1
_chemical_formula_structural   CaNd6IrCl12
_chemical_formula_sum   'Ca1 Nd6 Ir1 Cl12'
_cell_volume   665.46560253
_cell_formula_units_Z   1
loop_
 _symmetry_equiv_pos_site_id
 _symmetry_equiv_pos_as_xyz
  1  'x, y, z'
loop_
 _atom_site_type_symbol
 _atom_site_label
 _atom_site_symmetry_multiplicity
 _atom_site_fract_x
 _atom_site_fract_y
 _atom_site_fract_z
 _atom_site_occupancy
  Ca  Ca0  1  0.500000  0.500000  0.500000  1
  Nd  Nd1  1  0.111628  0.315702  0.022229  1
  Nd  Nd2  1  0.324223  0.018947  0.117136  1
  Nd  Nd3  1  0.023292  0.118279  0.325110  1
  Nd  Nd4  1  0.976709  0.881721  0.674891  1
  Nd  Nd5  1  0.675777  0.981054  0.882864  1
  Nd  Nd6  1  0.888372  0.684298  0.977771  1
  Ir  Ir7  1  0.000000  0.000000  0.000000  1
  Cl  Cl8  1  0.207200  0.679361  0.069382  1
  Cl  Cl9  1  0.451419  0.368008  0.175299  1
  Cl  Cl10  1  0.685008  0.072674  0.205622  1
  Cl  Cl11  1  0.928415  0.793153  0.314725  1
  Cl  Cl12  1  0.175682  0.457242  0.372099  1
  Cl  Cl13  1  0.370695  0.172601  0.455044  1
  Cl  Cl14  1  0.629305  0.827399  0.544957  1
  Cl  Cl15  1  0.824319  0.542758  0.627901  1
  Cl  Cl16  1  0.071586  0.206847  0.685276  1
  Cl  Cl17  1  0.314993  0.927327  0.794378  1
  Cl  Cl18  1  0.548581  0.631992  0.824702  1
  Cl  Cl19  1  0.792800  0.320639  0.930618  1
