# generated using pymatgen
data_Y5Hf3(Co4As3)4
_symmetry_space_group_name_H-M   'P 1'
_cell_length_a   12.73417200
_cell_length_b   12.73417075
_cell_length_c   3.83572400
_cell_angle_alpha   90.00000000
_cell_angle_beta   90.00000000
_cell_angle_gamma   120.00000326
_symmetry_Int_Tables_number   1
_chemical_formula_structural   Y5Hf3(Co4As3)4
_chemical_formula_sum   'Y5 Hf3 Co16 As12'
_cell_volume   538.66573145
_cell_formula_units_Z   1
loop_
 _symmetry_equiv_pos_site_id
 _symmetry_equiv_pos_as_xyz
  1  'x, y, z'
loop_
 _atom_site_type_symbol
 _atom_site_label
 _atom_site_symmetry_multiplicity
 _atom_site_fract_x
 _atom_site_fract_y
 _atom_site_fract_z
 _atom_site_occupancy
  Y  Y0  1  0.182683  0.182683  0.500000  1
  Y  Y1  1  0.817317  0.000000  0.500000  1
  Y  Y2  1  0.000000  0.817317  0.500000  1
  Y  Y3  1  0.333333  0.666667  0.000000  1
  Y  Y4  1  0.666667  0.333333  0.000000  1
  Hf  Hf5  1  0.560959  0.560959  0.000000  1
  Hf  Hf6  1  0.439041  0.000000  0.000000  1
  Hf  Hf7  1  0.000000  0.439041  0.000000  1
  Co  Co8  1  0.718438  0.718438  0.500000  1
  Co  Co9  1  0.281562  0.000000  0.500000  1
  Co  Co10  1  0.000000  0.281562  0.500000  1
  Co  Co11  1  0.176893  0.374137  0.000000  1
  Co  Co12  1  0.625863  0.802757  0.000000  1
  Co  Co13  1  0.197243  0.823107  0.000000  1
  Co  Co14  1  0.802757  0.625863  0.000000  1
  Co  Co15  1  0.823107  0.197243  0.000000  1
  Co  Co16  1  0.374137  0.176893  0.000000  1
  Co  Co17  1  0.357569  0.479731  0.500000  1
  Co  Co18  1  0.520269  0.877839  0.500000  1
  Co  Co19  1  0.122161  0.642431  0.500000  1
  Co  Co20  1  0.877839  0.520269  0.500000  1
  Co  Co21  1  0.642431  0.122161  0.500000  1
  Co  Co22  1  0.479731  0.357569  0.500000  1
  Co  Co23  1  0.000000  0.000000  0.000000  1
  As  As24  1  0.822562  0.822562  0.000000  1
  As  As25  1  0.177438  0.000000  0.000000  1
  As  As26  1  0.000000  0.177438  0.000000  1
  As  As27  1  0.172693  0.482006  0.500000  1
  As  As28  1  0.517994  0.690687  0.500000  1
  As  As29  1  0.309313  0.827307  0.500000  1
  As  As30  1  0.690687  0.517994  0.500000  1
  As  As31  1  0.827307  0.309313  0.500000  1
  As  As32  1  0.482006  0.172693  0.500000  1
  As  As33  1  0.352305  0.352305  0.000000  1
  As  As34  1  0.647695  0.000000  0.000000  1
  As  As35  1  0.000000  0.647695  0.000000  1
