# generated using pymatgen
data_Ho3(ErC2)5
_symmetry_space_group_name_H-M   'P 1'
_cell_length_a   3.63970400
_cell_length_b   6.52246789
_cell_length_c   11.84353272
_cell_angle_alpha   90.90698035
_cell_angle_beta   90.00000000
_cell_angle_gamma   90.00000000
_symmetry_Int_Tables_number   1
_chemical_formula_structural   Ho3(ErC2)5
_chemical_formula_sum   'Ho3 Er5 C10'
_cell_volume   281.12849283
_cell_formula_units_Z   1
loop_
 _symmetry_equiv_pos_site_id
 _symmetry_equiv_pos_as_xyz
  1  'x, y, z'
loop_
 _atom_site_type_symbol
 _atom_site_label
 _atom_site_symmetry_multiplicity
 _atom_site_fract_x
 _atom_site_fract_y
 _atom_site_fract_z
 _atom_site_occupancy
  Ho  Ho0  1  0.500000  0.891355  0.195612  1
  Ho  Ho1  1  0.500000  0.604345  0.697475  1
  Ho  Ho2  1  0.500000  0.395148  0.303058  1
  Er  Er3  1  0.000000  0.256970  0.542345  1
  Er  Er4  1  0.000000  0.744199  0.457808  1
  Er  Er5  1  0.000000  0.756490  0.956725  1
  Er  Er6  1  0.000000  0.242805  0.042580  1
  Er  Er7  1  0.500000  0.108618  0.804240  1
  C  C8  1  0.500000  0.501182  0.500294  1
  C  C9  1  0.500000  0.999246  0.999453  1
  C  C10  1  0.000000  0.361767  0.734850  1
  C  C11  1  0.000000  0.637794  0.265371  1
  C  C12  1  0.000000  0.857831  0.762991  1
  C  C13  1  0.000000  0.142164  0.236422  1
  C  C14  1  0.000000  0.390380  0.847130  1
  C  C15  1  0.000000  0.605222  0.153399  1
  C  C16  1  0.000000  0.084877  0.344040  1
  C  C17  1  0.000000  0.919609  0.656208  1
