# generated using pymatgen
data_Mo2Ir2Os3Rh
_symmetry_space_group_name_H-M   'P 1'
_cell_length_a   5.55193293
_cell_length_b   5.54538077
_cell_length_c   4.40757500
_cell_angle_alpha   90.00000000
_cell_angle_beta   90.00000000
_cell_angle_gamma   120.32246876
_symmetry_Int_Tables_number   1
_chemical_formula_structural   Mo2Ir2Os3Rh
_chemical_formula_sum   'Mo2 Ir2 Os3 Rh1'
_cell_volume   117.13469044
_cell_formula_units_Z   1
loop_
 _symmetry_equiv_pos_site_id
 _symmetry_equiv_pos_as_xyz
  1  'x, y, z'
loop_
 _atom_site_type_symbol
 _atom_site_label
 _atom_site_symmetry_multiplicity
 _atom_site_fract_x
 _atom_site_fract_y
 _atom_site_fract_z
 _atom_site_occupancy
  Mo  Mo0  1  0.334095  0.670351  0.250000  1
  Mo  Mo1  1  0.665140  0.326278  0.750000  1
  Ir  Ir2  1  0.834957  0.667098  0.250000  1
  Ir  Ir3  1  0.328777  0.164153  0.250000  1
  Os  Os4  1  0.168332  0.836858  0.750000  1
  Os  Os5  1  0.668645  0.840175  0.750000  1
  Os  Os6  1  0.832820  0.163471  0.250000  1
  Rh  Rh7  1  0.167234  0.331616  0.750000  1
