# generated using pymatgen
data_Li2Dy8Sc10Si15As
_symmetry_space_group_name_H-M   'P 1'
_cell_length_a   7.04267147
_cell_length_b   7.38777984
_cell_length_c   14.01854648
_cell_angle_alpha   90.09432373
_cell_angle_beta   89.34107560
_cell_angle_gamma   90.15212506
_symmetry_Int_Tables_number   1
_chemical_formula_structural   Li2Dy8Sc10Si15As
_chemical_formula_sum   'Li2 Dy8 Sc10 Si15 As1'
_cell_volume   729.32910039
_cell_formula_units_Z   1
loop_
 _symmetry_equiv_pos_site_id
 _symmetry_equiv_pos_as_xyz
  1  'x, y, z'
loop_
 _atom_site_type_symbol
 _atom_site_label
 _atom_site_symmetry_multiplicity
 _atom_site_fract_x
 _atom_site_fract_y
 _atom_site_fract_z
 _atom_site_occupancy
  Li  Li0  1  0.163998  0.503690  0.752226  1
  Li  Li1  1  0.836426  0.496953  0.251066  1
  Dy  Dy2  1  0.010093  0.182724  0.098721  1
  Dy  Dy3  1  0.990233  0.817770  0.900970  1
  Dy  Dy4  1  0.485439  0.674583  0.901569  1
  Dy  Dy5  1  0.992896  0.814118  0.597187  1
  Dy  Dy6  1  0.515331  0.325761  0.098528  1
  Dy  Dy7  1  0.005491  0.186928  0.401863  1
  Dy  Dy8  1  0.512356  0.324899  0.400918  1
  Dy  Dy9  1  0.491425  0.673659  0.598601  1
  Sc  Sc10  1  0.336899  0.002045  0.251634  1
  Sc  Sc11  1  0.662889  0.998162  0.749020  1
  Sc  Sc12  1  0.333661  0.178840  0.627058  1
  Sc  Sc13  1  0.667890  0.820493  0.373440  1
  Sc  Sc14  1  0.154631  0.671608  0.375067  1
  Sc  Sc15  1  0.671139  0.818702  0.125884  1
  Sc  Sc16  1  0.842549  0.328099  0.624780  1
  Sc  Sc17  1  0.328253  0.180938  0.873769  1
  Sc  Sc18  1  0.835427  0.324509  0.873193  1
  Sc  Sc19  1  0.164959  0.675562  0.126260  1
  Si  Si20  1  0.032652  0.103688  0.748947  1
  Si  Si21  1  0.967374  0.895712  0.249864  1
  Si  Si22  1  0.458246  0.616328  0.249684  1
  Si  Si23  1  0.541512  0.383754  0.750474  1
  Si  Si24  1  0.290413  0.880367  0.749905  1
  Si  Si25  1  0.710417  0.118777  0.249465  1
  Si  Si26  1  0.218703  0.373239  0.250008  1
  Si  Si27  1  0.782060  0.627116  0.749768  1
  Si  Si28  1  0.813567  0.544320  0.466591  1
  Si  Si29  1  0.339017  0.964884  0.462148  1
  Si  Si30  1  0.841625  0.539085  0.033755  1
  Si  Si31  1  0.660727  0.034997  0.538564  1
  Si  Si32  1  0.158322  0.461286  0.965662  1
  Si  Si33  1  0.655576  0.033723  0.960434  1
  Si  Si34  1  0.344554  0.966739  0.039418  1
  As  As35  1  0.183247  0.455943  0.533557  1
