# generated using pymatgen
data_Zr3MnAl3Ga2
_symmetry_space_group_name_H-M   'P 1'
_cell_length_a   6.67768600
_cell_length_b   6.67768625
_cell_length_c   4.07577300
_cell_angle_alpha   90.00000000
_cell_angle_beta   90.00000000
_cell_angle_gamma   119.99999878
_symmetry_Int_Tables_number   1
_chemical_formula_structural   Zr3MnAl3Ga2
_chemical_formula_sum   'Zr3 Mn1 Al3 Ga2'
_cell_volume   157.39561487
_cell_formula_units_Z   1
loop_
 _symmetry_equiv_pos_site_id
 _symmetry_equiv_pos_as_xyz
  1  'x, y, z'
loop_
 _atom_site_type_symbol
 _atom_site_label
 _atom_site_symmetry_multiplicity
 _atom_site_fract_x
 _atom_site_fract_y
 _atom_site_fract_z
 _atom_site_occupancy
  Zr  Zr0  1  0.000000  0.399673  0.500000  1
  Zr  Zr1  1  0.600327  0.600327  0.500000  1
  Zr  Zr2  1  0.399673  0.000000  0.500000  1
  Mn  Mn3  1  0.000000  0.000000  0.500000  1
  Al  Al4  1  0.000000  0.766418  0.000000  1
  Al  Al5  1  0.233582  0.233582  0.000000  1
  Al  Al6  1  0.766418  0.000000  0.000000  1
  Ga  Ga7  1  0.333333  0.666667  0.000000  1
  Ga  Ga8  1  0.666667  0.333333  0.000000  1
