# generated using pymatgen
data_HoNp3Ga12Ag
_symmetry_space_group_name_H-M   'P 1'
_cell_length_a   7.52236236
_cell_length_b   7.52236199
_cell_length_c   7.55698800
_cell_angle_alpha   109.56449258
_cell_angle_beta   109.56449159
_cell_angle_gamma   109.37779743
_symmetry_Int_Tables_number   1
_chemical_formula_structural   HoNp3Ga12Ag
_chemical_formula_sum   'Ho1 Np3 Ga12 Ag1'
_cell_volume   328.80170599
_cell_formula_units_Z   1
loop_
 _symmetry_equiv_pos_site_id
 _symmetry_equiv_pos_as_xyz
  1  'x, y, z'
loop_
 _atom_site_type_symbol
 _atom_site_label
 _atom_site_symmetry_multiplicity
 _atom_site_fract_x
 _atom_site_fract_y
 _atom_site_fract_z
 _atom_site_occupancy
  Ho  Ho0  1  0.000000  0.000000  0.500000  1
  Np  Np1  1  0.500000  0.500000  0.500000  1
  Np  Np2  1  0.000000  0.500000  0.000000  1
  Np  Np3  1  0.500000  0.000000  0.000000  1
  Ga  Ga4  1  0.499067  0.749534  0.249534  1
  Ga  Ga5  1  0.500933  0.250466  0.750466  1
  Ga  Ga6  1  0.250466  0.500933  0.750466  1
  Ga  Ga7  1  0.749534  0.499067  0.249534  1
  Ga  Ga8  1  0.749534  0.250466  0.500000  1
  Ga  Ga9  1  0.250466  0.749534  0.500000  1
  Ga  Ga10  1  0.000000  0.303451  0.301502  1
  Ga  Ga11  1  0.000000  0.696549  0.698498  1
  Ga  Ga12  1  0.303451  0.000000  0.301502  1
  Ga  Ga13  1  0.696549  0.000000  0.698498  1
  Ga  Ga14  1  0.303451  0.303451  0.001948  1
  Ga  Ga15  1  0.696549  0.696549  0.998052  1
  Ag  Ag16  1  0.000000  0.000000  0.000000  1
