# generated using pymatgen
data_Lu8ReB24MoRu2
_symmetry_space_group_name_H-M   'P 1'
_cell_length_a   3.59982900
_cell_length_b   9.07046042
_cell_length_c   11.43084354
_cell_angle_alpha   89.98393415
_cell_angle_beta   90.00000000
_cell_angle_gamma   90.00000000
_symmetry_Int_Tables_number   1
_chemical_formula_structural   Lu8ReB24MoRu2
_chemical_formula_sum   'Lu8 Re1 B24 Mo1 Ru2'
_cell_volume   373.24110534
_cell_formula_units_Z   1
loop_
 _symmetry_equiv_pos_site_id
 _symmetry_equiv_pos_as_xyz
  1  'x, y, z'
loop_
 _atom_site_type_symbol
 _atom_site_label
 _atom_site_symmetry_multiplicity
 _atom_site_fract_x
 _atom_site_fract_y
 _atom_site_fract_z
 _atom_site_occupancy
  Lu  Lu0  1  0.000000  0.321840  0.414315  1
  Lu  Lu1  1  0.000000  0.680020  0.587037  1
  Lu  Lu2  1  0.000000  0.821258  0.085038  1
  Lu  Lu3  1  0.000000  0.176624  0.913938  1
  Lu  Lu4  1  0.000000  0.945525  0.371166  1
  Lu  Lu5  1  0.000000  0.058207  0.629089  1
  Lu  Lu6  1  0.000000  0.441399  0.127813  1
  Lu  Lu7  1  0.000000  0.556233  0.870335  1
  Re  Re8  1  0.000000  0.862321  0.820993  1
  B  B9  1  0.500000  0.550924  0.436397  1
  B  B10  1  0.500000  0.446205  0.567748  1
  B  B11  1  0.500000  0.053336  0.066714  1
  B  B12  1  0.500000  0.947026  0.934276  1
  B  B13  1  0.500000  0.752908  0.422106  1
  B  B14  1  0.500000  0.251130  0.580650  1
  B  B15  1  0.500000  0.248797  0.080079  1
  B  B16  1  0.500000  0.749145  0.919566  1
  B  B17  1  0.500000  0.795415  0.263242  1
  B  B18  1  0.500000  0.207978  0.734992  1
  B  B19  1  0.500000  0.291230  0.234381  1
  B  B20  1  0.500000  0.707281  0.764534  1
  B  B21  1  0.500000  0.630336  0.182132  1
  B  B22  1  0.500000  0.368407  0.815530  1
  B  B23  1  0.500000  0.131216  0.314994  1
  B  B24  1  0.500000  0.870124  0.684430  1
  B  B25  1  0.500000  0.982683  0.212156  1
  B  B26  1  0.500000  0.019645  0.788078  1
  B  B27  1  0.500000  0.476821  0.287507  1
  B  B28  1  0.500000  0.517526  0.712632  1
  B  B29  1  0.500000  0.600192  0.027134  1
  B  B30  1  0.500000  0.396507  0.971018  1
  B  B31  1  0.500000  0.104018  0.471434  1
  B  B32  1  0.500000  0.900318  0.528617  1
  Mo  Mo33  1  0.000000  0.638096  0.321105  1
  Ru  Ru34  1  0.000000  0.360813  0.680279  1
  Ru  Ru35  1  0.000000  0.138497  0.178547  1
