# generated using pymatgen
data_SrY3(Ga2Ag)4
_symmetry_space_group_name_H-M   'P 1'
_cell_length_a   4.40510200
_cell_length_b   7.04170176
_cell_length_c   10.38455602
_cell_angle_alpha   89.10507803
_cell_angle_beta   90.00000000
_cell_angle_gamma   90.00000000
_symmetry_Int_Tables_number   1
_chemical_formula_structural   SrY3(Ga2Ag)4
_chemical_formula_sum   'Sr1 Y3 Ga8 Ag4'
_cell_volume   322.08355527
_cell_formula_units_Z   1
loop_
 _symmetry_equiv_pos_site_id
 _symmetry_equiv_pos_as_xyz
  1  'x, y, z'
loop_
 _atom_site_type_symbol
 _atom_site_label
 _atom_site_symmetry_multiplicity
 _atom_site_fract_x
 _atom_site_fract_y
 _atom_site_fract_z
 _atom_site_occupancy
  Sr  Sr0  1  0.250000  0.776865  0.825960  1
  Y  Y1  1  0.750000  0.220388  0.172496  1
  Y  Y2  1  0.750000  0.721376  0.328394  1
  Y  Y3  1  0.250000  0.280414  0.671022  1
  Ga  Ga4  1  0.250000  0.928329  0.157424  1
  Ga  Ga5  1  0.750000  0.081463  0.850760  1
  Ga  Ga6  1  0.750000  0.567258  0.645498  1
  Ga  Ga7  1  0.250000  0.424841  0.344832  1
  Ga  Ga8  1  0.250000  0.698210  0.530340  1
  Ga  Ga9  1  0.750000  0.293107  0.461350  1
  Ga  Ga10  1  0.750000  0.798404  0.041335  1
  Ga  Ga11  1  0.250000  0.209350  0.965410  1
  Ag  Ag12  1  0.250000  0.543332  0.101227  1
  Ag  Ag13  1  0.750000  0.454967  0.904370  1
  Ag  Ag14  1  0.750000  0.957854  0.596112  1
  Ag  Ag15  1  0.250000  0.043842  0.403471  1
