# generated using pymatgen
data_Dy4Tc2MoOs5
_symmetry_space_group_name_H-M   'P 1'
_cell_length_a   5.29099326
_cell_length_b   5.24030219
_cell_length_c   9.00181000
_cell_angle_alpha   90.00000000
_cell_angle_beta   90.00000000
_cell_angle_gamma   117.22634894
_symmetry_Int_Tables_number   1
_chemical_formula_structural   Dy4Tc2MoOs5
_chemical_formula_sum   'Dy4 Tc2 Mo1 Os5'
_cell_volume   221.93500200
_cell_formula_units_Z   1
loop_
 _symmetry_equiv_pos_site_id
 _symmetry_equiv_pos_as_xyz
  1  'x, y, z'
loop_
 _atom_site_type_symbol
 _atom_site_label
 _atom_site_symmetry_multiplicity
 _atom_site_fract_x
 _atom_site_fract_y
 _atom_site_fract_z
 _atom_site_occupancy
  Dy  Dy0  1  0.328567  0.669956  0.436771  1
  Dy  Dy1  1  0.668750  0.334109  0.564124  1
  Dy  Dy2  1  0.668750  0.334109  0.935876  1
  Dy  Dy3  1  0.328567  0.669956  0.063229  1
  Tc  Tc4  1  0.174450  0.822402  0.750000  1
  Tc  Tc5  1  0.172318  0.339869  0.750000  1
  Mo  Mo6  1  0.832505  0.164104  0.250000  1
  Os  Os7  1  0.997827  0.006167  0.501594  1
  Os  Os8  1  0.997827  0.006167  0.998406  1
  Os  Os9  1  0.824980  0.651475  0.250000  1
  Os  Os10  1  0.345426  0.173654  0.250000  1
  Os  Os11  1  0.660035  0.828034  0.750000  1
