# generated using pymatgen
data_Tm3SiSe2
_symmetry_space_group_name_H-M   'P 1'
_cell_length_a   7.04068341
_cell_length_b   7.04068316
_cell_length_c   7.04068347
_cell_angle_alpha   146.47112539
_cell_angle_beta   132.43522435
_cell_angle_gamma   59.44509593
_symmetry_Int_Tables_number   1
_chemical_formula_structural   Tm3SiSe2
_chemical_formula_sum   'Tm3 Si1 Se2'
_cell_volume   141.02098884
_cell_formula_units_Z   1
loop_
 _symmetry_equiv_pos_site_id
 _symmetry_equiv_pos_as_xyz
  1  'x, y, z'
loop_
 _atom_site_type_symbol
 _atom_site_label
 _atom_site_symmetry_multiplicity
 _atom_site_fract_x
 _atom_site_fract_y
 _atom_site_fract_z
 _atom_site_occupancy
  Tm  Tm0  1  0.844815  0.344815  0.500000  1
  Tm  Tm1  1  0.500000  0.000000  0.500000  1
  Tm  Tm2  1  0.155185  0.655185  0.500000  1
  Si  Si3  1  0.000000  0.000000  0.000000  1
  Se  Se4  1  0.669767  0.669767  0.000000  1
  Se  Se5  1  0.330233  0.330233  0.000000  1
