# generated using pymatgen
data_YEr7Ti11Si16Ir
_symmetry_space_group_name_H-M   'P 1'
_cell_length_a   7.01222601
_cell_length_b   7.01084748
_cell_length_c   12.82939652
_cell_angle_alpha   90.12892382
_cell_angle_beta   89.86016731
_cell_angle_gamma   89.80377647
_symmetry_Int_Tables_number   1
_chemical_formula_structural   YEr7Ti11Si16Ir
_chemical_formula_sum   'Y1 Er7 Ti11 Si16 Ir1'
_cell_volume   630.70707759
_cell_formula_units_Z   1
loop_
 _symmetry_equiv_pos_site_id
 _symmetry_equiv_pos_as_xyz
  1  'x, y, z'
loop_
 _atom_site_type_symbol
 _atom_site_label
 _atom_site_symmetry_multiplicity
 _atom_site_fract_x
 _atom_site_fract_y
 _atom_site_fract_z
 _atom_site_occupancy
  Y  Y0  1  0.340507  0.005125  0.467495  1
  Er  Er1  1  0.496414  0.841586  0.718353  1
  Er  Er2  1  0.500918  0.157927  0.214676  1
  Er  Er3  1  0.841757  0.496390  0.281816  1
  Er  Er4  1  0.157857  0.500877  0.785228  1
  Er  Er5  1  0.656792  0.997836  0.968722  1
  Er  Er6  1  0.003882  0.341431  0.532738  1
  Er  Er7  1  0.997909  0.656884  0.031233  1
  Ti  Ti8  1  0.174941  0.826876  0.247644  1
  Ti  Ti9  1  0.827049  0.175169  0.752139  1
  Ti  Ti10  1  0.674405  0.673543  0.500039  1
  Ti  Ti11  1  0.148720  0.001449  0.875602  1
  Ti  Ti12  1  0.493826  0.656141  0.124702  1
  Ti  Ti13  1  0.506850  0.350593  0.628556  1
  Ti  Ti14  1  0.656211  0.493830  0.875244  1
  Ti  Ti15  1  0.350388  0.506615  0.371603  1
  Ti  Ti16  1  0.849123  0.994603  0.374618  1
  Ti  Ti17  1  0.001344  0.148850  0.124416  1
  Ti  Ti18  1  0.994305  0.849104  0.625535  1
  Si  Si19  1  0.202385  0.134195  0.685401  1
  Si  Si20  1  0.371555  0.701799  0.933058  1
  Si  Si21  1  0.632867  0.296819  0.433825  1
  Si  Si22  1  0.701775  0.371569  0.066951  1
  Si  Si23  1  0.295837  0.630892  0.566425  1
  Si  Si24  1  0.796278  0.866608  0.183294  1
  Si  Si25  1  0.133214  0.203397  0.314312  1
  Si  Si26  1  0.866667  0.796265  0.816716  1
  Si  Si27  1  0.286174  0.951606  0.063798  1
  Si  Si28  1  0.548380  0.792201  0.315242  1
  Si  Si29  1  0.449187  0.209121  0.818567  1
  Si  Si30  1  0.792977  0.547586  0.684213  1
  Si  Si31  1  0.209094  0.449210  0.181429  1
  Si  Si32  1  0.709439  0.048618  0.566155  1
  Si  Si33  1  0.951622  0.286132  0.936177  1
  Si  Si34  1  0.047671  0.707562  0.434111  1
  Ir  Ir35  1  0.331681  0.331592  0.999968  1
