# generated using pymatgen
data_Tb4Nd2PtRh17
_symmetry_space_group_name_H-M   'P 1'
_cell_length_a   5.31653100
_cell_length_b   5.31653133
_cell_length_c   17.54368600
_cell_angle_alpha   90.00000000
_cell_angle_beta   90.00000000
_cell_angle_gamma   120.00000416
_symmetry_Int_Tables_number   1
_chemical_formula_structural   Tb4Nd2PtRh17
_chemical_formula_sum   'Tb4 Nd2 Pt1 Rh17'
_cell_volume   429.44562954
_cell_formula_units_Z   1
loop_
 _symmetry_equiv_pos_site_id
 _symmetry_equiv_pos_as_xyz
  1  'x, y, z'
loop_
 _atom_site_type_symbol
 _atom_site_label
 _atom_site_symmetry_multiplicity
 _atom_site_fract_x
 _atom_site_fract_y
 _atom_site_fract_z
 _atom_site_occupancy
  Tb  Tb0  1  0.333333  0.666667  0.541675  1
  Tb  Tb1  1  0.666667  0.333333  0.042578  1
  Tb  Tb2  1  0.666667  0.333333  0.458325  1
  Tb  Tb3  1  0.333333  0.666667  0.957422  1
  Nd  Nd4  1  0.333333  0.666667  0.749908  1
  Nd  Nd5  1  0.666667  0.333333  0.250092  1
  Pt  Pt6  1  0.000000  0.000000  0.000000  1
  Rh  Rh7  1  0.167448  0.334895  0.126321  1
  Rh  Rh8  1  0.832743  0.665488  0.625580  1
  Rh  Rh9  1  0.665105  0.832552  0.126321  1
  Rh  Rh10  1  0.167448  0.832552  0.126321  1
  Rh  Rh11  1  0.832743  0.167257  0.625580  1
  Rh  Rh12  1  0.334512  0.167257  0.625580  1
  Rh  Rh13  1  0.832552  0.665105  0.873679  1
  Rh  Rh14  1  0.832552  0.167448  0.873679  1
  Rh  Rh15  1  0.334895  0.167448  0.873679  1
  Rh  Rh16  1  0.665488  0.832743  0.374420  1
  Rh  Rh17  1  0.167257  0.832743  0.374420  1
  Rh  Rh18  1  0.167257  0.334512  0.374420  1
  Rh  Rh19  1  0.000000  0.000000  0.250412  1
  Rh  Rh20  1  0.000000  0.000000  0.749588  1
  Rh  Rh21  1  0.333333  0.666667  0.249801  1
  Rh  Rh22  1  0.666667  0.333333  0.750199  1
  Rh  Rh23  1  0.000000  0.000000  0.500000  1
