# generated using pymatgen
data_LaY3(Rh2O7)2
_symmetry_space_group_name_H-M   'P 1'
_cell_length_a   7.32562642
_cell_length_b   7.32562748
_cell_length_c   7.32562736
_cell_angle_alpha   59.40340105
_cell_angle_beta   59.40339125
_cell_angle_gamma   59.40340199
_symmetry_Int_Tables_number   1
_chemical_formula_structural   LaY3(Rh2O7)2
_chemical_formula_sum   'La1 Y3 Rh4 O14'
_cell_volume   274.20978118
_cell_formula_units_Z   1
loop_
 _symmetry_equiv_pos_site_id
 _symmetry_equiv_pos_as_xyz
  1  'x, y, z'
loop_
 _atom_site_type_symbol
 _atom_site_label
 _atom_site_symmetry_multiplicity
 _atom_site_fract_x
 _atom_site_fract_y
 _atom_site_fract_z
 _atom_site_occupancy
  La  La0  1  0.500000  0.500000  0.500000  1
  Y  Y1  1  0.000000  0.500000  0.500000  1
  Y  Y2  1  0.500000  0.500000  0.000000  1
  Y  Y3  1  0.500000  0.000000  0.500000  1
  Rh  Rh4  1  0.000000  0.000000  0.000000  1
  Rh  Rh5  1  0.500000  0.000000  0.000000  1
  Rh  Rh6  1  0.000000  0.000000  0.500000  1
  Rh  Rh7  1  0.000000  0.500000  0.000000  1
  O  O8  1  0.371190  0.371190  0.371190  1
  O  O9  1  0.628810  0.628810  0.628810  1
  O  O10  1  0.925725  0.334564  0.334564  1
  O  O11  1  0.334660  0.915051  0.915051  1
  O  O12  1  0.334564  0.334564  0.925725  1
  O  O13  1  0.915051  0.915051  0.334660  1
  O  O14  1  0.915051  0.334660  0.915051  1
  O  O15  1  0.334564  0.925725  0.334564  1
  O  O16  1  0.074275  0.665436  0.665436  1
  O  O17  1  0.665340  0.084949  0.084949  1
  O  O18  1  0.665436  0.665436  0.074275  1
  O  O19  1  0.084949  0.084949  0.665340  1
  O  O20  1  0.084949  0.665340  0.084949  1
  O  O21  1  0.665436  0.074275  0.665436  1
