# generated using pymatgen
data_SrCaSi3PbO9
_symmetry_space_group_name_H-M   'P 1'
_cell_length_a   6.91725428
_cell_length_b   6.94455709
_cell_length_c   9.71493948
_cell_angle_alpha   82.83555789
_cell_angle_beta   69.72753667
_cell_angle_gamma   76.13188797
_symmetry_Int_Tables_number   1
_chemical_formula_structural   SrCaSi3PbO9
_chemical_formula_sum   'Sr2 Ca2 Si6 Pb2 O18'
_cell_volume   424.56484657
_cell_formula_units_Z   2
loop_
 _symmetry_equiv_pos_site_id
 _symmetry_equiv_pos_as_xyz
  1  'x, y, z'
loop_
 _atom_site_type_symbol
 _atom_site_label
 _atom_site_symmetry_multiplicity
 _atom_site_fract_x
 _atom_site_fract_y
 _atom_site_fract_z
 _atom_site_occupancy
  Sr  Sr0  1  0.759007  0.738148  0.502590  1
  Sr  Sr1  1  0.240993  0.261852  0.497410  1
  Ca  Ca2  1  0.924289  0.560306  0.835259  1
  Ca  Ca3  1  0.075711  0.439694  0.164741  1
  Si  Si4  1  0.163250  0.899897  0.214425  1
  Si  Si5  1  0.836750  0.100103  0.785575  1
  Si  Si6  1  0.273351  0.762732  0.485617  1
  Si  Si7  1  0.726649  0.237268  0.514383  1
  Si  Si8  1  0.514637  0.563955  0.200646  1
  Si  Si9  1  0.485363  0.436045  0.799354  1
  Pb  Pb10  1  0.267461  0.893441  0.845270  1
  Pb  Pb11  1  0.732539  0.106559  0.154730  1
  O  O12  1  0.988072  0.767505  0.239589  1
  O  O13  1  0.011928  0.232495  0.760411  1
  O  O14  1  0.900343  0.892613  0.872785  1
  O  O15  1  0.099657  0.107387  0.127215  1
  O  O16  1  0.402485  0.769142  0.123049  1
  O  O17  1  0.597515  0.230858  0.876951  1
  O  O18  1  0.184410  0.941928  0.374283  1
  O  O19  1  0.815590  0.058072  0.625717  1
  O  O20  1  0.103926  0.626313  0.567684  1
  O  O21  1  0.896074  0.373687  0.432316  1
  O  O22  1  0.348827  0.874460  0.589124  1
  O  O23  1  0.651173  0.125540  0.410876  1
  O  O24  1  0.495483  0.636620  0.365245  1
  O  O25  1  0.504517  0.363380  0.634755  1
  O  O26  1  0.240414  0.519865  0.897049  1
  O  O27  1  0.759586  0.480135  0.102951  1
  O  O28  1  0.620616  0.608495  0.769597  1
  O  O29  1  0.379384  0.391505  0.230403  1
