# generated using pymatgen
data_Ti8Al15Co6Au
_symmetry_space_group_name_H-M   'P 1'
_cell_length_a   8.48575827
_cell_length_b   8.46853850
_cell_length_c   8.50671198
_cell_angle_alpha   119.93157048
_cell_angle_beta   119.75223629
_cell_angle_gamma   90.05152450
_symmetry_Int_Tables_number   1
_chemical_formula_structural   Ti8Al15Co6Au
_chemical_formula_sum   'Ti8 Al15 Co6 Au1'
_cell_volume   434.12544205
_cell_formula_units_Z   1
loop_
 _symmetry_equiv_pos_site_id
 _symmetry_equiv_pos_as_xyz
  1  'x, y, z'
loop_
 _atom_site_type_symbol
 _atom_site_label
 _atom_site_symmetry_multiplicity
 _atom_site_fract_x
 _atom_site_fract_y
 _atom_site_fract_z
 _atom_site_occupancy
  Ti  Ti0  1  0.791089  0.289354  0.076305  1
  Ti  Ti1  1  0.216472  0.289209  0.497322  1
  Ti  Ti2  1  0.213074  0.709292  0.500322  1
  Ti  Ti3  1  0.212486  0.715754  0.923296  1
  Ti  Ti4  1  0.788821  0.715219  0.502958  1
  Ti  Ti5  1  0.782782  0.285666  0.499983  1
  Ti  Ti6  1  0.394330  0.127181  0.752914  1
  Ti  Ti7  1  0.381656  0.639140  0.262195  1
  Al  Al8  1  0.997810  0.497153  0.499676  1
  Al  Al9  1  0.157635  0.341772  0.184806  1
  Al  Al10  1  0.164312  0.972980  0.828140  1
  Al  Al11  1  0.160524  0.357447  0.822582  1
  Al  Al12  1  0.532218  0.343623  0.190310  1
  Al  Al13  1  0.841615  0.656064  0.814054  1
  Al  Al14  1  0.835538  0.029806  0.172313  1
  Al  Al15  1  0.835064  0.642742  0.171290  1
  Al  Al16  1  0.473055  0.656752  0.814998  1
  Al  Al17  1  0.381415  0.122336  0.262716  1
  Al  Al18  1  0.857718  0.126229  0.752400  1
  Al  Al19  1  0.606325  0.873364  0.247333  1
  Al  Al20  1  0.618599  0.360938  0.737870  1
  Al  Al21  1  0.618875  0.875865  0.737782  1
  Al  Al22  1  0.141298  0.874558  0.248789  1
  Co  Co23  1  0.498316  0.000347  0.996362  1
  Co  Co24  1  0.498210  0.496811  0.000457  1
  Co  Co25  1  0.497315  0.500769  0.497223  1
  Co  Co26  1  0.004255  0.501386  0.004138  1
  Co  Co27  1  0.000928  0.000245  0.999896  1
  Co  Co28  1  0.498461  0.998320  0.501879  1
  Au  Au29  1  0.999799  0.999670  0.499691  1
