# generated using pymatgen
data_Hf18ReAs2W7
_symmetry_space_group_name_H-M   'P 1'
_cell_length_a   8.70561600
_cell_length_b   8.70561634
_cell_length_c   8.70456300
_cell_angle_alpha   90.00000000
_cell_angle_beta   90.00000000
_cell_angle_gamma   119.99999872
_symmetry_Int_Tables_number   1
_chemical_formula_structural   Hf18ReAs2W7
_chemical_formula_sum   'Hf18 Re1 As2 W7'
_cell_volume   571.31633357
_cell_formula_units_Z   1
loop_
 _symmetry_equiv_pos_site_id
 _symmetry_equiv_pos_as_xyz
  1  'x, y, z'
loop_
 _atom_site_type_symbol
 _atom_site_label
 _atom_site_symmetry_multiplicity
 _atom_site_fract_x
 _atom_site_fract_y
 _atom_site_fract_z
 _atom_site_occupancy
  Hf  Hf0  1  0.193907  0.387813  0.047016  1
  Hf  Hf1  1  0.805117  0.610236  0.546333  1
  Hf  Hf2  1  0.612187  0.806093  0.047016  1
  Hf  Hf3  1  0.193907  0.806093  0.047016  1
  Hf  Hf4  1  0.805117  0.194883  0.546333  1
  Hf  Hf5  1  0.389764  0.194883  0.546333  1
  Hf  Hf6  1  0.806093  0.612187  0.952984  1
  Hf  Hf7  1  0.806093  0.193907  0.952984  1
  Hf  Hf8  1  0.387813  0.193907  0.952984  1
  Hf  Hf9  1  0.610236  0.805117  0.453667  1
  Hf  Hf10  1  0.194883  0.805117  0.453667  1
  Hf  Hf11  1  0.194883  0.389764  0.453667  1
  Hf  Hf12  1  0.540148  0.080295  0.249113  1
  Hf  Hf13  1  0.459852  0.919705  0.750887  1
  Hf  Hf14  1  0.919705  0.459852  0.249113  1
  Hf  Hf15  1  0.540148  0.459852  0.249113  1
  Hf  Hf16  1  0.459852  0.540148  0.750887  1
  Hf  Hf17  1  0.080295  0.540148  0.750887  1
  Re  Re18  1  0.000000  0.000000  0.000000  1
  As  As19  1  0.333333  0.666667  0.249187  1
  As  As20  1  0.666667  0.333333  0.750813  1
  W  W21  1  0.000000  0.000000  0.500000  1
  W  W22  1  0.890316  0.780632  0.250049  1
  W  W23  1  0.109684  0.219368  0.749951  1
  W  W24  1  0.219368  0.109684  0.250049  1
  W  W25  1  0.890316  0.109684  0.250049  1
  W  W26  1  0.109684  0.890316  0.749951  1
  W  W27  1  0.780632  0.890316  0.749951  1
