# generated using pymatgen
data_Tb2FeCo7(MoP3)2
_symmetry_space_group_name_H-M   'P 1'
_cell_length_a   3.73151700
_cell_length_b   10.46240700
_cell_length_c   11.96150200
_cell_angle_alpha   90.00000000
_cell_angle_beta   90.00000000
_cell_angle_gamma   90.00000000
_symmetry_Int_Tables_number   1
_chemical_formula_structural   Tb2FeCo7(MoP3)2
_chemical_formula_sum   'Tb4 Fe2 Co14 Mo4 P12'
_cell_volume   466.98480805
_cell_formula_units_Z   2
loop_
 _symmetry_equiv_pos_site_id
 _symmetry_equiv_pos_as_xyz
  1  'x, y, z'
loop_
 _atom_site_type_symbol
 _atom_site_label
 _atom_site_symmetry_multiplicity
 _atom_site_fract_x
 _atom_site_fract_y
 _atom_site_fract_z
 _atom_site_occupancy
  Tb  Tb0  1  0.250000  0.582556  0.705116  1
  Tb  Tb1  1  0.250000  0.917444  0.205116  1
  Tb  Tb2  1  0.750000  0.418455  0.294441  1
  Tb  Tb3  1  0.750000  0.081545  0.794441  1
  Fe  Fe4  1  0.750000  0.534658  0.064952  1
  Fe  Fe5  1  0.750000  0.965342  0.564952  1
  Co  Co6  1  0.250000  0.406249  0.489225  1
  Co  Co7  1  0.250000  0.093751  0.989225  1
  Co  Co8  1  0.750000  0.593891  0.511485  1
  Co  Co9  1  0.750000  0.906109  0.011485  1
  Co  Co10  1  0.250000  0.223144  0.177036  1
  Co  Co11  1  0.250000  0.276856  0.677036  1
  Co  Co12  1  0.750000  0.777387  0.823223  1
  Co  Co13  1  0.750000  0.722613  0.323223  1
  Co  Co14  1  0.250000  0.885179  0.700632  1
  Co  Co15  1  0.250000  0.614821  0.200632  1
  Co  Co16  1  0.750000  0.114550  0.299811  1
  Co  Co17  1  0.750000  0.385450  0.799811  1
  Co  Co18  1  0.250000  0.463560  0.932521  1
  Co  Co19  1  0.250000  0.036440  0.432521  1
  Mo  Mo20  1  0.250000  0.707176  0.988420  1
  Mo  Mo21  1  0.250000  0.792824  0.488420  1
  Mo  Mo22  1  0.750000  0.292515  0.012175  1
  Mo  Mo23  1  0.750000  0.207485  0.512175  1
  P  P24  1  0.250000  0.423469  0.113928  1
  P  P25  1  0.250000  0.076531  0.613928  1
  P  P26  1  0.750000  0.578694  0.886292  1
  P  P27  1  0.750000  0.921306  0.386292  1
  P  P28  1  0.250000  0.269164  0.864479  1
  P  P29  1  0.250000  0.230836  0.364479  1
  P  P30  1  0.750000  0.728635  0.135736  1
  P  P31  1  0.750000  0.771365  0.635736  1
  P  P32  1  0.250000  0.597127  0.391851  1
  P  P33  1  0.250000  0.902873  0.891851  1
  P  P34  1  0.750000  0.403596  0.608677  1
  P  P35  1  0.750000  0.096404  0.108677  1
