# generated using pymatgen
data_Tb3Sc3FeBi2
_symmetry_space_group_name_H-M   'P 1'
_cell_length_a   7.96778300
_cell_length_b   7.96778283
_cell_length_c   4.19395500
_cell_angle_alpha   90.00000000
_cell_angle_beta   90.00000000
_cell_angle_gamma   120.00000487
_symmetry_Int_Tables_number   1
_chemical_formula_structural   Tb3Sc3FeBi2
_chemical_formula_sum   'Tb3 Sc3 Fe1 Bi2'
_cell_volume   230.58410292
_cell_formula_units_Z   1
loop_
 _symmetry_equiv_pos_site_id
 _symmetry_equiv_pos_as_xyz
  1  'x, y, z'
loop_
 _atom_site_type_symbol
 _atom_site_label
 _atom_site_symmetry_multiplicity
 _atom_site_fract_x
 _atom_site_fract_y
 _atom_site_fract_z
 _atom_site_occupancy
  Tb  Tb0  1  0.000000  0.611541  0.500000  1
  Tb  Tb1  1  0.388459  0.388459  0.500000  1
  Tb  Tb2  1  0.611541  0.000000  0.500000  1
  Sc  Sc3  1  0.220565  0.000000  0.000000  1
  Sc  Sc4  1  0.779435  0.779435  0.000000  1
  Sc  Sc5  1  0.000000  0.220565  0.000000  1
  Fe  Fe6  1  0.000000  0.000000  0.500000  1
  Bi  Bi7  1  0.333333  0.666667  0.000000  1
  Bi  Bi8  1  0.666667  0.333333  0.000000  1
