# generated using pymatgen
data_Sm2Si6SbRh12
_symmetry_space_group_name_H-M   'P 1'
_cell_length_a   9.94484200
_cell_length_b   9.94484130
_cell_length_c   3.86851700
_cell_angle_alpha   90.00000000
_cell_angle_beta   90.00000000
_cell_angle_gamma   120.00000233
_symmetry_Int_Tables_number   1
_chemical_formula_structural   Sm2Si6SbRh12
_chemical_formula_sum   'Sm2 Si6 Sb1 Rh12'
_cell_volume   331.33771722
_cell_formula_units_Z   1
loop_
 _symmetry_equiv_pos_site_id
 _symmetry_equiv_pos_as_xyz
  1  'x, y, z'
loop_
 _atom_site_type_symbol
 _atom_site_label
 _atom_site_symmetry_multiplicity
 _atom_site_fract_x
 _atom_site_fract_y
 _atom_site_fract_z
 _atom_site_occupancy
  Sm  Sm0  1  0.333333  0.666667  0.246660  1
  Sm  Sm1  1  0.666667  0.333333  0.753340  1
  Si  Si2  1  0.401957  0.109119  0.252133  1
  Si  Si3  1  0.707163  0.598043  0.252133  1
  Si  Si4  1  0.890881  0.292837  0.252133  1
  Si  Si5  1  0.598043  0.890881  0.747867  1
  Si  Si6  1  0.292837  0.401957  0.747867  1
  Si  Si7  1  0.109119  0.707163  0.747867  1
  Sb  Sb8  1  0.000000  0.000000  0.500000  1
  Rh  Rh9  1  0.445679  0.382324  0.250389  1
  Rh  Rh10  1  0.936645  0.554321  0.250389  1
  Rh  Rh11  1  0.617676  0.063355  0.250389  1
  Rh  Rh12  1  0.554321  0.617676  0.749611  1
  Rh  Rh13  1  0.063355  0.445679  0.749611  1
  Rh  Rh14  1  0.382324  0.936645  0.749611  1
  Rh  Rh15  1  0.150609  0.874025  0.244231  1
  Rh  Rh16  1  0.723417  0.849391  0.244231  1
  Rh  Rh17  1  0.125975  0.276583  0.244231  1
  Rh  Rh18  1  0.849391  0.125975  0.755769  1
  Rh  Rh19  1  0.276583  0.150609  0.755769  1
  Rh  Rh20  1  0.874025  0.723417  0.755769  1
