# generated using pymatgen
data_HoEr(Si2Rh3)2
_symmetry_space_group_name_H-M   'P 1'
_cell_length_a   6.62041554
_cell_length_b   6.62041546
_cell_length_c   6.62041603
_cell_angle_alpha   130.37454896
_cell_angle_beta   114.17176389
_cell_angle_gamma   86.71773428
_symmetry_Int_Tables_number   1
_chemical_formula_structural   HoEr(Si2Rh3)2
_chemical_formula_sum   'Ho1 Er1 Si4 Rh6'
_cell_volume   192.43603449
_cell_formula_units_Z   1
loop_
 _symmetry_equiv_pos_site_id
 _symmetry_equiv_pos_as_xyz
  1  'x, y, z'
loop_
 _atom_site_type_symbol
 _atom_site_label
 _atom_site_symmetry_multiplicity
 _atom_site_fract_x
 _atom_site_fract_y
 _atom_site_fract_z
 _atom_site_occupancy
  Ho  Ho0  1  0.750000  0.047677  0.297677  1
  Er  Er1  1  0.250000  0.952112  0.702112  1
  Si  Si2  1  0.578476  0.385262  0.806786  1
  Si  Si3  1  0.921524  0.728310  0.806786  1
  Si  Si4  1  0.421475  0.614652  0.193177  1
  Si  Si5  1  0.078525  0.271702  0.193177  1
  Rh  Rh6  1  0.213688  0.500106  0.713683  1
  Rh  Rh7  1  0.786423  0.500106  0.286417  1
  Rh  Rh8  1  0.499943  0.500042  0.499985  1
  Rh  Rh9  1  0.000057  0.500042  0.000099  1
  Rh  Rh10  1  0.713577  0.999995  0.713683  1
  Rh  Rh11  1  0.286312  0.999995  0.286417  1
