# generated using pymatgen
data_Nd2Fe4P7Ir5Ru3
_symmetry_space_group_name_H-M   'P 1'
_cell_length_a   9.35298124
_cell_length_b   9.30685430
_cell_length_c   3.87700700
_cell_angle_alpha   90.00000000
_cell_angle_beta   90.00000000
_cell_angle_gamma   119.77095773
_symmetry_Int_Tables_number   1
_chemical_formula_structural   Nd2Fe4P7Ir5Ru3
_chemical_formula_sum   'Nd2 Fe4 P7 Ir5 Ru3'
_cell_volume   292.93948887
_cell_formula_units_Z   1
loop_
 _symmetry_equiv_pos_site_id
 _symmetry_equiv_pos_as_xyz
  1  'x, y, z'
loop_
 _atom_site_type_symbol
 _atom_site_label
 _atom_site_symmetry_multiplicity
 _atom_site_fract_x
 _atom_site_fract_y
 _atom_site_fract_z
 _atom_site_occupancy
  Nd  Nd0  1  0.665718  0.333647  0.000000  1
  Nd  Nd1  1  0.332721  0.660634  0.500000  1
  Fe  Fe2  1  0.367272  0.423084  0.000000  1
  Fe  Fe3  1  0.268499  0.114651  0.000000  1
  Fe  Fe4  1  0.840523  0.729681  0.000000  1
  Fe  Fe5  1  0.890079  0.159653  0.000000  1
  P  P6  1  0.297264  0.893997  0.000000  1
  P  P7  1  0.585774  0.691324  0.000000  1
  P  P8  1  0.119181  0.401602  0.000000  1
  P  P9  1  0.394703  0.286604  0.500000  1
  P  P10  1  0.883059  0.606019  0.500000  1
  P  P11  1  0.722706  0.117894  0.500000  1
  P  P12  1  0.998956  0.999568  0.000000  1
  Ir  Ir13  1  0.064614  0.635212  0.000000  1
  Ir  Ir14  1  0.572342  0.935494  0.000000  1
  Ir  Ir15  1  0.438604  0.055370  0.500000  1
  Ir  Ir16  1  0.611950  0.561235  0.500000  1
  Ir  Ir17  1  0.946037  0.387247  0.500000  1
  Ru  Ru18  1  0.089503  0.876557  0.500000  1
  Ru  Ru19  1  0.782902  0.909227  0.500000  1
  Ru  Ru20  1  0.127594  0.221300  0.500000  1
