# generated using pymatgen
data_Mn2Al12FeSi8Ru
_symmetry_space_group_name_H-M   'P 1'
_cell_length_a   6.15511496
_cell_length_b   6.15819000
_cell_length_c   9.44976301
_cell_angle_alpha   90.00000000
_cell_angle_beta   90.19500274
_cell_angle_gamma   90.00000000
_symmetry_Int_Tables_number   1
_chemical_formula_structural   Mn2Al12FeSi8Ru
_chemical_formula_sum   'Mn2 Al12 Fe1 Si8 Ru1'
_cell_volume   358.18521400
_cell_formula_units_Z   1
loop_
 _symmetry_equiv_pos_site_id
 _symmetry_equiv_pos_as_xyz
  1  'x, y, z'
loop_
 _atom_site_type_symbol
 _atom_site_label
 _atom_site_symmetry_multiplicity
 _atom_site_fract_x
 _atom_site_fract_y
 _atom_site_fract_z
 _atom_site_occupancy
  Mn  Mn0  1  0.000000  0.984353  0.750000  1
  Mn  Mn1  1  0.500000  0.515617  0.250000  1
  Al  Al2  1  0.997810  0.000610  0.995885  1
  Al  Al3  1  0.501456  0.501221  0.998190  1
  Al  Al4  1  0.002190  0.000610  0.504115  1
  Al  Al5  1  0.498544  0.501221  0.501810  1
  Al  Al6  1  0.137486  0.630720  0.865402  1
  Al  Al7  1  0.633666  0.865464  0.133228  1
  Al  Al8  1  0.862514  0.630720  0.634598  1
  Al  Al9  1  0.366334  0.865464  0.366772  1
  Al  Al10  1  0.858264  0.376585  0.134307  1
  Al  Al11  1  0.361580  0.129812  0.865684  1
  Al  Al12  1  0.141736  0.376585  0.365693  1
  Al  Al13  1  0.638420  0.129812  0.634316  1
  Fe  Fe14  1  0.500000  0.484274  0.750000  1
  Si  Si15  1  0.169197  0.666885  0.154571  1
  Si  Si16  1  0.664486  0.824686  0.840657  1
  Si  Si17  1  0.830803  0.666885  0.345429  1
  Si  Si18  1  0.335514  0.824686  0.659343  1
  Si  Si19  1  0.835812  0.324872  0.840879  1
  Si  Si20  1  0.345950  0.179477  0.156764  1
  Si  Si21  1  0.164188  0.324872  0.659121  1
  Si  Si22  1  0.654050  0.179477  0.343236  1
  Ru  Ru23  1  0.000000  0.015093  0.250000  1
