# generated using pymatgen
data_Yb5Ce3(B6Os)4
_symmetry_space_group_name_H-M   'P 1'
_cell_length_a   3.68915600
_cell_length_b   9.11872487
_cell_length_c   11.48224713
_cell_angle_alpha   90.15966789
_cell_angle_beta   90.00000000
_cell_angle_gamma   90.00000000
_symmetry_Int_Tables_number   1
_chemical_formula_structural   Yb5Ce3(B6Os)4
_chemical_formula_sum   'Yb5 Ce3 B24 Os4'
_cell_volume   386.26586982
_cell_formula_units_Z   1
loop_
 _symmetry_equiv_pos_site_id
 _symmetry_equiv_pos_as_xyz
  1  'x, y, z'
loop_
 _atom_site_type_symbol
 _atom_site_label
 _atom_site_symmetry_multiplicity
 _atom_site_fract_x
 _atom_site_fract_y
 _atom_site_fract_z
 _atom_site_occupancy
  Yb  Yb0  1  0.000000  0.176467  0.912122  1
  Yb  Yb1  1  0.000000  0.945171  0.373810  1
  Yb  Yb2  1  0.000000  0.056242  0.628354  1
  Yb  Yb3  1  0.000000  0.441806  0.128115  1
  Yb  Yb4  1  0.000000  0.556386  0.871255  1
  Ce  Ce5  1  0.000000  0.319781  0.413849  1
  Ce  Ce6  1  0.000000  0.679118  0.588083  1
  Ce  Ce7  1  0.000000  0.822983  0.085168  1
  B  B8  1  0.500000  0.555142  0.431035  1
  B  B9  1  0.500000  0.445500  0.568598  1
  B  B10  1  0.500000  0.055027  0.067912  1
  B  B11  1  0.500000  0.945693  0.931178  1
  B  B12  1  0.500000  0.750066  0.418942  1
  B  B13  1  0.500000  0.250326  0.582190  1
  B  B14  1  0.500000  0.249434  0.080889  1
  B  B15  1  0.500000  0.751068  0.918221  1
  B  B16  1  0.500000  0.790820  0.266813  1
  B  B17  1  0.500000  0.208868  0.734176  1
  B  B18  1  0.500000  0.290325  0.232903  1
  B  B19  1  0.500000  0.709070  0.766790  1
  B  B20  1  0.500000  0.630416  0.185463  1
  B  B21  1  0.500000  0.369351  0.814368  1
  B  B22  1  0.500000  0.130918  0.314599  1
  B  B23  1  0.500000  0.869360  0.686341  1
  B  B24  1  0.500000  0.984337  0.212729  1
  B  B25  1  0.500000  0.017087  0.787032  1
  B  B26  1  0.500000  0.484011  0.286217  1
  B  B27  1  0.500000  0.515823  0.713392  1
  B  B28  1  0.500000  0.598435  0.027490  1
  B  B29  1  0.500000  0.401271  0.972151  1
  B  B30  1  0.500000  0.105246  0.471177  1
  B  B31  1  0.500000  0.894611  0.529625  1
  Os  Os32  1  0.000000  0.638677  0.320516  1
  Os  Os33  1  0.000000  0.362842  0.678070  1
  Os  Os34  1  0.000000  0.138682  0.179878  1
  Os  Os35  1  0.000000  0.859641  0.820550  1
