# generated using pymatgen
data_Dy4SiTc7
_symmetry_space_group_name_H-M   'P 1'
_cell_length_a   5.32792100
_cell_length_b   5.32792167
_cell_length_c   8.91304600
_cell_angle_alpha   90.00000000
_cell_angle_beta   90.00000000
_cell_angle_gamma   119.99998962
_symmetry_Int_Tables_number   1
_chemical_formula_structural   Dy4SiTc7
_chemical_formula_sum   'Dy4 Si1 Tc7'
_cell_volume   219.11516348
_cell_formula_units_Z   1
loop_
 _symmetry_equiv_pos_site_id
 _symmetry_equiv_pos_as_xyz
  1  'x, y, z'
loop_
 _atom_site_type_symbol
 _atom_site_label
 _atom_site_symmetry_multiplicity
 _atom_site_fract_x
 _atom_site_fract_y
 _atom_site_fract_z
 _atom_site_occupancy
  Dy  Dy0  1  0.333333  0.666667  0.435372  1
  Dy  Dy1  1  0.666667  0.333333  0.564628  1
  Dy  Dy2  1  0.666667  0.333333  0.934669  1
  Dy  Dy3  1  0.333333  0.666667  0.065331  1
  Si  Si4  1  0.000000  0.000000  0.500000  1
  Tc  Tc5  1  0.000000  0.000000  0.000000  1
  Tc  Tc6  1  0.830086  0.169914  0.254120  1
  Tc  Tc7  1  0.830086  0.660171  0.254120  1
  Tc  Tc8  1  0.339829  0.169914  0.254120  1
  Tc  Tc9  1  0.169914  0.830086  0.745880  1
  Tc  Tc10  1  0.169914  0.339829  0.745880  1
  Tc  Tc11  1  0.660171  0.830086  0.745880  1
