# generated using pymatgen
data_Cs2Ti6SnCBr18
_symmetry_space_group_name_H-M   'P 1'
_cell_length_a   10.99770968
_cell_length_b   10.99770983
_cell_length_c   10.99770946
_cell_angle_alpha   55.22449617
_cell_angle_beta   55.22449038
_cell_angle_gamma   55.22449296
_symmetry_Int_Tables_number   1
_chemical_formula_structural   Cs2Ti6SnCBr18
_chemical_formula_sum   'Cs2 Ti6 Sn1 C1 Br18'
_cell_volume   836.15999049
_cell_formula_units_Z   1
loop_
 _symmetry_equiv_pos_site_id
 _symmetry_equiv_pos_as_xyz
  1  'x, y, z'
loop_
 _atom_site_type_symbol
 _atom_site_label
 _atom_site_symmetry_multiplicity
 _atom_site_fract_x
 _atom_site_fract_y
 _atom_site_fract_z
 _atom_site_occupancy
  Cs  Cs0  1  0.775508  0.775508  0.775508  1
  Cs  Cs1  1  0.224492  0.224492  0.224492  1
  Ti  Ti2  1  0.145985  0.914490  0.805354  1
  Ti  Ti3  1  0.854015  0.085510  0.194646  1
  Ti  Ti4  1  0.085510  0.194646  0.854015  1
  Ti  Ti5  1  0.194646  0.854015  0.085510  1
  Ti  Ti6  1  0.914490  0.805354  0.145985  1
  Ti  Ti7  1  0.805354  0.145985  0.914490  1
  Sn  Sn8  1  0.500000  0.500000  0.500000  1
  C  C9  1  0.000000  0.000000  0.000000  1
  Br  Br10  1  0.185909  0.455672  0.668903  1
  Br  Br11  1  0.814091  0.544328  0.331097  1
  Br  Br12  1  0.326086  0.057915  0.930154  1
  Br  Br13  1  0.673914  0.942085  0.069846  1
  Br  Br14  1  0.930154  0.326086  0.057915  1
  Br  Br15  1  0.725843  0.877612  0.392344  1
  Br  Br16  1  0.331097  0.814091  0.544328  1
  Br  Br17  1  0.607656  0.274157  0.122388  1
  Br  Br18  1  0.274157  0.122388  0.607656  1
  Br  Br19  1  0.122388  0.607656  0.274157  1
  Br  Br20  1  0.942085  0.069846  0.673914  1
  Br  Br21  1  0.392344  0.725843  0.877612  1
  Br  Br22  1  0.877612  0.392344  0.725843  1
  Br  Br23  1  0.069846  0.673914  0.942085  1
  Br  Br24  1  0.455672  0.668903  0.185909  1
  Br  Br25  1  0.668903  0.185909  0.455672  1
  Br  Br26  1  0.544328  0.331097  0.814091  1
  Br  Br27  1  0.057915  0.930154  0.326086  1
