# generated using pymatgen
data_Lu8Cr3RuC8
_symmetry_space_group_name_H-M   'P 1'
_cell_length_a   4.91779000
_cell_length_b   6.36995229
_cell_length_c   9.56119753
_cell_angle_alpha   89.82615278
_cell_angle_beta   90.00000000
_cell_angle_gamma   90.00000000
_symmetry_Int_Tables_number   1
_chemical_formula_structural   Lu8Cr3RuC8
_chemical_formula_sum   'Lu8 Cr3 Ru1 C8'
_cell_volume   299.51353359
_cell_formula_units_Z   1
loop_
 _symmetry_equiv_pos_site_id
 _symmetry_equiv_pos_as_xyz
  1  'x, y, z'
loop_
 _atom_site_type_symbol
 _atom_site_label
 _atom_site_symmetry_multiplicity
 _atom_site_fract_x
 _atom_site_fract_y
 _atom_site_fract_z
 _atom_site_occupancy
  Lu  Lu0  1  0.250000  0.821863  0.941757  1
  Lu  Lu1  1  0.250000  0.323931  0.560021  1
  Lu  Lu2  1  0.750000  0.175397  0.057100  1
  Lu  Lu3  1  0.750000  0.679292  0.441898  1
  Lu  Lu4  1  0.250000  0.463353  0.217229  1
  Lu  Lu5  1  0.250000  0.965854  0.283748  1
  Lu  Lu6  1  0.750000  0.535079  0.781858  1
  Lu  Lu7  1  0.750000  0.034626  0.719560  1
  Cr  Cr8  1  0.250000  0.276429  0.862943  1
  Cr  Cr9  1  0.250000  0.777615  0.635664  1
  Cr  Cr10  1  0.750000  0.719498  0.134223  1
  Ru  Ru11  1  0.750000  0.218848  0.366744  1
  C  C12  1  0.250000  0.046099  0.738471  1
  C  C13  1  0.250000  0.547654  0.761742  1
  C  C14  1  0.750000  0.944229  0.255305  1
  C  C15  1  0.750000  0.458349  0.235002  1
  C  C16  1  0.250000  0.683492  0.454765  1
  C  C17  1  0.250000  0.184115  0.043763  1
  C  C18  1  0.750000  0.326606  0.554845  1
  C  C19  1  0.750000  0.817674  0.953361  1
