# generated using pymatgen
data_Ti2Cu3Pt
_symmetry_space_group_name_H-M   'P 1'
_cell_length_a   4.67233403
_cell_length_b   4.64691727
_cell_length_c   4.53468200
_cell_angle_alpha   90.00000000
_cell_angle_beta   90.00000000
_cell_angle_gamma   120.80985955
_symmetry_Int_Tables_number   1
_chemical_formula_structural   Ti2Cu3Pt
_chemical_formula_sum   'Ti2 Cu3 Pt1'
_cell_volume   84.56175538
_cell_formula_units_Z   1
loop_
 _symmetry_equiv_pos_site_id
 _symmetry_equiv_pos_as_xyz
  1  'x, y, z'
loop_
 _atom_site_type_symbol
 _atom_site_label
 _atom_site_symmetry_multiplicity
 _atom_site_fract_x
 _atom_site_fract_y
 _atom_site_fract_z
 _atom_site_occupancy
  Ti  Ti0  1  0.774496  0.769344  0.250000  1
  Ti  Ti1  1  0.225111  0.231439  0.750000  1
  Cu  Cu2  1  0.540121  0.890299  0.750000  1
  Cu  Cu3  1  0.878522  0.551942  0.750000  1
  Cu  Cu4  1  0.457251  0.111096  0.250000  1
  Pt  Pt5  1  0.124498  0.445880  0.250000  1
