# generated using pymatgen
data_Sr4Fe(MoO4)3
_symmetry_space_group_name_H-M   'P 1'
_cell_length_a   5.69994615
_cell_length_b   5.71453619
_cell_length_c   8.17314949
_cell_angle_alpha   89.74776836
_cell_angle_beta   89.98900332
_cell_angle_gamma   89.97779796
_symmetry_Int_Tables_number   1
_chemical_formula_structural   Sr4Fe(MoO4)3
_chemical_formula_sum   'Sr4 Fe1 Mo3 O12'
_cell_volume   266.21770422
_cell_formula_units_Z   1
loop_
 _symmetry_equiv_pos_site_id
 _symmetry_equiv_pos_as_xyz
  1  'x, y, z'
loop_
 _atom_site_type_symbol
 _atom_site_label
 _atom_site_symmetry_multiplicity
 _atom_site_fract_x
 _atom_site_fract_y
 _atom_site_fract_z
 _atom_site_occupancy
  Sr  Sr0  1  0.522473  0.495414  0.759103  1
  Sr  Sr1  1  0.021961  0.007954  0.761556  1
  Sr  Sr2  1  0.477527  0.504586  0.240897  1
  Sr  Sr3  1  0.978039  0.992046  0.238444  1
  Fe  Fe4  1  0.500000  0.000000  0.000000  1
  Mo  Mo5  1  0.000000  0.500000  0.500000  1
  Mo  Mo6  1  0.500000  0.000000  0.500000  1
  Mo  Mo7  1  0.000000  0.500000  0.000000  1
  O  O8  1  0.741180  0.711900  0.033905  1
  O  O9  1  0.218841  0.779175  0.464555  1
  O  O10  1  0.281828  0.282721  0.536143  1
  O  O11  1  0.771314  0.230207  0.966674  1
  O  O12  1  0.258820  0.288100  0.966095  1
  O  O13  1  0.781159  0.220825  0.535445  1
  O  O14  1  0.718172  0.717279  0.463857  1
  O  O15  1  0.228686  0.769793  0.033326  1
  O  O16  1  0.491462  0.939894  0.730457  1
  O  O17  1  0.987166  0.572379  0.753496  1
  O  O18  1  0.508538  0.060106  0.269543  1
  O  O19  1  0.012834  0.427621  0.246504  1
