# generated using pymatgen
data_DyY4P12Ru18Pt
_symmetry_space_group_name_H-M   'P 1'
_cell_length_a   12.57981800
_cell_length_b   12.47865970
_cell_length_c   3.99154800
_cell_angle_alpha   90.00000000
_cell_angle_beta   90.00000000
_cell_angle_gamma   119.73534271
_symmetry_Int_Tables_number   1
_chemical_formula_structural   DyY4P12Ru18Pt
_chemical_formula_sum   'Dy1 Y4 P12 Ru18 Pt1'
_cell_volume   544.08446341
_cell_formula_units_Z   1
loop_
 _symmetry_equiv_pos_site_id
 _symmetry_equiv_pos_as_xyz
  1  'x, y, z'
loop_
 _atom_site_type_symbol
 _atom_site_label
 _atom_site_symmetry_multiplicity
 _atom_site_fract_x
 _atom_site_fract_y
 _atom_site_fract_z
 _atom_site_occupancy
  Dy  Dy0  1  0.661333  0.329867  0.000000  1
  Y  Y1  1  0.000001  0.182579  0.500000  1
  Y  Y2  1  0.816364  0.815413  0.500000  1
  Y  Y3  1  0.183634  0.999048  0.500000  1
  Y  Y4  1  0.338665  0.668536  0.000000  1
  P  P5  1  0.000003  0.811915  0.000000  1
  P  P6  1  0.183053  0.184322  0.000000  1
  P  P7  1  0.816945  0.001265  0.000000  1
  P  P8  1  0.693264  0.173169  0.500000  1
  P  P9  1  0.817966  0.519028  0.500000  1
  P  P10  1  0.474477  0.305701  0.500000  1
  P  P11  1  0.182005  0.701065  0.500000  1
  P  P12  1  0.525553  0.831251  0.500000  1
  P  P13  1  0.306731  0.479875  0.500000  1
  P  P14  1  0.000001  0.364219  0.000000  1
  P  P15  1  0.626696  0.627266  0.000000  1
  P  P16  1  0.373300  0.000571  0.000000  1
  Ru  Ru17  1  0.444235  0.446713  0.000000  1
  Ru  Ru18  1  0.555773  0.002492  0.000000  1
  Ru  Ru19  1  0.000000  0.710141  0.500000  1
  Ru  Ru20  1  0.281338  0.283623  0.500000  1
  Ru  Ru21  1  0.718665  0.002289  0.500000  1
  Ru  Ru22  1  0.807406  0.186387  0.000000  1
  Ru  Ru23  1  0.814599  0.620232  0.000000  1
  Ru  Ru24  1  0.374390  0.191287  0.000000  1
  Ru  Ru25  1  0.185389  0.805637  0.000000  1
  Ru  Ru26  1  0.625631  0.816906  0.000000  1
  Ru  Ru27  1  0.192583  0.378959  0.000000  1
  Ru  Ru28  1  0.872786  0.367576  0.500000  1
  Ru  Ru29  1  0.629835  0.508080  0.500000  1
  Ru  Ru30  1  0.492263  0.128006  0.500000  1
  Ru  Ru31  1  0.370171  0.878270  0.500000  1
  Ru  Ru32  1  0.507768  0.635733  0.500000  1
  Ru  Ru33  1  0.127186  0.494773  0.500000  1
  Ru  Ru34  1  0.999999  0.997534  0.000000  1
  Pt  Pt35  1  0.999991  0.550273  0.000000  1
