# generated using pymatgen
data_Y12Ho4MgCo4Hg3
_symmetry_space_group_name_H-M   'P 1'
_cell_length_a   9.47489154
_cell_length_b   9.47442922
_cell_length_c   9.47443000
_cell_angle_alpha   59.99999727
_cell_angle_beta   60.00161136
_cell_angle_gamma   60.00161071
_symmetry_Int_Tables_number   1
_chemical_formula_structural   Y12Ho4MgCo4Hg3
_chemical_formula_sum   'Y12 Ho4 Mg1 Co4 Hg3'
_cell_volume   601.41736327
_cell_formula_units_Z   1
loop_
 _symmetry_equiv_pos_site_id
 _symmetry_equiv_pos_as_xyz
  1  'x, y, z'
loop_
 _atom_site_type_symbol
 _atom_site_label
 _atom_site_symmetry_multiplicity
 _atom_site_fract_x
 _atom_site_fract_y
 _atom_site_fract_z
 _atom_site_occupancy
  Y  Y0  1  0.809743  0.189966  0.189966  1
  Y  Y1  1  0.186102  0.813027  0.813027  1
  Y  Y2  1  0.186102  0.813027  0.187843  1
  Y  Y3  1  0.809743  0.189966  0.810326  1
  Y  Y4  1  0.186102  0.187843  0.813027  1
  Y  Y5  1  0.809743  0.810326  0.189966  1
  Y  Y6  1  0.937856  0.561644  0.561644  1
  Y  Y7  1  0.561357  0.937958  0.937958  1
  Y  Y8  1  0.561357  0.937958  0.562727  1
  Y  Y9  1  0.937856  0.561644  0.938858  1
  Y  Y10  1  0.561357  0.562727  0.937958  1
  Y  Y11  1  0.937856  0.938858  0.561644  1
  Ho  Ho12  1  0.346509  0.345368  0.345368  1
  Ho  Ho13  1  0.346509  0.345368  0.962755  1
  Ho  Ho14  1  0.346509  0.962755  0.345368  1
  Ho  Ho15  1  0.952699  0.349100  0.349100  1
  Mg  Mg16  1  0.287540  0.570820  0.570820  1
  Co  Co17  1  0.139266  0.143684  0.143684  1
  Co  Co18  1  0.139266  0.143684  0.573365  1
  Co  Co19  1  0.139266  0.573365  0.143684  1
  Co  Co20  1  0.572698  0.142434  0.142434  1
  Hg  Hg21  1  0.581520  0.585019  0.585019  1
  Hg  Hg22  1  0.581520  0.585019  0.248443  1
  Hg  Hg23  1  0.581520  0.248443  0.585019  1
