# generated using pymatgen
data_Pr2In(PRh2)6
_symmetry_space_group_name_H-M   'P 1'
_cell_length_a   9.84948000
_cell_length_b   9.84948096
_cell_length_c   3.90548100
_cell_angle_alpha   90.00000000
_cell_angle_beta   90.00000000
_cell_angle_gamma   119.99999678
_symmetry_Int_Tables_number   1
_chemical_formula_structural   Pr2In(PRh2)6
_chemical_formula_sum   'Pr2 In1 P6 Rh12'
_cell_volume   328.11933498
_cell_formula_units_Z   1
loop_
 _symmetry_equiv_pos_site_id
 _symmetry_equiv_pos_as_xyz
  1  'x, y, z'
loop_
 _atom_site_type_symbol
 _atom_site_label
 _atom_site_symmetry_multiplicity
 _atom_site_fract_x
 _atom_site_fract_y
 _atom_site_fract_z
 _atom_site_occupancy
  Pr  Pr0  1  0.333333  0.666667  0.754888  1
  Pr  Pr1  1  0.000000  0.000000  0.246696  1
  In  In2  1  0.666667  0.333333  0.589601  1
  P  P3  1  0.954432  0.220159  0.746922  1
  P  P4  1  0.779841  0.734273  0.746922  1
  P  P5  1  0.265727  0.045568  0.746922  1
  P  P6  1  0.378357  0.445237  0.254727  1
  P  P7  1  0.554763  0.933120  0.254727  1
  P  P8  1  0.066880  0.621643  0.254727  1
  Rh  Rh9  1  0.731673  0.949394  0.748793  1
  Rh  Rh10  1  0.050606  0.782279  0.748793  1
  Rh  Rh11  1  0.217721  0.268327  0.748793  1
  Rh  Rh12  1  0.605855  0.722885  0.253041  1
  Rh  Rh13  1  0.277115  0.882970  0.253041  1
  Rh  Rh14  1  0.117030  0.394145  0.253041  1
  Rh  Rh15  1  0.962156  0.463491  0.758626  1
  Rh  Rh16  1  0.536509  0.498666  0.758626  1
  Rh  Rh17  1  0.501334  0.037844  0.758626  1
  Rh  Rh18  1  0.385509  0.208599  0.242224  1
  Rh  Rh19  1  0.791401  0.176909  0.242224  1
  Rh  Rh20  1  0.823091  0.614491  0.242224  1
