# generated using pymatgen
data_LiTbCo(PRh)3
_symmetry_space_group_name_H-M   'P 1'
_cell_length_a   3.84176300
_cell_length_b   10.69098900
_cell_length_c   12.56041900
_cell_angle_alpha   90.00000000
_cell_angle_beta   90.00000000
_cell_angle_gamma   90.00000000
_symmetry_Int_Tables_number   1
_chemical_formula_structural   LiTbCo(PRh)3
_chemical_formula_sum   'Li4 Tb4 Co4 P12 Rh12'
_cell_volume   515.88461870
_cell_formula_units_Z   4
loop_
 _symmetry_equiv_pos_site_id
 _symmetry_equiv_pos_as_xyz
  1  'x, y, z'
loop_
 _atom_site_type_symbol
 _atom_site_label
 _atom_site_symmetry_multiplicity
 _atom_site_fract_x
 _atom_site_fract_y
 _atom_site_fract_z
 _atom_site_occupancy
  Li  Li0  1  0.250000  0.705303  0.988137  1
  Li  Li1  1  0.250000  0.794697  0.488137  1
  Li  Li2  1  0.750000  0.294697  0.011863  1
  Li  Li3  1  0.750000  0.205303  0.511863  1
  Tb  Tb4  1  0.250000  0.578690  0.706779  1
  Tb  Tb5  1  0.250000  0.921310  0.206779  1
  Tb  Tb6  1  0.750000  0.421310  0.293221  1
  Tb  Tb7  1  0.750000  0.078690  0.793221  1
  Co  Co8  1  0.250000  0.464470  0.936263  1
  Co  Co9  1  0.250000  0.035530  0.436263  1
  Co  Co10  1  0.750000  0.535530  0.063737  1
  Co  Co11  1  0.750000  0.964470  0.563737  1
  P  P12  1  0.250000  0.428082  0.108224  1
  P  P13  1  0.250000  0.071918  0.608224  1
  P  P14  1  0.750000  0.571918  0.891776  1
  P  P15  1  0.750000  0.928082  0.391776  1
  P  P16  1  0.250000  0.268926  0.863249  1
  P  P17  1  0.250000  0.231074  0.363249  1
  P  P18  1  0.750000  0.731074  0.136751  1
  P  P19  1  0.750000  0.768926  0.636751  1
  P  P20  1  0.250000  0.600630  0.388796  1
  P  P21  1  0.250000  0.899370  0.888796  1
  P  P22  1  0.750000  0.399370  0.611204  1
  P  P23  1  0.750000  0.100630  0.111204  1
  Rh  Rh24  1  0.250000  0.404337  0.477547  1
  Rh  Rh25  1  0.250000  0.095663  0.977547  1
  Rh  Rh26  1  0.750000  0.595663  0.522453  1
  Rh  Rh27  1  0.750000  0.904337  0.022453  1
  Rh  Rh28  1  0.250000  0.226004  0.172588  1
  Rh  Rh29  1  0.250000  0.273996  0.672588  1
  Rh  Rh30  1  0.750000  0.773996  0.827412  1
  Rh  Rh31  1  0.750000  0.726004  0.327412  1
  Rh  Rh32  1  0.250000  0.878863  0.694350  1
  Rh  Rh33  1  0.250000  0.621137  0.194350  1
  Rh  Rh34  1  0.750000  0.121137  0.305650  1
  Rh  Rh35  1  0.750000  0.378863  0.805650  1
