# generated using pymatgen
data_Zr5CrFe2(Co4P3)4
_symmetry_space_group_name_H-M   'P 1'
_cell_length_a   11.83329243
_cell_length_b   11.83329312
_cell_length_c   3.60903500
_cell_angle_alpha   90.00000000
_cell_angle_beta   90.00000000
_cell_angle_gamma   119.95604663
_symmetry_Int_Tables_number   1
_chemical_formula_structural   Zr5CrFe2(Co4P3)4
_chemical_formula_sum   'Zr5 Cr1 Fe2 Co16 P12'
_cell_volume   437.84976935
_cell_formula_units_Z   1
loop_
 _symmetry_equiv_pos_site_id
 _symmetry_equiv_pos_as_xyz
  1  'x, y, z'
loop_
 _atom_site_type_symbol
 _atom_site_label
 _atom_site_symmetry_multiplicity
 _atom_site_fract_x
 _atom_site_fract_y
 _atom_site_fract_z
 _atom_site_occupancy
  Zr  Zr0  1  0.666916  0.334294  0.000000  1
  Zr  Zr1  1  0.334294  0.666916  0.000000  1
  Zr  Zr2  1  0.816833  0.816833  0.500000  1
  Zr  Zr3  1  0.184629  0.000269  0.500000  1
  Zr  Zr4  1  0.000269  0.184629  0.500000  1
  Cr  Cr5  1  0.445122  0.445122  0.000000  1
  Fe  Fe6  1  0.549898  0.000750  0.000000  1
  Fe  Fe7  1  0.000750  0.549898  0.000000  1
  Co  Co8  1  0.197326  0.375237  0.000000  1
  Co  Co9  1  0.178491  0.802001  0.000000  1
  Co  Co10  1  0.821709  0.623177  0.000000  1
  Co  Co11  1  0.802001  0.178491  0.000000  1
  Co  Co12  1  0.375237  0.197326  0.000000  1
  Co  Co13  1  0.128706  0.483987  0.500000  1
  Co  Co14  1  0.355514  0.872712  0.500000  1
  Co  Co15  1  0.518164  0.645162  0.500000  1
  Co  Co16  1  0.645162  0.518164  0.500000  1
  Co  Co17  1  0.872712  0.355514  0.500000  1
  Co  Co18  1  0.483987  0.128706  0.500000  1
  Co  Co19  1  0.999148  0.999148  0.000000  1
  Co  Co20  1  0.715078  0.999827  0.500000  1
  Co  Co21  1  0.999827  0.715078  0.500000  1
  Co  Co22  1  0.623177  0.821709  0.000000  1
  Co  Co23  1  0.282197  0.282197  0.500000  1
  P  P24  1  0.641197  0.641197  0.000000  1
  P  P25  1  0.362524  0.999634  0.000000  1
  P  P26  1  0.999634  0.362524  0.000000  1
  P  P27  1  0.482598  0.316838  0.500000  1
  P  P28  1  0.683419  0.166142  0.500000  1
  P  P29  1  0.834738  0.517164  0.500000  1
  P  P30  1  0.517164  0.834738  0.500000  1
  P  P31  1  0.166142  0.683419  0.500000  1
  P  P32  1  0.822488  0.000248  0.000000  1
  P  P33  1  0.000248  0.822488  0.000000  1
  P  P34  1  0.316838  0.482598  0.500000  1
  P  P35  1  0.175863  0.175863  0.000000  1
