# generated using pymatgen
data_Sc6NiB4Ir8Ru
_symmetry_space_group_name_H-M   'P 1'
_cell_length_a   3.07017400
_cell_length_b   9.53017289
_cell_length_c   9.53017314
_cell_angle_alpha   89.09950700
_cell_angle_beta   90.00000000
_cell_angle_gamma   90.00000000
_symmetry_Int_Tables_number   1
_chemical_formula_structural   Sc6NiB4Ir8Ru
_chemical_formula_sum   'Sc6 Ni1 B4 Ir8 Ru1'
_cell_volume   278.81165208
_cell_formula_units_Z   1
loop_
 _symmetry_equiv_pos_site_id
 _symmetry_equiv_pos_as_xyz
  1  'x, y, z'
loop_
 _atom_site_type_symbol
 _atom_site_label
 _atom_site_symmetry_multiplicity
 _atom_site_fract_x
 _atom_site_fract_y
 _atom_site_fract_z
 _atom_site_occupancy
  Sc  Sc0  1  0.000000  0.176701  0.676701  1
  Sc  Sc1  1  0.000000  0.823299  0.323299  1
  Sc  Sc2  1  0.000000  0.324208  0.175792  1
  Sc  Sc3  1  0.000000  0.675792  0.824208  1
  Sc  Sc4  1  0.000000  0.000000  0.000000  1
  Sc  Sc5  1  0.000000  0.500000  0.500000  1
  Ni  Ni6  1  0.500000  0.000000  0.500000  1
  B  B7  1  0.000000  0.618636  0.118636  1
  B  B8  1  0.000000  0.381364  0.881364  1
  B  B9  1  0.000000  0.884356  0.615644  1
  B  B10  1  0.000000  0.115644  0.384356  1
  Ir  Ir11  1  0.500000  0.063902  0.230292  1
  Ir  Ir12  1  0.500000  0.936098  0.769708  1
  Ir  Ir13  1  0.500000  0.778665  0.070527  1
  Ir  Ir14  1  0.500000  0.429473  0.721335  1
  Ir  Ir15  1  0.500000  0.221335  0.929473  1
  Ir  Ir16  1  0.500000  0.570527  0.278665  1
  Ir  Ir17  1  0.500000  0.730292  0.563902  1
  Ir  Ir18  1  0.500000  0.269708  0.436098  1
  Ru  Ru19  1  0.500000  0.500000  0.000000  1
