# generated using pymatgen
data_Tb4Y15InIr12
_symmetry_space_group_name_H-M   'P 1'
_cell_length_a   10.92453108
_cell_length_b   10.92206003
_cell_length_c   6.34373005
_cell_angle_alpha   90.00615892
_cell_angle_beta   89.98701329
_cell_angle_gamma   89.99502782
_symmetry_Int_Tables_number   1
_chemical_formula_structural   Tb4Y15InIr12
_chemical_formula_sum   'Tb4 Y15 In1 Ir12'
_cell_volume   756.92359280
_cell_formula_units_Z   1
loop_
 _symmetry_equiv_pos_site_id
 _symmetry_equiv_pos_as_xyz
  1  'x, y, z'
loop_
 _atom_site_type_symbol
 _atom_site_label
 _atom_site_symmetry_multiplicity
 _atom_site_fract_x
 _atom_site_fract_y
 _atom_site_fract_z
 _atom_site_occupancy
  Tb  Tb0  1  0.283203  0.084478  0.380288  1
  Tb  Tb1  1  0.291240  0.911259  0.881061  1
  Tb  Tb2  1  0.500005  0.499973  0.000028  1
  Tb  Tb3  1  0.500010  0.500007  0.500025  1
  Y  Y4  1  0.708766  0.088732  0.881097  1
  Y  Y5  1  0.716859  0.915616  0.380321  1
  Y  Y6  1  0.588757  0.792094  0.881365  1
  Y  Y7  1  0.587756  0.207913  0.378010  1
  Y  Y8  1  0.412422  0.791987  0.377963  1
  Y  Y9  1  0.411346  0.207957  0.881334  1
  Y  Y10  1  0.207880  0.412379  0.622077  1
  Y  Y11  1  0.207843  0.588660  0.118735  1
  Y  Y12  1  0.792150  0.411303  0.118665  1
  Y  Y13  1  0.792123  0.587636  0.622001  1
  Y  Y14  1  0.911279  0.708716  0.119031  1
  Y  Y15  1  0.915584  0.283139  0.619759  1
  Y  Y16  1  0.084389  0.716888  0.619691  1
  Y  Y17  1  0.088696  0.291285  0.118887  1
  Y  Y18  1  0.999952  0.000037  0.999971  1
  In  In19  1  0.999908  0.999968  0.500008  1
  Ir  Ir20  1  0.846277  0.155615  0.245902  1
  Ir  Ir21  1  0.844430  0.846183  0.754184  1
  Ir  Ir22  1  0.155727  0.153742  0.753906  1
  Ir  Ir23  1  0.153920  0.844412  0.245675  1
  Ir  Ir24  1  0.654714  0.346148  0.747013  1
  Ir  Ir25  1  0.653837  0.654754  0.252970  1
  Ir  Ir26  1  0.346140  0.345157  0.252992  1
  Ir  Ir27  1  0.345260  0.653988  0.747111  1
  Ir  Ir28  1  0.499766  0.999953  0.127678  1
  Ir  Ir29  1  0.499791  0.000006  0.621840  1
  Ir  Ir30  1  0.999986  0.500007  0.872260  1
  Ir  Ir31  1  0.999986  0.500007  0.378154  1
