# generated using pymatgen
data_Er10IrPdPb6
_symmetry_space_group_name_H-M   'P 1'
_cell_length_a   9.13049100
_cell_length_b   9.13049235
_cell_length_c   6.77682300
_cell_angle_alpha   90.00000000
_cell_angle_beta   90.00000000
_cell_angle_gamma   119.99999149
_symmetry_Int_Tables_number   1
_chemical_formula_structural   Er10IrPdPb6
_chemical_formula_sum   'Er10 Ir1 Pd1 Pb6'
_cell_volume   489.26611749
_cell_formula_units_Z   1
loop_
 _symmetry_equiv_pos_site_id
 _symmetry_equiv_pos_as_xyz
  1  'x, y, z'
loop_
 _atom_site_type_symbol
 _atom_site_label
 _atom_site_symmetry_multiplicity
 _atom_site_fract_x
 _atom_site_fract_y
 _atom_site_fract_z
 _atom_site_occupancy
  Er  Er0  1  0.000000  0.758715  0.741213  1
  Er  Er1  1  0.241285  0.000000  0.258787  1
  Er  Er2  1  0.758715  0.000000  0.741213  1
  Er  Er3  1  0.333333  0.666667  0.500000  1
  Er  Er4  1  0.000000  0.241285  0.258787  1
  Er  Er5  1  0.666667  0.333333  0.500000  1
  Er  Er6  1  0.758715  0.758715  0.258787  1
  Er  Er7  1  0.241285  0.241285  0.741213  1
  Er  Er8  1  0.333333  0.666667  0.000000  1
  Er  Er9  1  0.666667  0.333333  0.000000  1
  Ir  Ir10  1  0.000000  0.000000  0.500000  1
  Pd  Pd11  1  0.000000  0.000000  0.000000  1
  Pb  Pb12  1  0.403309  0.403309  0.248493  1
  Pb  Pb13  1  0.000000  0.403309  0.751507  1
  Pb  Pb14  1  0.000000  0.596691  0.248493  1
  Pb  Pb15  1  0.596691  0.000000  0.248493  1
  Pb  Pb16  1  0.403309  0.000000  0.751507  1
  Pb  Pb17  1  0.596691  0.596691  0.751507  1
