# generated using pymatgen
data_YbPr4Ho5Pt8
_symmetry_space_group_name_H-M   'P 1'
_cell_length_a   7.76295400
_cell_length_b   7.67981500
_cell_length_c   14.44701100
_cell_angle_alpha   90.00000000
_cell_angle_beta   90.00000000
_cell_angle_gamma   90.00000000
_symmetry_Int_Tables_number   1
_chemical_formula_structural   YbPr4Ho5Pt8
_chemical_formula_sum   'Yb2 Pr8 Ho10 Pt16'
_cell_volume   861.30263243
_cell_formula_units_Z   2
loop_
 _symmetry_equiv_pos_site_id
 _symmetry_equiv_pos_as_xyz
  1  'x, y, z'
loop_
 _atom_site_type_symbol
 _atom_site_label
 _atom_site_symmetry_multiplicity
 _atom_site_fract_x
 _atom_site_fract_y
 _atom_site_fract_z
 _atom_site_occupancy
  Yb  Yb0  1  0.335511  0.003175  0.250000  1
  Yb  Yb1  1  0.164489  0.503175  0.750000  1
  Pr  Pr2  1  0.017717  0.174566  0.401497  1
  Pr  Pr3  1  0.515809  0.321882  0.402561  1
  Pr  Pr4  1  0.482283  0.674566  0.901497  1
  Pr  Pr5  1  0.482283  0.674566  0.598503  1
  Pr  Pr6  1  0.984191  0.821882  0.597439  1
  Pr  Pr7  1  0.984191  0.821882  0.902561  1
  Pr  Pr8  1  0.515809  0.321882  0.097439  1
  Pr  Pr9  1  0.017717  0.174566  0.098503  1
  Ho  Ho10  1  0.329176  0.167010  0.622271  1
  Ho  Ho11  1  0.666934  0.835672  0.378508  1
  Ho  Ho12  1  0.664151  0.997745  0.750000  1
  Ho  Ho13  1  0.170824  0.667010  0.377729  1
  Ho  Ho14  1  0.833066  0.335672  0.878508  1
  Ho  Ho15  1  0.833066  0.335672  0.621492  1
  Ho  Ho16  1  0.835849  0.497745  0.250000  1
  Ho  Ho17  1  0.329176  0.167010  0.877729  1
  Ho  Ho18  1  0.170824  0.667010  0.122271  1
  Ho  Ho19  1  0.666934  0.835672  0.121492  1
  Pt  Pt20  1  0.294164  0.868712  0.750000  1
  Pt  Pt21  1  0.470388  0.625241  0.250000  1
  Pt  Pt22  1  0.029612  0.125241  0.750000  1
  Pt  Pt23  1  0.537477  0.368078  0.750000  1
  Pt  Pt24  1  0.167339  0.462696  0.542592  1
  Pt  Pt25  1  0.962523  0.868078  0.250000  1
  Pt  Pt26  1  0.711594  0.137778  0.250000  1
  Pt  Pt27  1  0.832239  0.537811  0.046359  1
  Pt  Pt28  1  0.332661  0.962696  0.042592  1
  Pt  Pt29  1  0.167339  0.462696  0.957408  1
  Pt  Pt30  1  0.667761  0.037811  0.546359  1
  Pt  Pt31  1  0.332661  0.962696  0.457408  1
  Pt  Pt32  1  0.832239  0.537811  0.453641  1
  Pt  Pt33  1  0.788406  0.637778  0.750000  1
  Pt  Pt34  1  0.205836  0.368712  0.250000  1
  Pt  Pt35  1  0.667761  0.037811  0.953641  1
