# generated using pymatgen
data_Cs4Ga2O5
_symmetry_space_group_name_H-M   'P 1'
_cell_length_a   9.87801184
_cell_length_b   9.87799011
_cell_length_c   7.81487901
_cell_angle_alpha   83.31551659
_cell_angle_beta   96.68444820
_cell_angle_gamma   45.32641355
_symmetry_Int_Tables_number   1
_chemical_formula_structural   Cs4Ga2O5
_chemical_formula_sum   'Cs8 Ga4 O10'
_cell_volume   516.92191881
_cell_formula_units_Z   2
loop_
 _symmetry_equiv_pos_site_id
 _symmetry_equiv_pos_as_xyz
  1  'x, y, z'
loop_
 _atom_site_type_symbol
 _atom_site_label
 _atom_site_symmetry_multiplicity
 _atom_site_fract_x
 _atom_site_fract_y
 _atom_site_fract_z
 _atom_site_occupancy
  Cs  Cs0  1  0.527130  0.831564  0.386908  1
  Cs  Cs1  1  0.831563  0.527129  0.113091  1
  Cs  Cs2  1  0.472869  0.168439  0.613091  1
  Cs  Cs3  1  0.168438  0.472869  0.886910  1
  Cs  Cs4  1  0.468862  0.468862  0.249999  1
  Cs  Cs5  1  0.531138  0.531138  0.750001  1
  Cs  Cs6  1  0.017820  0.017822  0.249999  1
  Cs  Cs7  1  0.982180  0.982179  0.750001  1
  Ga  Ga8  1  0.691484  0.991358  0.098034  1
  Ga  Ga9  1  0.991358  0.691484  0.401965  1
  Ga  Ga10  1  0.308515  0.008641  0.901968  1
  Ga  Ga11  1  0.008640  0.308515  0.598034  1
  O  O12  1  0.360208  0.804312  0.033185  1
  O  O13  1  0.804314  0.360206  0.466816  1
  O  O14  1  0.639790  0.195688  0.966815  1
  O  O15  1  0.195687  0.639793  0.533182  1
  O  O16  1  0.500001  0.999998  0.000002  1
  O  O17  1  0.000001  0.500000  0.499999  1
  O  O18  1  0.729272  0.959655  0.354287  1
  O  O19  1  0.959655  0.729272  0.145712  1
  O  O20  1  0.270729  0.040343  0.645713  1
  O  O21  1  0.040343  0.270730  0.854289  1
