# generated using pymatgen
data_YbHo7(SiPd)8
_symmetry_space_group_name_H-M   'P 1'
_cell_length_a   4.31196800
_cell_length_b   7.50510114
_cell_length_c   13.90259000
_cell_angle_alpha   90.03130155
_cell_angle_beta   90.00000000
_cell_angle_gamma   90.00000000
_symmetry_Int_Tables_number   1
_chemical_formula_structural   YbHo7(SiPd)8
_chemical_formula_sum   'Yb1 Ho7 Si8 Pd8'
_cell_volume   449.91215740
_cell_formula_units_Z   1
loop_
 _symmetry_equiv_pos_site_id
 _symmetry_equiv_pos_as_xyz
  1  'x, y, z'
loop_
 _atom_site_type_symbol
 _atom_site_label
 _atom_site_symmetry_multiplicity
 _atom_site_fract_x
 _atom_site_fract_y
 _atom_site_fract_z
 _atom_site_occupancy
  Yb  Yb0  1  0.000000  0.206831  0.248668  1
  Ho  Ho1  1  0.000000  0.300737  0.001032  1
  Ho  Ho2  1  0.500000  0.699550  0.500058  1
  Ho  Ho3  1  0.000000  0.292929  0.498695  1
  Ho  Ho4  1  0.500000  0.706921  0.000412  1
  Ho  Ho5  1  0.500000  0.793073  0.251212  1
  Ho  Ho6  1  0.000000  0.209038  0.750212  1
  Ho  Ho7  1  0.500000  0.790694  0.749366  1
  Si  Si8  1  0.000000  0.906700  0.593413  1
  Si  Si9  1  0.500000  0.092649  0.905876  1
  Si  Si10  1  0.000000  0.908180  0.408364  1
  Si  Si11  1  0.500000  0.090230  0.090323  1
  Si  Si12  1  0.000000  0.594313  0.145232  1
  Si  Si13  1  0.500000  0.408002  0.358613  1
  Si  Si14  1  0.000000  0.593033  0.856096  1
  Si  Si15  1  0.500000  0.406938  0.643202  1
  Pd  Pd16  1  0.500000  0.075968  0.608297  1
  Pd  Pd17  1  0.000000  0.923777  0.891564  1
  Pd  Pd18  1  0.500000  0.077383  0.392596  1
  Pd  Pd19  1  0.000000  0.922210  0.106957  1
  Pd  Pd20  1  0.500000  0.420849  0.156471  1
  Pd  Pd21  1  0.000000  0.580563  0.342277  1
  Pd  Pd22  1  0.500000  0.419946  0.843234  1
  Pd  Pd23  1  0.000000  0.579487  0.657829  1
