# generated using pymatgen
data_Er4TiW3F28
_symmetry_space_group_name_H-M   'P 1'
_cell_length_a   5.59976392
_cell_length_b   8.89866898
_cell_length_c   12.02693000
_cell_angle_alpha   62.70088080
_cell_angle_beta   89.96711493
_cell_angle_gamma   89.95526112
_symmetry_Int_Tables_number   1
_chemical_formula_structural   Er4TiW3F28
_chemical_formula_sum   'Er4 Ti1 W3 F28'
_cell_volume   532.55882391
_cell_formula_units_Z   1
loop_
 _symmetry_equiv_pos_site_id
 _symmetry_equiv_pos_as_xyz
  1  'x, y, z'
loop_
 _atom_site_type_symbol
 _atom_site_label
 _atom_site_symmetry_multiplicity
 _atom_site_fract_x
 _atom_site_fract_y
 _atom_site_fract_z
 _atom_site_occupancy
  Er  Er0  1  0.759177  0.812837  0.765586  1
  Er  Er1  1  0.254206  0.186887  0.735211  1
  Er  Er2  1  0.239633  0.186515  0.233033  1
  Er  Er3  1  0.740989  0.816772  0.264464  1
  Ti  Ti4  1  0.756388  0.273780  0.955847  1
  W  W5  1  0.257188  0.727418  0.542863  1
  W  W6  1  0.242713  0.727584  0.043106  1
  W  W7  1  0.742111  0.273101  0.456114  1
  F  F8  1  0.447907  0.705702  0.916095  1
  F  F9  1  0.949953  0.294641  0.586172  1
  F  F10  1  0.549986  0.289492  0.073971  1
  F  F11  1  0.047858  0.704176  0.415508  1
  F  F12  1  0.435280  0.276684  0.545142  1
  F  F13  1  0.933809  0.728423  0.949791  1
  F  F14  1  0.562604  0.723484  0.453081  1
  F  F15  1  0.037681  0.274699  0.047640  1
  F  F16  1  0.776032  0.511492  0.865278  1
  F  F17  1  0.270700  0.474751  0.643006  1
  F  F18  1  0.224064  0.476318  0.142327  1
  F  F19  1  0.729783  0.524379  0.357421  1
  F  F20  1  0.756039  0.036224  0.053667  1
  F  F21  1  0.263044  0.979020  0.446911  1
  F  F22  1  0.246446  0.978136  0.944452  1
  F  F23  1  0.741330  0.022265  0.552369  1
  F  F24  1  0.965267  0.727931  0.641969  1
  F  F25  1  0.494309  0.268172  0.858282  1
  F  F26  1  0.037777  0.271531  0.359787  1
  F  F27  1  0.536474  0.728341  0.144817  1
  F  F28  1  0.043165  0.749808  0.173072  1
  F  F29  1  0.542778  0.253813  0.321160  1
  F  F30  1  0.957798  0.250044  0.835379  1
  F  F31  1  0.460553  0.746589  0.675185  1
  F  F32  1  0.420818  0.970742  0.236294  1
  F  F33  1  0.923794  0.026805  0.271153  1
  F  F34  1  0.574198  0.028577  0.763258  1
  F  F35  1  0.078147  0.972869  0.730591  1
