# generated using pymatgen
data_Hf9Be(ReW)2
_symmetry_space_group_name_H-M   'P 1'
_cell_length_a   8.59277200
_cell_length_b   8.60955691
_cell_length_c   8.57245100
_cell_angle_alpha   90.00000000
_cell_angle_beta   90.00000000
_cell_angle_gamma   120.06468018
_symmetry_Int_Tables_number   1
_chemical_formula_structural   Hf9Be(ReW)2
_chemical_formula_sum   'Hf18 Be2 Re4 W4'
_cell_volume   548.86597281
_cell_formula_units_Z   2
loop_
 _symmetry_equiv_pos_site_id
 _symmetry_equiv_pos_as_xyz
  1  'x, y, z'
loop_
 _atom_site_type_symbol
 _atom_site_label
 _atom_site_symmetry_multiplicity
 _atom_site_fract_x
 _atom_site_fract_y
 _atom_site_fract_z
 _atom_site_occupancy
  Hf  Hf0  1  0.199272  0.800601  0.449104  1
  Hf  Hf1  1  0.199273  0.398672  0.449109  1
  Hf  Hf2  1  0.601376  0.800689  0.449536  1
  Hf  Hf3  1  0.800887  0.198976  0.553778  1
  Hf  Hf4  1  0.800885  0.601913  0.553775  1
  Hf  Hf5  1  0.397246  0.198623  0.553445  1
  Hf  Hf6  1  0.800887  0.198976  0.946222  1
  Hf  Hf7  1  0.800885  0.601913  0.946225  1
  Hf  Hf8  1  0.397246  0.198623  0.946555  1
  Hf  Hf9  1  0.199272  0.800601  0.050896  1
  Hf  Hf10  1  0.199273  0.398672  0.050891  1
  Hf  Hf11  1  0.601376  0.800689  0.050464  1
  Hf  Hf12  1  0.537706  0.459978  0.250000  1
  Hf  Hf13  1  0.537708  0.077725  0.250000  1
  Hf  Hf14  1  0.923406  0.461700  0.250000  1
  Hf  Hf15  1  0.460241  0.539113  0.750000  1
  Hf  Hf16  1  0.460240  0.921130  0.750000  1
  Hf  Hf17  1  0.079081  0.539543  0.750000  1
  Be  Be18  1  0.332569  0.666284  0.250000  1
  Be  Be19  1  0.666159  0.333080  0.750000  1
  Re  Re20  1  0.223760  0.111877  0.250000  1
  Re  Re21  1  0.111899  0.888938  0.750000  1
  Re  Re22  1  0.111899  0.222958  0.750000  1
  Re  Re23  1  0.776851  0.888424  0.750000  1
  W  W24  1  0.889714  0.111943  0.250000  1
  W  W25  1  0.889706  0.777765  0.250000  1
  W  W26  1  0.000591  0.000295  0.500639  1
  W  W27  1  0.000591  0.000295  0.999361  1
