# generated using pymatgen
data_Er4InB4Ir9
_symmetry_space_group_name_H-M   'P 1'
_cell_length_a   10.91525972
_cell_length_b   10.91525928
_cell_length_c   10.91526000
_cell_angle_alpha   29.31959291
_cell_angle_beta   29.31959696
_cell_angle_gamma   29.31959029
_symmetry_Int_Tables_number   1
_chemical_formula_structural   Er4InB4Ir9
_chemical_formula_sum   'Er4 In1 B4 Ir9'
_cell_volume   275.94436771
_cell_formula_units_Z   1
loop_
 _symmetry_equiv_pos_site_id
 _symmetry_equiv_pos_as_xyz
  1  'x, y, z'
loop_
 _atom_site_type_symbol
 _atom_site_label
 _atom_site_symmetry_multiplicity
 _atom_site_fract_x
 _atom_site_fract_y
 _atom_site_fract_z
 _atom_site_occupancy
  Er  Er0  1  0.149334  0.149334  0.149334  1
  Er  Er1  1  0.950832  0.950832  0.950832  1
  Er  Er2  1  0.850666  0.850666  0.850666  1
  Er  Er3  1  0.049168  0.049168  0.049168  1
  In  In4  1  0.500000  0.500000  0.500000  1
  B  B5  1  0.616359  0.616359  0.616359  1
  B  B6  1  0.716636  0.716636  0.716636  1
  B  B7  1  0.383641  0.383641  0.383641  1
  B  B8  1  0.283364  0.283364  0.283364  1
  Ir  Ir9  1  0.402798  0.906826  0.402798  1
  Ir  Ir10  1  0.906826  0.402798  0.402798  1
  Ir  Ir11  1  0.500000  0.500000  0.000000  1
  Ir  Ir12  1  0.500000  0.000000  0.500000  1
  Ir  Ir13  1  0.000000  0.500000  0.500000  1
  Ir  Ir14  1  0.597202  0.093174  0.597202  1
  Ir  Ir15  1  0.597202  0.597202  0.093174  1
  Ir  Ir16  1  0.093174  0.597202  0.597202  1
  Ir  Ir17  1  0.402798  0.402798  0.906826  1
