# generated using pymatgen
data_Dy3Co2AgSn3
_symmetry_space_group_name_H-M   'P 1'
_cell_length_a   7.63924400
_cell_length_b   7.63924491
_cell_length_c   3.71036800
_cell_angle_alpha   90.00000000
_cell_angle_beta   90.00000000
_cell_angle_gamma   119.99998739
_symmetry_Int_Tables_number   1
_chemical_formula_structural   Dy3Co2AgSn3
_chemical_formula_sum   'Dy3 Co2 Ag1 Sn3'
_cell_volume   187.52038586
_cell_formula_units_Z   1
loop_
 _symmetry_equiv_pos_site_id
 _symmetry_equiv_pos_as_xyz
  1  'x, y, z'
loop_
 _atom_site_type_symbol
 _atom_site_label
 _atom_site_symmetry_multiplicity
 _atom_site_fract_x
 _atom_site_fract_y
 _atom_site_fract_z
 _atom_site_occupancy
  Dy  Dy0  1  0.387527  0.414102  0.500000  1
  Dy  Dy1  1  0.585898  0.973425  0.500000  1
  Dy  Dy2  1  0.026575  0.612473  0.500000  1
  Co  Co3  1  0.333333  0.666667  0.000000  1
  Co  Co4  1  0.000000  0.000000  0.500000  1
  Ag  Ag5  1  0.666667  0.333333  0.000000  1
  Sn  Sn6  1  0.746344  0.745828  0.000000  1
  Sn  Sn7  1  0.254172  0.000516  0.000000  1
  Sn  Sn8  1  0.999484  0.253656  0.000000  1
