# generated using pymatgen
data_Pr6Sm2Sc11Si16W
_symmetry_space_group_name_H-M   'P 1'
_cell_length_a   7.22957013
_cell_length_b   7.46810325
_cell_length_c   14.10175666
_cell_angle_alpha   90.11531125
_cell_angle_beta   89.68958420
_cell_angle_gamma   89.68607097
_symmetry_Int_Tables_number   1
_chemical_formula_structural   Pr6Sm2Sc11Si16W
_chemical_formula_sum   'Pr6 Sm2 Sc11 Si16 W1'
_cell_volume   761.34623856
_cell_formula_units_Z   1
loop_
 _symmetry_equiv_pos_site_id
 _symmetry_equiv_pos_as_xyz
  1  'x, y, z'
loop_
 _atom_site_type_symbol
 _atom_site_label
 _atom_site_symmetry_multiplicity
 _atom_site_fract_x
 _atom_site_fract_y
 _atom_site_fract_z
 _atom_site_occupancy
  Pr  Pr0  1  0.011616  0.170743  0.097832  1
  Pr  Pr1  1  0.989644  0.828759  0.897783  1
  Pr  Pr2  1  0.486898  0.673214  0.898047  1
  Pr  Pr3  1  0.992676  0.831212  0.595308  1
  Pr  Pr4  1  0.513573  0.327533  0.097097  1
  Pr  Pr5  1  0.011615  0.173021  0.403946  1
  Sm  Sm6  1  0.506925  0.326584  0.408980  1
  Sm  Sm7  1  0.487943  0.674377  0.597622  1
  Sc  Sc8  1  0.163640  0.489397  0.743879  1
  Sc  Sc9  1  0.838221  0.500443  0.252888  1
  Sc  Sc10  1  0.338381  0.999706  0.252285  1
  Sc  Sc11  1  0.656810  0.004218  0.747026  1
  Sc  Sc12  1  0.663971  0.826044  0.379137  1
  Sc  Sc13  1  0.169119  0.674944  0.378752  1
  Sc  Sc14  1  0.669321  0.824440  0.125358  1
  Sc  Sc15  1  0.832206  0.326262  0.623157  1
  Sc  Sc16  1  0.332700  0.176886  0.874732  1
  Sc  Sc17  1  0.829022  0.323819  0.870194  1
  Sc  Sc18  1  0.170518  0.675610  0.126293  1
  Si  Si19  1  0.045174  0.127557  0.743746  1
  Si  Si20  1  0.962775  0.875448  0.252507  1
  Si  Si21  1  0.465666  0.625248  0.252287  1
  Si  Si22  1  0.529887  0.367318  0.743968  1
  Si  Si23  1  0.290961  0.892259  0.744904  1
  Si  Si24  1  0.708073  0.118504  0.252134  1
  Si  Si25  1  0.214196  0.381642  0.252153  1
  Si  Si26  1  0.785886  0.616709  0.745457  1
  Si  Si27  1  0.176608  0.448695  0.543238  1
  Si  Si28  1  0.841999  0.534097  0.459276  1
  Si  Si29  1  0.341003  0.969098  0.471067  1
  Si  Si30  1  0.849893  0.537807  0.038850  1
  Si  Si31  1  0.639476  0.039160  0.546329  1
  Si  Si32  1  0.148140  0.464061  0.958531  1
  Si  Si33  1  0.654987  0.037856  0.957847  1
  Si  Si34  1  0.347802  0.961280  0.039163  1
  W  W35  1  0.332672  0.176051  0.628226  1
