# generated using pymatgen
data_Th2Sn(SeO4)6
_symmetry_space_group_name_H-M   'P 1'
_cell_length_a   10.20822815
_cell_length_b   10.20822887
_cell_length_c   10.20822868
_cell_angle_alpha   54.47593150
_cell_angle_beta   54.47594906
_cell_angle_gamma   54.47595093
_symmetry_Int_Tables_number   1
_chemical_formula_structural   Th2Sn(SeO4)6
_chemical_formula_sum   'Th2 Sn1 Se6 O24'
_cell_volume   655.32336633
_cell_formula_units_Z   1
loop_
 _symmetry_equiv_pos_site_id
 _symmetry_equiv_pos_as_xyz
  1  'x, y, z'
loop_
 _atom_site_type_symbol
 _atom_site_label
 _atom_site_symmetry_multiplicity
 _atom_site_fract_x
 _atom_site_fract_y
 _atom_site_fract_z
 _atom_site_occupancy
  Th  Th0  1  0.651641  0.651641  0.651641  1
  Th  Th1  1  0.849080  0.849080  0.849080  1
  Sn  Sn2  1  0.152419  0.152419  0.152419  1
  Se  Se3  1  0.048071  0.780597  0.428787  1
  Se  Se4  1  0.428787  0.048071  0.780597  1
  Se  Se5  1  0.780597  0.428787  0.048071  1
  Se  Se6  1  0.258662  0.504547  0.983580  1
  Se  Se7  1  0.504547  0.983580  0.258662  1
  Se  Se8  1  0.983580  0.258662  0.504547  1
  O  O9  1  0.156189  0.233566  0.501644  1
  O  O10  1  0.233566  0.501644  0.156189  1
  O  O11  1  0.002441  0.999103  0.313279  1
  O  O12  1  0.501644  0.156189  0.233566  1
  O  O13  1  0.015086  0.750845  0.625765  1
  O  O14  1  0.234842  0.657703  0.337731  1
  O  O15  1  0.337731  0.234842  0.657703  1
  O  O16  1  0.313279  0.002441  0.999103  1
  O  O17  1  0.657703  0.337731  0.234842  1
  O  O18  1  0.086885  0.659751  0.922527  1
  O  O19  1  0.295180  0.315805  0.986365  1
  O  O20  1  0.315805  0.986365  0.295180  1
  O  O21  1  0.625765  0.015086  0.750845  1
  O  O22  1  0.750845  0.625765  0.015086  1
  O  O23  1  0.999103  0.313279  0.002441  1
  O  O24  1  0.432257  0.550075  0.810105  1
  O  O25  1  0.659751  0.922527  0.086885  1
  O  O26  1  0.550075  0.810105  0.432257  1
  O  O27  1  0.810105  0.432257  0.550075  1
  O  O28  1  0.986365  0.295180  0.315805  1
  O  O29  1  0.469679  0.875072  0.755677  1
  O  O30  1  0.922527  0.086885  0.659751  1
  O  O31  1  0.755677  0.469679  0.875072  1
  O  O32  1  0.875072  0.755677  0.469679  1
