# generated using pymatgen
data_Tm3Np(CoB4)4
_symmetry_space_group_name_H-M   'P 1'
_cell_length_a   3.34390800
_cell_length_b   5.87359892
_cell_length_c   11.38457778
_cell_angle_alpha   90.05327864
_cell_angle_beta   90.00000000
_cell_angle_gamma   90.00000000
_symmetry_Int_Tables_number   1
_chemical_formula_structural   Tm3Np(CoB4)4
_chemical_formula_sum   'Tm3 Np1 Co4 B16'
_cell_volume   223.60182730
_cell_formula_units_Z   1
loop_
 _symmetry_equiv_pos_site_id
 _symmetry_equiv_pos_as_xyz
  1  'x, y, z'
loop_
 _atom_site_type_symbol
 _atom_site_label
 _atom_site_symmetry_multiplicity
 _atom_site_fract_x
 _atom_site_fract_y
 _atom_site_fract_z
 _atom_site_occupancy
  Tm  Tm0  1  0.500000  0.872491  0.349409  1
  Tm  Tm1  1  0.500000  0.628164  0.850723  1
  Tm  Tm2  1  0.500000  0.371052  0.149756  1
  Np  Np3  1  0.500000  0.127822  0.650279  1
  Co  Co4  1  0.500000  0.134863  0.911167  1
  Co  Co5  1  0.500000  0.864216  0.089620  1
  Co  Co6  1  0.500000  0.636029  0.588475  1
  Co  Co7  1  0.500000  0.366966  0.409791  1
  B  B8  1  0.000000  0.477702  0.691784  1
  B  B9  1  0.000000  0.524352  0.308508  1
  B  B10  1  0.000000  0.977011  0.809480  1
  B  B11  1  0.000000  0.023804  0.191034  1
  B  B12  1  0.000000  0.283344  0.814963  1
  B  B13  1  0.000000  0.715296  0.185050  1
  B  B14  1  0.000000  0.783372  0.685456  1
  B  B15  1  0.000000  0.214107  0.314786  1
  B  B16  1  0.000000  0.362144  0.968002  1
  B  B17  1  0.000000  0.637168  0.032503  1
  B  B18  1  0.000000  0.863431  0.532855  1
  B  B19  1  0.000000  0.138210  0.465763  1
  B  B20  1  0.000000  0.387967  0.546587  1
  B  B21  1  0.000000  0.612275  0.453018  1
  B  B22  1  0.000000  0.886702  0.954345  1
  B  B23  1  0.000000  0.111511  0.046647  1
