# generated using pymatgen
data_Hf6AlSnC2
_symmetry_space_group_name_H-M   'P 1'
_cell_length_a   6.04239308
_cell_length_b   6.04239200
_cell_length_c   9.05072800
_cell_angle_alpha   90.00000000
_cell_angle_beta   90.00000000
_cell_angle_gamma   147.21240505
_symmetry_Int_Tables_number   1
_chemical_formula_structural   Hf6AlSnC2
_chemical_formula_sum   'Hf6 Al1 Sn1 C2'
_cell_volume   178.94553395
_cell_formula_units_Z   1
loop_
 _symmetry_equiv_pos_site_id
 _symmetry_equiv_pos_as_xyz
  1  'x, y, z'
loop_
 _atom_site_type_symbol
 _atom_site_label
 _atom_site_symmetry_multiplicity
 _atom_site_fract_x
 _atom_site_fract_y
 _atom_site_fract_z
 _atom_site_occupancy
  Hf  Hf0  1  0.625240  0.374760  0.464902  1
  Hf  Hf1  1  0.372499  0.627501  0.547524  1
  Hf  Hf2  1  0.625240  0.374760  0.035098  1
  Hf  Hf3  1  0.372499  0.627501  0.952476  1
  Hf  Hf4  1  0.963020  0.036980  0.250000  1
  Hf  Hf5  1  0.043797  0.956203  0.750000  1
  Al  Al6  1  0.748534  0.251466  0.750000  1
  Sn  Sn7  1  0.251808  0.748192  0.250000  1
  C  C8  1  0.998682  0.001318  0.500990  1
  C  C9  1  0.998682  0.001318  0.999010  1
