# generated using pymatgen
data_Y16MgHg3Pd3Pt
_symmetry_space_group_name_H-M   'P 1'
_cell_length_a   9.71505792
_cell_length_b   9.71740014
_cell_length_c   9.71741900
_cell_angle_alpha   60.00026646
_cell_angle_beta   59.99204584
_cell_angle_gamma   59.99227103
_symmetry_Int_Tables_number   1
_chemical_formula_structural   Y16MgHg3Pd3Pt
_chemical_formula_sum   'Y16 Mg1 Hg3 Pd3 Pt1'
_cell_volume   648.60576056
_cell_formula_units_Z   1
loop_
 _symmetry_equiv_pos_site_id
 _symmetry_equiv_pos_as_xyz
  1  'x, y, z'
loop_
 _atom_site_type_symbol
 _atom_site_label
 _atom_site_symmetry_multiplicity
 _atom_site_fract_x
 _atom_site_fract_y
 _atom_site_fract_z
 _atom_site_occupancy
  Y  Y0  1  0.608153  0.601989  0.601990  1
  Y  Y1  1  0.608152  0.601990  0.187869  1
  Y  Y2  1  0.608152  0.187868  0.601990  1
  Y  Y3  1  0.172832  0.609056  0.609056  1
  Y  Y4  1  0.057544  0.440161  0.440161  1
  Y  Y5  1  0.436463  0.062690  0.062690  1
  Y  Y6  1  0.436464  0.062690  0.438157  1
  Y  Y7  1  0.057545  0.440161  0.062134  1
  Y  Y8  1  0.436463  0.438157  0.062690  1
  Y  Y9  1  0.057544  0.062134  0.440161  1
  Y  Y10  1  0.182601  0.816463  0.816461  1
  Y  Y11  1  0.815851  0.184676  0.184676  1
  Y  Y12  1  0.815851  0.184676  0.814797  1
  Y  Y13  1  0.182601  0.816462  0.184475  1
  Y  Y14  1  0.815851  0.814797  0.184676  1
  Y  Y15  1  0.182600  0.184476  0.816462  1
  Mg  Mg16  1  0.533259  0.822247  0.822248  1
  Hg  Hg17  1  0.833316  0.839470  0.839469  1
  Hg  Hg18  1  0.833316  0.839468  0.487747  1
  Hg  Hg19  1  0.833315  0.487746  0.839470  1
  Pd  Pd20  1  0.391533  0.396857  0.396854  1
  Pd  Pd21  1  0.391537  0.396852  0.814758  1
  Pd  Pd22  1  0.391534  0.814759  0.396855  1
  Pt  Pt23  1  0.817526  0.394157  0.394158  1
