# generated using pymatgen
data_Li2YbGdPt2
_symmetry_space_group_name_H-M   'P 1'
_cell_length_a   3.93885900
_cell_length_b   7.12857315
_cell_length_c   8.60774600
_cell_angle_alpha   90.78329311
_cell_angle_beta   90.00000000
_cell_angle_gamma   90.00000000
_symmetry_Int_Tables_number   1
_chemical_formula_structural   Li2YbGdPt2
_chemical_formula_sum   'Li4 Yb2 Gd2 Pt4'
_cell_volume   241.66953279
_cell_formula_units_Z   2
loop_
 _symmetry_equiv_pos_site_id
 _symmetry_equiv_pos_as_xyz
  1  'x, y, z'
loop_
 _atom_site_type_symbol
 _atom_site_label
 _atom_site_symmetry_multiplicity
 _atom_site_fract_x
 _atom_site_fract_y
 _atom_site_fract_z
 _atom_site_occupancy
  Li  Li0  1  0.250000  0.626017  0.552271  1
  Li  Li1  1  0.750000  0.373983  0.447729  1
  Li  Li2  1  0.750000  0.878898  0.059401  1
  Li  Li3  1  0.250000  0.121102  0.940599  1
  Yb  Yb4  1  0.750000  0.949215  0.677593  1
  Yb  Yb5  1  0.250000  0.050785  0.322407  1
  Gd  Gd6  1  0.250000  0.549021  0.178866  1
  Gd  Gd7  1  0.750000  0.450979  0.821134  1
  Pt  Pt8  1  0.250000  0.742416  0.879723  1
  Pt  Pt9  1  0.750000  0.257584  0.120277  1
  Pt  Pt10  1  0.750000  0.750091  0.368532  1
  Pt  Pt11  1  0.250000  0.249909  0.631468  1
