# generated using pymatgen
data_La3ZrZn2Ir3
_symmetry_space_group_name_H-M   'P 1'
_cell_length_a   7.28751600
_cell_length_b   7.42348532
_cell_length_c   4.24166500
_cell_angle_alpha   90.00000000
_cell_angle_beta   90.00000000
_cell_angle_gamma   119.39592661
_symmetry_Int_Tables_number   1
_chemical_formula_structural   La3ZrZn2Ir3
_chemical_formula_sum   'La3 Zr1 Zn2 Ir3'
_cell_volume   199.92444011
_cell_formula_units_Z   1
loop_
 _symmetry_equiv_pos_site_id
 _symmetry_equiv_pos_as_xyz
  1  'x, y, z'
loop_
 _atom_site_type_symbol
 _atom_site_label
 _atom_site_symmetry_multiplicity
 _atom_site_fract_x
 _atom_site_fract_y
 _atom_site_fract_z
 _atom_site_occupancy
  La  La0  1  0.390378  0.000000  0.000000  1
  La  La1  1  0.016006  0.438945  0.000000  1
  La  La2  1  0.577061  0.561055  0.000000  1
  Zr  Zr3  1  0.766446  0.000000  0.499999  1
  Zn  Zn4  1  0.238284  0.238797  0.499999  1
  Zn  Zn5  1  0.999487  0.761203  0.499999  1
  Ir  Ir6  1  0.985042  0.000000  0.000000  1
  Ir  Ir7  1  0.673550  0.319805  0.499999  1
  Ir  Ir8  1  0.353745  0.680195  0.499999  1
