# generated using pymatgen
data_NdHo5Ta2O14
_symmetry_space_group_name_H-M   'P 1'
_cell_length_a   6.48984594
_cell_length_b   6.48984630
_cell_length_c   7.49999568
_cell_angle_alpha   89.88518063
_cell_angle_beta   90.11481752
_cell_angle_gamma   108.65437466
_symmetry_Int_Tables_number   1
_chemical_formula_structural   NdHo5Ta2O14
_chemical_formula_sum   'Nd1 Ho5 Ta2 O14'
_cell_volume   299.28971832
_cell_formula_units_Z   1
loop_
 _symmetry_equiv_pos_site_id
 _symmetry_equiv_pos_as_xyz
  1  'x, y, z'
loop_
 _atom_site_type_symbol
 _atom_site_label
 _atom_site_symmetry_multiplicity
 _atom_site_fract_x
 _atom_site_fract_y
 _atom_site_fract_z
 _atom_site_occupancy
  Nd  Nd0  1  0.521072  0.521072  0.500000  1
  Ho  Ho1  1  0.459623  0.459623  0.000000  1
  Ho  Ho2  1  0.999949  0.534757  0.239024  1
  Ho  Ho3  1  0.998954  0.465567  0.744640  1
  Ho  Ho4  1  0.534757  0.999949  0.760976  1
  Ho  Ho5  1  0.465567  0.998954  0.255360  1
  Ta  Ta6  1  0.001731  0.001731  0.500000  1
  Ta  Ta7  1  0.997278  0.997278  0.000000  1
  O  O8  1  0.932150  0.068216  0.749708  1
  O  O9  1  0.068216  0.932150  0.250292  1
  O  O10  1  0.357969  0.642339  0.240501  1
  O  O11  1  0.642339  0.357969  0.759499  1
  O  O12  1  0.367037  0.631859  0.759700  1
  O  O13  1  0.631859  0.367037  0.240300  1
  O  O14  1  0.327899  0.081988  0.975183  1
  O  O15  1  0.673337  0.923913  0.474305  1
  O  O16  1  0.312119  0.056783  0.543749  1
  O  O17  1  0.692978  0.952482  0.044385  1
  O  O18  1  0.056783  0.312119  0.456251  1
  O  O19  1  0.952482  0.692978  0.955615  1
  O  O20  1  0.923913  0.673337  0.525695  1
  O  O21  1  0.081988  0.327899  0.024817  1
