# generated using pymatgen
data_DyU5(Cu2S7)2
_symmetry_space_group_name_H-M   'P 1'
_cell_length_a   9.69953899
_cell_length_b   9.68529777
_cell_length_c   5.70642726
_cell_angle_alpha   90.00270512
_cell_angle_beta   89.80976298
_cell_angle_gamma   120.06569434
_symmetry_Int_Tables_number   1
_chemical_formula_structural   DyU5(Cu2S7)2
_chemical_formula_sum   'Dy1 U5 Cu4 S14'
_cell_volume   463.94656274
_cell_formula_units_Z   1
loop_
 _symmetry_equiv_pos_site_id
 _symmetry_equiv_pos_as_xyz
  1  'x, y, z'
loop_
 _atom_site_type_symbol
 _atom_site_label
 _atom_site_symmetry_multiplicity
 _atom_site_fract_x
 _atom_site_fract_y
 _atom_site_fract_z
 _atom_site_occupancy
  Dy  Dy0  1  0.227282  0.848571  0.031723  1
  U  U1  1  0.148988  0.380309  0.028773  1
  U  U2  1  0.849858  0.621730  0.530286  1
  U  U3  1  0.619462  0.772869  0.027717  1
  U  U4  1  0.768757  0.150059  0.534864  1
  U  U5  1  0.379227  0.229650  0.530976  1
  Cu  Cu6  1  0.667136  0.333413  0.150685  1
  Cu  Cu7  1  0.334287  0.665037  0.647879  1
  Cu  Cu8  1  0.000430  0.000936  0.498443  1
  Cu  Cu9  1  0.000626  0.998881  0.999920  1
  S  S10  1  0.666384  0.334544  0.752213  1
  S  S11  1  0.568268  0.487072  0.284434  1
  S  S12  1  0.152553  0.892086  0.513261  1
  S  S13  1  0.516229  0.082514  0.286554  1
  S  S14  1  0.433898  0.513462  0.784031  1
  S  S15  1  0.490122  0.918869  0.780084  1
  S  S16  1  0.847147  0.107390  0.016515  1
  S  S17  1  0.078907  0.563330  0.779452  1
  S  S18  1  0.739357  0.846854  0.512986  1
  S  S19  1  0.335322  0.664003  0.250796  1
  S  S20  1  0.919166  0.432445  0.283070  1
  S  S21  1  0.261913  0.157755  0.014608  1
  S  S22  1  0.108300  0.262324  0.514497  1
  S  S23  1  0.886386  0.735897  0.012634  1
