# generated using pymatgen
data_ZnSb6(SO8)2
_symmetry_space_group_name_H-M   'P 1'
_cell_length_a   5.71215314
_cell_length_b   7.84453835
_cell_length_c   9.40489076
_cell_angle_alpha   96.50394871
_cell_angle_beta   93.91541733
_cell_angle_gamma   109.33269906
_symmetry_Int_Tables_number   1
_chemical_formula_structural   ZnSb6(SO8)2
_chemical_formula_sum   'Zn1 Sb6 S2 O16'
_cell_volume   392.58004499
_cell_formula_units_Z   1
loop_
 _symmetry_equiv_pos_site_id
 _symmetry_equiv_pos_as_xyz
  1  'x, y, z'
loop_
 _atom_site_type_symbol
 _atom_site_label
 _atom_site_symmetry_multiplicity
 _atom_site_fract_x
 _atom_site_fract_y
 _atom_site_fract_z
 _atom_site_occupancy
  Zn  Zn0  1  0.000000  0.500000  0.500000  1
  Sb  Sb1  1  0.694473  0.520367  0.780100  1
  Sb  Sb2  1  0.305527  0.479633  0.219900  1
  Sb  Sb3  1  0.645943  0.834189  0.517759  1
  Sb  Sb4  1  0.354057  0.165811  0.482241  1
  Sb  Sb5  1  0.329515  0.854976  0.801252  1
  Sb  Sb6  1  0.670485  0.145024  0.198748  1
  S  S7  1  0.136680  0.216110  0.855615  1
  S  S8  1  0.863320  0.783890  0.144385  1
  O  O9  1  0.026570  0.659065  0.688566  1
  O  O10  1  0.973430  0.340935  0.311434  1
  O  O11  1  0.546285  0.700209  0.703214  1
  O  O12  1  0.453715  0.299791  0.296786  1
  O  O13  1  0.064781  0.022683  0.775851  1
  O  O14  1  0.935219  0.977317  0.224149  1
  O  O15  1  0.666092  0.370468  0.580529  1
  O  O16  1  0.333908  0.629532  0.419471  1
  O  O17  1  0.328238  0.241540  0.978055  1
  O  O18  1  0.671762  0.758460  0.021945  1
  O  O19  1  0.446341  0.971018  0.623777  1
  O  O20  1  0.553659  0.028982  0.376223  1
  O  O21  1  0.250639  0.344170  0.748931  1
  O  O22  1  0.749361  0.655830  0.251069  1
  O  O23  1  0.911763  0.248061  0.900443  1
  O  O24  1  0.088237  0.751939  0.099557  1
