# generated using pymatgen
data_Dy8Lu2Ga3NiBi2
_symmetry_space_group_name_H-M   'P 1'
_cell_length_a   8.53920206
_cell_length_b   8.53920164
_cell_length_c   8.72415841
_cell_angle_alpha   124.45768623
_cell_angle_beta   124.45768136
_cell_angle_gamma   81.01912297
_symmetry_Int_Tables_number   1
_chemical_formula_structural   Dy8Lu2Ga3NiBi2
_chemical_formula_sum   'Dy8 Lu2 Ga3 Ni1 Bi2'
_cell_volume   419.72482074
_cell_formula_units_Z   1
loop_
 _symmetry_equiv_pos_site_id
 _symmetry_equiv_pos_as_xyz
  1  'x, y, z'
loop_
 _atom_site_type_symbol
 _atom_site_label
 _atom_site_symmetry_multiplicity
 _atom_site_fract_x
 _atom_site_fract_y
 _atom_site_fract_z
 _atom_site_occupancy
  Dy  Dy0  1  0.780427  0.296417  0.796474  1
  Dy  Dy1  1  0.203583  0.719573  0.203526  1
  Dy  Dy2  1  0.483952  0.999941  0.203526  1
  Dy  Dy3  1  0.303108  0.459671  0.500000  1
  Dy  Dy4  1  0.040329  0.196892  0.500000  1
  Dy  Dy5  1  0.500059  0.016048  0.796474  1
  Dy  Dy6  1  0.704680  0.516446  0.500000  1
  Dy  Dy7  1  0.983554  0.795320  0.500000  1
  Lu  Lu8  1  0.995218  0.997651  0.992870  1
  Lu  Lu9  1  0.502349  0.504782  0.007130  1
  Ga  Ga10  1  0.147506  0.645375  0.792881  1
  Ga  Ga11  1  0.854625  0.352494  0.207119  1
  Ga  Ga12  1  0.635064  0.864936  0.500000  1
  Ni  Ni13  1  0.376408  0.123592  0.500000  1
  Bi  Bi14  1  0.244569  0.255431  0.000000  1
  Bi  Bi15  1  0.744569  0.755431  0.000000  1
