# generated using pymatgen
data_Sm4Se2SN2
_symmetry_space_group_name_H-M   'P 1'
_cell_length_a   7.09635451
_cell_length_b   7.09635548
_cell_length_c   10.34211257
_cell_angle_alpha   52.09131329
_cell_angle_beta   52.09130656
_cell_angle_gamma   32.81291151
_symmetry_Int_Tables_number   1
_chemical_formula_structural   Sm4Se2SN2
_chemical_formula_sum   'Sm4 Se2 S1 N2'
_cell_volume   216.74160139
_cell_formula_units_Z   1
loop_
 _symmetry_equiv_pos_site_id
 _symmetry_equiv_pos_as_xyz
  1  'x, y, z'
loop_
 _atom_site_type_symbol
 _atom_site_label
 _atom_site_symmetry_multiplicity
 _atom_site_fract_x
 _atom_site_fract_y
 _atom_site_fract_z
 _atom_site_occupancy
  Sm  Sm0  1  0.242539  0.242539  0.645155  1
  Sm  Sm1  1  0.757461  0.757461  0.354845  1
  Sm  Sm2  1  0.558369  0.558369  0.143595  1
  Sm  Sm3  1  0.441631  0.441631  0.856405  1
  Se  Se4  1  0.836297  0.836297  0.772944  1
  Se  Se5  1  0.163703  0.163703  0.227056  1
  S  S6  1  0.000000  0.000000  0.000000  1
  N  N7  1  0.351331  0.351331  0.359912  1
  N  N8  1  0.648669  0.648669  0.640088  1
