# generated using pymatgen
data_Dy10Cd8PtAu3
_symmetry_space_group_name_H-M   'P 1'
_cell_length_a   3.65609000
_cell_length_b   8.08974259
_cell_length_c   18.53799342
_cell_angle_alpha   90.04427097
_cell_angle_beta   90.00000000
_cell_angle_gamma   90.00000000
_symmetry_Int_Tables_number   1
_chemical_formula_structural   Dy10Cd8PtAu3
_chemical_formula_sum   'Dy10 Cd8 Pt1 Au3'
_cell_volume   548.29486024
_cell_formula_units_Z   1
loop_
 _symmetry_equiv_pos_site_id
 _symmetry_equiv_pos_as_xyz
  1  'x, y, z'
loop_
 _atom_site_type_symbol
 _atom_site_label
 _atom_site_symmetry_multiplicity
 _atom_site_fract_x
 _atom_site_fract_y
 _atom_site_fract_z
 _atom_site_occupancy
  Dy  Dy0  1  0.000000  0.116945  0.417898  1
  Dy  Dy1  1  0.000000  0.883368  0.580859  1
  Dy  Dy2  1  0.000000  0.383989  0.919509  1
  Dy  Dy3  1  0.000000  0.614894  0.085605  1
  Dy  Dy4  1  0.000000  0.254978  0.216628  1
  Dy  Dy5  1  0.000000  0.758322  0.784207  1
  Dy  Dy6  1  0.000000  0.257881  0.716263  1
  Dy  Dy7  1  0.000000  0.732559  0.280378  1
  Dy  Dy8  1  0.000000  0.998298  0.000101  1
  Dy  Dy9  1  0.000000  0.499243  0.499586  1
  Cd  Cd10  1  0.500000  0.427785  0.353655  1
  Cd  Cd11  1  0.500000  0.573377  0.646072  1
  Cd  Cd12  1  0.500000  0.073137  0.854117  1
  Cd  Cd13  1  0.500000  0.928501  0.146397  1
  Cd  Cd14  1  0.500000  0.286337  0.066698  1
  Cd  Cd15  1  0.500000  0.713186  0.933405  1
  Cd  Cd16  1  0.500000  0.213691  0.566863  1
  Cd  Cd17  1  0.500000  0.786581  0.432872  1
  Pt  Pt18  1  0.500000  0.529204  0.196514  1
  Au  Au19  1  0.500000  0.028602  0.302103  1
  Au  Au20  1  0.500000  0.969467  0.697109  1
  Au  Au21  1  0.500000  0.469655  0.803157  1
