# generated using pymatgen
data_Rb4PaAsBr12
_symmetry_space_group_name_H-M   'P 1'
_cell_length_a   7.78411000
_cell_length_b   7.78411000
_cell_length_c   11.42851700
_cell_angle_alpha   90.00000000
_cell_angle_beta   90.00000000
_cell_angle_gamma   90.00000000
_symmetry_Int_Tables_number   1
_chemical_formula_structural   Rb4PaAsBr12
_chemical_formula_sum   'Rb4 Pa1 As1 Br12'
_cell_volume   692.48091338
_cell_formula_units_Z   1
loop_
 _symmetry_equiv_pos_site_id
 _symmetry_equiv_pos_as_xyz
  1  'x, y, z'
loop_
 _atom_site_type_symbol
 _atom_site_label
 _atom_site_symmetry_multiplicity
 _atom_site_fract_x
 _atom_site_fract_y
 _atom_site_fract_z
 _atom_site_occupancy
  Rb  Rb0  1  0.500000  0.000000  0.794155  1
  Rb  Rb1  1  0.500000  0.000000  0.205845  1
  Rb  Rb2  1  0.000000  0.500000  0.205845  1
  Rb  Rb3  1  0.000000  0.500000  0.794155  1
  Pa  Pa4  1  0.500000  0.500000  0.500000  1
  As  As5  1  0.000000  0.000000  0.000000  1
  Br  Br6  1  0.765850  0.253554  0.000000  1
  Br  Br7  1  0.234150  0.746446  0.000000  1
  Br  Br8  1  0.500000  0.500000  0.260223  1
  Br  Br9  1  0.291407  0.220766  0.500000  1
  Br  Br10  1  0.253554  0.234150  0.000000  1
  Br  Br11  1  0.779234  0.291407  0.500000  1
  Br  Br12  1  0.000000  0.000000  0.235403  1
  Br  Br13  1  0.708593  0.779234  0.500000  1
  Br  Br14  1  0.220766  0.708593  0.500000  1
  Br  Br15  1  0.500000  0.500000  0.739777  1
  Br  Br16  1  0.746446  0.765850  0.000000  1
  Br  Br17  1  0.000000  0.000000  0.764597  1
