# generated using pymatgen
data_Hf5Nb(AlCo2)6
_symmetry_space_group_name_H-M   'P 1'
_cell_length_a   4.24787500
_cell_length_b   5.99432400
_cell_length_c   12.77697900
_cell_angle_alpha   90.00000000
_cell_angle_beta   89.99996409
_cell_angle_gamma   90.00000000
_symmetry_Int_Tables_number   1
_chemical_formula_structural   Hf5Nb(AlCo2)6
_chemical_formula_sum   'Hf5 Nb1 Al6 Co12'
_cell_volume   325.34199306
_cell_formula_units_Z   1
loop_
 _symmetry_equiv_pos_site_id
 _symmetry_equiv_pos_as_xyz
  1  'x, y, z'
loop_
 _atom_site_type_symbol
 _atom_site_label
 _atom_site_symmetry_multiplicity
 _atom_site_fract_x
 _atom_site_fract_y
 _atom_site_fract_z
 _atom_site_occupancy
  Hf  Hf0  1  0.999987  0.000000  0.999471  1
  Hf  Hf1  1  0.500192  0.500000  0.166084  1
  Hf  Hf2  1  0.000170  0.000000  0.333297  1
  Hf  Hf3  1  0.500022  0.500000  0.500548  1
  Hf  Hf4  1  0.999815  0.000000  0.667210  1
  Nb  Nb5  1  0.499809  0.500000  0.833356  1
  Al  Al6  1  0.000022  0.500000  0.999274  1
  Al  Al7  1  0.500171  0.000000  0.165633  1
  Al  Al8  1  0.000174  0.500000  0.333290  1
  Al  Al9  1  0.500003  0.000000  0.500994  1
  Al  Al10  1  0.999846  0.500000  0.667443  1
  Al  Al11  1  0.499809  0.000000  0.833360  1
  Co  Co12  1  0.499992  0.253767  0.997039  1
  Co  Co13  1  0.499992  0.746232  0.997039  1
  Co  Co14  1  0.000215  0.249809  0.166532  1
  Co  Co15  1  0.000215  0.750191  0.166532  1
  Co  Co16  1  0.500195  0.250295  0.333289  1
  Co  Co17  1  0.500195  0.749704  0.333289  1
  Co  Co18  1  0.000019  0.249790  0.500079  1
  Co  Co19  1  0.000019  0.750209  0.500079  1
  Co  Co20  1  0.499791  0.253831  0.669702  1
  Co  Co21  1  0.499791  0.746168  0.669702  1
  Co  Co22  1  0.999776  0.259267  0.833379  1
  Co  Co23  1  0.999776  0.740733  0.833379  1
