# generated using pymatgen
data_Dy5Er11(LuSn4)4
_symmetry_space_group_name_H-M   'P 1'
_cell_length_a   7.99297248
_cell_length_b   8.11272624
_cell_length_c   15.35151700
_cell_angle_alpha   90.00485897
_cell_angle_beta   89.85819715
_cell_angle_gamma   89.87213240
_symmetry_Int_Tables_number   1
_chemical_formula_structural   Dy5Er11(LuSn4)4
_chemical_formula_sum   'Dy5 Er11 Lu4 Sn16'
_cell_volume   995.46047999
_cell_formula_units_Z   1
loop_
 _symmetry_equiv_pos_site_id
 _symmetry_equiv_pos_as_xyz
  1  'x, y, z'
loop_
 _atom_site_type_symbol
 _atom_site_label
 _atom_site_symmetry_multiplicity
 _atom_site_fract_x
 _atom_site_fract_y
 _atom_site_fract_z
 _atom_site_occupancy
  Dy  Dy0  1  0.978940  0.820573  0.096846  1
  Dy  Dy1  1  0.479095  0.678693  0.096347  1
  Dy  Dy2  1  0.978509  0.820976  0.403370  1
  Dy  Dy3  1  0.521277  0.321125  0.596688  1
  Dy  Dy4  1  0.020519  0.179355  0.903455  1
  Er  Er5  1  0.366951  0.837707  0.876901  1
  Er  Er6  1  0.867864  0.662298  0.622639  1
  Er  Er7  1  0.632013  0.162324  0.377639  1
  Er  Er8  1  0.132952  0.337649  0.122328  1
  Er  Er9  1  0.632592  0.162223  0.122462  1
  Er  Er10  1  0.131840  0.337792  0.377840  1
  Er  Er11  1  0.368514  0.837912  0.622922  1
  Er  Er12  1  0.867299  0.662191  0.876991  1
  Er  Er13  1  0.522058  0.320946  0.902660  1
  Er  Er14  1  0.022518  0.178932  0.597418  1
  Er  Er15  1  0.477410  0.678669  0.403054  1
  Lu  Lu16  1  0.198600  0.503989  0.749918  1
  Lu  Lu17  1  0.698533  0.996173  0.749837  1
  Lu  Lu18  1  0.801305  0.496016  0.250299  1
  Lu  Lu19  1  0.301608  0.004088  0.250236  1
  Sn  Sn20  1  0.293265  0.037101  0.042183  1
  Sn  Sn21  1  0.792116  0.463173  0.457522  1
  Sn  Sn22  1  0.707799  0.963968  0.542936  1
  Sn  Sn23  1  0.207324  0.537321  0.957284  1
  Sn  Sn24  1  0.705300  0.961954  0.957428  1
  Sn  Sn25  1  0.207110  0.537875  0.542354  1
  Sn  Sn26  1  0.292621  0.037367  0.458024  1
  Sn  Sn27  1  0.793759  0.461595  0.041876  1
  Sn  Sn28  1  0.564383  0.617986  0.749923  1
  Sn  Sn29  1  0.064037  0.881822  0.749840  1
  Sn  Sn30  1  0.435691  0.381783  0.250067  1
  Sn  Sn31  1  0.935792  0.118779  0.250078  1
  Sn  Sn32  1  0.331840  0.150291  0.750470  1
  Sn  Sn33  1  0.831850  0.349753  0.749776  1
  Sn  Sn34  1  0.667683  0.849897  0.250254  1
  Sn  Sn35  1  0.169034  0.649699  0.250131  1
