# generated using pymatgen
data_Nd8Cd2CoIr
_symmetry_space_group_name_H-M   'P 1'
_cell_length_a   9.88207153
_cell_length_b   9.88207116
_cell_length_c   9.84265800
_cell_angle_alpha   60.13184608
_cell_angle_beta   60.13184733
_cell_angle_gamma   60.30711257
_symmetry_Int_Tables_number   1
_chemical_formula_structural   Nd8Cd2CoIr
_chemical_formula_sum   'Nd16 Cd4 Co2 Ir2'
_cell_volume   682.58678947
_cell_formula_units_Z   2
loop_
 _symmetry_equiv_pos_site_id
 _symmetry_equiv_pos_as_xyz
  1  'x, y, z'
loop_
 _atom_site_type_symbol
 _atom_site_label
 _atom_site_symmetry_multiplicity
 _atom_site_fract_x
 _atom_site_fract_y
 _atom_site_fract_z
 _atom_site_occupancy
  Nd  Nd0  1  0.345445  0.345445  0.352736  1
  Nd  Nd1  1  0.345445  0.345445  0.956373  1
  Nd  Nd2  1  0.342999  0.957950  0.349525  1
  Nd  Nd3  1  0.957950  0.342999  0.349525  1
  Nd  Nd4  1  0.814554  0.190207  0.189921  1
  Nd  Nd5  1  0.190207  0.814554  0.805318  1
  Nd  Nd6  1  0.190207  0.814554  0.189921  1
  Nd  Nd7  1  0.814554  0.190207  0.805318  1
  Nd  Nd8  1  0.189130  0.189130  0.810870  1
  Nd  Nd9  1  0.809097  0.809097  0.190903  1
  Nd  Nd10  1  0.939269  0.561839  0.560203  1
  Nd  Nd11  1  0.561839  0.939269  0.938690  1
  Nd  Nd12  1  0.561839  0.939269  0.560203  1
  Nd  Nd13  1  0.939269  0.561839  0.938690  1
  Nd  Nd14  1  0.560345  0.560345  0.939655  1
  Nd  Nd15  1  0.937914  0.937914  0.562086  1
  Cd  Cd16  1  0.579824  0.579824  0.579499  1
  Cd  Cd17  1  0.579824  0.579824  0.260853  1
  Cd  Cd18  1  0.580211  0.259666  0.580061  1
  Cd  Cd19  1  0.259666  0.580211  0.580061  1
  Co  Co20  1  0.141167  0.141167  0.140646  1
  Co  Co21  1  0.141167  0.141167  0.577018  1
  Ir  Ir22  1  0.142070  0.576005  0.140962  1
  Ir  Ir23  1  0.576005  0.142070  0.140962  1
