# generated using pymatgen
data_Pr4Ga4PtRh3
_symmetry_space_group_name_H-M   'P 1'
_cell_length_a   4.47453400
_cell_length_b   7.12784884
_cell_length_c   7.88432447
_cell_angle_alpha   89.72164006
_cell_angle_beta   90.00000000
_cell_angle_gamma   90.00000000
_symmetry_Int_Tables_number   1
_chemical_formula_structural   Pr4Ga4PtRh3
_chemical_formula_sum   'Pr4 Ga4 Pt1 Rh3'
_cell_volume   251.45811587
_cell_formula_units_Z   1
loop_
 _symmetry_equiv_pos_site_id
 _symmetry_equiv_pos_as_xyz
  1  'x, y, z'
loop_
 _atom_site_type_symbol
 _atom_site_label
 _atom_site_symmetry_multiplicity
 _atom_site_fract_x
 _atom_site_fract_y
 _atom_site_fract_z
 _atom_site_occupancy
  Pr  Pr0  1  0.250000  0.026583  0.686719  1
  Pr  Pr1  1  0.250000  0.529433  0.811885  1
  Pr  Pr2  1  0.750000  0.971966  0.310513  1
  Pr  Pr3  1  0.750000  0.476171  0.192553  1
  Ga  Ga4  1  0.250000  0.152912  0.073697  1
  Ga  Ga5  1  0.250000  0.654776  0.428129  1
  Ga  Ga6  1  0.750000  0.840805  0.928437  1
  Ga  Ga7  1  0.750000  0.347038  0.569315  1
  Pt  Pt8  1  0.750000  0.220811  0.891643  1
  Rh  Rh9  1  0.250000  0.278234  0.392935  1
  Rh  Rh10  1  0.250000  0.779284  0.107137  1
  Rh  Rh11  1  0.750000  0.721987  0.607038  1
