# generated using pymatgen
data_Ho6Er4InSb5
_symmetry_space_group_name_H-M   'P 1'
_cell_length_a   8.91274700
_cell_length_b   8.91357317
_cell_length_c   6.34055200
_cell_angle_alpha   90.00000000
_cell_angle_beta   90.00000000
_cell_angle_gamma   119.99693769
_symmetry_Int_Tables_number   1
_chemical_formula_structural   Ho6Er4InSb5
_chemical_formula_sum   'Ho6 Er4 In1 Sb5'
_cell_volume   436.24906953
_cell_formula_units_Z   1
loop_
 _symmetry_equiv_pos_site_id
 _symmetry_equiv_pos_as_xyz
  1  'x, y, z'
loop_
 _atom_site_type_symbol
 _atom_site_label
 _atom_site_symmetry_multiplicity
 _atom_site_fract_x
 _atom_site_fract_y
 _atom_site_fract_z
 _atom_site_occupancy
  Ho  Ho0  1  0.757202  0.000000  0.750000  1
  Ho  Ho1  1  0.753920  0.755845  0.250000  1
  Ho  Ho2  1  0.998075  0.244155  0.250000  1
  Ho  Ho3  1  0.003888  0.758212  0.750000  1
  Ho  Ho4  1  0.245676  0.241788  0.750000  1
  Ho  Ho5  1  0.241972  0.000000  0.250000  1
  Er  Er6  1  0.333917  0.669072  0.000737  1
  Er  Er7  1  0.664846  0.330928  0.499263  1
  Er  Er8  1  0.664846  0.330928  0.000737  1
  Er  Er9  1  0.333917  0.669072  0.499263  1
  In  In10  1  0.394771  0.000000  0.750000  1
  Sb  Sb11  1  0.388848  0.390523  0.250000  1
  Sb  Sb12  1  0.998325  0.609477  0.250000  1
  Sb  Sb13  1  0.000908  0.390131  0.750000  1
  Sb  Sb14  1  0.610778  0.609869  0.750000  1
  Sb  Sb15  1  0.608112  0.000000  0.250000  1
