# generated using pymatgen
data_ErTh2Ni13B2
_symmetry_space_group_name_H-M   'P 1'
_cell_length_a   4.94189300
_cell_length_b   4.95398142
_cell_length_c   11.01491100
_cell_angle_alpha   90.00000000
_cell_angle_beta   90.00000000
_cell_angle_gamma   119.91930685
_symmetry_Int_Tables_number   1
_chemical_formula_structural   ErTh2Ni13B2
_chemical_formula_sum   'Er1 Th2 Ni13 B2'
_cell_volume   233.72861951
_cell_formula_units_Z   1
loop_
 _symmetry_equiv_pos_site_id
 _symmetry_equiv_pos_as_xyz
  1  'x, y, z'
loop_
 _atom_site_type_symbol
 _atom_site_label
 _atom_site_symmetry_multiplicity
 _atom_site_fract_x
 _atom_site_fract_y
 _atom_site_fract_z
 _atom_site_occupancy
  Er  Er0  1  0.500000  0.000000  0.000000  1
  Th  Th1  1  0.500000  0.000000  0.672129  1
  Th  Th2  1  0.500000  0.000000  0.327871  1
  Ni  Ni3  1  0.000000  0.000000  0.500000  1
  Ni  Ni4  1  0.500000  0.500000  0.500000  1
  Ni  Ni5  1  0.000000  0.500000  0.500000  1
  Ni  Ni6  1  0.833271  0.666541  0.682787  1
  Ni  Ni7  1  0.166729  0.333459  0.682787  1
  Ni  Ni8  1  0.166729  0.333459  0.317213  1
  Ni  Ni9  1  0.833271  0.666541  0.317213  1
  Ni  Ni10  1  0.000000  0.000000  0.869197  1
  Ni  Ni11  1  0.500000  0.500000  0.869063  1
  Ni  Ni12  1  0.000000  0.500000  0.869063  1
  Ni  Ni13  1  0.000000  0.000000  0.130803  1
  Ni  Ni14  1  0.500000  0.500000  0.130937  1
  Ni  Ni15  1  0.000000  0.500000  0.130937  1
  B  B16  1  0.833471  0.666940  0.000000  1
  B  B17  1  0.166529  0.333060  0.000000  1
