# generated using pymatgen
data_GdHo2Si5
_symmetry_space_group_name_H-M   'P 1'
_cell_length_a   6.59869440
_cell_length_b   6.60213144
_cell_length_c   8.25351700
_cell_angle_alpha   90.00000000
_cell_angle_beta   89.96271564
_cell_angle_gamma   120.01723327
_symmetry_Int_Tables_number   1
_chemical_formula_structural   GdHo2Si5
_chemical_formula_sum   'Gd2 Ho4 Si10'
_cell_volume   311.34098716
_cell_formula_units_Z   2
loop_
 _symmetry_equiv_pos_site_id
 _symmetry_equiv_pos_as_xyz
  1  'x, y, z'
loop_
 _atom_site_type_symbol
 _atom_site_label
 _atom_site_symmetry_multiplicity
 _atom_site_fract_x
 _atom_site_fract_y
 _atom_site_fract_z
 _atom_site_occupancy
  Gd  Gd0  1  0.669758  0.670087  0.999973  1
  Gd  Gd1  1  0.330242  0.000328  0.000027  1
  Ho  Ho2  1  0.330118  0.999972  0.500115  1
  Ho  Ho3  1  0.669882  0.669854  0.499885  1
  Ho  Ho4  1  0.000000  0.330282  0.500000  1
  Ho  Ho5  1  0.000000  0.329938  0.000000  1
  Si  Si6  1  0.000280  0.000404  0.747926  1
  Si  Si7  1  0.668928  0.054752  0.748240  1
  Si  Si8  1  0.385753  0.331657  0.747363  1
  Si  Si9  1  0.945783  0.613323  0.748001  1
  Si  Si10  1  0.333201  0.666605  0.748558  1
  Si  Si11  1  0.999720  0.000124  0.252074  1
  Si  Si12  1  0.666799  0.333404  0.251442  1
  Si  Si13  1  0.331072  0.385824  0.251760  1
  Si  Si14  1  0.054217  0.667540  0.251999  1
  Si  Si15  1  0.614247  0.945905  0.252637  1
