# generated using pymatgen
data_Dy2Er18Sn11Sb5
_symmetry_space_group_name_H-M   'P 1'
_cell_length_a   8.07083821
_cell_length_b   8.08242105
_cell_length_c   15.28145079
_cell_angle_alpha   90.20609789
_cell_angle_beta   90.27825466
_cell_angle_gamma   89.77504657
_symmetry_Int_Tables_number   1
_chemical_formula_structural   Dy2Er18Sn11Sb5
_chemical_formula_sum   'Dy2 Er18 Sn11 Sb5'
_cell_volume   996.81244348
_cell_formula_units_Z   1
loop_
 _symmetry_equiv_pos_site_id
 _symmetry_equiv_pos_as_xyz
  1  'x, y, z'
loop_
 _atom_site_type_symbol
 _atom_site_label
 _atom_site_symmetry_multiplicity
 _atom_site_fract_x
 _atom_site_fract_y
 _atom_site_fract_z
 _atom_site_occupancy
  Dy  Dy0  1  0.537344  0.326092  0.602229  1
  Dy  Dy1  1  0.043756  0.177235  0.896230  1
  Er  Er2  1  0.385275  0.839422  0.880076  1
  Er  Er3  1  0.883376  0.661038  0.621162  1
  Er  Er4  1  0.617468  0.159361  0.378481  1
  Er  Er5  1  0.115592  0.338386  0.121460  1
  Er  Er6  1  0.615987  0.160690  0.120560  1
  Er  Er7  1  0.117527  0.337768  0.379002  1
  Er  Er8  1  0.381648  0.839386  0.621542  1
  Er  Er9  1  0.884143  0.660743  0.878828  1
  Er  Er10  1  0.553710  0.334406  0.892271  1
  Er  Er11  1  0.051712  0.171150  0.606486  1
  Er  Er12  1  0.448858  0.671159  0.393688  1
  Er  Er13  1  0.948498  0.826709  0.106785  1
  Er  Er14  1  0.453361  0.665820  0.107052  1
  Er  Er15  1  0.961372  0.826115  0.396789  1
  Er  Er16  1  0.214429  0.502174  0.747237  1
  Er  Er17  1  0.714636  0.000347  0.749596  1
  Er  Er18  1  0.785476  0.497867  0.248665  1
  Er  Er19  1  0.285772  0.999850  0.252781  1
  Sn  Sn20  1  0.219758  0.531021  0.542945  1
  Sn  Sn21  1  0.279958  0.028680  0.456895  1
  Sn  Sn22  1  0.776373  0.473199  0.043079  1
  Sn  Sn23  1  0.579617  0.627358  0.749745  1
  Sn  Sn24  1  0.079651  0.875081  0.751765  1
  Sn  Sn25  1  0.420171  0.372704  0.249676  1
  Sn  Sn26  1  0.920411  0.124409  0.249907  1
  Sn  Sn27  1  0.352063  0.146001  0.751950  1
  Sn  Sn28  1  0.851429  0.355348  0.748475  1
  Sn  Sn29  1  0.648462  0.853053  0.250229  1
  Sn  Sn30  1  0.147042  0.644714  0.249679  1
  Sb  Sb31  1  0.270528  0.018129  0.046903  1
  Sb  Sb32  1  0.772248  0.476917  0.454168  1
  Sb  Sb33  1  0.728315  0.976786  0.545010  1
  Sb  Sb34  1  0.228402  0.523177  0.954589  1
  Sb  Sb35  1  0.725630  0.977709  0.954064  1
