# generated using pymatgen
data_TbU3(SnIr2)2
_symmetry_space_group_name_H-M   'P 1'
_cell_length_a   7.68580616
_cell_length_b   7.68580616
_cell_length_c   3.56353800
_cell_angle_alpha   90.00000000
_cell_angle_beta   90.00000000
_cell_angle_gamma   91.51665395
_symmetry_Int_Tables_number   1
_chemical_formula_structural   TbU3(SnIr2)2
_chemical_formula_sum   'Tb1 U3 Sn2 Ir4'
_cell_volume   210.43020472
_cell_formula_units_Z   1
loop_
 _symmetry_equiv_pos_site_id
 _symmetry_equiv_pos_as_xyz
  1  'x, y, z'
loop_
 _atom_site_type_symbol
 _atom_site_label
 _atom_site_symmetry_multiplicity
 _atom_site_fract_x
 _atom_site_fract_y
 _atom_site_fract_z
 _atom_site_occupancy
  Tb  Tb0  1  0.171426  0.328574  0.000000  1
  U  U1  1  0.831831  0.668169  0.000000  1
  U  U2  1  0.669166  0.172497  0.000000  1
  U  U3  1  0.327503  0.830834  0.000000  1
  Sn  Sn4  1  0.001971  0.008552  0.500000  1
  Sn  Sn5  1  0.491448  0.498029  0.500000  1
  Ir  Ir6  1  0.389409  0.110591  0.500000  1
  Ir  Ir7  1  0.644333  0.855667  0.500000  1
  Ir  Ir8  1  0.849024  0.376112  0.500000  1
  Ir  Ir9  1  0.123888  0.650976  0.500000  1
