# generated using pymatgen
data_Dy3ErAl23SiPt9
_symmetry_space_group_name_H-M   'P 1'
_cell_length_a   7.53300823
_cell_length_b   7.52873913
_cell_length_c   13.10906810
_cell_angle_alpha   84.50162243
_cell_angle_beta   100.99399994
_cell_angle_gamma   119.91238427
_symmetry_Int_Tables_number   1
_chemical_formula_structural   Dy3ErAl23SiPt9
_chemical_formula_sum   'Dy3 Er1 Al23 Si1 Pt9'
_cell_volume   632.60286376
_cell_formula_units_Z   1
loop_
 _symmetry_equiv_pos_site_id
 _symmetry_equiv_pos_as_xyz
  1  'x, y, z'
loop_
 _atom_site_type_symbol
 _atom_site_label
 _atom_site_symmetry_multiplicity
 _atom_site_fract_x
 _atom_site_fract_y
 _atom_site_fract_z
 _atom_site_occupancy
  Dy  Dy0  1  0.731993  0.999194  0.192374  1
  Dy  Dy1  1  0.262400  0.001714  0.808020  1
  Dy  Dy2  1  0.062380  0.667668  0.192247  1
  Er  Er3  1  0.938490  0.326484  0.807927  1
  Al  Al4  1  0.190873  0.129888  0.183591  1
  Al  Al5  1  0.982001  0.665205  0.943222  1
  Al  Al6  1  0.018616  0.334175  0.055648  1
  Al  Al7  1  0.399844  0.668836  0.816122  1
  Al  Al8  1  0.601303  0.335456  0.183380  1
  Al  Al9  1  0.883222  0.662777  0.671135  1
  Al  Al10  1  0.116993  0.334129  0.329317  1
  Al  Al11  1  0.607871  0.459790  0.815605  1
  Al  Al12  1  0.396270  0.541199  0.183711  1
  Al  Al13  1  0.231346  0.341281  0.670000  1
  Al  Al14  1  0.769774  0.660059  0.330217  1
  Al  Al15  1  0.852858  0.332784  0.559049  1
  Al  Al16  1  0.185765  0.999998  0.558880  1
  Al  Al17  1  0.814012  0.000118  0.442282  1
  Al  Al18  1  0.352649  0.999894  0.055860  1
  Al  Al19  1  0.646876  0.001500  0.943004  1
  Al  Al20  1  0.554242  0.993949  0.671495  1
  Al  Al21  1  0.443427  0.006383  0.328974  1
  Al  Al22  1  0.520369  0.666948  0.561250  1
  Al  Al23  1  0.478883  0.332526  0.437496  1
  Al  Al24  1  0.685431  0.668820  0.050569  1
  Al  Al25  1  0.319724  0.335320  0.953177  1
  Al  Al26  1  0.146811  0.666606  0.440968  1
  Si  Si27  1  0.804056  0.865237  0.815804  1
  Pt  Pt28  1  0.330143  0.673165  0.998819  1
  Pt  Pt29  1  0.546486  0.325468  0.637772  1
  Pt  Pt30  1  0.454347  0.675450  0.362563  1
  Pt  Pt31  1  0.886856  0.006080  0.643107  1
  Pt  Pt32  1  0.111762  0.991510  0.361352  1
  Pt  Pt33  1  0.672817  0.330487  0.998760  1
  Pt  Pt34  1  0.204895  0.667084  0.639243  1
  Pt  Pt35  1  0.795906  0.332873  0.361461  1
  Pt  Pt36  1  0.998309  0.999946  0.995602  1
