# generated using pymatgen
data_Y3Sc2P12Ir11Ru8
_symmetry_space_group_name_H-M   'P 1'
_cell_length_a   12.64570215
_cell_length_b   12.58423584
_cell_length_c   3.93607400
_cell_angle_alpha   90.00000000
_cell_angle_beta   90.00000000
_cell_angle_gamma   120.04929097
_symmetry_Int_Tables_number   1
_chemical_formula_structural   Y3Sc2P12Ir11Ru8
_chemical_formula_sum   'Y3 Sc2 P12 Ir11 Ru8'
_cell_volume   542.18532703
_cell_formula_units_Z   1
loop_
 _symmetry_equiv_pos_site_id
 _symmetry_equiv_pos_as_xyz
  1  'x, y, z'
loop_
 _atom_site_type_symbol
 _atom_site_label
 _atom_site_symmetry_multiplicity
 _atom_site_fract_x
 _atom_site_fract_y
 _atom_site_fract_z
 _atom_site_occupancy
  Y  Y0  1  0.812425  0.999306  0.500000  1
  Y  Y1  1  0.998592  0.811794  0.500000  1
  Y  Y2  1  0.184597  0.186315  0.500000  1
  Sc  Sc3  1  0.333189  0.666847  0.000000  1
  Sc  Sc4  1  0.669684  0.334712  0.000000  1
  P  P5  1  0.178256  0.997123  0.000000  1
  P  P6  1  0.999130  0.181471  0.000000  1
  P  P7  1  0.817085  0.817914  0.000000  1
  P  P8  1  0.175739  0.483563  0.500000  1
  P  P9  1  0.516707  0.691802  0.500000  1
  P  P10  1  0.307999  0.825293  0.500000  1
  P  P11  1  0.692899  0.516941  0.500000  1
  P  P12  1  0.826387  0.308615  0.500000  1
  P  P13  1  0.485926  0.173613  0.500000  1
  P  P14  1  0.637061  0.999562  0.000000  1
  P  P15  1  0.000282  0.637297  0.000000  1
  P  P16  1  0.361157  0.365555  0.000000  1
  Ir  Ir17  1  0.364573  0.494018  0.500000  1
  Ir  Ir18  1  0.503663  0.868517  0.500000  1
  Ir  Ir19  1  0.131836  0.636397  0.500000  1
  Ir  Ir20  1  0.869321  0.505108  0.500000  1
  Ir  Ir21  1  0.637809  0.131550  0.500000  1
  Ir  Ir22  1  0.497171  0.362080  0.500000  1
  Ir  Ir23  1  0.377001  0.183983  0.000000  1
  Ir  Ir24  1  0.289448  0.002286  0.500000  1
  Ir  Ir25  1  0.000373  0.288411  0.500000  1
  Ir  Ir26  1  0.711239  0.711384  0.500000  1
  Ir  Ir27  1  0.999280  0.999451  0.000000  1
  Ru  Ru28  1  0.454686  0.002568  0.000000  1
  Ru  Ru29  1  0.000171  0.453378  0.000000  1
  Ru  Ru30  1  0.547079  0.544566  0.000000  1
  Ru  Ru31  1  0.182170  0.380753  0.000000  1
  Ru  Ru32  1  0.618571  0.801280  0.000000  1
  Ru  Ru33  1  0.198381  0.819144  0.000000  1
  Ru  Ru34  1  0.802362  0.619742  0.000000  1
  Ru  Ru35  1  0.817750  0.197659  0.000000  1
