# generated using pymatgen
data_Er4Lu4Re(B8Rh)3
_symmetry_space_group_name_H-M   'P 1'
_cell_length_a   3.62451700
_cell_length_b   9.07821312
_cell_length_c   11.43425814
_cell_angle_alpha   90.17979273
_cell_angle_beta   90.00000000
_cell_angle_gamma   90.00000000
_symmetry_Int_Tables_number   1
_chemical_formula_structural   Er4Lu4Re(B8Rh)3
_chemical_formula_sum   'Er4 Lu4 Re1 B24 Rh3'
_cell_volume   376.23255299
_cell_formula_units_Z   1
loop_
 _symmetry_equiv_pos_site_id
 _symmetry_equiv_pos_as_xyz
  1  'x, y, z'
loop_
 _atom_site_type_symbol
 _atom_site_label
 _atom_site_symmetry_multiplicity
 _atom_site_fract_x
 _atom_site_fract_y
 _atom_site_fract_z
 _atom_site_occupancy
  Er  Er0  1  0.000000  0.321299  0.414534  1
  Er  Er1  1  0.000000  0.682119  0.588974  1
  Er  Er2  1  0.000000  0.820473  0.082522  1
  Er  Er3  1  0.000000  0.176434  0.913479  1
  Lu  Lu4  1  0.000000  0.943676  0.371984  1
  Lu  Lu5  1  0.000000  0.054323  0.627197  1
  Lu  Lu6  1  0.000000  0.443443  0.127601  1
  Lu  Lu7  1  0.000000  0.556805  0.873571  1
  Re  Re8  1  0.000000  0.861258  0.820450  1
  B  B9  1  0.500000  0.555321  0.434714  1
  B  B10  1  0.500000  0.446192  0.565770  1
  B  B11  1  0.500000  0.054363  0.066172  1
  B  B12  1  0.500000  0.946136  0.933748  1
  B  B13  1  0.500000  0.750972  0.420712  1
  B  B14  1  0.500000  0.249492  0.579402  1
  B  B15  1  0.500000  0.250415  0.079782  1
  B  B16  1  0.500000  0.749451  0.919528  1
  B  B17  1  0.500000  0.793013  0.263364  1
  B  B18  1  0.500000  0.207194  0.735166  1
  B  B19  1  0.500000  0.294094  0.236678  1
  B  B20  1  0.500000  0.706531  0.764737  1
  B  B21  1  0.500000  0.630781  0.182891  1
  B  B22  1  0.500000  0.368469  0.817338  1
  B  B23  1  0.500000  0.131956  0.317021  1
  B  B24  1  0.500000  0.869091  0.684063  1
  B  B25  1  0.500000  0.981958  0.213067  1
  B  B26  1  0.500000  0.017731  0.786497  1
  B  B27  1  0.500000  0.482036  0.287010  1
  B  B28  1  0.500000  0.517276  0.713291  1
  B  B29  1  0.500000  0.603356  0.029242  1
  B  B30  1  0.500000  0.394434  0.971991  1
  B  B31  1  0.500000  0.104936  0.470897  1
  B  B32  1  0.500000  0.895888  0.527255  1
  Rh  Rh33  1  0.000000  0.639469  0.320398  1
  Rh  Rh34  1  0.000000  0.360354  0.679527  1
  Rh  Rh35  1  0.000000  0.139260  0.179422  1
