# generated using pymatgen
data_La3Tb3(Sn6Ru)2
_symmetry_space_group_name_H-M   'P 1'
_cell_length_a   8.60923908
_cell_length_b   8.60923774
_cell_length_c   13.54311613
_cell_angle_alpha   90.36587556
_cell_angle_beta   89.63412545
_cell_angle_gamma   148.21588770
_symmetry_Int_Tables_number   1
_chemical_formula_structural   La3Tb3(Sn6Ru)2
_chemical_formula_sum   'La3 Tb3 Sn12 Ru2'
_cell_volume   528.71106050
_cell_formula_units_Z   1
loop_
 _symmetry_equiv_pos_site_id
 _symmetry_equiv_pos_as_xyz
  1  'x, y, z'
loop_
 _atom_site_type_symbol
 _atom_site_label
 _atom_site_symmetry_multiplicity
 _atom_site_fract_x
 _atom_site_fract_y
 _atom_site_fract_z
 _atom_site_occupancy
  La  La0  1  0.598235  0.401765  0.593768  1
  La  La1  1  0.401347  0.598653  0.096850  1
  La  La2  1  0.598210  0.401790  0.905273  1
  Tb  Tb3  1  0.603686  0.396314  0.251054  1
  Tb  Tb4  1  0.396224  0.603776  0.749609  1
  Tb  Tb5  1  0.398216  0.601784  0.403020  1
  Sn  Sn6  1  0.924272  0.075728  0.919401  1
  Sn  Sn7  1  0.074349  0.925651  0.081822  1
  Sn  Sn8  1  0.924951  0.075049  0.574278  1
  Sn  Sn9  1  0.073160  0.926840  0.421611  1
  Sn  Sn10  1  0.960355  0.039645  0.254446  1
  Sn  Sn11  1  0.039260  0.960740  0.748561  1
  Sn  Sn12  1  0.747736  0.252265  0.433411  1
  Sn  Sn13  1  0.256252  0.743748  0.565799  1
  Sn  Sn14  1  0.746307  0.253694  0.067738  1
  Sn  Sn15  1  0.254367  0.745633  0.932494  1
  Sn  Sn16  1  0.231048  0.768952  0.251191  1
  Sn  Sn17  1  0.770321  0.229679  0.749887  1
  Ru  Ru18  1  0.800592  0.199408  0.250894  1
  Ru  Ru19  1  0.201114  0.798886  0.748892  1
