# generated using pymatgen
data_Nb3Co4(Ni8B3)2
_symmetry_space_group_name_H-M   'P 1'
_cell_length_a   7.46335411
_cell_length_b   7.48855174
_cell_length_c   7.48855117
_cell_angle_alpha   60.05608902
_cell_angle_beta   60.07724439
_cell_angle_gamma   60.07724585
_symmetry_Int_Tables_number   1
_chemical_formula_structural   Nb3Co4(Ni8B3)2
_chemical_formula_sum   'Nb3 Co4 Ni16 B6'
_cell_volume   296.41825792
_cell_formula_units_Z   1
loop_
 _symmetry_equiv_pos_site_id
 _symmetry_equiv_pos_as_xyz
  1  'x, y, z'
loop_
 _atom_site_type_symbol
 _atom_site_label
 _atom_site_symmetry_multiplicity
 _atom_site_fract_x
 _atom_site_fract_y
 _atom_site_fract_z
 _atom_site_occupancy
  Nb  Nb0  1  0.256143  0.247794  0.247794  1
  Nb  Nb1  1  0.747380  0.747718  0.747718  1
  Nb  Nb2  1  0.000607  0.999659  0.999659  1
  Co  Co3  1  0.383923  0.383997  0.383997  1
  Co  Co4  1  0.616943  0.616740  0.616740  1
  Co  Co5  1  0.383523  0.383859  0.848772  1
  Co  Co6  1  0.383523  0.848772  0.383859  1
  Ni  Ni7  1  0.615618  0.615554  0.153577  1
  Ni  Ni8  1  0.615618  0.153577  0.615554  1
  Ni  Ni9  1  0.845472  0.384775  0.384775  1
  Ni  Ni10  1  0.152194  0.615998  0.615998  1
  Ni  Ni11  1  0.342016  0.000513  0.000513  1
  Ni  Ni12  1  0.658929  0.998636  0.998636  1
  Ni  Ni13  1  0.000533  0.342209  0.657095  1
  Ni  Ni14  1  0.000533  0.657095  0.342209  1
  Ni  Ni15  1  0.000063  0.342804  0.000346  1
  Ni  Ni16  1  0.657967  0.999566  0.343131  1
  Ni  Ni17  1  0.999262  0.658189  0.999673  1
  Ni  Ni18  1  0.341675  0.000751  0.657337  1
  Ni  Ni19  1  0.000063  0.000346  0.342804  1
  Ni  Ni20  1  0.999262  0.999673  0.658189  1
  Ni  Ni21  1  0.657967  0.343131  0.999566  1
  Ni  Ni22  1  0.341675  0.657337  0.000751  1
  B  B23  1  0.727788  0.270093  0.270093  1
  B  B24  1  0.274887  0.727015  0.727015  1
  B  B25  1  0.271687  0.728483  0.271605  1
  B  B26  1  0.726531  0.273396  0.730713  1
  B  B27  1  0.271687  0.271605  0.728483  1
  B  B28  1  0.726531  0.730713  0.273396  1
