# generated using pymatgen
data_Sr4CdBi2SbO12
_symmetry_space_group_name_H-M   'P 1'
_cell_length_a   5.92540197
_cell_length_b   6.06790001
_cell_length_c   8.38586090
_cell_angle_alpha   90.15470693
_cell_angle_beta   89.59374626
_cell_angle_gamma   90.00500357
_symmetry_Int_Tables_number   1
_chemical_formula_structural   Sr4CdBi2SbO12
_chemical_formula_sum   'Sr4 Cd1 Bi2 Sb1 O12'
_cell_volume   301.50282519
_cell_formula_units_Z   1
loop_
 _symmetry_equiv_pos_site_id
 _symmetry_equiv_pos_as_xyz
  1  'x, y, z'
loop_
 _atom_site_type_symbol
 _atom_site_label
 _atom_site_symmetry_multiplicity
 _atom_site_fract_x
 _atom_site_fract_y
 _atom_site_fract_z
 _atom_site_occupancy
  Sr  Sr0  1  0.986977  0.449426  0.230148  1
  Sr  Sr1  1  0.511734  0.955526  0.232694  1
  Sr  Sr2  1  0.488266  0.044474  0.767306  1
  Sr  Sr3  1  0.013023  0.550574  0.769852  1
  Cd  Cd4  1  0.000000  0.000000  0.000000  1
  Bi  Bi5  1  0.500000  0.500000  0.500000  1
  Bi  Bi6  1  0.000000  0.000000  0.500000  1
  Sb  Sb7  1  0.500000  0.500000  0.000000  1
  O  O8  1  0.899797  0.960498  0.740627  1
  O  O9  1  0.791865  0.712939  0.436059  1
  O  O10  1  0.773637  0.687196  0.038525  1
  O  O11  1  0.709093  0.208965  0.442786  1
  O  O12  1  0.684644  0.229106  0.043816  1
  O  O13  1  0.595174  0.464936  0.759350  1
  O  O14  1  0.404826  0.535064  0.240650  1
  O  O15  1  0.315356  0.770894  0.956184  1
  O  O16  1  0.290907  0.791035  0.557214  1
  O  O17  1  0.226363  0.312804  0.961475  1
  O  O18  1  0.208135  0.287061  0.563941  1
  O  O19  1  0.100203  0.039502  0.259373  1
