# generated using pymatgen
data_PrSc4Bi3
_symmetry_space_group_name_H-M   'P 1'
_cell_length_a   7.99996700
_cell_length_b   9.10774000
_cell_length_c   11.75937000
_cell_angle_alpha   90.00000000
_cell_angle_beta   90.00000000
_cell_angle_gamma   90.00000000
_symmetry_Int_Tables_number   1
_chemical_formula_structural   PrSc4Bi3
_chemical_formula_sum   'Pr4 Sc16 Bi12'
_cell_volume   856.80674185
_cell_formula_units_Z   4
loop_
 _symmetry_equiv_pos_site_id
 _symmetry_equiv_pos_as_xyz
  1  'x, y, z'
loop_
 _atom_site_type_symbol
 _atom_site_label
 _atom_site_symmetry_multiplicity
 _atom_site_fract_x
 _atom_site_fract_y
 _atom_site_fract_z
 _atom_site_occupancy
  Pr  Pr0  1  0.318083  0.250000  0.218943  1
  Pr  Pr1  1  0.818083  0.250000  0.281057  1
  Pr  Pr2  1  0.681917  0.750000  0.781057  1
  Pr  Pr3  1  0.181917  0.750000  0.718943  1
  Sc  Sc4  1  0.346686  0.750000  0.222048  1
  Sc  Sc5  1  0.846686  0.750000  0.277952  1
  Sc  Sc6  1  0.653314  0.250000  0.777952  1
  Sc  Sc7  1  0.153314  0.250000  0.722048  1
  Sc  Sc8  1  0.691517  0.567994  0.064547  1
  Sc  Sc9  1  0.191517  0.932006  0.435453  1
  Sc  Sc10  1  0.308483  0.067994  0.935453  1
  Sc  Sc11  1  0.808483  0.432006  0.564547  1
  Sc  Sc12  1  0.308483  0.432006  0.935453  1
  Sc  Sc13  1  0.808483  0.067994  0.564547  1
  Sc  Sc14  1  0.691517  0.932006  0.064547  1
  Sc  Sc15  1  0.191517  0.567994  0.435453  1
  Sc  Sc16  1  0.482243  0.250000  0.488085  1
  Sc  Sc17  1  0.982243  0.250000  0.011915  1
  Sc  Sc18  1  0.517757  0.750000  0.511915  1
  Sc  Sc19  1  0.017757  0.750000  0.988085  1
  Bi  Bi20  1  0.400693  0.750000  0.972629  1
  Bi  Bi21  1  0.900693  0.750000  0.527371  1
  Bi  Bi22  1  0.599307  0.250000  0.027371  1
  Bi  Bi23  1  0.099307  0.250000  0.472629  1
  Bi  Bi24  1  0.562847  0.984827  0.331215  1
  Bi  Bi25  1  0.062847  0.515173  0.168785  1
  Bi  Bi26  1  0.437153  0.484827  0.668785  1
  Bi  Bi27  1  0.937153  0.015173  0.831215  1
  Bi  Bi28  1  0.437153  0.015173  0.668785  1
  Bi  Bi29  1  0.937153  0.484827  0.831215  1
  Bi  Bi30  1  0.562847  0.515173  0.331215  1
  Bi  Bi31  1  0.062847  0.984827  0.168785  1
