# generated using pymatgen
data_Dy3Er2RuPb3
_symmetry_space_group_name_H-M   'P 1'
_cell_length_a   9.29889820
_cell_length_b   9.29889804
_cell_length_c   6.56592300
_cell_angle_alpha   90.00000000
_cell_angle_beta   90.00000000
_cell_angle_gamma   119.97631195
_symmetry_Int_Tables_number   1
_chemical_formula_structural   Dy3Er2RuPb3
_chemical_formula_sum   'Dy6 Er4 Ru2 Pb6'
_cell_volume   491.80508089
_cell_formula_units_Z   2
loop_
 _symmetry_equiv_pos_site_id
 _symmetry_equiv_pos_as_xyz
  1  'x, y, z'
loop_
 _atom_site_type_symbol
 _atom_site_label
 _atom_site_symmetry_multiplicity
 _atom_site_fract_x
 _atom_site_fract_y
 _atom_site_fract_z
 _atom_site_occupancy
  Dy  Dy0  1  0.000014  0.763561  0.750000  1
  Dy  Dy1  1  0.236439  0.999986  0.250000  1
  Dy  Dy2  1  0.333437  0.666563  0.500000  1
  Dy  Dy3  1  0.666708  0.333292  0.500000  1
  Dy  Dy4  1  0.333437  0.666563  0.000000  1
  Dy  Dy5  1  0.666708  0.333292  0.000000  1
  Er  Er6  1  0.763823  0.000049  0.750000  1
  Er  Er7  1  0.999951  0.236177  0.250000  1
  Er  Er8  1  0.763749  0.763785  0.250000  1
  Er  Er9  1  0.236215  0.236251  0.750000  1
  Ru  Ru10  1  0.999527  0.000473  0.000000  1
  Ru  Ru11  1  0.999527  0.000473  0.500000  1
  Pb  Pb12  1  0.402386  0.402578  0.250000  1
  Pb  Pb13  1  0.999902  0.401734  0.750000  1
  Pb  Pb14  1  0.999925  0.597437  0.250000  1
  Pb  Pb15  1  0.598266  0.000098  0.250000  1
  Pb  Pb16  1  0.402563  0.000075  0.750000  1
  Pb  Pb17  1  0.597422  0.597614  0.750000  1
