# generated using pymatgen
data_Tb2Dy2Al17GeIr6
_symmetry_space_group_name_H-M   'P 1'
_cell_length_a   7.55636751
_cell_length_b   7.55636747
_cell_length_c   9.46855700
_cell_angle_alpha   90.00000000
_cell_angle_beta   90.00000000
_cell_angle_gamma   119.61568747
_symmetry_Int_Tables_number   1
_chemical_formula_structural   Tb2Dy2Al17GeIr6
_chemical_formula_sum   'Tb2 Dy2 Al17 Ge1 Ir6'
_cell_volume   470.01251517
_cell_formula_units_Z   1
loop_
 _symmetry_equiv_pos_site_id
 _symmetry_equiv_pos_as_xyz
  1  'x, y, z'
loop_
 _atom_site_type_symbol
 _atom_site_label
 _atom_site_symmetry_multiplicity
 _atom_site_fract_x
 _atom_site_fract_y
 _atom_site_fract_z
 _atom_site_occupancy
  Tb  Tb0  1  0.994819  0.675198  0.750000  1
  Tb  Tb1  1  0.675198  0.994819  0.750000  1
  Dy  Dy2  1  0.003812  0.328961  0.250000  1
  Dy  Dy3  1  0.328961  0.003812  0.250000  1
  Al  Al4  1  0.871820  0.871820  0.250000  1
  Al  Al5  1  0.000492  0.337507  0.573210  1
  Al  Al6  1  0.998249  0.664773  0.424866  1
  Al  Al7  1  0.998249  0.664773  0.075134  1
  Al  Al8  1  0.337507  0.000492  0.926790  1
  Al  Al9  1  0.000492  0.337507  0.926790  1
  Al  Al10  1  0.664773  0.998249  0.075134  1
  Al  Al11  1  0.664773  0.998249  0.424866  1
  Al  Al12  1  0.337507  0.000492  0.573210  1
  Al  Al13  1  0.333079  0.333079  0.058321  1
  Al  Al14  1  0.664028  0.664028  0.948615  1
  Al  Al15  1  0.664028  0.664028  0.551385  1
  Al  Al16  1  0.333079  0.333079  0.441679  1
  Al  Al17  1  0.337020  0.552332  0.750000  1
  Al  Al18  1  0.661090  0.451423  0.250000  1
  Al  Al19  1  0.552332  0.337020  0.750000  1
  Al  Al20  1  0.451423  0.661090  0.250000  1
  Ge  Ge21  1  0.135016  0.135016  0.750000  1
  Ir  Ir22  1  0.669694  0.326798  0.500179  1
  Ir  Ir23  1  0.326798  0.669694  0.500179  1
  Ir  Ir24  1  0.326798  0.669694  0.999821  1
  Ir  Ir25  1  0.669694  0.326798  0.999821  1
  Ir  Ir26  1  0.999636  0.999636  0.500713  1
  Ir  Ir27  1  0.999636  0.999636  0.999287  1
