# generated using pymatgen
data_Nb4ZnB4MoRu10
_symmetry_space_group_name_H-M   'P 1'
_cell_length_a   9.40934700
_cell_length_b   9.40934700
_cell_length_c   2.98745700
_cell_angle_alpha   90.00000000
_cell_angle_beta   90.00000000
_cell_angle_gamma   90.00000000
_symmetry_Int_Tables_number   1
_chemical_formula_structural   Nb4ZnB4MoRu10
_chemical_formula_sum   'Nb4 Zn1 B4 Mo1 Ru10'
_cell_volume   264.49692822
_cell_formula_units_Z   1
loop_
 _symmetry_equiv_pos_site_id
 _symmetry_equiv_pos_as_xyz
  1  'x, y, z'
loop_
 _atom_site_type_symbol
 _atom_site_label
 _atom_site_symmetry_multiplicity
 _atom_site_fract_x
 _atom_site_fract_y
 _atom_site_fract_z
 _atom_site_occupancy
  Nb  Nb0  1  0.824700  0.680139  0.000000  1
  Nb  Nb1  1  0.175300  0.319861  0.000000  1
  Nb  Nb2  1  0.319861  0.824700  0.000000  1
  Nb  Nb3  1  0.680139  0.175300  0.000000  1
  Zn  Zn4  1  0.000000  0.000000  0.000000  1
  B  B5  1  0.629855  0.884144  0.000000  1
  B  B6  1  0.370145  0.115856  0.000000  1
  B  B7  1  0.115856  0.629855  0.000000  1
  B  B8  1  0.884144  0.370145  0.000000  1
  Mo  Mo9  1  0.500000  0.500000  0.000000  1
  Ru  Ru10  1  0.570618  0.718085  0.500000  1
  Ru  Ru11  1  0.429382  0.281915  0.500000  1
  Ru  Ru12  1  0.070935  0.784469  0.500000  1
  Ru  Ru13  1  0.929065  0.215531  0.500000  1
  Ru  Ru14  1  0.281915  0.570618  0.500000  1
  Ru  Ru15  1  0.718085  0.429382  0.500000  1
  Ru  Ru16  1  0.215531  0.070935  0.500000  1
  Ru  Ru17  1  0.784469  0.929065  0.500000  1
  Ru  Ru18  1  0.500000  0.000000  0.500000  1
  Ru  Ru19  1  0.000000  0.500000  0.500000  1
