# generated using pymatgen
data_Sr11Np4O24
_symmetry_space_group_name_H-M   'P 1'
_cell_length_a   11.95890299
_cell_length_b   11.95890282
_cell_length_c   11.95890300
_cell_angle_alpha   119.25658999
_cell_angle_beta   119.25658952
_cell_angle_gamma   91.29251742
_symmetry_Int_Tables_number   1
_chemical_formula_structural   Sr11Np4O24
_chemical_formula_sum   'Sr22 Np8 O48'
_cell_volume   1222.62211953
_cell_formula_units_Z   2
loop_
 _symmetry_equiv_pos_site_id
 _symmetry_equiv_pos_as_xyz
  1  'x, y, z'
loop_
 _atom_site_type_symbol
 _atom_site_label
 _atom_site_symmetry_multiplicity
 _atom_site_fract_x
 _atom_site_fract_y
 _atom_site_fract_z
 _atom_site_occupancy
  Sr  Sr0  1  0.121594  0.927983  0.233723  1
  Sr  Sr1  1  0.031174  0.977038  0.532341  1
  Sr  Sr2  1  0.489993  0.989993  0.500000  1
  Sr  Sr3  1  0.739993  0.739993  0.000000  1
  Sr  Sr4  1  0.112129  0.878406  0.806390  1
  Sr  Sr5  1  0.718826  0.272962  0.967659  1
  Sr  Sr6  1  0.010007  0.510007  0.500000  1
  Sr  Sr7  1  0.637871  0.371594  0.693610  1
  Sr  Sr8  1  0.072017  0.305738  0.193610  1
  Sr  Sr9  1  0.694262  0.887871  0.766277  1
  Sr  Sr10  1  0.677983  0.944262  0.306390  1
  Sr  Sr11  1  0.500000  0.500000  0.000000  1
  Sr  Sr12  1  0.055738  0.362129  0.733723  1
  Sr  Sr13  1  0.250000  0.750000  0.500000  1
  Sr  Sr14  1  0.022962  0.555303  0.054138  1
  Sr  Sr15  1  0.628406  0.322017  0.266277  1
  Sr  Sr16  1  0.305303  0.751166  0.032341  1
  Sr  Sr17  1  0.501166  0.968826  0.945862  1
  Sr  Sr18  1  0.727038  0.694697  0.445862  1
  Sr  Sr19  1  0.444697  0.498834  0.467659  1
  Sr  Sr20  1  0.260007  0.260007  0.000000  1
  Sr  Sr21  1  0.248834  0.281174  0.554138  1
  Np  Np22  1  0.875000  0.125000  0.750000  1
  Np  Np23  1  0.375000  0.625000  0.250000  1
  Np  Np24  1  0.375000  0.125000  0.750000  1
  Np  Np25  1  0.875000  0.125000  0.250000  1
  Np  Np26  1  0.375000  0.625000  0.750000  1
  Np  Np27  1  0.375000  0.125000  0.250000  1
  Np  Np28  1  0.875000  0.625000  0.750000  1
  Np  Np29  1  0.875000  0.625000  0.250000  1
  O  O30  1  0.701036  0.116977  0.242710  1
  O  O31  1  0.362083  0.152096  0.422785  1
  O  O32  1  0.235294  0.473539  0.507507  1
  O  O33  1  0.883023  0.125734  0.584059  1
  O  O34  1  0.483573  0.280627  0.774794  1
  O  O35  1  0.541674  0.298964  0.415941  1
  O  O36  1  0.902096  0.979311  0.290013  1
  O  O37  1  0.729311  0.939298  0.577215  1
  O  O38  1  0.272213  0.764706  0.238245  1
  O  O39  1  0.847904  0.270689  0.209987  1
  O  O40  1  0.267252  0.013332  0.515190  1
  O  O41  1  0.498141  0.752062  0.484810  1
  O  O42  1  0.719373  0.494166  0.202946  1
  O  O43  1  0.945728  0.726974  0.983070  1
  O  O44  1  0.986668  0.501859  0.253921  1
  O  O45  1  0.387917  0.097904  0.077215  1
  O  O46  1  0.020689  0.310702  0.922785  1
  O  O47  1  0.505834  0.708779  0.225206  1
  O  O48  1  0.743904  0.962658  0.016930  1
  O  O49  1  0.526461  0.033968  0.761755  1
  O  O50  1  0.804272  0.523026  0.516930  1
  O  O51  1  0.251859  0.497938  0.015190  1
  O  O52  1  0.875734  0.791674  0.742710  1
  O  O53  1  0.482748  0.236668  0.984810  1
  O  O54  1  0.273026  0.256096  0.218754  1
  O  O55  1  0.783968  0.522213  0.007507  1
  O  O56  1  0.502062  0.517252  0.753921  1
  O  O57  1  0.866977  0.124266  0.915941  1
  O  O58  1  0.060702  0.637917  0.790013  1
  O  O59  1  0.874266  0.458326  0.757290  1
  O  O60  1  0.712658  0.195728  0.718754  1
  O  O61  1  0.037342  0.054272  0.781246  1
  O  O62  1  0.244166  0.541221  0.274794  1
  O  O63  1  0.477787  0.485294  0.261755  1
  O  O64  1  0.006096  0.287342  0.483070  1
  O  O65  1  0.266427  0.969373  0.725206  1
  O  O66  1  0.458779  0.733573  0.702946  1
  O  O67  1  0.514706  0.776461  0.992493  1
  O  O68  1  0.030627  0.755834  0.297054  1
  O  O69  1  0.208326  0.951036  0.084059  1
  O  O70  1  0.966032  0.727787  0.492493  1
  O  O71  1  0.763332  0.748141  0.246079  1
  O  O72  1  0.048964  0.133023  0.257290  1
  O  O73  1  0.247938  0.732748  0.746079  1
  O  O74  1  0.689298  0.612083  0.709987  1
  O  O75  1  0.476974  0.993904  0.281246  1
  O  O76  1  0.291221  0.516427  0.797054  1
  O  O77  1  0.223539  0.216032  0.738245  1
