# generated using pymatgen
data_Dy5YAl24(RuRh)4
_symmetry_space_group_name_H-M   'P 1'
_cell_length_a   8.83983411
_cell_length_b   8.78697326
_cell_length_c   9.53684300
_cell_angle_alpha   90.00000000
_cell_angle_beta   90.00000000
_cell_angle_gamma   119.80403523
_symmetry_Int_Tables_number   1
_chemical_formula_structural   Dy5YAl24(RuRh)4
_chemical_formula_sum   'Dy5 Y1 Al24 Ru4 Rh4'
_cell_volume   642.79559308
_cell_formula_units_Z   1
loop_
 _symmetry_equiv_pos_site_id
 _symmetry_equiv_pos_as_xyz
  1  'x, y, z'
loop_
 _atom_site_type_symbol
 _atom_site_label
 _atom_site_symmetry_multiplicity
 _atom_site_fract_x
 _atom_site_fract_y
 _atom_site_fract_z
 _atom_site_occupancy
  Dy  Dy0  1  0.190026  0.385979  0.250000  1
  Dy  Dy1  1  0.615944  0.807926  0.250000  1
  Dy  Dy2  1  0.809956  0.196087  0.750000  1
  Dy  Dy3  1  0.809982  0.613890  0.750000  1
  Dy  Dy4  1  0.384173  0.192086  0.750000  1
  Y  Y5  1  0.190066  0.803986  0.250000  1
  Al  Al6  1  0.560756  0.437907  0.250000  1
  Al  Al7  1  0.560831  0.122899  0.250000  1
  Al  Al8  1  0.876225  0.438069  0.250000  1
  Al  Al9  1  0.439248  0.562104  0.750000  1
  Al  Al10  1  0.439233  0.877132  0.750000  1
  Al  Al11  1  0.123762  0.561887  0.750000  1
  Al  Al12  1  0.324723  0.162419  0.422446  1
  Al  Al13  1  0.837905  0.164128  0.422300  1
  Al  Al14  1  0.837838  0.673749  0.422361  1
  Al  Al15  1  0.675319  0.837667  0.577609  1
  Al  Al16  1  0.162085  0.835872  0.577766  1
  Al  Al17  1  0.162081  0.326215  0.577703  1
  Al  Al18  1  0.675319  0.837667  0.922391  1
  Al  Al19  1  0.162085  0.835872  0.922234  1
  Al  Al20  1  0.162081  0.326215  0.922297  1
  Al  Al21  1  0.324723  0.162419  0.077554  1
  Al  Al22  1  0.837905  0.164128  0.077700  1
  Al  Al23  1  0.837838  0.673749  0.077639  1
  Al  Al24  1  0.668854  0.334430  0.522729  1
  Al  Al25  1  0.331170  0.665541  0.477376  1
  Al  Al26  1  0.331170  0.665541  0.022624  1
  Al  Al27  1  0.668854  0.334430  0.977271  1
  Al  Al28  1  0.997822  0.999105  0.250000  1
  Al  Al29  1  0.002064  0.001037  0.750000  1
  Ru  Ru30  1  0.000016  0.999981  0.499958  1
  Ru  Ru31  1  0.000016  0.999981  0.000042  1
  Ru  Ru32  1  0.999959  0.499929  0.500076  1
  Ru  Ru33  1  0.999959  0.499929  0.999924  1
  Rh  Rh34  1  0.499993  0.500004  0.500008  1
  Rh  Rh35  1  0.500014  0.000020  0.500024  1
  Rh  Rh36  1  0.499993  0.500004  0.999992  1
  Rh  Rh37  1  0.500014  0.000020  0.999976  1
