# generated using pymatgen
data_Zr8In4Ir3Au5
_symmetry_space_group_name_H-M   'P 1'
_cell_length_a   7.62850043
_cell_length_b   7.62850043
_cell_length_c   7.01825819
_cell_angle_alpha   90.17201512
_cell_angle_beta   90.17201512
_cell_angle_gamma   90.13122154
_symmetry_Int_Tables_number   1
_chemical_formula_structural   Zr8In4Ir3Au5
_chemical_formula_sum   'Zr8 In4 Ir3 Au5'
_cell_volume   408.41588768
_cell_formula_units_Z   1
loop_
 _symmetry_equiv_pos_site_id
 _symmetry_equiv_pos_as_xyz
  1  'x, y, z'
loop_
 _atom_site_type_symbol
 _atom_site_label
 _atom_site_symmetry_multiplicity
 _atom_site_fract_x
 _atom_site_fract_y
 _atom_site_fract_z
 _atom_site_occupancy
  Zr  Zr0  1  0.151136  0.151136  0.009242  1
  Zr  Zr1  1  0.834835  0.834835  0.996406  1
  Zr  Zr2  1  0.648494  0.360840  0.491897  1
  Zr  Zr3  1  0.360840  0.648494  0.491897  1
  Zr  Zr4  1  0.682165  0.331076  0.006681  1
  Zr  Zr5  1  0.331076  0.682165  0.006681  1
  Zr  Zr6  1  0.800813  0.800813  0.501804  1
  Zr  Zr7  1  0.197430  0.197430  0.489355  1
  In  In8  1  0.501832  0.004228  0.245673  1
  In  In9  1  0.499282  0.996386  0.751433  1
  In  In10  1  0.004228  0.501832  0.245673  1
  In  In11  1  0.996386  0.499282  0.751433  1
  Ir  Ir12  1  0.368083  0.368083  0.219240  1
  Ir  Ir13  1  0.627563  0.627563  0.776193  1
  Ir  Ir14  1  0.632927  0.632927  0.218255  1
  Au  Au15  1  0.869091  0.130629  0.712922  1
  Au  Au16  1  0.868715  0.128095  0.289148  1
  Au  Au17  1  0.366380  0.366380  0.793997  1
  Au  Au18  1  0.128095  0.868715  0.289148  1
  Au  Au19  1  0.130629  0.869091  0.712922  1
