# generated using pymatgen
data_Y2PaFe(Co4P3)2
_symmetry_space_group_name_H-M   'P 1'
_cell_length_a   3.72083800
_cell_length_b   10.54408700
_cell_length_c   12.14789500
_cell_angle_alpha   90.00000000
_cell_angle_beta   90.00000000
_cell_angle_gamma   90.00000000
_symmetry_Int_Tables_number   1
_chemical_formula_structural   Y2PaFe(Co4P3)2
_chemical_formula_sum   'Y4 Pa2 Fe2 Co16 P12'
_cell_volume   476.59641583
_cell_formula_units_Z   2
loop_
 _symmetry_equiv_pos_site_id
 _symmetry_equiv_pos_as_xyz
  1  'x, y, z'
loop_
 _atom_site_type_symbol
 _atom_site_label
 _atom_site_symmetry_multiplicity
 _atom_site_fract_x
 _atom_site_fract_y
 _atom_site_fract_z
 _atom_site_occupancy
  Y  Y0  1  0.500000  0.815160  0.204676  1
  Y  Y1  1  0.500000  0.184840  0.204676  1
  Y  Y2  1  0.000000  0.684840  0.795324  1
  Y  Y3  1  0.000000  0.315160  0.795324  1
  Pa  Pa4  1  0.000000  0.500000  0.527985  1
  Pa  Pa5  1  0.500000  0.000000  0.472015  1
  Fe  Fe6  1  0.500000  0.500000  0.155903  1
  Fe  Fe7  1  0.000000  0.000000  0.844097  1
  Co  Co8  1  0.500000  0.500000  0.695127  1
  Co  Co9  1  0.000000  0.000000  0.304873  1
  Co  Co10  1  0.000000  0.500000  0.984699  1
  Co  Co11  1  0.500000  0.000000  0.015301  1
  Co  Co12  1  0.500000  0.333715  0.993682  1
  Co  Co13  1  0.500000  0.666285  0.993682  1
  Co  Co14  1  0.000000  0.166285  0.006318  1
  Co  Co15  1  0.000000  0.833715  0.006318  1
  Co  Co16  1  0.500000  0.301280  0.432045  1
  Co  Co17  1  0.500000  0.698720  0.432045  1
  Co  Co18  1  0.000000  0.198720  0.567955  1
  Co  Co19  1  0.000000  0.801280  0.567955  1
  Co  Co20  1  0.500000  0.879976  0.709635  1
  Co  Co21  1  0.500000  0.120024  0.709635  1
  Co  Co22  1  0.000000  0.620024  0.290365  1
  Co  Co23  1  0.000000  0.379976  0.290365  1
  P  P24  1  0.500000  0.500000  0.878739  1
  P  P25  1  0.000000  0.000000  0.121261  1
  P  P26  1  0.500000  0.500000  0.341906  1
  P  P27  1  0.000000  0.000000  0.658094  1
  P  P28  1  0.500000  0.306726  0.616751  1
  P  P29  1  0.500000  0.693274  0.616751  1
  P  P30  1  0.000000  0.193274  0.383249  1
  P  P31  1  0.000000  0.806726  0.383249  1
  P  P32  1  0.500000  0.847805  0.894256  1
  P  P33  1  0.500000  0.152195  0.894256  1
  P  P34  1  0.000000  0.652195  0.105744  1
  P  P35  1  0.000000  0.347805  0.105744  1
