# generated using pymatgen
data_CsNa3(In3Te5)4
_symmetry_space_group_name_H-M   'P 1'
_cell_length_a   11.19141833
_cell_length_b   11.19141780
_cell_length_c   11.19141985
_cell_angle_alpha   89.58929490
_cell_angle_beta   89.58929145
_cell_angle_gamma   89.58929170
_symmetry_Int_Tables_number   1
_chemical_formula_structural   CsNa3(In3Te5)4
_chemical_formula_sum   'Cs1 Na3 In12 Te20'
_cell_volume   1401.59362154
_cell_formula_units_Z   1
loop_
 _symmetry_equiv_pos_site_id
 _symmetry_equiv_pos_as_xyz
  1  'x, y, z'
loop_
 _atom_site_type_symbol
 _atom_site_label
 _atom_site_symmetry_multiplicity
 _atom_site_fract_x
 _atom_site_fract_y
 _atom_site_fract_z
 _atom_site_occupancy
  Cs  Cs0  1  0.500000  0.500000  0.500000  1
  Na  Na1  1  0.255284  0.000000  0.744716  1
  Na  Na2  1  0.744716  0.255284  0.000000  1
  Na  Na3  1  0.000000  0.744716  0.255284  1
  In  In4  1  0.841909  0.880750  0.573352  1
  In  In5  1  0.573352  0.841909  0.880750  1
  In  In6  1  0.880750  0.573352  0.841909  1
  In  In7  1  0.158091  0.426648  0.119250  1
  In  In8  1  0.119250  0.158091  0.426648  1
  In  In9  1  0.426648  0.119250  0.158091  1
  In  In10  1  0.748509  0.162676  0.340788  1
  In  In11  1  0.340788  0.748509  0.162676  1
  In  In12  1  0.162676  0.340788  0.748509  1
  In  In13  1  0.251491  0.659212  0.837324  1
  In  In14  1  0.837324  0.251491  0.659212  1
  In  In15  1  0.659212  0.837324  0.251491  1
  Te  Te16  1  0.168650  0.831350  0.000000  1
  Te  Te17  1  0.831350  0.000000  0.168650  1
  Te  Te18  1  0.172434  0.172434  0.172434  1
  Te  Te19  1  0.827566  0.827566  0.827566  1
  Te  Te20  1  0.000000  0.168650  0.831350  1
  Te  Te21  1  0.918925  0.500000  0.081075  1
  Te  Te22  1  0.081075  0.918925  0.500000  1
  Te  Te23  1  0.500000  0.081075  0.918925  1
  Te  Te24  1  0.767979  0.692459  0.425790  1
  Te  Te25  1  0.425790  0.767979  0.692459  1
  Te  Te26  1  0.692459  0.425790  0.767979  1
  Te  Te27  1  0.232021  0.574210  0.307541  1
  Te  Te28  1  0.307541  0.232021  0.574210  1
  Te  Te29  1  0.574210  0.307541  0.232021  1
  Te  Te30  1  0.672565  0.073692  0.571912  1
  Te  Te31  1  0.571912  0.672565  0.073692  1
  Te  Te32  1  0.073692  0.571912  0.672565  1
  Te  Te33  1  0.327435  0.428088  0.926308  1
  Te  Te34  1  0.926308  0.327435  0.428088  1
  Te  Te35  1  0.428088  0.926308  0.327435  1
