# generated using pymatgen
data_Y3Ho3Co14(P3Ru)4
_symmetry_space_group_name_H-M   'P 1'
_cell_length_a   3.73718900
_cell_length_b   10.55038400
_cell_length_c   12.31082800
_cell_angle_alpha   89.99894731
_cell_angle_beta   90.00000000
_cell_angle_gamma   90.00000000
_symmetry_Int_Tables_number   1
_chemical_formula_structural   Y3Ho3Co14(P3Ru)4
_chemical_formula_sum   'Y3 Ho3 Co14 P12 Ru4'
_cell_volume   485.40091685
_cell_formula_units_Z   1
loop_
 _symmetry_equiv_pos_site_id
 _symmetry_equiv_pos_as_xyz
  1  'x, y, z'
loop_
 _atom_site_type_symbol
 _atom_site_label
 _atom_site_symmetry_multiplicity
 _atom_site_fract_x
 _atom_site_fract_y
 _atom_site_fract_z
 _atom_site_occupancy
  Y  Y0  1  0.000000  0.499960  0.528358  1
  Y  Y1  1  0.500000  0.000018  0.478498  1
  Y  Y2  1  0.000000  0.683159  0.795918  1
  Ho  Ho3  1  0.500000  0.818255  0.202614  1
  Ho  Ho4  1  0.500000  0.181805  0.202686  1
  Ho  Ho5  1  0.000000  0.316785  0.795886  1
  Co  Co6  1  0.000000  0.499685  0.985856  1
  Co  Co7  1  0.500000  0.000339  0.013758  1
  Co  Co8  1  0.000000  0.200312  0.573877  1
  Co  Co9  1  0.000000  0.799832  0.573414  1
  Co  Co10  1  0.500000  0.880287  0.710776  1
  Co  Co11  1  0.500000  0.120316  0.711172  1
  Co  Co12  1  0.000000  0.621119  0.286378  1
  Co  Co13  1  0.000000  0.378850  0.286528  1
  Co  Co14  1  0.500000  0.332017  0.990153  1
  Co  Co15  1  0.500000  0.667673  0.990376  1
  Co  Co16  1  0.000000  0.167197  0.008887  1
  Co  Co17  1  0.000000  0.833108  0.009104  1
  Co  Co18  1  0.500000  0.499289  0.705450  1
  Co  Co19  1  0.000000  0.000090  0.293880  1
  P  P20  1  0.500000  0.309136  0.621608  1
  P  P21  1  0.500000  0.690653  0.621082  1
  P  P22  1  0.000000  0.183891  0.381094  1
  P  P23  1  0.000000  0.816206  0.380968  1
  P  P24  1  0.500000  0.499450  0.882463  1
  P  P25  1  0.000000  0.000162  0.116958  1
  P  P26  1  0.500000  0.846967  0.894297  1
  P  P27  1  0.500000  0.153575  0.893904  1
  P  P28  1  0.000000  0.653861  0.104680  1
  P  P29  1  0.000000  0.346035  0.104846  1
  P  P30  1  0.500000  0.499948  0.344712  1
  P  P31  1  0.000000  0.000008  0.651926  1
  Ru  Ru32  1  0.500000  0.295802  0.430252  1
  Ru  Ru33  1  0.500000  0.704140  0.429969  1
  Ru  Ru34  1  0.500000  0.499863  0.156357  1
  Ru  Ru35  1  0.000000  0.000204  0.841317  1
