# generated using pymatgen
data_Er8MoIrI8
_symmetry_space_group_name_H-M   'P 1'
_cell_length_a   11.11864434
_cell_length_b   11.11864450
_cell_length_c   6.15658405
_cell_angle_alpha   90.40568146
_cell_angle_beta   90.40567655
_cell_angle_gamma   90.03008880
_symmetry_Int_Tables_number   1
_chemical_formula_structural   Er8MoIrI8
_chemical_formula_sum   'Er8 Mo1 Ir1 I8'
_cell_volume   761.06482640
_cell_formula_units_Z   1
loop_
 _symmetry_equiv_pos_site_id
 _symmetry_equiv_pos_as_xyz
  1  'x, y, z'
loop_
 _atom_site_type_symbol
 _atom_site_label
 _atom_site_symmetry_multiplicity
 _atom_site_fract_x
 _atom_site_fract_y
 _atom_site_fract_z
 _atom_site_occupancy
  Er  Er0  1  0.200856  0.917614  0.000098  1
  Er  Er1  1  0.799144  0.082378  0.994875  1
  Er  Er2  1  0.082386  0.799144  0.499902  1
  Er  Er3  1  0.917622  0.200856  0.505125  1
  Er  Er4  1  0.799257  0.917689  0.498994  1
  Er  Er5  1  0.200720  0.082343  0.506066  1
  Er  Er6  1  0.082311  0.200743  0.001006  1
  Er  Er7  1  0.917657  0.799280  0.993934  1
  Mo  Mo8  1  0.000203  0.999797  0.750000  1
  Ir  Ir9  1  0.999808  0.000192  0.250000  1
  I  I10  1  0.360774  0.847985  0.494540  1
  I  I11  1  0.639236  0.152028  0.504901  1
  I  I12  1  0.152015  0.639226  0.005460  1
  I  I13  1  0.847972  0.360764  0.995099  1
  I  I14  1  0.360577  0.152276  0.013855  1
  I  I15  1  0.639422  0.847683  0.986667  1
  I  I16  1  0.847724  0.639423  0.486145  1
  I  I17  1  0.152317  0.360578  0.513333  1
