# generated using pymatgen
data_Th2AlSi2
_symmetry_space_group_name_H-M   'P 1'
_cell_length_a   5.82338877
_cell_length_b   5.82338882
_cell_length_c   5.82338887
_cell_angle_alpha   138.50811111
_cell_angle_beta   119.06862945
_cell_angle_gamma   76.41388841
_symmetry_Int_Tables_number   1
_chemical_formula_structural   Th2AlSi2
_chemical_formula_sum   'Th2 Al1 Si2'
_cell_volume   111.47960596
_cell_formula_units_Z   1
loop_
 _symmetry_equiv_pos_site_id
 _symmetry_equiv_pos_as_xyz
  1  'x, y, z'
loop_
 _atom_site_type_symbol
 _atom_site_label
 _atom_site_symmetry_multiplicity
 _atom_site_fract_x
 _atom_site_fract_y
 _atom_site_fract_z
 _atom_site_occupancy
  Th  Th0  1  0.715087  0.215087  0.500000  1
  Th  Th1  1  0.284913  0.784913  0.500000  1
  Al  Al2  1  0.000000  0.000000  0.000000  1
  Si  Si3  1  0.289721  0.500000  0.789721  1
  Si  Si4  1  0.710279  0.500000  0.210279  1
