# generated using pymatgen
data_Lu8Ti12Si15Sn
_symmetry_space_group_name_H-M   'P 1'
_cell_length_a   7.04043350
_cell_length_b   7.00379542
_cell_length_c   12.89094400
_cell_angle_alpha   89.99049638
_cell_angle_beta   89.73750162
_cell_angle_gamma   89.90834578
_symmetry_Int_Tables_number   1
_chemical_formula_structural   Lu8Ti12Si15Sn
_chemical_formula_sum   'Lu8 Ti12 Si15 Sn1'
_cell_volume   635.64180983
_cell_formula_units_Z   1
loop_
 _symmetry_equiv_pos_site_id
 _symmetry_equiv_pos_as_xyz
  1  'x, y, z'
loop_
 _atom_site_type_symbol
 _atom_site_label
 _atom_site_symmetry_multiplicity
 _atom_site_fract_x
 _atom_site_fract_y
 _atom_site_fract_z
 _atom_site_occupancy
  Lu  Lu0  1  0.343096  0.999042  0.461384  1
  Lu  Lu1  1  0.506360  0.834507  0.718328  1
  Lu  Lu2  1  0.502083  0.160081  0.216880  1
  Lu  Lu3  1  0.840641  0.497361  0.282178  1
  Lu  Lu4  1  0.159389  0.510262  0.786054  1
  Lu  Lu5  1  0.661447  0.996777  0.968813  1
  Lu  Lu6  1  0.992360  0.348318  0.527161  1
  Lu  Lu7  1  0.999125  0.659338  0.033988  1
  Ti  Ti8  1  0.326495  0.326996  0.001118  1
  Ti  Ti9  1  0.173709  0.826456  0.249819  1
  Ti  Ti10  1  0.816801  0.174552  0.752027  1
  Ti  Ti11  1  0.672401  0.672731  0.499498  1
  Ti  Ti12  1  0.152120  0.006574  0.883168  1
  Ti  Ti13  1  0.493350  0.650409  0.126872  1
  Ti  Ti14  1  0.514571  0.354378  0.626602  1
  Ti  Ti15  1  0.653837  0.494314  0.875338  1
  Ti  Ti16  1  0.347712  0.508068  0.372814  1
  Ti  Ti17  1  0.847202  0.993188  0.375798  1
  Ti  Ti18  1  0.008383  0.151548  0.123409  1
  Ti  Ti19  1  0.980539  0.835379  0.618928  1
  Si  Si20  1  0.369616  0.703360  0.934940  1
  Si  Si21  1  0.629494  0.296888  0.431829  1
  Si  Si22  1  0.704053  0.367989  0.067491  1
  Si  Si23  1  0.296452  0.632337  0.566649  1
  Si  Si24  1  0.796965  0.868371  0.183101  1
  Si  Si25  1  0.131315  0.203117  0.316036  1
  Si  Si26  1  0.869383  0.799433  0.817213  1
  Si  Si27  1  0.294544  0.952859  0.067069  1
  Si  Si28  1  0.548604  0.791303  0.313866  1
  Si  Si29  1  0.459878  0.208502  0.820305  1
  Si  Si30  1  0.795697  0.544077  0.686645  1
  Si  Si31  1  0.207417  0.453383  0.184918  1
  Si  Si32  1  0.704772  0.047643  0.564625  1
  Si  Si33  1  0.953314  0.293471  0.935037  1
  Si  Si34  1  0.047204  0.708868  0.432574  1
  Sn  Sn35  1  0.199675  0.128119  0.677520  1
