# generated using pymatgen
data_Ta3NbB4(AsRu5)2
_symmetry_space_group_name_H-M   'P 1'
_cell_length_a   9.36658849
_cell_length_b   9.36658849
_cell_length_c   2.96950500
_cell_angle_alpha   90.00000000
_cell_angle_beta   90.00000000
_cell_angle_gamma   90.03715489
_symmetry_Int_Tables_number   1
_chemical_formula_structural   Ta3NbB4(AsRu5)2
_chemical_formula_sum   'Ta3 Nb1 B4 As2 Ru10'
_cell_volume   260.52346795
_cell_formula_units_Z   1
loop_
 _symmetry_equiv_pos_site_id
 _symmetry_equiv_pos_as_xyz
  1  'x, y, z'
loop_
 _atom_site_type_symbol
 _atom_site_label
 _atom_site_symmetry_multiplicity
 _atom_site_fract_x
 _atom_site_fract_y
 _atom_site_fract_z
 _atom_site_occupancy
  Ta  Ta0  1  0.176558  0.323442  0.000000  1
  Ta  Ta1  1  0.323482  0.823536  0.000000  1
  Ta  Ta2  1  0.676464  0.176518  0.000000  1
  Nb  Nb3  1  0.823603  0.676397  0.000000  1
  B  B4  1  0.623360  0.876640  0.000000  1
  B  B5  1  0.376351  0.123649  0.000000  1
  B  B6  1  0.123869  0.623491  0.000000  1
  B  B7  1  0.876509  0.376131  0.000000  1
  As  As8  1  0.500188  0.500114  0.000000  1
  As  As9  1  0.999886  0.999812  0.000000  1
  Ru  Ru10  1  0.568350  0.713891  0.500000  1
  Ru  Ru11  1  0.431005  0.286471  0.500000  1
  Ru  Ru12  1  0.069376  0.786307  0.500000  1
  Ru  Ru13  1  0.931316  0.213542  0.500000  1
  Ru  Ru14  1  0.286458  0.568684  0.500000  1
  Ru  Ru15  1  0.713693  0.430624  0.500000  1
  Ru  Ru16  1  0.213529  0.068995  0.500000  1
  Ru  Ru17  1  0.786109  0.931650  0.500000  1
  Ru  Ru18  1  0.499866  0.000134  0.500000  1
  Ru  Ru19  1  0.000029  0.499971  0.500000  1
