# generated using pymatgen
data_Hf18CoReMo7P
_symmetry_space_group_name_H-M   'P 1'
_cell_length_a   8.64555939
_cell_length_b   8.65007861
_cell_length_c   8.56777300
_cell_angle_alpha   90.00000000
_cell_angle_beta   90.00000000
_cell_angle_gamma   120.01729463
_symmetry_Int_Tables_number   1
_chemical_formula_structural   Hf18CoReMo7P
_chemical_formula_sum   'Hf18 Co1 Re1 Mo7 P1'
_cell_volume   554.79945332
_cell_formula_units_Z   1
loop_
 _symmetry_equiv_pos_site_id
 _symmetry_equiv_pos_as_xyz
  1  'x, y, z'
loop_
 _atom_site_type_symbol
 _atom_site_label
 _atom_site_symmetry_multiplicity
 _atom_site_fract_x
 _atom_site_fract_y
 _atom_site_fract_z
 _atom_site_occupancy
  Hf  Hf0  1  0.197197  0.803024  0.451677  1
  Hf  Hf1  1  0.197197  0.394173  0.451677  1
  Hf  Hf2  1  0.607066  0.803533  0.451909  1
  Hf  Hf3  1  0.797911  0.201759  0.557983  1
  Hf  Hf4  1  0.797911  0.596151  0.557983  1
  Hf  Hf5  1  0.404834  0.202417  0.556621  1
  Hf  Hf6  1  0.797911  0.201759  0.942017  1
  Hf  Hf7  1  0.797911  0.596151  0.942017  1
  Hf  Hf8  1  0.404834  0.202417  0.943379  1
  Hf  Hf9  1  0.197197  0.803024  0.048323  1
  Hf  Hf10  1  0.197197  0.394173  0.048323  1
  Hf  Hf11  1  0.607066  0.803533  0.048091  1
  Hf  Hf12  1  0.541019  0.459434  0.250000  1
  Hf  Hf13  1  0.541019  0.081586  0.250000  1
  Hf  Hf14  1  0.918695  0.459347  0.250000  1
  Hf  Hf15  1  0.459178  0.542603  0.750000  1
  Hf  Hf16  1  0.459178  0.916577  0.750000  1
  Hf  Hf17  1  0.083695  0.541848  0.750000  1
  Co  Co18  1  0.666158  0.333078  0.750000  1
  Re  Re19  1  0.773914  0.886957  0.750000  1
  Mo  Mo20  1  0.888434  0.110536  0.250000  1
  Mo  Mo21  1  0.888434  0.777899  0.250000  1
  Mo  Mo22  1  0.222878  0.111440  0.250000  1
  Mo  Mo23  1  0.109949  0.888070  0.750000  1
  Mo  Mo24  1  0.109949  0.221878  0.750000  1
  Mo  Mo25  1  0.999711  0.999856  0.500908  1
  Mo  Mo26  1  0.999711  0.999856  0.999092  1
  P  P27  1  0.333845  0.666923  0.250000  1
