# generated using pymatgen
data_Sr3MnIrO6
_symmetry_space_group_name_H-M   'P 1'
_cell_length_a   6.78151412
_cell_length_b   6.78151469
_cell_length_c   6.78151452
_cell_angle_alpha   91.64291055
_cell_angle_beta   91.64289798
_cell_angle_gamma   91.64291474
_symmetry_Int_Tables_number   1
_chemical_formula_structural   Sr3MnIrO6
_chemical_formula_sum   'Sr6 Mn2 Ir2 O12'
_cell_volume   311.48251908
_cell_formula_units_Z   2
loop_
 _symmetry_equiv_pos_site_id
 _symmetry_equiv_pos_as_xyz
  1  'x, y, z'
loop_
 _atom_site_type_symbol
 _atom_site_label
 _atom_site_symmetry_multiplicity
 _atom_site_fract_x
 _atom_site_fract_y
 _atom_site_fract_z
 _atom_site_occupancy
  Sr  Sr0  1  0.749999  0.386339  0.113661  1
  Sr  Sr1  1  0.613660  0.886339  0.250000  1
  Sr  Sr2  1  0.113661  0.750000  0.386339  1
  Sr  Sr3  1  0.250000  0.613661  0.886338  1
  Sr  Sr4  1  0.886339  0.250001  0.613662  1
  Sr  Sr5  1  0.386339  0.113661  0.750000  1
  Mn  Mn6  1  0.750001  0.750000  0.750000  1
  Mn  Mn7  1  0.250000  0.249999  0.250000  1
  Ir  Ir8  1  0.500000  0.500000  0.499999  1
  Ir  Ir9  1  0.000000  0.000000  0.000000  1
  O  O10  1  0.786403  0.592195  0.459185  1
  O  O11  1  0.592194  0.459184  0.786403  1
  O  O12  1  0.459185  0.786402  0.592195  1
  O  O13  1  0.040815  0.907806  0.713597  1
  O  O14  1  0.907806  0.713598  0.040814  1
  O  O15  1  0.713598  0.040815  0.907806  1
  O  O16  1  0.213598  0.407806  0.540815  1
  O  O17  1  0.407805  0.540815  0.213598  1
  O  O18  1  0.540814  0.213597  0.407805  1
  O  O19  1  0.959185  0.092194  0.286402  1
  O  O20  1  0.286402  0.959185  0.092194  1
  O  O21  1  0.092195  0.286403  0.959185  1
