# generated using pymatgen
data_ErZrNb4C5
_symmetry_space_group_name_H-M   'P 1'
_cell_length_a   5.66738208
_cell_length_b   5.66738391
_cell_length_c   5.57847077
_cell_angle_alpha   81.34394623
_cell_angle_beta   81.34394523
_cell_angle_gamma   120.86826077
_symmetry_Int_Tables_number   1
_chemical_formula_structural   ErZrNb4C5
_chemical_formula_sum   'Er1 Zr1 Nb4 C5'
_cell_volume   146.46690727
_cell_formula_units_Z   1
loop_
 _symmetry_equiv_pos_site_id
 _symmetry_equiv_pos_as_xyz
  1  'x, y, z'
loop_
 _atom_site_type_symbol
 _atom_site_label
 _atom_site_symmetry_multiplicity
 _atom_site_fract_x
 _atom_site_fract_y
 _atom_site_fract_z
 _atom_site_occupancy
  Er  Er0  1  0.754501  0.754501  0.752177  1
  Zr  Zr1  1  0.251970  0.251970  0.253278  1
  Nb  Nb2  1  0.092905  0.447832  0.743057  1
  Nb  Nb3  1  0.552252  0.904454  0.255378  1
  Nb  Nb4  1  0.904454  0.552252  0.255378  1
  Nb  Nb5  1  0.447832  0.092905  0.743057  1
  C  C6  1  0.496065  0.496065  0.497687  1
  C  C7  1  0.670739  0.320490  0.004029  1
  C  C8  1  0.320490  0.670739  0.004029  1
  C  C9  1  0.828990  0.179801  0.495966  1
  C  C10  1  0.179801  0.828990  0.495966  1
