# generated using pymatgen
data_Sm3MgCd2AgSn2
_symmetry_space_group_name_H-M   'P 1'
_cell_length_a   7.52172000
_cell_length_b   7.56233202
_cell_length_c   4.64442200
_cell_angle_alpha   90.00000000
_cell_angle_beta   90.00000000
_cell_angle_gamma   119.82250147
_symmetry_Int_Tables_number   1
_chemical_formula_structural   Sm3MgCd2AgSn2
_chemical_formula_sum   'Sm3 Mg1 Cd2 Ag1 Sn2'
_cell_volume   229.19714818
_cell_formula_units_Z   1
loop_
 _symmetry_equiv_pos_site_id
 _symmetry_equiv_pos_as_xyz
  1  'x, y, z'
loop_
 _atom_site_type_symbol
 _atom_site_label
 _atom_site_symmetry_multiplicity
 _atom_site_fract_x
 _atom_site_fract_y
 _atom_site_fract_z
 _atom_site_occupancy
  Sm  Sm0  1  0.001645  0.416487  0.500000  1
  Sm  Sm1  1  0.585158  0.583513  0.500000  1
  Sm  Sm2  1  0.411472  0.000000  0.500000  1
  Mg  Mg3  1  0.769723  0.000000  0.000000  1
  Cd  Cd4  1  0.999065  0.762087  0.000000  1
  Cd  Cd5  1  0.236978  0.237913  0.000000  1
  Ag  Ag6  1  0.992628  0.000000  0.500000  1
  Sn  Sn7  1  0.336617  0.669904  0.000000  1
  Sn  Sn8  1  0.666714  0.330096  0.000000  1
