# generated using pymatgen
data_Gd8Ho11ErPb16
_symmetry_space_group_name_H-M   'P 1'
_cell_length_a   8.19673700
_cell_length_b   8.27296801
_cell_length_c   15.62503400
_cell_angle_alpha   90.00000000
_cell_angle_beta   90.00000000
_cell_angle_gamma   90.00325506
_symmetry_Int_Tables_number   1
_chemical_formula_structural   Gd8Ho11ErPb16
_chemical_formula_sum   'Gd8 Ho11 Er1 Pb16'
_cell_volume   1059.55453848
_cell_formula_units_Z   1
loop_
 _symmetry_equiv_pos_site_id
 _symmetry_equiv_pos_as_xyz
  1  'x, y, z'
loop_
 _atom_site_type_symbol
 _atom_site_label
 _atom_site_symmetry_multiplicity
 _atom_site_fract_x
 _atom_site_fract_y
 _atom_site_fract_z
 _atom_site_occupancy
  Gd  Gd0  1  0.531367  0.322127  0.902063  1
  Gd  Gd1  1  0.030630  0.177912  0.597651  1
  Gd  Gd2  1  0.469228  0.678161  0.402114  1
  Gd  Gd3  1  0.969193  0.822270  0.098056  1
  Gd  Gd4  1  0.469228  0.678161  0.097886  1
  Gd  Gd5  1  0.969193  0.822270  0.401944  1
  Gd  Gd6  1  0.531367  0.322127  0.597937  1
  Gd  Gd7  1  0.030630  0.177912  0.902349  1
  Ho  Ho8  1  0.372989  0.842741  0.878775  1
  Ho  Ho9  1  0.873140  0.657177  0.621290  1
  Ho  Ho10  1  0.626825  0.157159  0.378819  1
  Ho  Ho11  1  0.126906  0.342747  0.121162  1
  Ho  Ho12  1  0.626825  0.157159  0.121181  1
  Ho  Ho13  1  0.126906  0.342747  0.378838  1
  Ho  Ho14  1  0.372989  0.842741  0.621225  1
  Ho  Ho15  1  0.873140  0.657177  0.878710  1
  Ho  Ho16  1  0.206361  0.504026  0.750000  1
  Ho  Ho17  1  0.706301  0.995831  0.750000  1
  Ho  Ho18  1  0.793568  0.496074  0.250000  1
  Er  Er19  1  0.293521  0.004293  0.250000  1
  Pb  Pb20  1  0.285771  0.036379  0.043400  1
  Pb  Pb21  1  0.785757  0.463529  0.456824  1
  Pb  Pb22  1  0.714053  0.963412  0.543443  1
  Pb  Pb23  1  0.214176  0.536320  0.956518  1
  Pb  Pb24  1  0.714053  0.963412  0.956557  1
  Pb  Pb25  1  0.214176  0.536320  0.543482  1
  Pb  Pb26  1  0.285771  0.036379  0.456600  1
  Pb  Pb27  1  0.785757  0.463529  0.043176  1
  Pb  Pb28  1  0.568760  0.626971  0.750000  1
  Pb  Pb29  1  0.068672  0.873086  0.750000  1
  Pb  Pb30  1  0.431192  0.372930  0.250000  1
  Pb  Pb31  1  0.931489  0.126625  0.250000  1
  Pb  Pb32  1  0.342854  0.152266  0.750000  1
  Pb  Pb33  1  0.842894  0.347593  0.750000  1
  Pb  Pb34  1  0.656800  0.847855  0.250000  1
  Pb  Pb35  1  0.157516  0.652582  0.250000  1
