# generated using pymatgen
data_Ba4Sc(RuO6)2
_symmetry_space_group_name_H-M   'P 1'
_cell_length_a   9.96406409
_cell_length_b   9.96406428
_cell_length_c   9.96406478
_cell_angle_alpha   33.85906010
_cell_angle_beta   33.85905578
_cell_angle_gamma   33.85905857
_symmetry_Int_Tables_number   1
_chemical_formula_structural   Ba4Sc(RuO6)2
_chemical_formula_sum   'Ba4 Sc1 Ru2 O12'
_cell_volume   273.66299426
_cell_formula_units_Z   1
loop_
 _symmetry_equiv_pos_site_id
 _symmetry_equiv_pos_as_xyz
  1  'x, y, z'
loop_
 _atom_site_type_symbol
 _atom_site_label
 _atom_site_symmetry_multiplicity
 _atom_site_fract_x
 _atom_site_fract_y
 _atom_site_fract_z
 _atom_site_occupancy
  Ba  Ba0  1  0.708904  0.708904  0.708904  1
  Ba  Ba1  1  0.291096  0.291096  0.291096  1
  Ba  Ba2  1  0.869707  0.869707  0.869707  1
  Ba  Ba3  1  0.130293  0.130293  0.130293  1
  Sc  Sc4  1  0.000000  0.000000  0.000000  1
  Ru  Ru5  1  0.580112  0.580112  0.580112  1
  Ru  Ru6  1  0.419888  0.419888  0.419888  1
  O  O7  1  0.215731  0.698028  0.215731  1
  O  O8  1  0.215731  0.215731  0.698028  1
  O  O9  1  0.698028  0.215731  0.215731  1
  O  O10  1  0.784269  0.301972  0.784269  1
  O  O11  1  0.784269  0.784269  0.301972  1
  O  O12  1  0.301972  0.784269  0.784269  1
  O  O13  1  0.387927  0.860109  0.387927  1
  O  O14  1  0.387927  0.387927  0.860109  1
  O  O15  1  0.860109  0.387927  0.387927  1
  O  O16  1  0.612073  0.139891  0.612073  1
  O  O17  1  0.612073  0.612073  0.139891  1
  O  O18  1  0.139891  0.612073  0.612073  1
