# generated using pymatgen
data_Ca5La4YSi8
_symmetry_space_group_name_H-M   'P 1'
_cell_length_a   7.56289263
_cell_length_b   8.00736400
_cell_length_c   15.31274208
_cell_angle_alpha   90.00000000
_cell_angle_beta   90.04493587
_cell_angle_gamma   90.00000000
_symmetry_Int_Tables_number   1
_chemical_formula_structural   Ca5La4YSi8
_chemical_formula_sum   'Ca10 La8 Y2 Si16'
_cell_volume   927.32152350
_cell_formula_units_Z   2
loop_
 _symmetry_equiv_pos_site_id
 _symmetry_equiv_pos_as_xyz
  1  'x, y, z'
loop_
 _atom_site_type_symbol
 _atom_site_label
 _atom_site_symmetry_multiplicity
 _atom_site_fract_x
 _atom_site_fract_y
 _atom_site_fract_z
 _atom_site_occupancy
  Ca  Ca0  1  0.323262  0.181305  0.622778  1
  Ca  Ca1  1  0.677851  0.820008  0.377247  1
  Ca  Ca2  1  0.651395  0.997807  0.749674  1
  Ca  Ca3  1  0.177851  0.679992  0.377247  1
  Ca  Ca4  1  0.823304  0.319743  0.878232  1
  Ca  Ca5  1  0.823262  0.318695  0.622778  1
  Ca  Ca6  1  0.846643  0.493597  0.251681  1
  Ca  Ca7  1  0.346643  0.006403  0.251681  1
  Ca  Ca8  1  0.323304  0.180257  0.878232  1
  Ca  Ca9  1  0.151395  0.502193  0.749674  1
  La  La10  1  0.022053  0.182814  0.402077  1
  La  La11  1  0.522053  0.317186  0.402077  1
  La  La12  1  0.476595  0.683373  0.901104  1
  La  La13  1  0.477400  0.683985  0.598455  1
  La  La14  1  0.977400  0.816015  0.598455  1
  La  La15  1  0.976595  0.816627  0.901104  1
  La  La16  1  0.522589  0.315926  0.097711  1
  La  La17  1  0.022589  0.184074  0.097711  1
  Y  Y18  1  0.176628  0.683005  0.123104  1
  Y  Y19  1  0.676628  0.816995  0.123104  1
  Si  Si20  1  0.261468  0.876685  0.750748  1
  Si  Si21  1  0.465282  0.599990  0.244166  1
  Si  Si22  1  0.035091  0.093816  0.750857  1
  Si  Si23  1  0.535091  0.406184  0.750857  1
  Si  Si24  1  0.144002  0.472961  0.536034  1
  Si  Si25  1  0.965282  0.900010  0.244166  1
  Si  Si26  1  0.737935  0.116930  0.246613  1
  Si  Si27  1  0.857065  0.534359  0.039431  1
  Si  Si28  1  0.357065  0.965641  0.039431  1
  Si  Si29  1  0.145247  0.476062  0.967362  1
  Si  Si30  1  0.644002  0.027039  0.536034  1
  Si  Si31  1  0.356191  0.974436  0.462726  1
  Si  Si32  1  0.856191  0.525564  0.462726  1
  Si  Si33  1  0.761468  0.623315  0.750748  1
  Si  Si34  1  0.237935  0.383070  0.246613  1
  Si  Si35  1  0.645247  0.023938  0.967362  1
