# generated using pymatgen
data_La3Tb7Nd6(CdNi)4
_symmetry_space_group_name_H-M   'P 1'
_cell_length_a   9.79396678
_cell_length_b   9.77544444
_cell_length_c   9.77544600
_cell_angle_alpha   60.00000148
_cell_angle_beta   60.06254215
_cell_angle_gamma   60.06253958
_symmetry_Int_Tables_number   1
_chemical_formula_structural   La3Tb7Nd6(CdNi)4
_chemical_formula_sum   'La3 Tb7 Nd6 Cd4 Ni4'
_cell_volume   662.40960438
_cell_formula_units_Z   1
loop_
 _symmetry_equiv_pos_site_id
 _symmetry_equiv_pos_as_xyz
  1  'x, y, z'
loop_
 _atom_site_type_symbol
 _atom_site_label
 _atom_site_symmetry_multiplicity
 _atom_site_fract_x
 _atom_site_fract_y
 _atom_site_fract_z
 _atom_site_occupancy
  La  La0  1  0.594399  0.599747  0.599747  1
  La  La1  1  0.594399  0.599747  0.206107  1
  La  La2  1  0.594399  0.206107  0.599747  1
  Tb  Tb3  1  0.200838  0.599721  0.599721  1
  Tb  Tb4  1  0.065713  0.436242  0.436242  1
  Tb  Tb5  1  0.436079  0.065116  0.065116  1
  Tb  Tb6  1  0.436079  0.065116  0.433689  1
  Tb  Tb7  1  0.065713  0.436242  0.061802  1
  Tb  Tb8  1  0.436079  0.433689  0.065116  1
  Tb  Tb9  1  0.065713  0.061802  0.436242  1
  Nd  Nd10  1  0.185442  0.814803  0.814803  1
  Nd  Nd11  1  0.814324  0.186187  0.186187  1
  Nd  Nd12  1  0.814324  0.186187  0.813301  1
  Nd  Nd13  1  0.185442  0.814803  0.184951  1
  Nd  Nd14  1  0.814324  0.813301  0.186187  1
  Nd  Nd15  1  0.185442  0.184951  0.814803  1
  Cd  Cd16  1  0.833432  0.828577  0.828577  1
  Cd  Cd17  1  0.833432  0.828577  0.509415  1
  Cd  Cd18  1  0.833432  0.509415  0.828577  1
  Cd  Cd19  1  0.511050  0.829650  0.829650  1
  Ni  Ni20  1  0.389096  0.391205  0.391205  1
  Ni  Ni21  1  0.389096  0.391205  0.828494  1
  Ni  Ni22  1  0.389096  0.828494  0.391205  1
  Ni  Ni23  1  0.832652  0.389116  0.389116  1
