# generated using pymatgen
data_Zr6Co4Si7Ni12
_symmetry_space_group_name_H-M   'P 1'
_cell_length_a   8.11704291
_cell_length_b   8.10287919
_cell_length_c   8.11292400
_cell_angle_alpha   59.95898391
_cell_angle_beta   60.01678456
_cell_angle_gamma   59.97967265
_symmetry_Int_Tables_number   1
_chemical_formula_structural   Zr6Co4Si7Ni12
_chemical_formula_sum   'Zr6 Co4 Si7 Ni12'
_cell_volume   377.18385923
_cell_formula_units_Z   1
loop_
 _symmetry_equiv_pos_site_id
 _symmetry_equiv_pos_as_xyz
  1  'x, y, z'
loop_
 _atom_site_type_symbol
 _atom_site_label
 _atom_site_symmetry_multiplicity
 _atom_site_fract_x
 _atom_site_fract_y
 _atom_site_fract_z
 _atom_site_occupancy
  Zr  Zr0  1  0.792596  0.798389  0.204508  1
  Zr  Zr1  1  0.796225  0.204856  0.794864  1
  Zr  Zr2  1  0.207505  0.798734  0.201455  1
  Zr  Zr3  1  0.796225  0.204856  0.204055  1
  Zr  Zr4  1  0.207505  0.798734  0.792306  1
  Zr  Zr5  1  0.206919  0.202181  0.795450  1
  Co  Co6  1  0.166816  0.168430  0.494830  1
  Co  Co7  1  0.495964  0.167417  0.168310  1
  Co  Co8  1  0.166816  0.168430  0.169926  1
  Co  Co9  1  0.505524  0.829752  0.832361  1
  Si  Si10  1  0.499088  0.499239  0.500837  1
  Si  Si11  1  0.498188  0.001891  0.500605  1
  Si  Si12  1  0.001860  0.498854  0.999194  1
  Si  Si13  1  0.000298  0.000230  0.499735  1
  Si  Si14  1  0.498188  0.001891  0.999316  1
  Si  Si15  1  0.001860  0.498854  0.500093  1
  Si  Si16  1  0.499321  0.499225  0.000726  1
  Ni  Ni17  1  0.830123  0.828545  0.831247  1
  Ni  Ni18  1  0.830123  0.828545  0.510084  1
  Ni  Ni19  1  0.168467  0.489539  0.170998  1
  Ni  Ni20  1  0.620136  0.142279  0.618792  1
  Ni  Ni21  1  0.381233  0.381339  0.856929  1
  Ni  Ni22  1  0.852668  0.383352  0.381990  1
  Ni  Ni23  1  0.381233  0.381339  0.380499  1
  Ni  Ni24  1  0.148219  0.617667  0.617056  1
  Ni  Ni25  1  0.618302  0.618264  0.617620  1
  Ni  Ni26  1  0.618302  0.618264  0.145813  1
  Ni  Ni27  1  0.381186  0.858198  0.380308  1
  Ni  Ni28  1  0.829111  0.510708  0.830090  1
