# generated using pymatgen
data_KVPdSe4
_symmetry_space_group_name_H-M   'P 1'
_cell_length_a   8.47018800
_cell_length_b   8.47018800
_cell_length_c   12.08194100
_cell_angle_alpha   90.00000000
_cell_angle_beta   90.00000000
_cell_angle_gamma   90.00000000
_symmetry_Int_Tables_number   1
_chemical_formula_structural   KVPdSe4
_chemical_formula_sum   'K4 V4 Pd4 Se16'
_cell_volume   866.80779911
_cell_formula_units_Z   4
loop_
 _symmetry_equiv_pos_site_id
 _symmetry_equiv_pos_as_xyz
  1  'x, y, z'
loop_
 _atom_site_type_symbol
 _atom_site_label
 _atom_site_symmetry_multiplicity
 _atom_site_fract_x
 _atom_site_fract_y
 _atom_site_fract_z
 _atom_site_occupancy
  K  K0  1  0.000000  0.500000  0.750000  1
  K  K1  1  0.500000  0.000000  0.750000  1
  K  K2  1  0.500000  0.000000  0.250000  1
  K  K3  1  0.000000  0.500000  0.250000  1
  V  V4  1  0.749466  0.749466  0.000000  1
  V  V5  1  0.250534  0.250534  0.000000  1
  V  V6  1  0.249466  0.750534  0.500000  1
  V  V7  1  0.750534  0.249466  0.500000  1
  Pd  Pd8  1  0.500000  0.500000  0.500000  1
  Pd  Pd9  1  0.000000  0.000000  0.000000  1
  Pd  Pd10  1  0.500000  0.500000  0.000000  1
  Pd  Pd11  1  0.000000  0.000000  0.500000  1
  Se  Se12  1  0.363241  0.363241  0.154158  1
  Se  Se13  1  0.636759  0.636759  0.154158  1
  Se  Se14  1  0.136759  0.863241  0.345842  1
  Se  Se15  1  0.863241  0.136759  0.345842  1
  Se  Se16  1  0.636759  0.636759  0.845842  1
  Se  Se17  1  0.363241  0.363241  0.845842  1
  Se  Se18  1  0.136759  0.863241  0.654158  1
  Se  Se19  1  0.863241  0.136759  0.654158  1
  Se  Se20  1  0.482504  0.208123  0.500000  1
  Se  Se21  1  0.517496  0.791877  0.500000  1
  Se  Se22  1  0.017496  0.708123  0.000000  1
  Se  Se23  1  0.982504  0.291877  0.000000  1
  Se  Se24  1  0.791877  0.517496  0.500000  1
  Se  Se25  1  0.208123  0.482504  0.500000  1
  Se  Se26  1  0.291877  0.982504  0.000000  1
  Se  Se27  1  0.708123  0.017496  0.000000  1
