# generated using pymatgen
data_KRb7Ba4(ZrP4)2
_symmetry_space_group_name_H-M   'P 1'
_cell_length_a   10.67757446
_cell_length_b   10.70804566
_cell_length_c   8.01922711
_cell_angle_alpha   88.38119444
_cell_angle_beta   88.61619472
_cell_angle_gamma   119.89680691
_symmetry_Int_Tables_number   1
_chemical_formula_structural   KRb7Ba4(ZrP4)2
_chemical_formula_sum   'K1 Rb7 Ba4 Zr2 P8'
_cell_volume   793.78013528
_cell_formula_units_Z   1
loop_
 _symmetry_equiv_pos_site_id
 _symmetry_equiv_pos_as_xyz
  1  'x, y, z'
loop_
 _atom_site_type_symbol
 _atom_site_label
 _atom_site_symmetry_multiplicity
 _atom_site_fract_x
 _atom_site_fract_y
 _atom_site_fract_z
 _atom_site_occupancy
  K  K0  1  0.062264  0.528156  0.615892  1
  Rb  Rb1  1  0.527519  0.059606  0.112435  1
  Rb  Rb2  1  0.276796  0.132752  0.826077  1
  Rb  Rb3  1  0.873555  0.733980  0.763158  1
  Rb  Rb4  1  0.861287  0.143946  0.799166  1
  Rb  Rb5  1  0.734234  0.873218  0.264976  1
  Rb  Rb6  1  0.133184  0.277871  0.326926  1
  Rb  Rb7  1  0.142481  0.859374  0.299466  1
  Ba  Ba8  1  0.463546  0.928760  0.602483  1
  Ba  Ba9  1  0.463745  0.524678  0.618810  1
  Ba  Ba10  1  0.931362  0.465704  0.103887  1
  Ba  Ba11  1  0.525484  0.465035  0.119096  1
  Zr  Zr12  1  0.667558  0.336721  0.512402  1
  Zr  Zr13  1  0.334414  0.665080  0.010109  1
  P  P14  1  0.672376  0.358622  0.832217  1
  P  P15  1  0.352312  0.669070  0.332200  1
  P  P16  1  0.589175  0.786874  0.873966  1
  P  P17  1  0.205926  0.403448  0.920877  1
  P  P18  1  0.199211  0.787065  0.899899  1
  P  P19  1  0.404026  0.207477  0.423867  1
  P  P20  1  0.788329  0.590117  0.373476  1
  P  P21  1  0.791216  0.202446  0.406108  1
