# generated using pymatgen
data_Tb2TmAl3Ga2Pd
_symmetry_space_group_name_H-M   'P 1'
_cell_length_a   6.94886482
_cell_length_b   6.94886505
_cell_length_c   4.33695700
_cell_angle_alpha   90.00000000
_cell_angle_beta   90.00000000
_cell_angle_gamma   119.75622430
_symmetry_Int_Tables_number   1
_chemical_formula_structural   Tb2TmAl3Ga2Pd
_chemical_formula_sum   'Tb2 Tm1 Al3 Ga2 Pd1'
_cell_volume   181.80468752
_cell_formula_units_Z   1
loop_
 _symmetry_equiv_pos_site_id
 _symmetry_equiv_pos_as_xyz
  1  'x, y, z'
loop_
 _atom_site_type_symbol
 _atom_site_label
 _atom_site_symmetry_multiplicity
 _atom_site_fract_x
 _atom_site_fract_y
 _atom_site_fract_z
 _atom_site_occupancy
  Tb  Tb0  1  0.419215  0.001116  0.500000  1
  Tb  Tb1  1  0.001116  0.419215  0.500000  1
  Tm  Tm2  1  0.583265  0.583265  0.500000  1
  Al  Al3  1  0.763815  0.999384  0.000000  1
  Al  Al4  1  0.999384  0.763815  0.000000  1
  Al  Al5  1  0.236817  0.236817  0.000000  1
  Ga  Ga6  1  0.335451  0.665839  0.000000  1
  Ga  Ga7  1  0.665839  0.335451  0.000000  1
  Pd  Pd8  1  0.995099  0.995099  0.500000  1
