# generated using pymatgen
data_KRb2DySb2
_symmetry_space_group_name_H-M   'P 1'
_cell_length_a   10.21529388
_cell_length_b   10.21529380
_cell_length_c   10.21529393
_cell_angle_alpha   131.50667323
_cell_angle_beta   67.55440131
_cell_angle_gamma   135.98012135
_symmetry_Int_Tables_number   1
_chemical_formula_structural   KRb2DySb2
_chemical_formula_sum   'K2 Rb4 Dy2 Sb4'
_cell_volume   545.47074452
_cell_formula_units_Z   2
loop_
 _symmetry_equiv_pos_site_id
 _symmetry_equiv_pos_as_xyz
  1  'x, y, z'
loop_
 _atom_site_type_symbol
 _atom_site_label
 _atom_site_symmetry_multiplicity
 _atom_site_fract_x
 _atom_site_fract_y
 _atom_site_fract_z
 _atom_site_occupancy
  K  K0  1  0.750000  0.250000  0.500000  1
  K  K1  1  0.250000  0.750000  0.500000  1
  Rb  Rb2  1  0.313479  0.718171  0.031650  1
  Rb  Rb3  1  0.186521  0.218170  0.404692  1
  Rb  Rb4  1  0.813479  0.781830  0.595308  1
  Rb  Rb5  1  0.686521  0.281830  0.968350  1
  Dy  Dy6  1  0.250000  0.250000  0.000000  1
  Dy  Dy7  1  0.750000  0.750000  0.000000  1
  Sb  Sb8  1  0.900887  0.200801  0.101686  1
  Sb  Sb9  1  0.599115  0.700800  0.299914  1
  Sb  Sb10  1  0.400886  0.299200  0.700086  1
  Sb  Sb11  1  0.099114  0.799200  0.898314  1
