# generated using pymatgen
data_Y5Zr3As3P9Rh16
_symmetry_space_group_name_H-M   'P 1'
_cell_length_a   13.02563800
_cell_length_b   13.02563815
_cell_length_c   3.94574400
_cell_angle_alpha   90.00000000
_cell_angle_beta   90.00000000
_cell_angle_gamma   120.00000471
_symmetry_Int_Tables_number   1
_chemical_formula_structural   Y5Zr3As3P9Rh16
_chemical_formula_sum   'Y5 Zr3 As3 P9 Rh16'
_cell_volume   579.77239005
_cell_formula_units_Z   1
loop_
 _symmetry_equiv_pos_site_id
 _symmetry_equiv_pos_as_xyz
  1  'x, y, z'
loop_
 _atom_site_type_symbol
 _atom_site_label
 _atom_site_symmetry_multiplicity
 _atom_site_fract_x
 _atom_site_fract_y
 _atom_site_fract_z
 _atom_site_occupancy
  Y  Y0  1  0.182095  0.182095  0.500000  1
  Y  Y1  1  0.817905  0.000000  0.500000  1
  Y  Y2  1  0.000000  0.817905  0.500000  1
  Y  Y3  1  0.333333  0.666667  0.000000  1
  Y  Y4  1  0.666667  0.333333  0.000000  1
  Zr  Zr5  1  0.555950  0.555950  0.000000  1
  Zr  Zr6  1  0.444050  0.000000  0.000000  1
  Zr  Zr7  1  0.000000  0.444050  0.000000  1
  As  As8  1  0.351146  0.351146  0.000000  1
  As  As9  1  0.648854  0.000000  0.000000  1
  As  As10  1  0.000000  0.648854  0.000000  1
  P  P11  1  0.823553  0.823553  0.000000  1
  P  P12  1  0.176447  0.000000  0.000000  1
  P  P13  1  0.000000  0.176447  0.000000  1
  P  P14  1  0.168921  0.482328  0.500000  1
  P  P15  1  0.517672  0.686593  0.500000  1
  P  P16  1  0.313407  0.831079  0.500000  1
  P  P17  1  0.686593  0.517672  0.500000  1
  P  P18  1  0.831079  0.313407  0.500000  1
  P  P19  1  0.482328  0.168921  0.500000  1
  Rh  Rh20  1  0.723329  0.723329  0.500000  1
  Rh  Rh21  1  0.276671  0.000000  0.500000  1
  Rh  Rh22  1  0.000000  0.276671  0.500000  1
  Rh  Rh23  1  0.173658  0.374877  0.000000  1
  Rh  Rh24  1  0.625123  0.798780  0.000000  1
  Rh  Rh25  1  0.201220  0.826342  0.000000  1
  Rh  Rh26  1  0.798780  0.625123  0.000000  1
  Rh  Rh27  1  0.826342  0.201220  0.000000  1
  Rh  Rh28  1  0.374877  0.173658  0.000000  1
  Rh  Rh29  1  0.355330  0.491541  0.500000  1
  Rh  Rh30  1  0.508459  0.863790  0.500000  1
  Rh  Rh31  1  0.136210  0.644670  0.500000  1
  Rh  Rh32  1  0.863790  0.508459  0.500000  1
  Rh  Rh33  1  0.644670  0.136210  0.500000  1
  Rh  Rh34  1  0.491541  0.355330  0.500000  1
  Rh  Rh35  1  0.000000  0.000000  0.000000  1
