# generated using pymatgen
data_Sc2GaRu4W
_symmetry_space_group_name_H-M   'P 1'
_cell_length_a   4.45005800
_cell_length_b   6.27920100
_cell_length_c   13.30252100
_cell_angle_alpha   90.00000000
_cell_angle_beta   90.00010319
_cell_angle_gamma   90.00000000
_symmetry_Int_Tables_number   1
_chemical_formula_structural   Sc2GaRu4W
_chemical_formula_sum   'Sc6 Ga3 Ru12 W3'
_cell_volume   371.70979878
_cell_formula_units_Z   3
loop_
 _symmetry_equiv_pos_site_id
 _symmetry_equiv_pos_as_xyz
  1  'x, y, z'
loop_
 _atom_site_type_symbol
 _atom_site_label
 _atom_site_symmetry_multiplicity
 _atom_site_fract_x
 _atom_site_fract_y
 _atom_site_fract_z
 _atom_site_occupancy
  Sc  Sc0  1  0.999999  0.500001  0.993963  1
  Sc  Sc1  1  0.499980  0.000000  0.166676  1
  Sc  Sc2  1  0.999993  0.500001  0.339376  1
  Sc  Sc3  1  0.500001  0.000000  0.509095  1
  Sc  Sc4  1  0.000035  0.500001  0.666667  1
  Sc  Sc5  1  0.500011  0.000000  0.824210  1
  Ga  Ga6  1  0.499998  0.500001  0.504371  1
  Ga  Ga7  1  0.000006  0.000000  0.666658  1
  Ga  Ga8  1  0.500007  0.500001  0.828944  1
  Ru  Ru9  1  0.500000  0.246110  0.003788  1
  Ru  Ru10  1  0.500000  0.753890  0.003788  1
  Ru  Ru11  1  0.999991  0.253635  0.166677  1
  Ru  Ru12  1  0.999991  0.746365  0.166677  1
  Ru  Ru13  1  0.499989  0.246201  0.329524  1
  Ru  Ru14  1  0.499989  0.753798  0.329524  1
  Ru  Ru15  1  0.999997  0.245602  0.493874  1
  Ru  Ru16  1  0.999997  0.754398  0.493874  1
  Ru  Ru17  1  0.500015  0.251658  0.666653  1
  Ru  Ru18  1  0.500015  0.748341  0.666653  1
  Ru  Ru19  1  0.000008  0.245730  0.839499  1
  Ru  Ru20  1  0.000008  0.754270  0.839499  1
  W  W21  1  0.999998  0.000000  0.993656  1
  W  W22  1  0.499993  0.500001  0.166663  1
  W  W23  1  0.999988  0.000000  0.339693  1
