# generated using pymatgen
data_Gd4Be12AsP11
_symmetry_space_group_name_H-M   'P 1'
_cell_length_a   3.65357800
_cell_length_b   10.39955780
_cell_length_c   11.18249700
_cell_angle_alpha   89.97746637
_cell_angle_beta   90.00000000
_cell_angle_gamma   90.00000000
_symmetry_Int_Tables_number   1
_chemical_formula_structural   Gd4Be12AsP11
_chemical_formula_sum   'Gd4 Be12 As1 P11'
_cell_volume   424.88560099
_cell_formula_units_Z   1
loop_
 _symmetry_equiv_pos_site_id
 _symmetry_equiv_pos_as_xyz
  1  'x, y, z'
loop_
 _atom_site_type_symbol
 _atom_site_label
 _atom_site_symmetry_multiplicity
 _atom_site_fract_x
 _atom_site_fract_y
 _atom_site_fract_z
 _atom_site_occupancy
  Gd  Gd0  1  0.750000  0.942147  0.339991  1
  Gd  Gd1  1  0.250000  0.442555  0.162148  1
  Gd  Gd2  1  0.750000  0.563344  0.838962  1
  Gd  Gd3  1  0.250000  0.059299  0.659337  1
  Be  Be4  1  0.750000  0.241034  0.450778  1
  Be  Be5  1  0.250000  0.741672  0.048358  1
  Be  Be6  1  0.750000  0.250200  0.956284  1
  Be  Be7  1  0.250000  0.759013  0.547375  1
  Be  Be8  1  0.750000  0.646088  0.288934  1
  Be  Be9  1  0.250000  0.144012  0.212205  1
  Be  Be10  1  0.750000  0.855789  0.789400  1
  Be  Be11  1  0.250000  0.356832  0.703725  1
  Be  Be12  1  0.750000  0.039331  0.065571  1
  Be  Be13  1  0.250000  0.540362  0.434531  1
  Be  Be14  1  0.750000  0.460840  0.565806  1
  Be  Be15  1  0.250000  0.960383  0.934739  1
  As  As16  1  0.250000  0.360634  0.906701  1
  P  P17  1  0.750000  0.440300  0.370438  1
  P  P18  1  0.250000  0.939561  0.130025  1
  P  P19  1  0.750000  0.058805  0.869213  1
  P  P20  1  0.250000  0.561167  0.629869  1
  P  P21  1  0.750000  0.229352  0.147177  1
  P  P22  1  0.250000  0.731002  0.355601  1
  P  P23  1  0.750000  0.268932  0.641941  1
  P  P24  1  0.250000  0.770333  0.856116  1
  P  P25  1  0.750000  0.637906  0.093856  1
  P  P26  1  0.250000  0.136731  0.406935  1
  P  P27  1  0.750000  0.862377  0.593985  1
