# generated using pymatgen
data_Tb8Pd20Pt4Pb
_symmetry_space_group_name_H-M   'P 1'
_cell_length_a   8.45843707
_cell_length_b   8.44112007
_cell_length_c   8.43364100
_cell_angle_alpha   90.00000000
_cell_angle_beta   90.00000000
_cell_angle_gamma   90.01447012
_symmetry_Int_Tables_number   1
_chemical_formula_structural   Tb8Pd20Pt4Pb
_chemical_formula_sum   'Tb8 Pd20 Pt4 Pb1'
_cell_volume   602.15083998
_cell_formula_units_Z   1
loop_
 _symmetry_equiv_pos_site_id
 _symmetry_equiv_pos_as_xyz
  1  'x, y, z'
loop_
 _atom_site_type_symbol
 _atom_site_label
 _atom_site_symmetry_multiplicity
 _atom_site_fract_x
 _atom_site_fract_y
 _atom_site_fract_z
 _atom_site_occupancy
  Tb  Tb0  1  0.252117  0.254198  0.253466  1
  Tb  Tb1  1  0.746825  0.746545  0.747647  1
  Tb  Tb2  1  0.746825  0.746545  0.252353  1
  Tb  Tb3  1  0.748036  0.253527  0.746913  1
  Tb  Tb4  1  0.252117  0.254198  0.746534  1
  Tb  Tb5  1  0.253233  0.745761  0.253091  1
  Tb  Tb6  1  0.253233  0.745761  0.746909  1
  Tb  Tb7  1  0.748036  0.253527  0.253087  1
  Pd  Pd8  1  0.500032  0.266494  0.000000  1
  Pd  Pd9  1  0.999923  0.733318  0.500000  1
  Pd  Pd10  1  0.500047  0.733657  0.000000  1
  Pd  Pd11  1  0.500058  0.000028  0.266946  1
  Pd  Pd12  1  0.267328  0.999943  0.500000  1
  Pd  Pd13  1  0.500058  0.000028  0.733054  1
  Pd  Pd14  1  0.732467  0.999944  0.500000  1
  Pd  Pd15  1  0.999797  0.500450  0.267140  1
  Pd  Pd16  1  0.999797  0.500450  0.732860  1
  Pd  Pd17  1  0.745030  0.500011  0.500000  1
  Pd  Pd18  1  0.500012  0.255051  0.500000  1
  Pd  Pd19  1  0.500006  0.744742  0.500000  1
  Pd  Pd20  1  0.500101  0.500023  0.254929  1
  Pd  Pd21  1  0.500101  0.500023  0.745071  1
  Pd  Pd22  1  0.315679  0.999987  0.000000  1
  Pd  Pd23  1  0.684649  0.000071  0.000000  1
  Pd  Pd24  1  0.999903  0.315535  0.000000  1
  Pd  Pd25  1  0.999982  0.684903  0.000000  1
  Pd  Pd26  1  0.999919  0.999331  0.315634  1
  Pd  Pd27  1  0.999919  0.999331  0.684366  1
  Pt  Pt28  1  0.266345  0.500076  0.000000  1
  Pt  Pt29  1  0.733443  0.500077  0.000000  1
  Pt  Pt30  1  0.000087  0.266153  0.500000  1
  Pt  Pt31  1  0.254640  0.499966  0.500000  1
  Pb  Pb32  1  0.000252  0.000352  0.000000  1
