# generated using pymatgen
data_TbU3(NbN2)4
_symmetry_space_group_name_H-M   'P 1'
_cell_length_a   3.27283300
_cell_length_b   5.70076421
_cell_length_c   10.97241534
_cell_angle_alpha   90.07475277
_cell_angle_beta   90.00000000
_cell_angle_gamma   90.00000000
_symmetry_Int_Tables_number   1
_chemical_formula_structural   TbU3(NbN2)4
_chemical_formula_sum   'Tb1 U3 Nb4 N8'
_cell_volume   204.71930241
_cell_formula_units_Z   1
loop_
 _symmetry_equiv_pos_site_id
 _symmetry_equiv_pos_as_xyz
  1  'x, y, z'
loop_
 _atom_site_type_symbol
 _atom_site_label
 _atom_site_symmetry_multiplicity
 _atom_site_fract_x
 _atom_site_fract_y
 _atom_site_fract_z
 _atom_site_occupancy
  Tb  Tb0  1  0.250000  0.578806  0.854756  1
  U  U1  1  0.750000  0.425266  0.140634  1
  U  U2  1  0.750000  0.923890  0.356301  1
  U  U3  1  0.250000  0.078897  0.644956  1
  Nb  Nb4  1  0.250000  0.922548  0.100293  1
  Nb  Nb5  1  0.750000  0.073932  0.903322  1
  Nb  Nb6  1  0.750000  0.576963  0.600039  1
  Nb  Nb7  1  0.250000  0.424375  0.400302  1
  N  N8  1  0.250000  0.659255  0.245127  1
  N  N9  1  0.750000  0.331139  0.750776  1
  N  N10  1  0.750000  0.845919  0.742266  1
  N  N11  1  0.250000  0.159789  0.256155  1
  N  N12  1  0.250000  0.766643  0.504244  1
  N  N13  1  0.750000  0.232863  0.496089  1
  N  N14  1  0.750000  0.734044  0.005490  1
  N  N15  1  0.250000  0.265670  0.999252  1
