# generated using pymatgen
data_Dy2InGa6Ni2Ag
_symmetry_space_group_name_H-M   'P 1'
_cell_length_a   4.21611740
_cell_length_b   6.50114301
_cell_length_c   8.07557854
_cell_angle_alpha   89.92014992
_cell_angle_beta   105.13184477
_cell_angle_gamma   90.00000318
_symmetry_Int_Tables_number   1
_chemical_formula_structural   Dy2InGa6Ni2Ag
_chemical_formula_sum   'Dy2 In1 Ga6 Ni2 Ag1'
_cell_volume   213.67335728
_cell_formula_units_Z   1
loop_
 _symmetry_equiv_pos_site_id
 _symmetry_equiv_pos_as_xyz
  1  'x, y, z'
loop_
 _atom_site_type_symbol
 _atom_site_label
 _atom_site_symmetry_multiplicity
 _atom_site_fract_x
 _atom_site_fract_y
 _atom_site_fract_z
 _atom_site_occupancy
  Dy  Dy0  1  0.372822  0.744537  0.745645  1
  Dy  Dy1  1  0.627178  0.255463  0.254355  1
  In  In2  1  0.000000  0.500000  0.000000  1
  Ga  Ga3  1  0.569370  0.775187  0.138741  1
  Ga  Ga4  1  0.430630  0.224813  0.861259  1
  Ga  Ga5  1  0.188282  0.552622  0.376564  1
  Ga  Ga6  1  0.811718  0.447378  0.623436  1
  Ga  Ga7  1  0.184977  0.952990  0.369953  1
  Ga  Ga8  1  0.815023  0.047010  0.630047  1
  Ni  Ni9  1  0.721170  0.749599  0.442341  1
  Ni  Ni10  1  0.278830  0.250401  0.557659  1
  Ag  Ag11  1  0.000000  0.000000  0.000000  1
