# generated using pymatgen
data_Li3LuCo16(ReP3)4
_symmetry_space_group_name_H-M   'P 1'
_cell_length_a   3.62405500
_cell_length_b   10.20063043
_cell_length_c   11.69461238
_cell_angle_alpha   89.86223391
_cell_angle_beta   90.00000000
_cell_angle_gamma   90.00000000
_symmetry_Int_Tables_number   1
_chemical_formula_structural   Li3LuCo16(ReP3)4
_chemical_formula_sum   'Li3 Lu1 Co16 Re4 P12'
_cell_volume   432.32103767
_cell_formula_units_Z   1
loop_
 _symmetry_equiv_pos_site_id
 _symmetry_equiv_pos_as_xyz
  1  'x, y, z'
loop_
 _atom_site_type_symbol
 _atom_site_label
 _atom_site_symmetry_multiplicity
 _atom_site_fract_x
 _atom_site_fract_y
 _atom_site_fract_z
 _atom_site_occupancy
  Li  Li0  1  0.250000  0.577204  0.701225  1
  Li  Li1  1  0.250000  0.921131  0.200505  1
  Li  Li2  1  0.750000  0.421673  0.299368  1
  Lu  Lu3  1  0.750000  0.083982  0.794230  1
  Co  Co4  1  0.250000  0.405659  0.488526  1
  Co  Co5  1  0.250000  0.094101  0.987087  1
  Co  Co6  1  0.750000  0.590943  0.512913  1
  Co  Co7  1  0.750000  0.908085  0.013045  1
  Co  Co8  1  0.250000  0.219226  0.177376  1
  Co  Co9  1  0.250000  0.278237  0.678654  1
  Co  Co10  1  0.750000  0.781560  0.821733  1
  Co  Co11  1  0.750000  0.718264  0.323309  1
  Co  Co12  1  0.250000  0.885780  0.698184  1
  Co  Co13  1  0.250000  0.615393  0.200823  1
  Co  Co14  1  0.750000  0.115411  0.300009  1
  Co  Co15  1  0.750000  0.386773  0.800538  1
  Co  Co16  1  0.250000  0.466573  0.936012  1
  Co  Co17  1  0.250000  0.034004  0.431908  1
  Co  Co18  1  0.750000  0.536736  0.066237  1
  Co  Co19  1  0.750000  0.961153  0.563445  1
  Re  Re20  1  0.250000  0.709737  0.988968  1
  Re  Re21  1  0.250000  0.787601  0.487474  1
  Re  Re22  1  0.750000  0.290635  0.015191  1
  Re  Re23  1  0.750000  0.209791  0.513594  1
  P  P24  1  0.250000  0.420100  0.123517  1
  P  P25  1  0.250000  0.080071  0.614204  1
  P  P26  1  0.750000  0.582332  0.878632  1
  P  P27  1  0.750000  0.918037  0.375740  1
  P  P28  1  0.250000  0.268675  0.866985  1
  P  P29  1  0.250000  0.239527  0.363462  1
  P  P30  1  0.750000  0.740049  0.137338  1
  P  P31  1  0.750000  0.757399  0.635235  1
  P  P32  1  0.250000  0.589283  0.387936  1
  P  P33  1  0.250000  0.905378  0.889362  1
  P  P34  1  0.750000  0.408911  0.613279  1
  P  P35  1  0.750000  0.090585  0.113955  1
