# generated using pymatgen
data_KSeF5
_symmetry_space_group_name_H-M   'P 1'
_cell_length_a   6.07556300
_cell_length_b   7.71199600
_cell_length_c   9.96319700
_cell_angle_alpha   90.00000000
_cell_angle_beta   90.00000000
_cell_angle_gamma   90.00000000
_symmetry_Int_Tables_number   1
_chemical_formula_structural   KSeF5
_chemical_formula_sum   'K4 Se4 F20'
_cell_volume   466.82278137
_cell_formula_units_Z   4
loop_
 _symmetry_equiv_pos_site_id
 _symmetry_equiv_pos_as_xyz
  1  'x, y, z'
loop_
 _atom_site_type_symbol
 _atom_site_label
 _atom_site_symmetry_multiplicity
 _atom_site_fract_x
 _atom_site_fract_y
 _atom_site_fract_z
 _atom_site_occupancy
  K  K0  1  0.250000  0.634315  0.162501  1
  K  K1  1  0.750000  0.365685  0.837499  1
  K  K2  1  0.750000  0.134315  0.337499  1
  K  K3  1  0.250000  0.865685  0.662501  1
  Se  Se4  1  0.250000  0.139024  0.085093  1
  Se  Se5  1  0.750000  0.860976  0.914907  1
  Se  Se6  1  0.750000  0.639024  0.414907  1
  Se  Se7  1  0.250000  0.360976  0.585093  1
  F  F8  1  0.031141  0.979085  0.144880  1
  F  F9  1  0.531141  0.020915  0.855120  1
  F  F10  1  0.968859  0.479085  0.355120  1
  F  F11  1  0.468859  0.520915  0.644880  1
  F  F12  1  0.968859  0.020915  0.855120  1
  F  F13  1  0.468859  0.979085  0.144880  1
  F  F14  1  0.031141  0.520915  0.644880  1
  F  F15  1  0.531141  0.479085  0.355120  1
  F  F16  1  0.032906  0.312648  0.063273  1
  F  F17  1  0.532906  0.687352  0.936727  1
  F  F18  1  0.967094  0.812648  0.436727  1
  F  F19  1  0.467094  0.187352  0.563273  1
  F  F20  1  0.967094  0.687352  0.936727  1
  F  F21  1  0.467094  0.312648  0.063273  1
  F  F22  1  0.032906  0.187352  0.563273  1
  F  F23  1  0.532906  0.812648  0.436727  1
  F  F24  1  0.250000  0.204634  0.255630  1
  F  F25  1  0.750000  0.795366  0.744370  1
  F  F26  1  0.750000  0.704634  0.244370  1
  F  F27  1  0.250000  0.295366  0.755630  1
