# generated using pymatgen
data_Zr4H3C2
_symmetry_space_group_name_H-M   'P 1'
_cell_length_a   6.71914099
_cell_length_b   3.36339393
_cell_length_c   8.00332034
_cell_angle_alpha   90.03168550
_cell_angle_beta   128.75422616
_cell_angle_gamma   120.03766954
_symmetry_Int_Tables_number   1
_chemical_formula_structural   Zr4H3C2
_chemical_formula_sum   'Zr4 H3 C2'
_cell_volume   108.10267940
_cell_formula_units_Z   1
loop_
 _symmetry_equiv_pos_site_id
 _symmetry_equiv_pos_as_xyz
  1  'x, y, z'
loop_
 _atom_site_type_symbol
 _atom_site_label
 _atom_site_symmetry_multiplicity
 _atom_site_fract_x
 _atom_site_fract_y
 _atom_site_fract_z
 _atom_site_occupancy
  Zr  Zr0  1  0.702398  0.332298  0.893801  1
  Zr  Zr1  1  0.327825  0.458519  0.355975  1
  Zr  Zr2  1  0.195867  0.326062  0.887122  1
  Zr  Zr3  1  0.828732  0.459614  0.354364  1
  H  H4  1  0.816281  0.947779  0.510800  1
  H  H5  1  0.701734  0.830822  0.732345  1
  H  H6  1  0.215298  0.845392  0.732527  1
  C  C7  1  0.270300  0.900736  0.127688  1
  C  C8  1  0.761895  0.892236  0.122630  1
