# generated using pymatgen
data_Ho7ErTc3B24Rh
_symmetry_space_group_name_H-M   'P 1'
_cell_length_a   3.66699300
_cell_length_b   9.13372270
_cell_length_c   11.51298200
_cell_angle_alpha   90.12532965
_cell_angle_beta   90.00000000
_cell_angle_gamma   90.00000000
_symmetry_Int_Tables_number   1
_chemical_formula_structural   Ho7ErTc3B24Rh
_chemical_formula_sum   'Ho7 Er1 Tc3 B24 Rh1'
_cell_volume   385.60680543
_cell_formula_units_Z   1
loop_
 _symmetry_equiv_pos_site_id
 _symmetry_equiv_pos_as_xyz
  1  'x, y, z'
loop_
 _atom_site_type_symbol
 _atom_site_label
 _atom_site_symmetry_multiplicity
 _atom_site_fract_x
 _atom_site_fract_y
 _atom_site_fract_z
 _atom_site_occupancy
  Ho  Ho0  1  0.500000  0.318795  0.415737  1
  Ho  Ho1  1  0.500000  0.677880  0.591016  1
  Ho  Ho2  1  0.500000  0.176821  0.912815  1
  Ho  Ho3  1  0.500000  0.827401  0.081324  1
  Ho  Ho4  1  0.500000  0.440843  0.129104  1
  Ho  Ho5  1  0.500000  0.556865  0.871067  1
  Ho  Ho6  1  0.500000  0.055933  0.629465  1
  Er  Er7  1  0.500000  0.943975  0.369727  1
  Tc  Tc8  1  0.500000  0.138449  0.180317  1
  Tc  Tc9  1  0.500000  0.861406  0.820766  1
  Tc  Tc10  1  0.500000  0.362346  0.677768  1
  B  B11  1  0.000000  0.102008  0.471001  1
  B  B12  1  0.000000  0.894895  0.528073  1
  B  B13  1  0.000000  0.396558  0.971818  1
  B  B14  1  0.000000  0.604362  0.029413  1
  B  B15  1  0.000000  0.130992  0.315107  1
  B  B16  1  0.000000  0.868135  0.685457  1
  B  B17  1  0.000000  0.368959  0.814221  1
  B  B18  1  0.000000  0.632084  0.184046  1
  B  B19  1  0.000000  0.053674  0.066547  1
  B  B20  1  0.000000  0.947083  0.932659  1
  B  B21  1  0.000000  0.446390  0.566549  1
  B  B22  1  0.000000  0.554115  0.433768  1
  B  B23  1  0.000000  0.483331  0.288028  1
  B  B24  1  0.000000  0.517775  0.712276  1
  B  B25  1  0.000000  0.017244  0.787232  1
  B  B26  1  0.000000  0.982955  0.211988  1
  B  B27  1  0.000000  0.249083  0.081052  1
  B  B28  1  0.000000  0.751712  0.919067  1
  B  B29  1  0.000000  0.250457  0.580807  1
  B  B30  1  0.000000  0.749273  0.420361  1
  B  B31  1  0.000000  0.291852  0.235373  1
  B  B32  1  0.000000  0.708086  0.765737  1
  B  B33  1  0.000000  0.208305  0.734303  1
  B  B34  1  0.000000  0.791553  0.264890  1
  Rh  Rh35  1  0.500000  0.638408  0.321120  1
