# generated using pymatgen
data_Dy3Tm5In3PbAu8
_symmetry_space_group_name_H-M   'P 1'
_cell_length_a   8.00736329
_cell_length_b   8.00937926
_cell_length_c   7.29125805
_cell_angle_alpha   89.99380443
_cell_angle_beta   90.01174907
_cell_angle_gamma   90.19204828
_symmetry_Int_Tables_number   1
_chemical_formula_structural   Dy3Tm5In3PbAu8
_chemical_formula_sum   'Dy3 Tm5 In3 Pb1 Au8'
_cell_volume   467.61497316
_cell_formula_units_Z   1
loop_
 _symmetry_equiv_pos_site_id
 _symmetry_equiv_pos_as_xyz
  1  'x, y, z'
loop_
 _atom_site_type_symbol
 _atom_site_label
 _atom_site_symmetry_multiplicity
 _atom_site_fract_x
 _atom_site_fract_y
 _atom_site_fract_z
 _atom_site_occupancy
  Dy  Dy0  1  0.843235  0.158691  0.501536  1
  Dy  Dy1  1  0.156445  0.841105  0.501540  1
  Dy  Dy2  1  0.341527  0.343750  0.998460  1
  Tm  Tm3  1  0.658679  0.656217  0.998381  1
  Tm  Tm4  1  0.682234  0.680011  0.501415  1
  Tm  Tm5  1  0.318003  0.320254  0.501359  1
  Tm  Tm6  1  0.179983  0.817786  0.998666  1
  Tm  Tm7  1  0.819965  0.182190  0.998651  1
  In  In8  1  0.999842  0.500125  0.750055  1
  In  In9  1  0.500132  0.999804  0.750108  1
  In  In10  1  0.999860  0.500112  0.249966  1
  Pb  Pb11  1  0.500124  0.999891  0.249840  1
  Au  Au12  1  0.632414  0.377015  0.274003  1
  Au  Au13  1  0.368464  0.623984  0.274115  1
  Au  Au14  1  0.128986  0.128255  0.774140  1
  Au  Au15  1  0.870064  0.870888  0.775226  1
  Au  Au16  1  0.372246  0.629443  0.726541  1
  Au  Au17  1  0.628709  0.371436  0.726514  1
  Au  Au18  1  0.875533  0.867134  0.224123  1
  Au  Au19  1  0.123555  0.131910  0.225361  1
