# generated using pymatgen
data_YEr3(HfIr)4
_symmetry_space_group_name_H-M   'P 1'
_cell_length_a   4.51801800
_cell_length_b   7.03205673
_cell_length_c   8.28555728
_cell_angle_alpha   89.77275597
_cell_angle_beta   90.00000000
_cell_angle_gamma   90.00000000
_symmetry_Int_Tables_number   1
_chemical_formula_structural   YEr3(HfIr)4
_chemical_formula_sum   'Y1 Er3 Hf4 Ir4'
_cell_volume   263.23802917
_cell_formula_units_Z   1
loop_
 _symmetry_equiv_pos_site_id
 _symmetry_equiv_pos_as_xyz
  1  'x, y, z'
loop_
 _atom_site_type_symbol
 _atom_site_label
 _atom_site_symmetry_multiplicity
 _atom_site_fract_x
 _atom_site_fract_y
 _atom_site_fract_z
 _atom_site_occupancy
  Y  Y0  1  0.250000  0.984282  0.322497  1
  Er  Er1  1  0.250000  0.482602  0.176828  1
  Er  Er2  1  0.750000  0.017338  0.677586  1
  Er  Er3  1  0.750000  0.517222  0.822221  1
  Hf  Hf4  1  0.250000  0.357819  0.571462  1
  Hf  Hf5  1  0.250000  0.856687  0.928714  1
  Hf  Hf6  1  0.750000  0.642904  0.429919  1
  Hf  Hf7  1  0.750000  0.141878  0.069287  1
  Ir  Ir8  1  0.250000  0.231774  0.903743  1
  Ir  Ir9  1  0.250000  0.731262  0.598281  1
  Ir  Ir10  1  0.750000  0.766430  0.094809  1
  Ir  Ir11  1  0.750000  0.269802  0.404652  1
