# generated using pymatgen
data_Ho6Al21Si3NiOs7
_symmetry_space_group_name_H-M   'P 1'
_cell_length_a   8.71845700
_cell_length_b   8.71845654
_cell_length_c   9.57736000
_cell_angle_alpha   90.00000000
_cell_angle_beta   90.00000000
_cell_angle_gamma   119.99999796
_symmetry_Int_Tables_number   1
_chemical_formula_structural   Ho6Al21Si3NiOs7
_chemical_formula_sum   'Ho6 Al21 Si3 Ni1 Os7'
_cell_volume   630.45731749
_cell_formula_units_Z   1
loop_
 _symmetry_equiv_pos_site_id
 _symmetry_equiv_pos_as_xyz
  1  'x, y, z'
loop_
 _atom_site_type_symbol
 _atom_site_label
 _atom_site_symmetry_multiplicity
 _atom_site_fract_x
 _atom_site_fract_y
 _atom_site_fract_z
 _atom_site_occupancy
  Ho  Ho0  1  0.195546  0.391092  0.248965  1
  Ho  Ho1  1  0.804016  0.608033  0.751922  1
  Ho  Ho2  1  0.608908  0.804454  0.248965  1
  Ho  Ho3  1  0.391967  0.195984  0.751922  1
  Ho  Ho4  1  0.195546  0.804454  0.248965  1
  Ho  Ho5  1  0.804016  0.195984  0.751922  1
  Al  Al6  1  0.333333  0.666667  0.477060  1
  Al  Al7  1  0.163231  0.326461  0.574499  1
  Al  Al8  1  0.835814  0.671630  0.423367  1
  Al  Al9  1  0.673539  0.836769  0.574499  1
  Al  Al10  1  0.836506  0.673011  0.077141  1
  Al  Al11  1  0.328370  0.164186  0.423367  1
  Al  Al12  1  0.163871  0.327742  0.922533  1
  Al  Al13  1  0.163231  0.836769  0.574499  1
  Al  Al14  1  0.326989  0.163494  0.077141  1
  Al  Al15  1  0.835814  0.164186  0.423367  1
  Al  Al16  1  0.672258  0.836129  0.922533  1
  Al  Al17  1  0.836506  0.163494  0.077141  1
  Al  Al18  1  0.163871  0.836129  0.922533  1
  Al  Al19  1  0.563164  0.126328  0.248836  1
  Al  Al20  1  0.437263  0.874527  0.748038  1
  Al  Al21  1  0.873672  0.436836  0.248836  1
  Al  Al22  1  0.125473  0.562737  0.748038  1
  Al  Al23  1  0.563164  0.436836  0.248836  1
  Al  Al24  1  0.437263  0.562737  0.748038  1
  Al  Al25  1  0.000000  0.000000  0.242192  1
  Al  Al26  1  0.000000  0.000000  0.756669  1
  Si  Si27  1  0.333333  0.666667  0.037821  1
  Si  Si28  1  0.666667  0.333333  0.963810  1
  Si  Si29  1  0.666667  0.333333  0.540806  1
  Ni  Ni30  1  0.000000  0.000000  0.999005  1
  Os  Os31  1  0.499869  0.999738  0.998466  1
  Os  Os32  1  0.000262  0.500131  0.998466  1
  Os  Os33  1  0.503990  0.007981  0.500656  1
  Os  Os34  1  0.499869  0.500131  0.998466  1
  Os  Os35  1  0.992019  0.496010  0.500656  1
  Os  Os36  1  0.503990  0.496010  0.500656  1
  Os  Os37  1  0.000000  0.000000  0.499364  1
