# generated using pymatgen
data_Dy2ScSi2
_symmetry_space_group_name_H-M   'P 1'
_cell_length_a   7.23921500
_cell_length_b   7.23921500
_cell_length_c   4.23317400
_cell_angle_alpha   90.00000000
_cell_angle_beta   90.00000000
_cell_angle_gamma   89.99957261
_symmetry_Int_Tables_number   1
_chemical_formula_structural   Dy2ScSi2
_chemical_formula_sum   'Dy4 Sc2 Si4'
_cell_volume   221.84470643
_cell_formula_units_Z   2
loop_
 _symmetry_equiv_pos_site_id
 _symmetry_equiv_pos_as_xyz
  1  'x, y, z'
loop_
 _atom_site_type_symbol
 _atom_site_label
 _atom_site_symmetry_multiplicity
 _atom_site_fract_x
 _atom_site_fract_y
 _atom_site_fract_z
 _atom_site_occupancy
  Dy  Dy0  1  0.176228  0.323772  0.500000  1
  Dy  Dy1  1  0.823772  0.676228  0.500000  1
  Dy  Dy2  1  0.323772  0.823772  0.500000  1
  Dy  Dy3  1  0.676228  0.176228  0.500000  1
  Sc  Sc4  1  0.000000  0.000000  0.000000  1
  Sc  Sc5  1  0.500000  0.500000  0.000000  1
  Si  Si6  1  0.119952  0.619952  0.000000  1
  Si  Si7  1  0.880048  0.380048  0.000000  1
  Si  Si8  1  0.380048  0.119952  0.000000  1
  Si  Si9  1  0.619952  0.880048  0.000000  1
