# generated using pymatgen
data_Mn6Si4Ni16As2P
_symmetry_space_group_name_H-M   'P 1'
_cell_length_a   7.87532933
_cell_length_b   7.87532928
_cell_length_c   7.89309000
_cell_angle_alpha   59.92537775
_cell_angle_beta   59.92537796
_cell_angle_gamma   60.14925494
_symmetry_Int_Tables_number   1
_chemical_formula_structural   Mn6Si4Ni16As2P
_chemical_formula_sum   'Mn6 Si4 Ni16 As2 P1'
_cell_volume   346.15061746
_cell_formula_units_Z   1
loop_
 _symmetry_equiv_pos_site_id
 _symmetry_equiv_pos_as_xyz
  1  'x, y, z'
loop_
 _atom_site_type_symbol
 _atom_site_label
 _atom_site_symmetry_multiplicity
 _atom_site_fract_x
 _atom_site_fract_y
 _atom_site_fract_z
 _atom_site_occupancy
  Mn  Mn0  1  0.310681  0.689319  0.310681  1
  Mn  Mn1  1  0.310681  0.689319  0.689319  1
  Mn  Mn2  1  0.689319  0.310681  0.310681  1
  Mn  Mn3  1  0.692473  0.692473  0.307527  1
  Mn  Mn4  1  0.307527  0.307527  0.692473  1
  Mn  Mn5  1  0.689319  0.310681  0.689319  1
  Si  Si6  1  0.000000  0.500000  0.000000  1
  Si  Si7  1  0.500000  0.000000  0.000000  1
  Si  Si8  1  0.000000  0.500000  0.500000  1
  Si  Si9  1  0.500000  0.000000  0.500000  1
  Ni  Ni10  1  0.332855  0.332855  0.338091  1
  Ni  Ni11  1  0.003801  0.661909  0.667145  1
  Ni  Ni12  1  0.661909  0.003801  0.667145  1
  Ni  Ni13  1  0.667145  0.667145  0.003801  1
  Ni  Ni14  1  0.338091  0.996199  0.332855  1
  Ni  Ni15  1  0.332855  0.332855  0.996199  1
  Ni  Ni16  1  0.996199  0.338091  0.332855  1
  Ni  Ni17  1  0.667145  0.667145  0.661909  1
  Ni  Ni18  1  0.117808  0.117808  0.111387  1
  Ni  Ni19  1  0.347003  0.888613  0.882192  1
  Ni  Ni20  1  0.888613  0.347003  0.882192  1
  Ni  Ni21  1  0.882192  0.882192  0.347003  1
  Ni  Ni22  1  0.111387  0.652997  0.117808  1
  Ni  Ni23  1  0.117808  0.117808  0.652997  1
  Ni  Ni24  1  0.652997  0.111387  0.117808  1
  Ni  Ni25  1  0.882192  0.882192  0.888613  1
  As  As26  1  0.000000  0.000000  0.500000  1
  As  As27  1  0.500000  0.500000  0.000000  1
  P  P28  1  0.000000  0.000000  0.000000  1
