# generated using pymatgen
data_SrTbDy2(Pt2O7)2
_symmetry_space_group_name_H-M   'P 1'
_cell_length_a   7.33642818
_cell_length_b   7.33542845
_cell_length_c   7.33542707
_cell_angle_alpha   59.87733184
_cell_angle_beta   59.90542139
_cell_angle_gamma   59.90542915
_symmetry_Int_Tables_number   1
_chemical_formula_structural   SrTbDy2(Pt2O7)2
_chemical_formula_sum   'Sr1 Tb1 Dy2 Pt4 O14'
_cell_volume   278.48074600
_cell_formula_units_Z   1
loop_
 _symmetry_equiv_pos_site_id
 _symmetry_equiv_pos_as_xyz
  1  'x, y, z'
loop_
 _atom_site_type_symbol
 _atom_site_label
 _atom_site_symmetry_multiplicity
 _atom_site_fract_x
 _atom_site_fract_y
 _atom_site_fract_z
 _atom_site_occupancy
  Sr  Sr0  1  0.125000  0.125000  0.125000  1
  Tb  Tb1  1  0.625000  0.125000  0.125000  1
  Dy  Dy2  1  0.125000  0.625000  0.125000  1
  Dy  Dy3  1  0.125000  0.125000  0.625000  1
  Pt  Pt4  1  0.625000  0.625000  0.625000  1
  Pt  Pt5  1  0.125000  0.625000  0.625000  1
  Pt  Pt6  1  0.625000  0.125000  0.625000  1
  Pt  Pt7  1  0.625000  0.625000  0.125000  1
  O  O8  1  0.287984  0.713068  0.713068  1
  O  O9  1  0.554999  0.958077  0.958077  1
  O  O10  1  0.713312  0.288092  0.712501  1
  O  O11  1  0.291751  0.291635  0.694799  1
  O  O12  1  0.713312  0.712501  0.288092  1
  O  O13  1  0.994123  0.992140  0.992140  1
  O  O14  1  0.291751  0.694799  0.291635  1
  O  O15  1  0.958249  0.555201  0.958365  1
  O  O16  1  0.958249  0.958365  0.555201  1
  O  O17  1  0.536688  0.537499  0.961908  1
  O  O18  1  0.255877  0.257860  0.257860  1
  O  O19  1  0.536688  0.961908  0.537499  1
  O  O20  1  0.695001  0.291923  0.291923  1
  O  O21  1  0.962016  0.536932  0.536932  1
