# generated using pymatgen
data_U2Fe3P
_symmetry_space_group_name_H-M   'P 1'
_cell_length_a   5.11484993
_cell_length_b   5.10623368
_cell_length_c   7.36058500
_cell_angle_alpha   90.00000000
_cell_angle_beta   90.00000000
_cell_angle_gamma   60.05570568
_symmetry_Int_Tables_number   1
_chemical_formula_structural   U2Fe3P
_chemical_formula_sum   'U4 Fe6 P2'
_cell_volume   166.57892470
_cell_formula_units_Z   2
loop_
 _symmetry_equiv_pos_site_id
 _symmetry_equiv_pos_as_xyz
  1  'x, y, z'
loop_
 _atom_site_type_symbol
 _atom_site_label
 _atom_site_symmetry_multiplicity
 _atom_site_fract_x
 _atom_site_fract_y
 _atom_site_fract_z
 _atom_site_occupancy
  U  U0  1  0.334795  0.332602  0.565914  1
  U  U1  1  0.665205  0.667398  0.434086  1
  U  U2  1  0.665205  0.667398  0.065914  1
  U  U3  1  0.334795  0.332602  0.934086  1
  Fe  Fe4  1  0.834659  0.331531  0.750000  1
  Fe  Fe5  1  0.331179  0.834410  0.750000  1
  Fe  Fe6  1  0.834659  0.833809  0.750000  1
  Fe  Fe7  1  0.165341  0.668469  0.250000  1
  Fe  Fe8  1  0.668821  0.165590  0.250000  1
  Fe  Fe9  1  0.165341  0.166191  0.250000  1
  P  P10  1  0.000000  0.000000  0.500000  1
  P  P11  1  0.000000  0.000000  0.000000  1
