# generated using pymatgen
data_Nd6Pa2ZnPd24
_symmetry_space_group_name_H-M   'P 1'
_cell_length_a   8.48628465
_cell_length_b   8.48628465
_cell_length_c   8.48628465
_cell_angle_alpha   89.45989389
_cell_angle_beta   89.45989389
_cell_angle_gamma   89.45989389
_symmetry_Int_Tables_number   1
_chemical_formula_structural   Nd6Pa2ZnPd24
_chemical_formula_sum   'Nd6 Pa2 Zn1 Pd24'
_cell_volume   611.07603812
_cell_formula_units_Z   1
loop_
 _symmetry_equiv_pos_site_id
 _symmetry_equiv_pos_as_xyz
  1  'x, y, z'
loop_
 _atom_site_type_symbol
 _atom_site_label
 _atom_site_symmetry_multiplicity
 _atom_site_fract_x
 _atom_site_fract_y
 _atom_site_fract_z
 _atom_site_occupancy
  Nd  Nd0  1  0.748673  0.748673  0.246225  1
  Nd  Nd1  1  0.748673  0.246225  0.748673  1
  Nd  Nd2  1  0.251327  0.251327  0.753775  1
  Nd  Nd3  1  0.251327  0.753775  0.251327  1
  Nd  Nd4  1  0.246225  0.748673  0.748673  1
  Nd  Nd5  1  0.753775  0.251327  0.251327  1
  Pa  Pa6  1  0.253143  0.253143  0.253143  1
  Pa  Pa7  1  0.746857  0.746857  0.746857  1
  Zn  Zn8  1  0.000000  0.000000  0.000000  1
  Pd  Pd9  1  0.260904  0.498885  0.007725  1
  Pd  Pd10  1  0.739096  0.501115  0.992275  1
  Pd  Pd11  1  0.007725  0.260904  0.498885  1
  Pd  Pd12  1  0.498885  0.260904  0.007725  1
  Pd  Pd13  1  0.992275  0.739096  0.501115  1
  Pd  Pd14  1  0.501115  0.739096  0.992275  1
  Pd  Pd15  1  0.498885  0.007725  0.260904  1
  Pd  Pd16  1  0.260904  0.007725  0.498885  1
  Pd  Pd17  1  0.501115  0.992275  0.739096  1
  Pd  Pd18  1  0.739096  0.992275  0.501115  1
  Pd  Pd19  1  0.007725  0.498885  0.260904  1
  Pd  Pd20  1  0.992275  0.501115  0.739096  1
  Pd  Pd21  1  0.253172  0.497645  0.497645  1
  Pd  Pd22  1  0.746828  0.502355  0.502355  1
  Pd  Pd23  1  0.497645  0.253172  0.497645  1
  Pd  Pd24  1  0.502355  0.746828  0.502355  1
  Pd  Pd25  1  0.497645  0.497645  0.253172  1
  Pd  Pd26  1  0.502355  0.502355  0.746828  1
  Pd  Pd27  1  0.294572  0.005269  0.005269  1
  Pd  Pd28  1  0.705428  0.994731  0.994731  1
  Pd  Pd29  1  0.005269  0.294572  0.005269  1
  Pd  Pd30  1  0.994731  0.705428  0.994731  1
  Pd  Pd31  1  0.005269  0.005269  0.294572  1
  Pd  Pd32  1  0.994731  0.994731  0.705428  1
