# generated using pymatgen
data_Ba4CrSbO8
_symmetry_space_group_name_H-M   'P 1'
_cell_length_a   7.34086442
_cell_length_b   7.34086465
_cell_length_c   5.80598900
_cell_angle_alpha   90.00000000
_cell_angle_beta   90.00000000
_cell_angle_gamma   133.38170092
_symmetry_Int_Tables_number   1
_chemical_formula_structural   Ba4CrSbO8
_chemical_formula_sum   'Ba4 Cr1 Sb1 O8'
_cell_volume   227.39557391
_cell_formula_units_Z   1
loop_
 _symmetry_equiv_pos_site_id
 _symmetry_equiv_pos_as_xyz
  1  'x, y, z'
loop_
 _atom_site_type_symbol
 _atom_site_label
 _atom_site_symmetry_multiplicity
 _atom_site_fract_x
 _atom_site_fract_y
 _atom_site_fract_z
 _atom_site_occupancy
  Ba  Ba0  1  0.353043  0.646957  0.000000  1
  Ba  Ba1  1  0.855889  0.144111  0.500000  1
  Ba  Ba2  1  0.144111  0.855889  0.500000  1
  Ba  Ba3  1  0.646957  0.353043  0.000000  1
  Cr  Cr4  1  0.000000  0.000000  0.000000  1
  Sb  Sb5  1  0.500000  0.500000  0.500000  1
  O  O6  1  0.252225  0.252225  0.745029  1
  O  O7  1  0.747775  0.747775  0.254971  1
  O  O8  1  0.747775  0.747775  0.745029  1
  O  O9  1  0.252225  0.252225  0.254971  1
  O  O10  1  0.152732  0.847268  0.000000  1
  O  O11  1  0.650034  0.349966  0.500000  1
  O  O12  1  0.349966  0.650034  0.500000  1
  O  O13  1  0.847268  0.152732  0.000000  1
