# generated using pymatgen
data_DyHf7Bi9
_symmetry_space_group_name_H-M   'P 1'
_cell_length_a   10.87762000
_cell_length_b   10.87762000
_cell_length_c   7.65962700
_cell_angle_alpha   89.99997672
_cell_angle_beta   89.99997672
_cell_angle_gamma   89.99983145
_symmetry_Int_Tables_number   1
_chemical_formula_structural   DyHf7Bi9
_chemical_formula_sum   'Dy2 Hf14 Bi18'
_cell_volume   906.30711084
_cell_formula_units_Z   2
loop_
 _symmetry_equiv_pos_site_id
 _symmetry_equiv_pos_as_xyz
  1  'x, y, z'
loop_
 _atom_site_type_symbol
 _atom_site_label
 _atom_site_symmetry_multiplicity
 _atom_site_fract_x
 _atom_site_fract_y
 _atom_site_fract_z
 _atom_site_occupancy
  Dy  Dy0  1  0.750000  0.750000  0.924455  1
  Dy  Dy1  1  0.250000  0.250000  0.075563  1
  Hf  Hf2  1  0.000000  0.500000  0.000000  1
  Hf  Hf3  1  0.500000  0.000000  0.000000  1
  Hf  Hf4  1  0.500000  0.500000  0.000000  1
  Hf  Hf5  1  0.000000  0.000000  0.999999  1
  Hf  Hf6  1  0.895634  0.249999  0.153573  1
  Hf  Hf7  1  0.604365  0.250001  0.153573  1
  Hf  Hf8  1  0.104365  0.750000  0.846427  1
  Hf  Hf9  1  0.395635  0.749999  0.846426  1
  Hf  Hf10  1  0.750000  0.104365  0.846427  1
  Hf  Hf11  1  0.749999  0.395635  0.846426  1
  Hf  Hf12  1  0.249999  0.895634  0.153573  1
  Hf  Hf13  1  0.250001  0.604365  0.153573  1
  Hf  Hf14  1  0.750000  0.750000  0.434585  1
  Hf  Hf15  1  0.250000  0.250000  0.565408  1
  Bi  Bi16  1  0.418550  0.081451  0.354659  1
  Bi  Bi17  1  0.081451  0.418550  0.354659  1
  Bi  Bi18  1  0.581451  0.581451  0.645339  1
  Bi  Bi19  1  0.918549  0.918549  0.645340  1
  Bi  Bi20  1  0.918549  0.581451  0.645340  1
  Bi  Bi21  1  0.581451  0.918549  0.645340  1
  Bi  Bi22  1  0.418550  0.418550  0.354660  1
  Bi  Bi23  1  0.081450  0.081450  0.354659  1
  Bi  Bi24  1  0.250000  0.750000  0.499999  1
  Bi  Bi25  1  0.750000  0.250000  0.499999  1
  Bi  Bi26  1  0.487375  0.250000  0.800378  1
  Bi  Bi27  1  0.012625  0.249999  0.800377  1
  Bi  Bi28  1  0.512623  0.750001  0.199622  1
  Bi  Bi29  1  0.987376  0.750001  0.199623  1
  Bi  Bi30  1  0.750001  0.512623  0.199622  1
  Bi  Bi31  1  0.750001  0.987376  0.199623  1
  Bi  Bi32  1  0.250000  0.487375  0.800378  1
  Bi  Bi33  1  0.249999  0.012625  0.800377  1
