# generated using pymatgen
data_Sb14Mo5Rh
_symmetry_space_group_name_H-M   'P 1'
_cell_length_a   8.34122765
_cell_length_b   8.34122797
_cell_length_c   8.34122872
_cell_angle_alpha   109.88677489
_cell_angle_beta   109.88677506
_cell_angle_gamma   108.64328113
_symmetry_Int_Tables_number   1
_chemical_formula_structural   Sb14Mo5Rh
_chemical_formula_sum   'Sb14 Mo5 Rh1'
_cell_volume   446.68374429
_cell_formula_units_Z   1
loop_
 _symmetry_equiv_pos_site_id
 _symmetry_equiv_pos_as_xyz
  1  'x, y, z'
loop_
 _atom_site_type_symbol
 _atom_site_label
 _atom_site_symmetry_multiplicity
 _atom_site_fract_x
 _atom_site_fract_y
 _atom_site_fract_z
 _atom_site_occupancy
  Sb  Sb0  1  0.747638  0.247638  0.500000  1
  Sb  Sb1  1  0.504553  0.252701  0.748148  1
  Sb  Sb2  1  0.504553  0.756404  0.251852  1
  Sb  Sb3  1  0.252701  0.504553  0.748148  1
  Sb  Sb4  1  0.756404  0.504553  0.251852  1
  Sb  Sb5  1  0.247638  0.747638  0.500000  1
  Sb  Sb6  1  0.325650  0.325650  0.327678  1
  Sb  Sb7  1  0.000227  0.000227  0.325011  1
  Sb  Sb8  1  0.325650  0.997972  0.000000  1
  Sb  Sb9  1  0.997972  0.325650  0.000000  1
  Sb  Sb10  1  0.675216  0.000227  0.000000  1
  Sb  Sb11  1  0.000227  0.675216  0.000000  1
  Sb  Sb12  1  0.997972  0.997972  0.672322  1
  Sb  Sb13  1  0.675216  0.675216  0.674989  1
  Mo  Mo14  1  0.999268  0.340285  0.341016  1
  Mo  Mo15  1  0.999268  0.658252  0.658984  1
  Mo  Mo16  1  0.658252  0.999268  0.658984  1
  Mo  Mo17  1  0.340285  0.999268  0.341016  1
  Mo  Mo18  1  0.651659  0.651659  0.000000  1
  Rh  Rh19  1  0.339653  0.339653  0.000000  1
