# generated using pymatgen
data_SmY3HgIr
_symmetry_space_group_name_H-M   'P 1'
_cell_length_a   9.67764885
_cell_length_b   9.67764941
_cell_length_c   9.67765000
_cell_angle_alpha   60.00000483
_cell_angle_beta   60.00000291
_cell_angle_gamma   60.00000189
_symmetry_Int_Tables_number   1
_chemical_formula_structural   SmY3HgIr
_chemical_formula_sum   'Sm4 Y12 Hg4 Ir4'
_cell_volume   640.90652071
_cell_formula_units_Z   4
loop_
 _symmetry_equiv_pos_site_id
 _symmetry_equiv_pos_as_xyz
  1  'x, y, z'
loop_
 _atom_site_type_symbol
 _atom_site_label
 _atom_site_symmetry_multiplicity
 _atom_site_fract_x
 _atom_site_fract_y
 _atom_site_fract_z
 _atom_site_occupancy
  Sm  Sm0  1  0.601772  0.601772  0.601772  1
  Sm  Sm1  1  0.601772  0.601772  0.194684  1
  Sm  Sm2  1  0.601772  0.194684  0.601772  1
  Sm  Sm3  1  0.194684  0.601772  0.601772  1
  Y  Y4  1  0.060253  0.439747  0.439747  1
  Y  Y5  1  0.439747  0.060253  0.060253  1
  Y  Y6  1  0.439747  0.060253  0.439747  1
  Y  Y7  1  0.060253  0.439747  0.060253  1
  Y  Y8  1  0.439747  0.439747  0.060253  1
  Y  Y9  1  0.060253  0.060253  0.439747  1
  Y  Y10  1  0.188188  0.811812  0.811812  1
  Y  Y11  1  0.811812  0.188188  0.188188  1
  Y  Y12  1  0.811812  0.188188  0.811812  1
  Y  Y13  1  0.188188  0.811812  0.188188  1
  Y  Y14  1  0.811812  0.811812  0.188188  1
  Y  Y15  1  0.188188  0.188188  0.811812  1
  Hg  Hg16  1  0.835349  0.835349  0.835349  1
  Hg  Hg17  1  0.835349  0.835349  0.493953  1
  Hg  Hg18  1  0.835349  0.493953  0.835349  1
  Hg  Hg19  1  0.493953  0.835349  0.835349  1
  Ir  Ir20  1  0.391261  0.391261  0.391261  1
  Ir  Ir21  1  0.391261  0.391261  0.826218  1
  Ir  Ir22  1  0.391261  0.826218  0.391261  1
  Ir  Ir23  1  0.826218  0.391261  0.391261  1
