# generated using pymatgen
data_NdSm2Pt9
_symmetry_space_group_name_H-M   'P 1'
_cell_length_a   9.45933183
_cell_length_b   9.45933197
_cell_length_c   9.45933100
_cell_angle_alpha   33.51220594
_cell_angle_beta   33.51220125
_cell_angle_gamma   33.51220780
_symmetry_Int_Tables_number   1
_chemical_formula_structural   NdSm2Pt9
_chemical_formula_sum   'Nd1 Sm2 Pt9'
_cell_volume   229.80028289
_cell_formula_units_Z   1
loop_
 _symmetry_equiv_pos_site_id
 _symmetry_equiv_pos_as_xyz
  1  'x, y, z'
loop_
 _atom_site_type_symbol
 _atom_site_label
 _atom_site_symmetry_multiplicity
 _atom_site_fract_x
 _atom_site_fract_y
 _atom_site_fract_z
 _atom_site_occupancy
  Nd  Nd0  1  0.000000  0.000000  0.000000  1
  Sm  Sm1  1  0.139218  0.139218  0.139218  1
  Sm  Sm2  1  0.860782  0.860782  0.860782  1
  Pt  Pt3  1  0.586935  0.586935  0.080650  1
  Pt  Pt4  1  0.333022  0.333022  0.333022  1
  Pt  Pt5  1  0.919350  0.413065  0.413065  1
  Pt  Pt6  1  0.413065  0.919350  0.413065  1
  Pt  Pt7  1  0.500000  0.500000  0.500000  1
  Pt  Pt8  1  0.586935  0.080650  0.586935  1
  Pt  Pt9  1  0.080650  0.586935  0.586935  1
  Pt  Pt10  1  0.666978  0.666978  0.666978  1
  Pt  Pt11  1  0.413065  0.413065  0.919350  1
