# generated using pymatgen
data_Ta12Al8CrRh3C4
_symmetry_space_group_name_H-M   'P 1'
_cell_length_a   8.32113652
_cell_length_b   8.32104658
_cell_length_c   8.32101366
_cell_angle_alpha   59.71843842
_cell_angle_beta   59.71899113
_cell_angle_gamma   59.71904663
_symmetry_Int_Tables_number   1
_chemical_formula_structural   Ta12Al8CrRh3C4
_chemical_formula_sum   'Ta12 Al8 Cr1 Rh3 C4'
_cell_volume   404.79905601
_cell_formula_units_Z   1
loop_
 _symmetry_equiv_pos_site_id
 _symmetry_equiv_pos_as_xyz
  1  'x, y, z'
loop_
 _atom_site_type_symbol
 _atom_site_label
 _atom_site_symmetry_multiplicity
 _atom_site_fract_x
 _atom_site_fract_y
 _atom_site_fract_z
 _atom_site_occupancy
  Ta  Ta0  1  0.563669  0.936683  0.563668  1
  Ta  Ta1  1  0.313320  0.686329  0.686329  1
  Ta  Ta2  1  0.700462  0.307085  0.307085  1
  Ta  Ta3  1  0.307087  0.700460  0.307085  1
  Ta  Ta4  1  0.686330  0.686332  0.313318  1
  Ta  Ta5  1  0.307087  0.307085  0.700461  1
  Ta  Ta6  1  0.563670  0.563668  0.936682  1
  Ta  Ta7  1  0.936680  0.563671  0.563671  1
  Ta  Ta8  1  0.549538  0.942915  0.942915  1
  Ta  Ta9  1  0.942913  0.942915  0.549539  1
  Ta  Ta10  1  0.686331  0.313317  0.686332  1
  Ta  Ta11  1  0.942913  0.549540  0.942915  1
  Al  Al12  1  0.914755  0.914755  0.914755  1
  Al  Al13  1  0.002163  0.332812  0.332812  1
  Al  Al14  1  0.332810  0.002168  0.332810  1
  Al  Al15  1  0.332810  0.332810  0.002169  1
  Al  Al16  1  0.917190  0.247832  0.917190  1
  Al  Al17  1  0.917190  0.917190  0.247831  1
  Al  Al18  1  0.247837  0.917188  0.917188  1
  Al  Al19  1  0.335245  0.335245  0.335245  1
  Cr  Cr20  1  0.125000  0.125000  0.125000  1
  Rh  Rh21  1  0.625000  0.125000  0.125000  1
  Rh  Rh22  1  0.125000  0.625000  0.125000  1
  Rh  Rh23  1  0.125000  0.125000  0.625000  1
  C  C24  1  0.625000  0.625000  0.625000  1
  C  C25  1  0.125000  0.625000  0.625000  1
  C  C26  1  0.625000  0.125000  0.625000  1
  C  C27  1  0.625000  0.625000  0.125000  1
