# generated using pymatgen
data_Tm16CdCo4Ag3
_symmetry_space_group_name_H-M   'P 1'
_cell_length_a   9.31632599
_cell_length_b   9.31906839
_cell_length_c   9.31884100
_cell_angle_alpha   59.99817325
_cell_angle_beta   59.98825276
_cell_angle_gamma   59.98933688
_symmetry_Int_Tables_number   1
_chemical_formula_structural   Tm16CdCo4Ag3
_chemical_formula_sum   'Tm16 Cd1 Co4 Ag3'
_cell_volume   571.98482900
_cell_formula_units_Z   1
loop_
 _symmetry_equiv_pos_site_id
 _symmetry_equiv_pos_as_xyz
  1  'x, y, z'
loop_
 _atom_site_type_symbol
 _atom_site_label
 _atom_site_symmetry_multiplicity
 _atom_site_fract_x
 _atom_site_fract_y
 _atom_site_fract_z
 _atom_site_occupancy
  Tm  Tm0  1  0.346724  0.347168  0.347191  1
  Tm  Tm1  1  0.346753  0.347196  0.958896  1
  Tm  Tm2  1  0.346745  0.958897  0.347209  1
  Tm  Tm3  1  0.956548  0.347822  0.347846  1
  Tm  Tm4  1  0.812207  0.187842  0.187845  1
  Tm  Tm5  1  0.187042  0.812777  0.812734  1
  Tm  Tm6  1  0.187053  0.812715  0.187461  1
  Tm  Tm7  1  0.812273  0.187834  0.812063  1
  Tm  Tm8  1  0.187047  0.187455  0.812701  1
  Tm  Tm9  1  0.812247  0.812079  0.187840  1
  Tm  Tm10  1  0.935101  0.562739  0.562749  1
  Tm  Tm11  1  0.561321  0.938061  0.938060  1
  Tm  Tm12  1  0.561298  0.938068  0.562565  1
  Tm  Tm13  1  0.935091  0.562764  0.939400  1
  Tm  Tm14  1  0.561304  0.562564  0.938067  1
  Tm  Tm15  1  0.935098  0.939407  0.562763  1
  Cd  Cd16  1  0.266081  0.577973  0.577983  1
  Co  Co17  1  0.141244  0.141415  0.141410  1
  Co  Co18  1  0.141252  0.141413  0.575919  1
  Co  Co19  1  0.141248  0.575924  0.141410  1
  Co  Co20  1  0.576857  0.141050  0.141042  1
  Ag  Ag21  1  0.583160  0.581874  0.581877  1
  Ag  Ag22  1  0.583157  0.581874  0.253095  1
  Ag  Ag23  1  0.583157  0.253092  0.581876  1
