# generated using pymatgen
data_Ho9ErIn8(PdPt)2
_symmetry_space_group_name_H-M   'P 1'
_cell_length_a   3.61687300
_cell_length_b   8.13607797
_cell_length_c   18.23403853
_cell_angle_alpha   90.10787182
_cell_angle_beta   90.00000000
_cell_angle_gamma   90.00000000
_symmetry_Int_Tables_number   1
_chemical_formula_structural   Ho9ErIn8(PdPt)2
_chemical_formula_sum   'Ho9 Er1 In8 Pd2 Pt2'
_cell_volume   536.57503158
_cell_formula_units_Z   1
loop_
 _symmetry_equiv_pos_site_id
 _symmetry_equiv_pos_as_xyz
  1  'x, y, z'
loop_
 _atom_site_type_symbol
 _atom_site_label
 _atom_site_symmetry_multiplicity
 _atom_site_fract_x
 _atom_site_fract_y
 _atom_site_fract_z
 _atom_site_occupancy
  Ho  Ho0  1  0.000000  0.117775  0.415807  1
  Ho  Ho1  1  0.000000  0.882157  0.584095  1
  Ho  Ho2  1  0.000000  0.382751  0.915274  1
  Ho  Ho3  1  0.000000  0.617275  0.084815  1
  Ho  Ho4  1  0.000000  0.247067  0.219547  1
  Ho  Ho5  1  0.000000  0.752998  0.780459  1
  Ho  Ho6  1  0.000000  0.260969  0.720520  1
  Ho  Ho7  1  0.000000  0.000013  0.000029  1
  Ho  Ho8  1  0.000000  0.499994  0.499979  1
  Er  Er9  1  0.000000  0.739084  0.279386  1
  In  In10  1  0.500000  0.421822  0.351402  1
  In  In11  1  0.500000  0.578440  0.648505  1
  In  In12  1  0.500000  0.074648  0.850304  1
  In  In13  1  0.500000  0.925082  0.149889  1
  In  In14  1  0.500000  0.291853  0.066390  1
  In  In15  1  0.500000  0.708221  0.933634  1
  In  In16  1  0.500000  0.207217  0.567266  1
  In  In17  1  0.500000  0.792712  0.432507  1
  Pd  Pd18  1  0.500000  0.023952  0.303738  1
  Pd  Pd19  1  0.500000  0.975107  0.696159  1
  Pt  Pt20  1  0.500000  0.474722  0.803683  1
  Pt  Pt21  1  0.500000  0.526144  0.196612  1
