# generated using pymatgen
data_Hf8Ta12ZnSi15
_symmetry_space_group_name_H-M   'P 1'
_cell_length_a   6.67589343
_cell_length_b   6.84667023
_cell_length_c   13.04339900
_cell_angle_alpha   90.00000000
_cell_angle_beta   90.00000000
_cell_angle_gamma   89.91627597
_symmetry_Int_Tables_number   1
_chemical_formula_structural   Hf8Ta12ZnSi15
_chemical_formula_sum   'Hf8 Ta12 Zn1 Si15'
_cell_volume   596.18235970
_cell_formula_units_Z   1
loop_
 _symmetry_equiv_pos_site_id
 _symmetry_equiv_pos_as_xyz
  1  'x, y, z'
loop_
 _atom_site_type_symbol
 _atom_site_label
 _atom_site_symmetry_multiplicity
 _atom_site_fract_x
 _atom_site_fract_y
 _atom_site_fract_z
 _atom_site_occupancy
  Hf  Hf0  1  0.494916  0.673321  0.593662  1
  Hf  Hf1  1  0.993743  0.826354  0.907651  1
  Hf  Hf2  1  0.502533  0.326861  0.092061  1
  Hf  Hf3  1  0.007130  0.170581  0.407955  1
  Hf  Hf4  1  0.502533  0.326861  0.407939  1
  Hf  Hf5  1  0.007130  0.170581  0.092045  1
  Hf  Hf6  1  0.494916  0.673321  0.906338  1
  Hf  Hf7  1  0.993743  0.826354  0.592349  1
  Ta  Ta8  1  0.662790  0.170846  0.623796  1
  Ta  Ta9  1  0.163561  0.328942  0.876370  1
  Ta  Ta10  1  0.336775  0.828218  0.124225  1
  Ta  Ta11  1  0.838281  0.675602  0.376766  1
  Ta  Ta12  1  0.336775  0.828218  0.375775  1
  Ta  Ta13  1  0.838281  0.675602  0.123234  1
  Ta  Ta14  1  0.662790  0.170846  0.876204  1
  Ta  Ta15  1  0.163561  0.328942  0.623630  1
  Ta  Ta16  1  0.836532  0.496637  0.750000  1
  Ta  Ta17  1  0.337404  0.003630  0.750000  1
  Ta  Ta18  1  0.166651  0.508182  0.250000  1
  Ta  Ta19  1  0.660108  0.991778  0.250000  1
  Zn  Zn20  1  0.797259  0.354803  0.250000  1
  Si  Si21  1  0.671741  0.965921  0.460682  1
  Si  Si22  1  0.171327  0.535433  0.039443  1
  Si  Si23  1  0.327752  0.035337  0.960955  1
  Si  Si24  1  0.826801  0.463342  0.537998  1
  Si  Si25  1  0.327752  0.035337  0.539045  1
  Si  Si26  1  0.826801  0.463342  0.962002  1
  Si  Si27  1  0.671741  0.965921  0.039318  1
  Si  Si28  1  0.171327  0.535433  0.460557  1
  Si  Si29  1  0.460976  0.389168  0.750000  1
  Si  Si30  1  0.960912  0.112293  0.750000  1
  Si  Si31  1  0.543698  0.609160  0.250000  1
  Si  Si32  1  0.038170  0.890351  0.250000  1
  Si  Si33  1  0.703489  0.860505  0.750000  1
  Si  Si34  1  0.201945  0.640567  0.750000  1
  Si  Si35  1  0.298153  0.141410  0.250000  1
