# generated using pymatgen
data_Dy8Ho10Sc2Si15Rh
_symmetry_space_group_name_H-M   'P 1'
_cell_length_a   7.24710238
_cell_length_b   7.71710765
_cell_length_c   14.44449200
_cell_angle_alpha   90.00000000
_cell_angle_beta   90.00000000
_cell_angle_gamma   90.08924072
_symmetry_Int_Tables_number   1
_chemical_formula_structural   Dy8Ho10Sc2Si15Rh
_chemical_formula_sum   'Dy8 Ho10 Sc2 Si15 Rh1'
_cell_volume   807.83134678
_cell_formula_units_Z   1
loop_
 _symmetry_equiv_pos_site_id
 _symmetry_equiv_pos_as_xyz
  1  'x, y, z'
loop_
 _atom_site_type_symbol
 _atom_site_label
 _atom_site_symmetry_multiplicity
 _atom_site_fract_x
 _atom_site_fract_y
 _atom_site_fract_z
 _atom_site_occupancy
  Dy  Dy0  1  0.016701  0.183760  0.097997  1
  Dy  Dy1  1  0.984936  0.820470  0.908778  1
  Dy  Dy2  1  0.483778  0.681762  0.907231  1
  Dy  Dy3  1  0.984936  0.820470  0.591222  1
  Dy  Dy4  1  0.516460  0.317769  0.097989  1
  Dy  Dy5  1  0.016701  0.183760  0.402003  1
  Dy  Dy6  1  0.516460  0.317769  0.402011  1
  Dy  Dy7  1  0.483778  0.681762  0.592769  1
  Ho  Ho8  1  0.155423  0.518406  0.750000  1
  Ho  Ho9  1  0.668722  0.988320  0.750000  1
  Ho  Ho10  1  0.315052  0.173731  0.625485  1
  Ho  Ho11  1  0.676722  0.824080  0.372492  1
  Ho  Ho12  1  0.175550  0.679596  0.372355  1
  Ho  Ho13  1  0.676722  0.824080  0.127508  1
  Ho  Ho14  1  0.831013  0.319464  0.624073  1
  Ho  Ho15  1  0.315052  0.173731  0.874515  1
  Ho  Ho16  1  0.831013  0.319464  0.875927  1
  Ho  Ho17  1  0.175550  0.679596  0.127645  1
  Sc  Sc18  1  0.840092  0.483464  0.250000  1
  Sc  Sc19  1  0.341553  0.018652  0.250000  1
  Si  Si20  1  0.978650  0.908193  0.250000  1
  Si  Si21  1  0.479082  0.594989  0.250000  1
  Si  Si22  1  0.527858  0.395962  0.750000  1
  Si  Si23  1  0.279496  0.866416  0.750000  1
  Si  Si24  1  0.716803  0.136922  0.250000  1
  Si  Si25  1  0.217735  0.364841  0.250000  1
  Si  Si26  1  0.768419  0.624188  0.750000  1
  Si  Si27  1  0.157481  0.471552  0.535291  1
  Si  Si28  1  0.845065  0.530715  0.458946  1
  Si  Si29  1  0.345262  0.970770  0.458527  1
  Si  Si30  1  0.845065  0.530715  0.041054  1
  Si  Si31  1  0.653206  0.031142  0.536360  1
  Si  Si32  1  0.157481  0.471552  0.964709  1
  Si  Si33  1  0.653206  0.031142  0.963640  1
  Si  Si34  1  0.345262  0.970770  0.041473  1
  Rh  Rh35  1  0.023709  0.090021  0.750000  1
