# generated using pymatgen
data_Yb4CrSiN6
_symmetry_space_group_name_H-M   'P 1'
_cell_length_a   5.81967685
_cell_length_b   5.81967679
_cell_length_c   11.47843604
_cell_angle_alpha   89.66414700
_cell_angle_beta   90.33585209
_cell_angle_gamma   125.54967442
_symmetry_Int_Tables_number   1
_chemical_formula_structural   Yb4CrSiN6
_chemical_formula_sum   'Yb8 Cr2 Si2 N12'
_cell_volume   316.29201771
_cell_formula_units_Z   2
loop_
 _symmetry_equiv_pos_site_id
 _symmetry_equiv_pos_as_xyz
  1  'x, y, z'
loop_
 _atom_site_type_symbol
 _atom_site_label
 _atom_site_symmetry_multiplicity
 _atom_site_fract_x
 _atom_site_fract_y
 _atom_site_fract_z
 _atom_site_occupancy
  Yb  Yb0  1  0.552001  0.447999  0.651564  1
  Yb  Yb1  1  0.447999  0.552001  0.348436  1
  Yb  Yb2  1  0.951308  0.048692  0.137109  1
  Yb  Yb3  1  0.048692  0.951308  0.862891  1
  Yb  Yb4  1  0.859426  0.140574  0.579193  1
  Yb  Yb5  1  0.140574  0.859426  0.420807  1
  Yb  Yb6  1  0.638338  0.361662  0.075228  1
  Yb  Yb7  1  0.361662  0.638338  0.924772  1
  Cr  Cr8  1  0.753501  0.246499  0.337419  1
  Cr  Cr9  1  0.246499  0.753501  0.662581  1
  Si  Si10  1  0.742224  0.257776  0.844669  1
  Si  Si11  1  0.257776  0.742224  0.155331  1
  N  N12  1  0.845813  0.154187  0.959905  1
  N  N13  1  0.154187  0.845813  0.040095  1
  N  N14  1  0.658875  0.341125  0.461532  1
  N  N15  1  0.341125  0.658875  0.538468  1
  N  N16  1  0.578191  0.421809  0.862002  1
  N  N17  1  0.421809  0.578191  0.137998  1
  N  N18  1  0.917254  0.082746  0.369321  1
  N  N19  1  0.082746  0.917254  0.630679  1
  N  N20  1  0.544710  0.969513  0.747716  1
  N  N21  1  0.969513  0.544710  0.252284  1
  N  N22  1  0.455290  0.030487  0.252284  1
  N  N23  1  0.030487  0.455290  0.747716  1
