# generated using pymatgen
data_PrMn2P6BrN12
_symmetry_space_group_name_H-M   'P 1'
_cell_length_a   7.40783279
_cell_length_b   7.40390979
_cell_length_c   7.40783303
_cell_angle_alpha   109.66862845
_cell_angle_beta   109.43302083
_cell_angle_gamma   109.66861571
_symmetry_Int_Tables_number   1
_chemical_formula_structural   PrMn2P6BrN12
_chemical_formula_sum   'Pr1 Mn2 P6 Br1 N12'
_cell_volume   311.38207917
_cell_formula_units_Z   1
loop_
 _symmetry_equiv_pos_site_id
 _symmetry_equiv_pos_as_xyz
  1  'x, y, z'
loop_
 _atom_site_type_symbol
 _atom_site_label
 _atom_site_symmetry_multiplicity
 _atom_site_fract_x
 _atom_site_fract_y
 _atom_site_fract_z
 _atom_site_occupancy
  Pr  Pr0  1  0.013283  0.335867  0.013283  1
  Mn  Mn1  1  0.003213  0.008177  0.391103  1
  Mn  Mn2  1  0.391103  0.008177  0.003213  1
  P  P3  1  0.498060  0.260787  0.745493  1
  P  P4  1  0.249927  0.755717  0.499332  1
  P  P5  1  0.743135  0.507181  0.259107  1
  P  P6  1  0.745493  0.260787  0.498060  1
  P  P7  1  0.499332  0.755717  0.249927  1
  P  P8  1  0.259107  0.507181  0.743135  1
  Br  Br9  1  0.008233  0.936217  0.008233  1
  N  N10  1  0.387716  0.686618  0.387716  1
  N  N11  1  0.697738  0.423381  0.419766  1
  N  N12  1  0.419766  0.423381  0.697738  1
  N  N13  1  0.711516  0.285355  0.711516  1
  N  N14  1  0.992855  0.581025  0.295467  1
  N  N15  1  0.295467  0.581025  0.992855  1
  N  N16  1  0.283039  0.004972  0.572898  1
  N  N17  1  0.998718  0.289658  0.577706  1
  N  N18  1  0.717881  0.727071  0.293812  1
  N  N19  1  0.572898  0.004972  0.283039  1
  N  N20  1  0.293812  0.727071  0.717881  1
  N  N21  1  0.577706  0.289658  0.998718  1
