# generated using pymatgen
data_Tb(AlB14)2
_symmetry_space_group_name_H-M   'P 1'
_cell_length_a   7.22670679
_cell_length_b   7.22670573
_cell_length_c   5.82716906
_cell_angle_alpha   66.44879760
_cell_angle_beta   66.44880521
_cell_angle_gamma   92.29096837
_symmetry_Int_Tables_number   1
_chemical_formula_structural   Tb(AlB14)2
_chemical_formula_sum   'Tb1 Al2 B28'
_cell_volume   248.41767118
_cell_formula_units_Z   1
loop_
 _symmetry_equiv_pos_site_id
 _symmetry_equiv_pos_as_xyz
  1  'x, y, z'
loop_
 _atom_site_type_symbol
 _atom_site_label
 _atom_site_symmetry_multiplicity
 _atom_site_fract_x
 _atom_site_fract_y
 _atom_site_fract_z
 _atom_site_occupancy
  Tb  Tb0  1  0.891251  0.891251  0.357526  1
  Al  Al1  1  0.499059  0.499059  0.503797  1
  Al  Al2  1  0.158887  0.158887  0.496716  1
  B  B3  1  0.417220  0.736792  0.171385  1
  B  B4  1  0.583543  0.258107  0.834507  1
  B  B5  1  0.258107  0.583543  0.834507  1
  B  B6  1  0.736792  0.417220  0.171385  1
  B  B7  1  0.694394  0.860845  0.973119  1
  B  B8  1  0.305345  0.134912  0.035182  1
  B  B9  1  0.134912  0.305345  0.035182  1
  B  B10  1  0.860845  0.694394  0.973119  1
  B  B11  1  0.533824  0.872488  0.299605  1
  B  B12  1  0.469844  0.124003  0.205323  1
  B  B13  1  0.124003  0.469844  0.205323  1
  B  B14  1  0.872488  0.533824  0.299605  1
  B  B15  1  0.462266  0.121573  0.711615  1
  B  B16  1  0.531885  0.870495  0.801003  1
  B  B17  1  0.870495  0.531885  0.801003  1
  B  B18  1  0.121573  0.462266  0.711615  1
  B  B19  1  0.722987  0.100124  0.999705  1
  B  B20  1  0.279679  0.893408  0.325963  1
  B  B21  1  0.893408  0.279679  0.325963  1
  B  B22  1  0.100124  0.722987  0.999705  1
  B  B23  1  0.277027  0.895820  0.008191  1
  B  B24  1  0.719861  0.100820  0.684994  1
  B  B25  1  0.100820  0.719861  0.684994  1
  B  B26  1  0.895820  0.277027  0.008191  1
  B  B27  1  0.271718  0.473791  0.379517  1
  B  B28  1  0.716674  0.521359  0.640872  1
  B  B29  1  0.521359  0.716674  0.640872  1
  B  B30  1  0.473791  0.271718  0.379517  1
