# generated using pymatgen
data_CeDy7(HgIr)2
_symmetry_space_group_name_H-M   'P 1'
_cell_length_a   9.60181152
_cell_length_b   9.60181267
_cell_length_c   9.63778600
_cell_angle_alpha   59.87598181
_cell_angle_beta   59.87597782
_cell_angle_gamma   59.84205925
_symmetry_Int_Tables_number   1
_chemical_formula_structural   CeDy7(HgIr)2
_chemical_formula_sum   'Ce2 Dy14 Hg4 Ir4'
_cell_volume   626.37281236
_cell_formula_units_Z   2
loop_
 _symmetry_equiv_pos_site_id
 _symmetry_equiv_pos_as_xyz
  1  'x, y, z'
loop_
 _atom_site_type_symbol
 _atom_site_label
 _atom_site_symmetry_multiplicity
 _atom_site_fract_x
 _atom_site_fract_y
 _atom_site_fract_z
 _atom_site_occupancy
  Ce  Ce0  1  0.597549  0.597549  0.599743  1
  Ce  Ce1  1  0.597549  0.597549  0.205159  1
  Dy  Dy2  1  0.603401  0.192808  0.601896  1
  Dy  Dy3  1  0.192808  0.603401  0.601896  1
  Dy  Dy4  1  0.060955  0.439287  0.440702  1
  Dy  Dy5  1  0.439287  0.060955  0.059056  1
  Dy  Dy6  1  0.439287  0.060955  0.440702  1
  Dy  Dy7  1  0.060955  0.439287  0.059056  1
  Dy  Dy8  1  0.438781  0.438781  0.061219  1
  Dy  Dy9  1  0.060701  0.060701  0.439299  1
  Dy  Dy10  1  0.189658  0.812053  0.812591  1
  Dy  Dy11  1  0.812053  0.189658  0.185698  1
  Dy  Dy12  1  0.812053  0.189658  0.812591  1
  Dy  Dy13  1  0.189658  0.812053  0.185698  1
  Dy  Dy14  1  0.812405  0.812405  0.187595  1
  Dy  Dy15  1  0.189324  0.189324  0.810676  1
  Hg  Hg16  1  0.834747  0.834747  0.834758  1
  Hg  Hg17  1  0.834747  0.834747  0.495747  1
  Hg  Hg18  1  0.834969  0.492635  0.836198  1
  Hg  Hg19  1  0.492635  0.834969  0.836198  1
  Ir  Ir20  1  0.393884  0.393884  0.390682  1
  Ir  Ir21  1  0.393884  0.393884  0.821551  1
  Ir  Ir22  1  0.396779  0.821929  0.390646  1
  Ir  Ir23  1  0.821929  0.396779  0.390646  1
