# generated using pymatgen
data_Yb2Dy2Si3Rh4
_symmetry_space_group_name_H-M   'P 1'
_cell_length_a   10.69389857
_cell_length_b   10.69389951
_cell_length_c   7.70411600
_cell_angle_alpha   71.22047552
_cell_angle_beta   71.22047380
_cell_angle_gamma   29.81266845
_symmetry_Int_Tables_number   1
_chemical_formula_structural   Yb2Dy2Si3Rh4
_chemical_formula_sum   'Yb4 Dy4 Si6 Rh8'
_cell_volume   413.00159404
_cell_formula_units_Z   2
loop_
 _symmetry_equiv_pos_site_id
 _symmetry_equiv_pos_as_xyz
  1  'x, y, z'
loop_
 _atom_site_type_symbol
 _atom_site_label
 _atom_site_symmetry_multiplicity
 _atom_site_fract_x
 _atom_site_fract_y
 _atom_site_fract_z
 _atom_site_occupancy
  Yb  Yb0  1  0.795751  0.072590  0.166079  1
  Yb  Yb1  1  0.927410  0.204249  0.333921  1
  Yb  Yb2  1  0.204249  0.927410  0.833921  1
  Yb  Yb3  1  0.072590  0.795751  0.666079  1
  Dy  Dy4  1  0.785826  0.552155  0.598803  1
  Dy  Dy5  1  0.447845  0.214174  0.901197  1
  Dy  Dy6  1  0.214174  0.447845  0.401197  1
  Dy  Dy7  1  0.552155  0.785826  0.098803  1
  Si  Si8  1  0.953654  0.701324  0.057600  1
  Si  Si9  1  0.298676  0.046346  0.442400  1
  Si  Si10  1  0.046346  0.298676  0.942400  1
  Si  Si11  1  0.701324  0.953654  0.557600  1
  Si  Si12  1  0.610354  0.389646  0.750000  1
  Si  Si13  1  0.389646  0.610354  0.250000  1
  Rh  Rh14  1  0.574753  0.300345  0.526892  1
  Rh  Rh15  1  0.699655  0.425247  0.973108  1
  Rh  Rh16  1  0.425247  0.699655  0.473108  1
  Rh  Rh17  1  0.300345  0.574753  0.026892  1
  Rh  Rh18  1  0.630069  0.927969  0.309955  1
  Rh  Rh19  1  0.072031  0.369931  0.190045  1
  Rh  Rh20  1  0.369931  0.072031  0.690045  1
  Rh  Rh21  1  0.927969  0.630069  0.809955  1
