# generated using pymatgen
data_Y4Si10Os5Ru
_symmetry_space_group_name_H-M   'P 1'
_cell_length_a   8.26019583
_cell_length_b   8.26019675
_cell_length_c   8.26022057
_cell_angle_alpha   139.96729830
_cell_angle_beta   108.38486315
_cell_angle_gamma   85.34941243
_symmetry_Int_Tables_number   1
_chemical_formula_structural   Y4Si10Os5Ru
_chemical_formula_sum   'Y4 Si10 Os5 Ru1'
_cell_volume   331.92663683
_cell_formula_units_Z   1
loop_
 _symmetry_equiv_pos_site_id
 _symmetry_equiv_pos_as_xyz
  1  'x, y, z'
loop_
 _atom_site_type_symbol
 _atom_site_label
 _atom_site_symmetry_multiplicity
 _atom_site_fract_x
 _atom_site_fract_y
 _atom_site_fract_z
 _atom_site_occupancy
  Y  Y0  1  0.903948  0.136463  0.768321  1
  Y  Y1  1  0.096052  0.864377  0.232520  1
  Y  Y2  1  0.631858  0.363532  0.267480  1
  Y  Y3  1  0.368142  0.635627  0.731679  1
  Si  Si4  1  0.000000  0.750000  0.750000  1
  Si  Si5  1  0.999999  0.249999  0.250000  1
  Si  Si6  1  0.708028  0.458028  0.750000  1
  Si  Si7  1  0.291972  0.041972  0.750000  1
  Si  Si8  1  0.292394  0.542394  0.250000  1
  Si  Si9  1  0.707607  0.957607  0.250000  1
  Si  Si10  1  0.236508  0.405142  0.832541  1
  Si  Si11  1  0.572600  0.903968  0.667459  1
  Si  Si12  1  0.427399  0.094866  0.331373  1
  Si  Si13  1  0.763493  0.596025  0.168627  1
  Os  Os14  1  0.757590  0.853349  0.904269  1
  Os  Os15  1  0.499999  0.249999  0.750000  1
  Os  Os16  1  0.949082  0.353322  0.595731  1
  Os  Os17  1  0.050918  0.646646  0.404237  1
  Os  Os18  1  0.242410  0.146682  0.095763  1
  Ru  Ru19  1  0.500001  0.750001  0.250000  1
