# generated using pymatgen
data_Tb7Er(Sc3Sn4)4
_symmetry_space_group_name_H-M   'P 1'
_cell_length_a   7.70565329
_cell_length_b   7.96700314
_cell_length_c   14.86328733
_cell_angle_alpha   90.00227674
_cell_angle_beta   89.97619749
_cell_angle_gamma   90.02126852
_symmetry_Int_Tables_number   1
_chemical_formula_structural   Tb7Er(Sc3Sn4)4
_chemical_formula_sum   'Tb7 Er1 Sc12 Sn16'
_cell_volume   912.47139497
_cell_formula_units_Z   1
loop_
 _symmetry_equiv_pos_site_id
 _symmetry_equiv_pos_as_xyz
  1  'x, y, z'
loop_
 _atom_site_type_symbol
 _atom_site_label
 _atom_site_symmetry_multiplicity
 _atom_site_fract_x
 _atom_site_fract_y
 _atom_site_fract_z
 _atom_site_occupancy
  Tb  Tb0  1  0.994587  0.176780  0.094299  1
  Tb  Tb1  1  0.005275  0.823045  0.905367  1
  Tb  Tb2  1  0.504930  0.676948  0.906109  1
  Tb  Tb3  1  0.005290  0.822990  0.594263  1
  Tb  Tb4  1  0.494801  0.323227  0.094274  1
  Tb  Tb5  1  0.995015  0.176687  0.406058  1
  Tb  Tb6  1  0.494473  0.323359  0.405988  1
  Er  Er7  1  0.506273  0.677145  0.594109  1
  Sc  Sc8  1  0.165601  0.496334  0.749771  1
  Sc  Sc9  1  0.834326  0.504174  0.250138  1
  Sc  Sc10  1  0.334409  0.995897  0.250118  1
  Sc  Sc11  1  0.665577  0.003996  0.749874  1
  Sc  Sc12  1  0.336853  0.161355  0.627416  1
  Sc  Sc13  1  0.662916  0.838229  0.372640  1
  Sc  Sc14  1  0.162799  0.661189  0.372683  1
  Sc  Sc15  1  0.663174  0.838951  0.127453  1
  Sc  Sc16  1  0.836872  0.338900  0.627141  1
  Sc  Sc17  1  0.336750  0.161008  0.872394  1
  Sc  Sc18  1  0.836370  0.338856  0.872512  1
  Sc  Sc19  1  0.163266  0.661358  0.127443  1
  Sn  Sn20  1  0.028215  0.124873  0.749960  1
  Sn  Sn21  1  0.971918  0.875065  0.250155  1
  Sn  Sn22  1  0.471833  0.624912  0.249965  1
  Sn  Sn23  1  0.527998  0.375875  0.749938  1
  Sn  Sn24  1  0.308641  0.849498  0.749296  1
  Sn  Sn25  1  0.692218  0.149644  0.250054  1
  Sn  Sn26  1  0.192156  0.350420  0.250046  1
  Sn  Sn27  1  0.806564  0.649657  0.749580  1
  Sn  Sn28  1  0.182193  0.458052  0.542652  1
  Sn  Sn29  1  0.818816  0.543062  0.457765  1
  Sn  Sn30  1  0.320311  0.956451  0.457610  1
  Sn  Sn31  1  0.819950  0.543168  0.042577  1
  Sn  Sn32  1  0.679828  0.041829  0.542716  1
  Sn  Sn33  1  0.179772  0.456887  0.957504  1
  Sn  Sn34  1  0.680309  0.042974  0.957519  1
  Sn  Sn35  1  0.319722  0.957205  0.042615  1
