# generated using pymatgen
data_ScTcNi4P3
_symmetry_space_group_name_H-M   'P 1'
_cell_length_a   3.63008000
_cell_length_b   10.44241100
_cell_length_c   11.87386100
_cell_angle_alpha   90.00000000
_cell_angle_beta   90.00000000
_cell_angle_gamma   90.00000000
_symmetry_Int_Tables_number   1
_chemical_formula_structural   ScTcNi4P3
_chemical_formula_sum   'Sc4 Tc4 Ni16 P12'
_cell_volume   450.09992363
_cell_formula_units_Z   4
loop_
 _symmetry_equiv_pos_site_id
 _symmetry_equiv_pos_as_xyz
  1  'x, y, z'
loop_
 _atom_site_type_symbol
 _atom_site_label
 _atom_site_symmetry_multiplicity
 _atom_site_fract_x
 _atom_site_fract_y
 _atom_site_fract_z
 _atom_site_occupancy
  Sc  Sc0  1  0.250000  0.587495  0.706711  1
  Sc  Sc1  1  0.250000  0.912505  0.206711  1
  Sc  Sc2  1  0.750000  0.412505  0.293289  1
  Sc  Sc3  1  0.750000  0.087495  0.793289  1
  Tc  Tc4  1  0.250000  0.715035  0.989439  1
  Tc  Tc5  1  0.250000  0.784965  0.489439  1
  Tc  Tc6  1  0.750000  0.284965  0.010561  1
  Tc  Tc7  1  0.750000  0.215035  0.510561  1
  Ni  Ni8  1  0.250000  0.412000  0.485281  1
  Ni  Ni9  1  0.250000  0.088000  0.985281  1
  Ni  Ni10  1  0.750000  0.588000  0.514719  1
  Ni  Ni11  1  0.750000  0.912000  0.014719  1
  Ni  Ni12  1  0.250000  0.222909  0.180353  1
  Ni  Ni13  1  0.250000  0.277091  0.680353  1
  Ni  Ni14  1  0.750000  0.777091  0.819647  1
  Ni  Ni15  1  0.750000  0.722909  0.319647  1
  Ni  Ni16  1  0.250000  0.887836  0.704246  1
  Ni  Ni17  1  0.250000  0.612164  0.204246  1
  Ni  Ni18  1  0.750000  0.112164  0.295754  1
  Ni  Ni19  1  0.750000  0.387836  0.795754  1
  Ni  Ni20  1  0.250000  0.464129  0.929139  1
  Ni  Ni21  1  0.250000  0.035871  0.429139  1
  Ni  Ni22  1  0.750000  0.535871  0.070861  1
  Ni  Ni23  1  0.750000  0.964129  0.570861  1
  P  P24  1  0.250000  0.418518  0.114727  1
  P  P25  1  0.250000  0.081482  0.614727  1
  P  P26  1  0.750000  0.581482  0.885273  1
  P  P27  1  0.750000  0.918518  0.385273  1
  P  P28  1  0.250000  0.263502  0.868986  1
  P  P29  1  0.250000  0.236498  0.368986  1
  P  P30  1  0.750000  0.736498  0.131014  1
  P  P31  1  0.750000  0.763502  0.631014  1
  P  P32  1  0.250000  0.594730  0.387941  1
  P  P33  1  0.250000  0.905270  0.887941  1
  P  P34  1  0.750000  0.405270  0.612059  1
  P  P35  1  0.750000  0.094730  0.112059  1
