# generated using pymatgen
data_La2Al5Zn2Hg
_symmetry_space_group_name_H-M   'P 1'
_cell_length_a   6.33609988
_cell_length_b   6.33610020
_cell_length_c   6.18575400
_cell_angle_alpha   90.00000000
_cell_angle_beta   90.00000000
_cell_angle_gamma   121.63499547
_symmetry_Int_Tables_number   1
_chemical_formula_structural   La2Al5Zn2Hg
_chemical_formula_sum   'La2 Al5 Zn2 Hg1'
_cell_volume   211.43348887
_cell_formula_units_Z   1
loop_
 _symmetry_equiv_pos_site_id
 _symmetry_equiv_pos_as_xyz
  1  'x, y, z'
loop_
 _atom_site_type_symbol
 _atom_site_label
 _atom_site_symmetry_multiplicity
 _atom_site_fract_x
 _atom_site_fract_y
 _atom_site_fract_z
 _atom_site_occupancy
  La  La0  1  0.242620  0.757380  0.750000  1
  La  La1  1  0.749762  0.250238  0.250000  1
  Al  Al2  1  0.139006  0.860994  0.250000  1
  Al  Al3  1  0.739449  0.736536  0.009262  1
  Al  Al4  1  0.739449  0.736536  0.490738  1
  Al  Al5  1  0.263464  0.260551  0.009262  1
  Al  Al6  1  0.263464  0.260551  0.490738  1
  Zn  Zn7  1  0.631046  0.368954  0.750000  1
  Zn  Zn8  1  0.363543  0.636457  0.250000  1
  Hg  Hg9  1  0.868195  0.131805  0.750000  1
