# generated using pymatgen
data_Tb10NiHg3
_symmetry_space_group_name_H-M   'P 1'
_cell_length_a   9.64576300
_cell_length_b   9.64576379
_cell_length_c   9.67131500
_cell_angle_alpha   90.00000000
_cell_angle_beta   90.00000000
_cell_angle_gamma   119.99999385
_symmetry_Int_Tables_number   1
_chemical_formula_structural   Tb10NiHg3
_chemical_formula_sum   'Tb20 Ni2 Hg6'
_cell_volume   779.27258308
_cell_formula_units_Z   2
loop_
 _symmetry_equiv_pos_site_id
 _symmetry_equiv_pos_as_xyz
  1  'x, y, z'
loop_
 _atom_site_type_symbol
 _atom_site_label
 _atom_site_symmetry_multiplicity
 _atom_site_fract_x
 _atom_site_fract_y
 _atom_site_fract_z
 _atom_site_occupancy
  Tb  Tb0  1  0.000000  0.000000  0.500000  1
  Tb  Tb1  1  0.000000  0.000000  0.000000  1
  Tb  Tb2  1  0.543624  0.456376  0.250000  1
  Tb  Tb3  1  0.543624  0.087250  0.250000  1
  Tb  Tb4  1  0.912750  0.456376  0.250000  1
  Tb  Tb5  1  0.456376  0.543624  0.750000  1
  Tb  Tb6  1  0.456376  0.912750  0.750000  1
  Tb  Tb7  1  0.087250  0.543624  0.750000  1
  Tb  Tb8  1  0.209780  0.790220  0.435215  1
  Tb  Tb9  1  0.209780  0.419562  0.435215  1
  Tb  Tb10  1  0.580438  0.790220  0.435215  1
  Tb  Tb11  1  0.790220  0.209780  0.564785  1
  Tb  Tb12  1  0.790220  0.580438  0.564785  1
  Tb  Tb13  1  0.419562  0.209780  0.564785  1
  Tb  Tb14  1  0.790220  0.209780  0.935215  1
  Tb  Tb15  1  0.790220  0.580438  0.935215  1
  Tb  Tb16  1  0.419562  0.209780  0.935215  1
  Tb  Tb17  1  0.209780  0.790220  0.064785  1
  Tb  Tb18  1  0.209780  0.419562  0.064785  1
  Tb  Tb19  1  0.580438  0.790220  0.064785  1
  Ni  Ni20  1  0.333333  0.666667  0.250000  1
  Ni  Ni21  1  0.666667  0.333333  0.750000  1
  Hg  Hg22  1  0.880347  0.119653  0.250000  1
  Hg  Hg23  1  0.880347  0.760694  0.250000  1
  Hg  Hg24  1  0.239306  0.119653  0.250000  1
  Hg  Hg25  1  0.119653  0.880347  0.750000  1
  Hg  Hg26  1  0.119653  0.239306  0.750000  1
  Hg  Hg27  1  0.760694  0.880347  0.750000  1
