# generated using pymatgen
data_Lu2SiP5Pd21
_symmetry_space_group_name_H-M   'P 1'
_cell_length_a   8.65501343
_cell_length_b   8.62366198
_cell_length_c   8.62366200
_cell_angle_alpha   60.24066637
_cell_angle_beta   59.87967603
_cell_angle_gamma   59.87966494
_symmetry_Int_Tables_number   1
_chemical_formula_structural   Lu2SiP5Pd21
_chemical_formula_sum   'Lu2 Si1 P5 Pd21'
_cell_volume   455.11872288
_cell_formula_units_Z   1
loop_
 _symmetry_equiv_pos_site_id
 _symmetry_equiv_pos_as_xyz
  1  'x, y, z'
loop_
 _atom_site_type_symbol
 _atom_site_label
 _atom_site_symmetry_multiplicity
 _atom_site_fract_x
 _atom_site_fract_y
 _atom_site_fract_z
 _atom_site_occupancy
  Lu  Lu0  1  0.749496  0.750591  0.750591  1
  Lu  Lu1  1  0.249284  0.250667  0.250667  1
  Si  Si2  1  0.260162  0.739830  0.739830  1
  P  P3  1  0.737498  0.739620  0.262489  1
  P  P4  1  0.260374  0.739620  0.262483  1
  P  P5  1  0.738754  0.261238  0.261238  1
  P  P6  1  0.260374  0.262483  0.739620  1
  P  P7  1  0.737498  0.262489  0.739620  1
  Pd  Pd8  1  0.001716  0.998287  0.998287  1
  Pd  Pd9  1  0.615674  0.615166  0.153475  1
  Pd  Pd10  1  0.615674  0.153475  0.615166  1
  Pd  Pd11  1  0.151709  0.615945  0.615945  1
  Pd  Pd12  1  0.616417  0.615955  0.615955  1
  Pd  Pd13  1  0.384052  0.383571  0.848326  1
  Pd  Pd14  1  0.384052  0.848326  0.383571  1
  Pd  Pd15  1  0.846516  0.384338  0.384338  1
  Pd  Pd16  1  0.384769  0.384322  0.384322  1
  Pd  Pd17  1  0.999622  0.000397  0.344641  1
  Pd  Pd18  1  0.655380  0.000382  0.344632  1
  Pd  Pd19  1  0.001773  0.653660  0.342800  1
  Pd  Pd20  1  0.655380  0.344632  0.000382  1
  Pd  Pd21  1  0.999622  0.344641  0.000397  1
  Pd  Pd22  1  0.001773  0.342800  0.653660  1
  Pd  Pd23  1  0.346065  0.653930  0.001625  1
  Pd  Pd24  1  0.346065  0.001625  0.653930  1
  Pd  Pd25  1  0.346332  0.998228  0.998228  1
  Pd  Pd26  1  0.998376  0.001631  0.653933  1
  Pd  Pd27  1  0.998376  0.653933  0.001631  1
  Pd  Pd28  1  0.657212  0.998220  0.998220  1
