# generated using pymatgen
data_Y2Er2Zn10SiSn
_symmetry_space_group_name_H-M   'P 1'
_cell_length_a   8.24392571
_cell_length_b   8.24392400
_cell_length_c   8.85552900
_cell_angle_alpha   90.00000000
_cell_angle_beta   90.00000000
_cell_angle_gamma   149.66179139
_symmetry_Int_Tables_number   1
_chemical_formula_structural   Y2Er2Zn10SiSn
_chemical_formula_sum   'Y2 Er2 Zn10 Si1 Sn1'
_cell_volume   303.99241524
_cell_formula_units_Z   1
loop_
 _symmetry_equiv_pos_site_id
 _symmetry_equiv_pos_as_xyz
  1  'x, y, z'
loop_
 _atom_site_type_symbol
 _atom_site_label
 _atom_site_symmetry_multiplicity
 _atom_site_fract_x
 _atom_site_fract_y
 _atom_site_fract_z
 _atom_site_occupancy
  Y  Y0  1  0.000549  0.999451  0.482822  1
  Y  Y1  1  0.000549  0.999451  0.017178  1
  Er  Er2  1  0.198279  0.801721  0.250000  1
  Er  Er3  1  0.798246  0.201754  0.750000  1
  Zn  Zn4  1  0.811169  0.188831  0.391166  1
  Zn  Zn5  1  0.187526  0.812474  0.605614  1
  Zn  Zn6  1  0.811169  0.188831  0.108834  1
  Zn  Zn7  1  0.187526  0.812474  0.894386  1
  Zn  Zn8  1  0.648850  0.351150  0.472119  1
  Zn  Zn9  1  0.345252  0.654748  0.517417  1
  Zn  Zn10  1  0.648850  0.351150  0.027881  1
  Zn  Zn11  1  0.345252  0.654748  0.982583  1
  Zn  Zn12  1  0.401483  0.598517  0.250000  1
  Zn  Zn13  1  0.610708  0.389292  0.750000  1
  Si  Si14  1  0.555367  0.444633  0.250000  1
  Sn  Sn15  1  0.449224  0.550776  0.750000  1
