# generated using pymatgen
data_SrCa2AcB24
_symmetry_space_group_name_H-M   'P 1'
_cell_length_a   7.20798500
_cell_length_b   7.20798430
_cell_length_c   5.89340300
_cell_angle_alpha   90.00000000
_cell_angle_beta   90.00000000
_cell_angle_gamma   109.43928305
_symmetry_Int_Tables_number   1
_chemical_formula_structural   SrCa2AcB24
_chemical_formula_sum   'Sr1 Ca2 Ac1 B24'
_cell_volume   288.73743783
_cell_formula_units_Z   1
loop_
 _symmetry_equiv_pos_site_id
 _symmetry_equiv_pos_as_xyz
  1  'x, y, z'
loop_
 _atom_site_type_symbol
 _atom_site_label
 _atom_site_symmetry_multiplicity
 _atom_site_fract_x
 _atom_site_fract_y
 _atom_site_fract_z
 _atom_site_occupancy
  Sr  Sr0  1  0.000000  0.000000  0.000000  1
  Ca  Ca1  1  0.750809  0.249191  0.500000  1
  Ca  Ca2  1  0.249191  0.750809  0.500000  1
  Ac  Ac3  1  0.500000  0.500000  0.000000  1
  B  B4  1  0.174720  0.324682  0.648335  1
  B  B5  1  0.925855  0.574301  0.149954  1
  B  B6  1  0.675318  0.825280  0.648335  1
  B  B7  1  0.425699  0.074145  0.149954  1
  B  B8  1  0.174720  0.324682  0.351665  1
  B  B9  1  0.925855  0.574301  0.850046  1
  B  B10  1  0.675318  0.825280  0.351665  1
  B  B11  1  0.425699  0.074145  0.850046  1
  B  B12  1  0.399007  0.399007  0.500000  1
  B  B13  1  0.149111  0.649261  0.000000  1
  B  B14  1  0.899411  0.899411  0.500000  1
  B  B15  1  0.649261  0.149111  0.000000  1
  B  B16  1  0.324682  0.174720  0.648335  1
  B  B17  1  0.074145  0.425699  0.149954  1
  B  B18  1  0.825280  0.675318  0.648335  1
  B  B19  1  0.574301  0.925855  0.149954  1
  B  B20  1  0.100589  0.100589  0.500000  1
  B  B21  1  0.850889  0.350739  0.000000  1
  B  B22  1  0.600993  0.600993  0.500000  1
  B  B23  1  0.350739  0.850889  0.000000  1
  B  B24  1  0.324682  0.174720  0.351665  1
  B  B25  1  0.074145  0.425699  0.850046  1
  B  B26  1  0.825280  0.675318  0.351665  1
  B  B27  1  0.574301  0.925855  0.850046  1
