# generated using pymatgen
data_Y12Ni6Bi
_symmetry_space_group_name_H-M   'P 1'
_cell_length_a   8.48923832
_cell_length_b   8.48923749
_cell_length_c   8.48923777
_cell_angle_alpha   109.42613168
_cell_angle_beta   109.47774596
_cell_angle_gamma   109.50979001
_symmetry_Int_Tables_number   1
_chemical_formula_structural   Y12Ni6Bi
_chemical_formula_sum   'Y12 Ni6 Bi1'
_cell_volume   470.95998444
_cell_formula_units_Z   1
loop_
 _symmetry_equiv_pos_site_id
 _symmetry_equiv_pos_as_xyz
  1  'x, y, z'
loop_
 _atom_site_type_symbol
 _atom_site_label
 _atom_site_symmetry_multiplicity
 _atom_site_fract_x
 _atom_site_fract_y
 _atom_site_fract_z
 _atom_site_occupancy
  Y  Y0  1  0.812384  0.505382  0.692999  1
  Y  Y1  1  0.692983  0.187839  0.880823  1
  Y  Y2  1  0.187616  0.880615  0.692999  1
  Y  Y3  1  0.307017  0.187839  0.494857  1
  Y  Y4  1  0.692983  0.812161  0.505143  1
  Y  Y5  1  0.494534  0.306847  0.187686  1
  Y  Y6  1  0.812384  0.119385  0.307001  1
  Y  Y7  1  0.880838  0.693153  0.187686  1
  Y  Y8  1  0.119162  0.306847  0.812314  1
  Y  Y9  1  0.307017  0.812161  0.119177  1
  Y  Y10  1  0.505466  0.693153  0.812314  1
  Y  Y11  1  0.187616  0.494618  0.307001  1
  Ni  Ni12  1  0.623385  0.123385  0.500000  1
  Ni  Ni13  1  0.500000  0.623308  0.123308  1
  Ni  Ni14  1  0.500000  0.376692  0.876692  1
  Ni  Ni15  1  0.376615  0.876615  0.500000  1
  Ni  Ni16  1  0.123479  0.500000  0.623479  1
  Ni  Ni17  1  0.876521  0.500000  0.376521  1
  Bi  Bi18  1  0.000000  0.000000  0.000000  1
