# generated using pymatgen
data_Y8Ge(Pd7Pt)3
_symmetry_space_group_name_H-M   'P 1'
_cell_length_a   8.37683600
_cell_length_b   8.37289900
_cell_length_c   8.37089500
_cell_angle_alpha   90.00000000
_cell_angle_beta   90.00000000
_cell_angle_gamma   90.00000000
_symmetry_Int_Tables_number   1
_chemical_formula_structural   Y8Ge(Pd7Pt)3
_chemical_formula_sum   'Y8 Ge1 Pd21 Pt3'
_cell_volume   587.12119666
_cell_formula_units_Z   1
loop_
 _symmetry_equiv_pos_site_id
 _symmetry_equiv_pos_as_xyz
  1  'x, y, z'
loop_
 _atom_site_type_symbol
 _atom_site_label
 _atom_site_symmetry_multiplicity
 _atom_site_fract_x
 _atom_site_fract_y
 _atom_site_fract_z
 _atom_site_occupancy
  Y  Y0  1  0.253317  0.253356  0.253461  1
  Y  Y1  1  0.746774  0.746625  0.746607  1
  Y  Y2  1  0.746774  0.746625  0.253393  1
  Y  Y3  1  0.746683  0.253356  0.746539  1
  Y  Y4  1  0.253317  0.253356  0.746539  1
  Y  Y5  1  0.253226  0.746625  0.253393  1
  Y  Y6  1  0.253226  0.746625  0.746607  1
  Y  Y7  1  0.746683  0.253356  0.253461  1
  Ge  Ge8  1  0.000000  0.000005  0.000000  1
  Pd  Pd9  1  0.259930  0.500038  0.000000  1
  Pd  Pd10  1  0.740070  0.500038  0.000000  1
  Pd  Pd11  1  0.000000  0.259947  0.500000  1
  Pd  Pd12  1  0.500000  0.259909  0.000000  1
  Pd  Pd13  1  0.000000  0.740013  0.500000  1
  Pd  Pd14  1  0.500000  0.740098  0.000000  1
  Pd  Pd15  1  0.500000  0.000014  0.259915  1
  Pd  Pd16  1  0.259967  0.000027  0.500000  1
  Pd  Pd17  1  0.500000  0.000014  0.740085  1
  Pd  Pd18  1  0.740033  0.000027  0.500000  1
  Pd  Pd19  1  0.000000  0.500047  0.259940  1
  Pd  Pd20  1  0.000000  0.500047  0.740060  1
  Pd  Pd21  1  0.500000  0.746550  0.500000  1
  Pd  Pd22  1  0.500000  0.500033  0.253400  1
  Pd  Pd23  1  0.500000  0.500033  0.746600  1
  Pd  Pd24  1  0.289173  0.999958  0.000000  1
  Pd  Pd25  1  0.710827  0.999958  0.000000  1
  Pd  Pd26  1  0.000000  0.289142  0.000000  1
  Pd  Pd27  1  0.000000  0.710897  0.000000  1
  Pd  Pd28  1  0.000000  0.999965  0.289083  1
  Pd  Pd29  1  0.000000  0.999965  0.710917  1
  Pt  Pt30  1  0.253355  0.499994  0.500000  1
  Pt  Pt31  1  0.746645  0.499994  0.500000  1
  Pt  Pt32  1  0.500000  0.253364  0.500000  1
