# generated using pymatgen
data_Th6Si4IrOs3
_symmetry_space_group_name_H-M   'P 1'
_cell_length_a   5.77435364
_cell_length_b   5.77435466
_cell_length_c   13.68269451
_cell_angle_alpha   90.16186902
_cell_angle_beta   89.83813111
_cell_angle_gamma   138.11132427
_symmetry_Int_Tables_number   1
_chemical_formula_structural   Th6Si4IrOs3
_chemical_formula_sum   'Th6 Si4 Ir1 Os3'
_cell_volume   304.61296022
_cell_formula_units_Z   1
loop_
 _symmetry_equiv_pos_site_id
 _symmetry_equiv_pos_as_xyz
  1  'x, y, z'
loop_
 _atom_site_type_symbol
 _atom_site_label
 _atom_site_symmetry_multiplicity
 _atom_site_fract_x
 _atom_site_fract_y
 _atom_site_fract_z
 _atom_site_occupancy
  Th  Th0  1  0.776766  0.223234  0.602399  1
  Th  Th1  1  0.510871  0.489129  0.247829  1
  Th  Th2  1  0.223234  0.776766  0.397601  1
  Th  Th3  1  0.775166  0.224834  0.896244  1
  Th  Th4  1  0.489129  0.510871  0.752171  1
  Th  Th5  1  0.224834  0.775166  0.103756  1
  Si  Si6  1  0.063297  0.936703  0.590691  1
  Si  Si7  1  0.062294  0.937706  0.911440  1
  Si  Si8  1  0.936703  0.063297  0.409309  1
  Si  Si9  1  0.937706  0.062294  0.088560  1
  Ir  Ir10  1  0.500000  0.500000  0.500000  1
  Os  Os11  1  0.803602  0.196398  0.249474  1
  Os  Os12  1  0.196398  0.803602  0.750526  1
  Os  Os13  1  0.500000  0.500000  0.000000  1
