# generated using pymatgen
data_Cs2NaAsO3
_symmetry_space_group_name_H-M   'P 1'
_cell_length_a   6.35675001
_cell_length_b   6.35674994
_cell_length_c   8.85035245
_cell_angle_alpha   95.23891818
_cell_angle_beta   95.23892195
_cell_angle_gamma   68.53327168
_symmetry_Int_Tables_number   1
_chemical_formula_structural   Cs2NaAsO3
_chemical_formula_sum   'Cs4 Na2 As2 O6'
_cell_volume   330.78125716
_cell_formula_units_Z   2
loop_
 _symmetry_equiv_pos_site_id
 _symmetry_equiv_pos_as_xyz
  1  'x, y, z'
loop_
 _atom_site_type_symbol
 _atom_site_label
 _atom_site_symmetry_multiplicity
 _atom_site_fract_x
 _atom_site_fract_y
 _atom_site_fract_z
 _atom_site_occupancy
  Cs  Cs0  1  0.042039  0.957961  0.000000  1
  Cs  Cs1  1  0.164916  0.493692  0.333620  1
  Cs  Cs2  1  0.861387  0.138614  0.500000  1
  Cs  Cs3  1  0.506308  0.835084  0.666380  1
  Na  Na4  1  0.455340  0.278239  0.033041  1
  Na  Na5  1  0.721761  0.544659  0.966958  1
  As  As6  1  0.557846  0.798397  0.260529  1
  As  As7  1  0.201603  0.442153  0.739471  1
  O  O8  1  0.548047  0.906379  0.077781  1
  O  O9  1  0.598065  0.504996  0.206663  1
  O  O10  1  0.274742  0.921878  0.320288  1
  O  O11  1  0.078122  0.725258  0.679712  1
  O  O12  1  0.495004  0.401935  0.793338  1
  O  O13  1  0.093621  0.451953  0.922219  1
