# generated using pymatgen
data_PrSm2Cd3Pb2Au
_symmetry_space_group_name_H-M   'P 1'
_cell_length_a   7.64834200
_cell_length_b   7.68858570
_cell_length_c   4.69030700
_cell_angle_alpha   90.00000000
_cell_angle_beta   90.00000000
_cell_angle_gamma   119.82699553
_symmetry_Int_Tables_number   1
_chemical_formula_structural   PrSm2Cd3Pb2Au
_chemical_formula_sum   'Pr1 Sm2 Cd3 Pb2 Au1'
_cell_volume   239.27654721
_cell_formula_units_Z   1
loop_
 _symmetry_equiv_pos_site_id
 _symmetry_equiv_pos_as_xyz
  1  'x, y, z'
loop_
 _atom_site_type_symbol
 _atom_site_label
 _atom_site_symmetry_multiplicity
 _atom_site_fract_x
 _atom_site_fract_y
 _atom_site_fract_z
 _atom_site_occupancy
  Pr  Pr0  1  0.596091  0.000000  0.000000  1
  Sm  Sm1  1  0.999580  0.598790  0.000000  1
  Sm  Sm2  1  0.400790  0.401210  0.000000  1
  Cd  Cd3  1  0.234065  0.000000  0.500000  1
  Cd  Cd4  1  0.000043  0.233375  0.500000  1
  Cd  Cd5  1  0.766667  0.766625  0.500000  1
  Pb  Pb6  1  0.330402  0.662316  0.500000  1
  Pb  Pb7  1  0.668087  0.337684  0.500000  1
  Au  Au8  1  0.004274  0.000000  0.000000  1
