# generated using pymatgen
data_Rb4Al2O5
_symmetry_space_group_name_H-M   'P 1'
_cell_length_a   9.37059320
_cell_length_b   9.37059272
_cell_length_c   7.31412149
_cell_angle_alpha   84.06387292
_cell_angle_beta   84.06388403
_cell_angle_gamma   135.42569139
_symmetry_Int_Tables_number   1
_chemical_formula_structural   Rb4Al2O5
_chemical_formula_sum   'Rb8 Al4 O10'
_cell_volume   433.66149817
_cell_formula_units_Z   2
loop_
 _symmetry_equiv_pos_site_id
 _symmetry_equiv_pos_as_xyz
  1  'x, y, z'
loop_
 _atom_site_type_symbol
 _atom_site_label
 _atom_site_symmetry_multiplicity
 _atom_site_fract_x
 _atom_site_fract_y
 _atom_site_fract_z
 _atom_site_occupancy
  Rb  Rb0  1  0.468231  0.531769  0.250000  1
  Rb  Rb1  1  0.531769  0.468231  0.750000  1
  Rb  Rb2  1  0.018358  0.981642  0.250000  1
  Rb  Rb3  1  0.981642  0.018358  0.750000  1
  Rb  Rb4  1  0.827973  0.475450  0.386876  1
  Rb  Rb5  1  0.524550  0.172027  0.113124  1
  Rb  Rb6  1  0.172027  0.524550  0.613124  1
  Rb  Rb7  1  0.475450  0.827973  0.886876  1
  Al  Al8  1  0.988236  0.308287  0.099549  1
  Al  Al9  1  0.691713  0.011764  0.400451  1
  Al  Al10  1  0.011764  0.691713  0.900451  1
  Al  Al11  1  0.308287  0.988236  0.599549  1
  O  O12  1  0.960833  0.276337  0.356914  1
  O  O13  1  0.723663  0.039167  0.143086  1
  O  O14  1  0.039167  0.723663  0.643086  1
  O  O15  1  0.276337  0.960833  0.856914  1
  O  O16  1  0.000000  0.500000  0.000000  1
  O  O17  1  0.500000  0.000000  0.500000  1
  O  O18  1  0.808060  0.643870  0.029354  1
  O  O19  1  0.356130  0.191940  0.470646  1
  O  O20  1  0.191940  0.356130  0.970646  1
  O  O21  1  0.643870  0.808060  0.529354  1
