# generated using pymatgen
data_SrLa7SbPd24
_symmetry_space_group_name_H-M   'P 1'
_cell_length_a   8.62786088
_cell_length_b   8.62786088
_cell_length_c   8.62786088
_cell_angle_alpha   89.92316533
_cell_angle_beta   89.92316533
_cell_angle_gamma   90.07683467
_symmetry_Int_Tables_number   1
_chemical_formula_structural   SrLa7SbPd24
_chemical_formula_sum   'Sr1 La7 Sb1 Pd24'
_cell_volume   642.25608669
_cell_formula_units_Z   1
loop_
 _symmetry_equiv_pos_site_id
 _symmetry_equiv_pos_as_xyz
  1  'x, y, z'
loop_
 _atom_site_type_symbol
 _atom_site_label
 _atom_site_symmetry_multiplicity
 _atom_site_fract_x
 _atom_site_fract_y
 _atom_site_fract_z
 _atom_site_occupancy
  Sr  Sr0  1  0.749645  0.749645  0.250355  1
  La  La1  1  0.746805  0.252919  0.747081  1
  La  La2  1  0.252919  0.746805  0.747081  1
  La  La3  1  0.746823  0.746823  0.745501  1
  La  La4  1  0.746823  0.254499  0.253177  1
  La  La5  1  0.252574  0.252574  0.747426  1
  La  La6  1  0.254499  0.746823  0.253177  1
  La  La7  1  0.252919  0.252919  0.253195  1
  Sb  Sb8  1  0.998668  0.998668  0.001332  1
  Pd  Pd9  1  0.001469  0.001469  0.313902  1
  Pd  Pd10  1  0.732678  0.004327  0.502070  1
  Pd  Pd11  1  0.732678  0.497930  0.995673  1
  Pd  Pd12  1  0.499202  0.000153  0.733002  1
  Pd  Pd13  1  0.004327  0.732678  0.502070  1
  Pd  Pd14  1  0.497930  0.004327  0.267322  1
  Pd  Pd15  1  0.000153  0.266998  0.500798  1
  Pd  Pd16  1  0.497930  0.732678  0.995673  1
  Pd  Pd17  1  0.256073  0.499315  0.500685  1
  Pd  Pd18  1  0.499315  0.499315  0.743927  1
  Pd  Pd19  1  0.497627  0.497627  0.255229  1
  Pd  Pd20  1  0.499315  0.256073  0.500685  1
  Pd  Pd21  1  0.497627  0.744771  0.502373  1
  Pd  Pd22  1  0.744771  0.497627  0.502373  1
  Pd  Pd23  1  0.312242  0.999870  0.000130  1
  Pd  Pd24  1  0.999870  0.999870  0.687758  1
  Pd  Pd25  1  0.004327  0.497930  0.267322  1
  Pd  Pd26  1  0.999870  0.312242  0.000130  1
  Pd  Pd27  1  0.001469  0.686098  0.998531  1
  Pd  Pd28  1  0.686098  0.001469  0.998531  1
  Pd  Pd29  1  0.266998  0.499202  0.999847  1
  Pd  Pd30  1  0.266998  0.000153  0.500798  1
  Pd  Pd31  1  0.000153  0.499202  0.733002  1
  Pd  Pd32  1  0.499202  0.266998  0.999847  1
