# generated using pymatgen
data_Er5Hf(Be2Ir5)2
_symmetry_space_group_name_H-M   'P 1'
_cell_length_a   9.78479500
_cell_length_b   9.78479500
_cell_length_c   3.30944700
_cell_angle_alpha   90.00000000
_cell_angle_beta   90.00000000
_cell_angle_gamma   90.00000000
_symmetry_Int_Tables_number   1
_chemical_formula_structural   Er5Hf(Be2Ir5)2
_chemical_formula_sum   'Er5 Hf1 Be4 Ir10'
_cell_volume   316.85378022
_cell_formula_units_Z   1
loop_
 _symmetry_equiv_pos_site_id
 _symmetry_equiv_pos_as_xyz
  1  'x, y, z'
loop_
 _atom_site_type_symbol
 _atom_site_label
 _atom_site_symmetry_multiplicity
 _atom_site_fract_x
 _atom_site_fract_y
 _atom_site_fract_z
 _atom_site_occupancy
  Er  Er0  1  0.175841  0.675782  0.000000  1
  Er  Er1  1  0.324218  0.175841  0.000000  1
  Er  Er2  1  0.824159  0.324218  0.000000  1
  Er  Er3  1  0.500000  0.500000  0.000000  1
  Er  Er4  1  0.675782  0.824159  0.000000  1
  Hf  Hf5  1  0.000000  0.000000  0.000000  1
  Be  Be6  1  0.379730  0.879159  0.000000  1
  Be  Be7  1  0.120841  0.379730  0.000000  1
  Be  Be8  1  0.879159  0.620270  0.000000  1
  Be  Be9  1  0.620270  0.120841  0.000000  1
  Ir  Ir10  1  0.216521  0.932084  0.500000  1
  Ir  Ir11  1  0.932084  0.783479  0.500000  1
  Ir  Ir12  1  0.427359  0.723137  0.500000  1
  Ir  Ir13  1  0.572641  0.276863  0.500000  1
  Ir  Ir14  1  0.723137  0.572641  0.500000  1
  Ir  Ir15  1  0.276863  0.427359  0.500000  1
  Ir  Ir16  1  0.067916  0.216521  0.500000  1
  Ir  Ir17  1  0.000000  0.500000  0.500000  1
  Ir  Ir18  1  0.500000  0.000000  0.500000  1
  Ir  Ir19  1  0.783479  0.067916  0.500000  1
