# generated using pymatgen
data_DyHoCr3O12
_symmetry_space_group_name_H-M   'P 1'
_cell_length_a   10.00586647
_cell_length_b   10.00638860
_cell_length_c   10.00630562
_cell_angle_alpha   58.22533270
_cell_angle_beta   58.22823140
_cell_angle_gamma   58.22720321
_symmetry_Int_Tables_number   1
_chemical_formula_structural   DyHoCr3O12
_chemical_formula_sum   'Dy2 Ho2 Cr6 O24'
_cell_volume   679.64244926
_cell_formula_units_Z   2
loop_
 _symmetry_equiv_pos_site_id
 _symmetry_equiv_pos_as_xyz
  1  'x, y, z'
loop_
 _atom_site_type_symbol
 _atom_site_label
 _atom_site_symmetry_multiplicity
 _atom_site_fract_x
 _atom_site_fract_y
 _atom_site_fract_z
 _atom_site_occupancy
  Dy  Dy0  1  0.642350  0.642306  0.642152  1
  Dy  Dy1  1  0.357754  0.357751  0.357757  1
  Ho  Ho2  1  0.142297  0.142325  0.142382  1
  Ho  Ho3  1  0.857667  0.857629  0.857654  1
  Cr  Cr4  1  0.750977  0.035409  0.464648  1
  Cr  Cr5  1  0.964635  0.535325  0.248989  1
  Cr  Cr6  1  0.535389  0.248997  0.964644  1
  Cr  Cr7  1  0.464653  0.751056  0.035246  1
  Cr  Cr8  1  0.035321  0.464595  0.751101  1
  Cr  Cr9  1  0.248923  0.964713  0.535395  1
  O  O10  1  0.918402  0.063894  0.295006  1
  O  O11  1  0.778745  0.002467  0.630526  1
  O  O12  1  0.997553  0.369412  0.221257  1
  O  O13  1  0.705085  0.081559  0.936096  1
  O  O14  1  0.583327  0.204963  0.436692  1
  O  O15  1  0.870335  0.496057  0.722757  1
  O  O16  1  0.503925  0.277256  0.129654  1
  O  O17  1  0.795058  0.563266  0.416663  1
  O  O18  1  0.936120  0.705008  0.081581  1
  O  O19  1  0.563304  0.416668  0.795037  1
  O  O20  1  0.369455  0.221267  0.997510  1
  O  O21  1  0.277268  0.129701  0.503910  1
  O  O22  1  0.722756  0.870424  0.496103  1
  O  O23  1  0.630616  0.778719  0.002452  1
  O  O24  1  0.436748  0.583399  0.204857  1
  O  O25  1  0.063939  0.294820  0.918510  1
  O  O26  1  0.204879  0.436689  0.583450  1
  O  O27  1  0.496135  0.722712  0.870242  1
  O  O28  1  0.129630  0.503869  0.277242  1
  O  O29  1  0.416586  0.795118  0.563285  1
  O  O30  1  0.294875  0.918492  0.063882  1
  O  O31  1  0.002506  0.630531  0.778735  1
  O  O32  1  0.221298  0.997514  0.369429  1
  O  O33  1  0.081494  0.936091  0.705156  1
