# generated using pymatgen
data_Ta3GaS6
_symmetry_space_group_name_H-M   'P 1'
_cell_length_a   5.78950900
_cell_length_b   5.78950986
_cell_length_c   14.91708400
_cell_angle_alpha   90.00000000
_cell_angle_beta   90.00000000
_cell_angle_gamma   120.00001221
_symmetry_Int_Tables_number   1
_chemical_formula_structural   Ta3GaS6
_chemical_formula_sum   'Ta6 Ga2 S12'
_cell_volume   433.01011861
_cell_formula_units_Z   2
loop_
 _symmetry_equiv_pos_site_id
 _symmetry_equiv_pos_as_xyz
  1  'x, y, z'
loop_
 _atom_site_type_symbol
 _atom_site_label
 _atom_site_symmetry_multiplicity
 _atom_site_fract_x
 _atom_site_fract_y
 _atom_site_fract_z
 _atom_site_occupancy
  Ta  Ta0  1  0.000000  0.000000  0.000000  1
  Ta  Ta1  1  0.000000  0.000000  0.500000  1
  Ta  Ta2  1  0.333333  0.666667  0.501038  1
  Ta  Ta3  1  0.666667  0.333333  0.001038  1
  Ta  Ta4  1  0.666667  0.333333  0.498962  1
  Ta  Ta5  1  0.333333  0.666667  0.998962  1
  Ga  Ga6  1  0.333333  0.666667  0.250000  1
  Ga  Ga7  1  0.666667  0.333333  0.750000  1
  S  S8  1  0.333091  0.999413  0.104991  1
  S  S9  1  0.000587  0.333677  0.104991  1
  S  S10  1  0.666909  0.000587  0.604991  1
  S  S11  1  0.999413  0.333091  0.895009  1
  S  S12  1  0.666323  0.666909  0.104991  1
  S  S13  1  0.999413  0.666323  0.604991  1
  S  S14  1  0.333677  0.000587  0.895009  1
  S  S15  1  0.000587  0.666909  0.395009  1
  S  S16  1  0.333677  0.333091  0.604991  1
  S  S17  1  0.666323  0.999413  0.395009  1
  S  S18  1  0.666909  0.666323  0.895009  1
  S  S19  1  0.333091  0.333677  0.395009  1
