# generated using pymatgen
data_Tb8Ga12Ag3Au
_symmetry_space_group_name_H-M   'P 1'
_cell_length_a   7.16947800
_cell_length_b   8.95579080
_cell_length_c   8.95579000
_cell_angle_alpha   120.00000442
_cell_angle_beta   90.00000000
_cell_angle_gamma   90.00000000
_symmetry_Int_Tables_number   1
_chemical_formula_structural   Tb8Ga12Ag3Au
_chemical_formula_sum   'Tb8 Ga12 Ag3 Au1'
_cell_volume   497.99615613
_cell_formula_units_Z   1
loop_
 _symmetry_equiv_pos_site_id
 _symmetry_equiv_pos_as_xyz
  1  'x, y, z'
loop_
 _atom_site_type_symbol
 _atom_site_label
 _atom_site_symmetry_multiplicity
 _atom_site_fract_x
 _atom_site_fract_y
 _atom_site_fract_z
 _atom_site_occupancy
  Tb  Tb0  1  0.750941  0.000000  0.000000  1
  Tb  Tb1  1  0.250351  0.000000  0.000000  1
  Tb  Tb2  1  0.748796  0.488444  0.511556  1
  Tb  Tb3  1  0.250294  0.513791  0.486209  1
  Tb  Tb4  1  0.748796  0.023112  0.511556  1
  Tb  Tb5  1  0.250294  0.972417  0.486209  1
  Tb  Tb6  1  0.748796  0.488444  0.976888  1
  Tb  Tb7  1  0.250294  0.513791  0.027583  1
  Ga  Ga8  1  0.970857  0.835274  0.164726  1
  Ga  Ga9  1  0.032394  0.165194  0.834806  1
  Ga  Ga10  1  0.970857  0.329453  0.164726  1
  Ga  Ga11  1  0.466713  0.165291  0.834709  1
  Ga  Ga12  1  0.032394  0.669609  0.834806  1
  Ga  Ga13  1  0.534220  0.835884  0.164116  1
  Ga  Ga14  1  0.970857  0.835274  0.670547  1
  Ga  Ga15  1  0.466713  0.669418  0.834709  1
  Ga  Ga16  1  0.032394  0.165194  0.330391  1
  Ga  Ga17  1  0.534220  0.328233  0.164116  1
  Ga  Ga18  1  0.466713  0.165291  0.330582  1
  Ga  Ga19  1  0.534220  0.835884  0.671767  1
  Ag  Ag20  1  0.959255  0.666667  0.333333  1
  Ag  Ag21  1  0.034542  0.333333  0.666667  1
  Ag  Ag22  1  0.462750  0.333333  0.666667  1
  Au  Au23  1  0.532337  0.666667  0.333333  1
