# generated using pymatgen
data_Th2Ge5RuRh2
_symmetry_space_group_name_H-M   'P 1'
_cell_length_a   8.46780011
_cell_length_b   8.46780006
_cell_length_c   8.46779964
_cell_angle_alpha   137.78831783
_cell_angle_beta   106.02470813
_cell_angle_gamma   89.04199358
_symmetry_Int_Tables_number   1
_chemical_formula_structural   Th2Ge5RuRh2
_chemical_formula_sum   'Th4 Ge10 Ru2 Rh4'
_cell_volume   375.15389302
_cell_formula_units_Z   2
loop_
 _symmetry_equiv_pos_site_id
 _symmetry_equiv_pos_as_xyz
  1  'x, y, z'
loop_
 _atom_site_type_symbol
 _atom_site_label
 _atom_site_symmetry_multiplicity
 _atom_site_fract_x
 _atom_site_fract_y
 _atom_site_fract_z
 _atom_site_occupancy
  Th  Th0  1  0.865250  0.132465  0.732785  1
  Th  Th1  1  0.134750  0.867535  0.267215  1
  Th  Th2  1  0.399681  0.632465  0.767215  1
  Th  Th3  1  0.600319  0.367535  0.232785  1
  Ge  Ge4  1  0.500000  0.250000  0.750000  1
  Ge  Ge5  1  0.500000  0.750000  0.250000  1
  Ge  Ge6  1  0.222399  0.472399  0.250000  1
  Ge  Ge7  1  0.777601  0.027601  0.250000  1
  Ge  Ge8  1  0.777601  0.527601  0.750000  1
  Ge  Ge9  1  0.222399  0.972399  0.750000  1
  Ge  Ge10  1  0.058767  0.401104  0.657663  1
  Ge  Ge11  1  0.941233  0.598896  0.342337  1
  Ge  Ge12  1  0.743442  0.901104  0.842337  1
  Ge  Ge13  1  0.256558  0.098896  0.157663  1
  Ru  Ru14  1  0.000000  0.250000  0.250000  1
  Ru  Ru15  1  0.000000  0.750000  0.750000  1
  Rh  Rh16  1  0.249833  0.358326  0.891507  1
  Rh  Rh17  1  0.750167  0.641674  0.108493  1
  Rh  Rh18  1  0.466820  0.858326  0.608493  1
  Rh  Rh19  1  0.533180  0.141674  0.391507  1
