# generated using pymatgen
data_Gd3TiCrC6
_symmetry_space_group_name_H-M   'P 1'
_cell_length_a   8.33395504
_cell_length_b   8.33441352
_cell_length_c   5.07155700
_cell_angle_alpha   90.00000000
_cell_angle_beta   90.00000000
_cell_angle_gamma   120.00978039
_symmetry_Int_Tables_number   1
_chemical_formula_structural   Gd3TiCrC6
_chemical_formula_sum   'Gd6 Ti2 Cr2 C12'
_cell_volume   305.03897361
_cell_formula_units_Z   2
loop_
 _symmetry_equiv_pos_site_id
 _symmetry_equiv_pos_as_xyz
  1  'x, y, z'
loop_
 _atom_site_type_symbol
 _atom_site_label
 _atom_site_symmetry_multiplicity
 _atom_site_fract_x
 _atom_site_fract_y
 _atom_site_fract_z
 _atom_site_occupancy
  Gd  Gd0  1  0.617050  0.684698  0.750000  1
  Gd  Gd1  1  0.932224  0.617002  0.250000  1
  Gd  Gd2  1  0.684768  0.067657  0.250000  1
  Gd  Gd3  1  0.315232  0.932343  0.750000  1
  Gd  Gd4  1  0.067776  0.382998  0.750000  1
  Gd  Gd5  1  0.382950  0.315302  0.250000  1
  Ti  Ti6  1  0.000000  0.000000  0.500000  1
  Ti  Ti7  1  0.000000  0.000000  0.000000  1
  Cr  Cr8  1  0.666661  0.333300  0.750000  1
  Cr  Cr9  1  0.333339  0.666700  0.250000  1
  C  C10  1  0.959536  0.763937  0.750000  1
  C  C11  1  0.195640  0.959558  0.250000  1
  C  C12  1  0.763940  0.804382  0.250000  1
  C  C13  1  0.236060  0.195618  0.750000  1
  C  C14  1  0.804360  0.040442  0.750000  1
  C  C15  1  0.040464  0.236063  0.250000  1
  C  C16  1  0.859303  0.573859  0.750000  1
  C  C17  1  0.285444  0.859307  0.250000  1
  C  C18  1  0.573848  0.714571  0.250000  1
  C  C19  1  0.426152  0.285429  0.750000  1
  C  C20  1  0.140697  0.426141  0.250000  1
  C  C21  1  0.714556  0.140693  0.750000  1
