# generated using pymatgen
data_Th3Cu3Sn3Bi
_symmetry_space_group_name_H-M   'P 1'
_cell_length_a   8.48491609
_cell_length_b   8.50931710
_cell_length_c   8.48491518
_cell_angle_alpha   109.52785086
_cell_angle_beta   109.31851312
_cell_angle_gamma   109.45077163
_symmetry_Int_Tables_number   1
_chemical_formula_structural   Th3Cu3Sn3Bi
_chemical_formula_sum   'Th6 Cu6 Sn6 Bi2'
_cell_volume   472.26933578
_cell_formula_units_Z   2
loop_
 _symmetry_equiv_pos_site_id
 _symmetry_equiv_pos_as_xyz
  1  'x, y, z'
loop_
 _atom_site_type_symbol
 _atom_site_label
 _atom_site_symmetry_multiplicity
 _atom_site_fract_x
 _atom_site_fract_y
 _atom_site_fract_z
 _atom_site_occupancy
  Th  Th0  1  0.883344  0.250000  0.133344  1
  Th  Th1  1  0.624471  0.750000  0.374471  1
  Th  Th2  1  0.244460  0.124889  0.878132  1
  Th  Th3  1  0.753242  0.375111  0.619570  1
  Th  Th4  1  0.128934  0.880784  0.249480  1
  Th  Th5  1  0.368696  0.619216  0.748150  1
  Cu  Cu6  1  0.369436  0.250000  0.619436  1
  Cu  Cu7  1  0.123927  0.750000  0.873927  1
  Cu  Cu8  1  0.243571  0.619004  0.370241  1
  Cu  Cu9  1  0.751237  0.880996  0.124567  1
  Cu  Cu10  1  0.625467  0.372680  0.253721  1
  Cu  Cu11  1  0.881042  0.127320  0.752787  1
  Sn  Sn12  1  0.999752  0.667052  0.499411  1
  Sn  Sn13  1  0.832359  0.832948  0.832700  1
  Sn  Sn14  1  0.498852  0.998380  0.164830  1
  Sn  Sn15  1  0.166450  0.501620  0.000471  1
  Sn  Sn16  1  0.998383  0.163755  0.499911  1
  Sn  Sn17  1  0.336156  0.336245  0.334628  1
  Bi  Bi18  1  0.670359  0.500353  0.000218  1
  Bi  Bi19  1  0.499865  0.999647  0.670006  1
