# generated using pymatgen
data_Yb8AgP5
_symmetry_space_group_name_H-M   'P 1'
_cell_length_a   7.54551797
_cell_length_b   7.54551747
_cell_length_c   7.54551805
_cell_angle_alpha   109.13551728
_cell_angle_beta   110.14472916
_cell_angle_gamma   109.13552606
_symmetry_Int_Tables_number   1
_chemical_formula_structural   Yb8AgP5
_chemical_formula_sum   'Yb8 Ag1 P5'
_cell_volume   330.67408878
_cell_formula_units_Z   1
loop_
 _symmetry_equiv_pos_site_id
 _symmetry_equiv_pos_as_xyz
  1  'x, y, z'
loop_
 _atom_site_type_symbol
 _atom_site_label
 _atom_site_symmetry_multiplicity
 _atom_site_fract_x
 _atom_site_fract_y
 _atom_site_fract_z
 _atom_site_occupancy
  Yb  Yb0  1  0.158212  0.511006  0.994950  1
  Yb  Yb1  1  0.485276  0.989115  0.619775  1
  Yb  Yb2  1  0.380225  0.365501  0.369340  1
  Yb  Yb3  1  0.003839  0.134499  0.514724  1
  Yb  Yb4  1  0.852795  0.836739  0.841788  1
  Yb  Yb5  1  0.005050  0.663261  0.516056  1
  Yb  Yb6  1  0.630660  0.510885  0.996161  1
  Yb  Yb7  1  0.483944  0.988994  0.147205  1
  Ag  Ag8  1  0.875000  0.250000  0.125000  1
  P  P9  1  0.112453  0.865975  0.243020  1
  P  P10  1  0.377045  0.634025  0.746478  1
  P  P11  1  0.253522  0.130567  0.887547  1
  P  P12  1  0.756980  0.369433  0.622955  1
  P  P13  1  0.625000  0.750000  0.375000  1
