# generated using pymatgen
data_Nd4Tm2Ga3Si
_symmetry_space_group_name_H-M   'P 1'
_cell_length_a   7.66856731
_cell_length_b   7.66856731
_cell_length_c   4.51581400
_cell_angle_alpha   90.00000000
_cell_angle_beta   90.00000000
_cell_angle_gamma   90.41508813
_symmetry_Int_Tables_number   1
_chemical_formula_structural   Nd4Tm2Ga3Si
_chemical_formula_sum   'Nd4 Tm2 Ga3 Si1'
_cell_volume   265.55416443
_cell_formula_units_Z   1
loop_
 _symmetry_equiv_pos_site_id
 _symmetry_equiv_pos_as_xyz
  1  'x, y, z'
loop_
 _atom_site_type_symbol
 _atom_site_label
 _atom_site_symmetry_multiplicity
 _atom_site_fract_x
 _atom_site_fract_y
 _atom_site_fract_z
 _atom_site_occupancy
  Nd  Nd0  1  0.327881  0.174844  0.500000  1
  Nd  Nd1  1  0.821384  0.321384  0.500000  1
  Nd  Nd2  1  0.175365  0.675365  0.500000  1
  Nd  Nd3  1  0.674844  0.827881  0.500000  1
  Tm  Tm4  1  0.996554  0.000037  0.000000  1
  Tm  Tm5  1  0.500037  0.496554  0.000000  1
  Ga  Ga6  1  0.120166  0.380414  0.000000  1
  Ga  Ga7  1  0.880415  0.620166  0.000000  1
  Ga  Ga8  1  0.382788  0.882789  0.000000  1
  Si  Si9  1  0.620563  0.120563  0.000000  1
