# generated using pymatgen
data_Ho2ScB2Ir4Ru
_symmetry_space_group_name_H-M   'P 1'
_cell_length_a   3.11925800
_cell_length_b   9.81256700
_cell_length_c   9.81256700
_cell_angle_alpha   90.00000000
_cell_angle_beta   90.00000000
_cell_angle_gamma   90.00000000
_symmetry_Int_Tables_number   1
_chemical_formula_structural   Ho2ScB2Ir4Ru
_chemical_formula_sum   'Ho4 Sc2 B4 Ir8 Ru2'
_cell_volume   300.34234536
_cell_formula_units_Z   2
loop_
 _symmetry_equiv_pos_site_id
 _symmetry_equiv_pos_as_xyz
  1  'x, y, z'
loop_
 _atom_site_type_symbol
 _atom_site_label
 _atom_site_symmetry_multiplicity
 _atom_site_fract_x
 _atom_site_fract_y
 _atom_site_fract_z
 _atom_site_occupancy
  Ho  Ho0  1  0.000000  0.174329  0.674329  1
  Ho  Ho1  1  0.000000  0.825671  0.325671  1
  Ho  Ho2  1  0.000000  0.325671  0.174329  1
  Ho  Ho3  1  0.000000  0.674329  0.825671  1
  Sc  Sc4  1  0.000000  0.000000  0.000000  1
  Sc  Sc5  1  0.000000  0.500000  0.500000  1
  B  B6  1  0.000000  0.619774  0.119774  1
  B  B7  1  0.000000  0.380226  0.880226  1
  B  B8  1  0.000000  0.880226  0.619774  1
  B  B9  1  0.000000  0.119774  0.380226  1
  Ir  Ir10  1  0.500000  0.071204  0.223765  1
  Ir  Ir11  1  0.500000  0.928796  0.776235  1
  Ir  Ir12  1  0.500000  0.776235  0.071204  1
  Ir  Ir13  1  0.500000  0.428796  0.723765  1
  Ir  Ir14  1  0.500000  0.223765  0.928796  1
  Ir  Ir15  1  0.500000  0.571204  0.276235  1
  Ir  Ir16  1  0.500000  0.723765  0.571204  1
  Ir  Ir17  1  0.500000  0.276235  0.428796  1
  Ru  Ru18  1  0.500000  0.000000  0.500000  1
  Ru  Ru19  1  0.500000  0.500000  0.000000  1
