# generated using pymatgen
data_LuPaZn4(InPt2)2
_symmetry_space_group_name_H-M   'P 1'
_cell_length_a   4.03134400
_cell_length_b   6.84340117
_cell_length_c   8.19099500
_cell_angle_alpha   90.00762644
_cell_angle_beta   90.00000000
_cell_angle_gamma   90.00000000
_symmetry_Int_Tables_number   1
_chemical_formula_structural   LuPaZn4(InPt2)2
_chemical_formula_sum   'Lu1 Pa1 Zn4 In2 Pt4'
_cell_volume   225.97402205
_cell_formula_units_Z   1
loop_
 _symmetry_equiv_pos_site_id
 _symmetry_equiv_pos_as_xyz
  1  'x, y, z'
loop_
 _atom_site_type_symbol
 _atom_site_label
 _atom_site_symmetry_multiplicity
 _atom_site_fract_x
 _atom_site_fract_y
 _atom_site_fract_z
 _atom_site_occupancy
  Lu  Lu0  1  0.750000  0.955415  0.675864  1
  Pa  Pa1  1  0.250000  0.542486  0.173365  1
  Zn  Zn2  1  0.250000  0.628477  0.554032  1
  Zn  Zn3  1  0.750000  0.369862  0.449495  1
  Zn  Zn4  1  0.750000  0.877093  0.048072  1
  Zn  Zn5  1  0.250000  0.123934  0.941625  1
  In  In6  1  0.750000  0.444705  0.826149  1
  In  In7  1  0.250000  0.055428  0.333106  1
  Pt  Pt8  1  0.250000  0.744635  0.863972  1
  Pt  Pt9  1  0.750000  0.251701  0.140248  1
  Pt  Pt10  1  0.750000  0.752107  0.356221  1
  Pt  Pt11  1  0.250000  0.254159  0.637850  1
