# generated using pymatgen
data_Ba6TmNi4O15
_symmetry_space_group_name_H-M   'P 1'
_cell_length_a   7.29066209
_cell_length_b   7.26820318
_cell_length_c   7.29087725
_cell_angle_alpha   88.48588131
_cell_angle_beta   88.22974988
_cell_angle_gamma   88.21730188
_symmetry_Int_Tables_number   1
_chemical_formula_structural   Ba6TmNi4O15
_chemical_formula_sum   'Ba6 Tm1 Ni4 O15'
_cell_volume   385.84701432
_cell_formula_units_Z   1
loop_
 _symmetry_equiv_pos_site_id
 _symmetry_equiv_pos_as_xyz
  1  'x, y, z'
loop_
 _atom_site_type_symbol
 _atom_site_label
 _atom_site_symmetry_multiplicity
 _atom_site_fract_x
 _atom_site_fract_y
 _atom_site_fract_z
 _atom_site_occupancy
  Ba  Ba0  1  0.337896  0.658975  0.000884  1
  Ba  Ba1  1  0.006124  0.331182  0.666984  1
  Ba  Ba2  1  0.667313  0.009243  0.335278  1
  Ba  Ba3  1  0.143215  0.862355  0.499784  1
  Ba  Ba4  1  0.499836  0.144587  0.865569  1
  Ba  Ba5  1  0.863826  0.502139  0.143315  1
  Tm  Tm6  1  0.501846  0.495143  0.497095  1
  Ni  Ni7  1  0.285269  0.289109  0.288216  1
  Ni  Ni8  1  0.713040  0.711592  0.711377  1
  Ni  Ni9  1  0.089715  0.095310  0.093624  1
  Ni  Ni10  1  0.904960  0.903261  0.904406  1
  O  O11  1  0.140699  0.995614  0.858233  1
  O  O12  1  0.855978  0.138798  0.996695  1
  O  O13  1  0.998689  0.856618  0.140173  1
  O  O14  1  0.017747  0.188142  0.326610  1
  O  O15  1  0.322586  0.040406  0.195746  1
  O  O16  1  0.183421  0.328343  0.023282  1
  O  O17  1  0.805572  0.959907  0.672537  1
  O  O18  1  0.671645  0.804705  0.959703  1
  O  O19  1  0.960474  0.671262  0.803048  1
  O  O20  1  0.372148  0.228743  0.547546  1
  O  O21  1  0.545191  0.375184  0.225034  1
  O  O22  1  0.228830  0.533932  0.367884  1
  O  O23  1  0.775407  0.634671  0.472561  1
  O  O24  1  0.471622  0.769901  0.633153  1
  O  O25  1  0.636951  0.470883  0.771266  1
