# generated using pymatgen
data_Tm4Al18(NiIr)3
_symmetry_space_group_name_H-M   'P 1'
_cell_length_a   7.48781802
_cell_length_b   7.48781755
_cell_length_c   9.30515908
_cell_angle_alpha   89.99254782
_cell_angle_beta   89.99255252
_cell_angle_gamma   119.56722112
_symmetry_Int_Tables_number   1
_chemical_formula_structural   Tm4Al18(NiIr)3
_chemical_formula_sum   'Tm4 Al18 Ni3 Ir3'
_cell_volume   453.77694466
_cell_formula_units_Z   1
loop_
 _symmetry_equiv_pos_site_id
 _symmetry_equiv_pos_as_xyz
  1  'x, y, z'
loop_
 _atom_site_type_symbol
 _atom_site_label
 _atom_site_symmetry_multiplicity
 _atom_site_fract_x
 _atom_site_fract_y
 _atom_site_fract_z
 _atom_site_occupancy
  Tm  Tm0  1  0.994821  0.670697  0.250117  1
  Tm  Tm1  1  0.005179  0.329303  0.749883  1
  Tm  Tm2  1  0.670697  0.994821  0.250117  1
  Tm  Tm3  1  0.329303  0.005179  0.749883  1
  Al  Al4  1  0.125528  0.125528  0.245397  1
  Al  Al5  1  0.874472  0.874472  0.754603  1
  Al  Al6  1  0.997099  0.334558  0.073785  1
  Al  Al7  1  0.002901  0.665442  0.926215  1
  Al  Al8  1  0.999397  0.665103  0.574872  1
  Al  Al9  1  0.334897  0.000603  0.425128  1
  Al  Al10  1  0.000603  0.334897  0.425128  1
  Al  Al11  1  0.665103  0.999397  0.574872  1
  Al  Al12  1  0.665442  0.002901  0.926215  1
  Al  Al13  1  0.334558  0.997099  0.073785  1
  Al  Al14  1  0.333267  0.333267  0.553222  1
  Al  Al15  1  0.666733  0.666733  0.446778  1
  Al  Al16  1  0.668469  0.668469  0.052814  1
  Al  Al17  1  0.331531  0.331531  0.947186  1
  Al  Al18  1  0.339262  0.550915  0.245827  1
  Al  Al19  1  0.660738  0.449085  0.754173  1
  Al  Al20  1  0.550915  0.339262  0.245827  1
  Al  Al21  1  0.449085  0.660738  0.754173  1
  Ni  Ni22  1  0.671834  0.328166  0.000000  1
  Ni  Ni23  1  0.328166  0.671834  0.000000  1
  Ni  Ni24  1  0.000000  0.000000  0.000000  1
  Ir  Ir25  1  0.328138  0.671862  0.500000  1
  Ir  Ir26  1  0.671862  0.328138  0.500000  1
  Ir  Ir27  1  0.000000  0.000000  0.500000  1
