# generated using pymatgen
data_HgBi3RuPt3O14
_symmetry_space_group_name_H-M   'P 1'
_cell_length_a   7.31112383
_cell_length_b   7.31112426
_cell_length_c   7.32705856
_cell_angle_alpha   61.39117250
_cell_angle_beta   61.39117345
_cell_angle_gamma   61.51708702
_symmetry_Int_Tables_number   1
_chemical_formula_structural   HgBi3RuPt3O14
_chemical_formula_sum   'Hg1 Bi3 Ru1 Pt3 O14'
_cell_volume   285.85076813
_cell_formula_units_Z   1
loop_
 _symmetry_equiv_pos_site_id
 _symmetry_equiv_pos_as_xyz
  1  'x, y, z'
loop_
 _atom_site_type_symbol
 _atom_site_label
 _atom_site_symmetry_multiplicity
 _atom_site_fract_x
 _atom_site_fract_y
 _atom_site_fract_z
 _atom_site_occupancy
  Hg  Hg0  1  0.125000  0.125000  0.125000  1
  Bi  Bi1  1  0.125000  0.125000  0.625000  1
  Bi  Bi2  1  0.125000  0.625000  0.125000  1
  Bi  Bi3  1  0.625000  0.125000  0.125000  1
  Ru  Ru4  1  0.625000  0.625000  0.125000  1
  Pt  Pt5  1  0.625000  0.125000  0.625000  1
  Pt  Pt6  1  0.125000  0.625000  0.625000  1
  Pt  Pt7  1  0.625000  0.625000  0.625000  1
  O  O8  1  0.248361  0.248361  0.245333  1
  O  O9  1  0.001639  0.001639  0.004667  1
  O  O10  1  0.541874  0.956885  0.538345  1
  O  O11  1  0.303449  0.691106  0.295684  1
  O  O12  1  0.544041  0.544041  0.955868  1
  O  O13  1  0.956885  0.541874  0.538345  1
  O  O14  1  0.558894  0.946551  0.954316  1
  O  O15  1  0.956551  0.956551  0.546806  1
  O  O16  1  0.946551  0.558894  0.954316  1
  O  O17  1  0.691106  0.303449  0.295684  1
  O  O18  1  0.293115  0.708126  0.711655  1
  O  O19  1  0.708126  0.293115  0.711655  1
  O  O20  1  0.293449  0.293449  0.703194  1
  O  O21  1  0.705959  0.705959  0.294132  1
