# generated using pymatgen
data_Tb3DyAl4IrPt3
_symmetry_space_group_name_H-M   'P 1'
_cell_length_a   4.42806300
_cell_length_b   6.85294387
_cell_length_c   7.81015007
_cell_angle_alpha   90.06847893
_cell_angle_beta   90.00000000
_cell_angle_gamma   90.00000000
_symmetry_Int_Tables_number   1
_chemical_formula_structural   Tb3DyAl4IrPt3
_chemical_formula_sum   'Tb3 Dy1 Al4 Ir1 Pt3'
_cell_volume   237.00092143
_cell_formula_units_Z   1
loop_
 _symmetry_equiv_pos_site_id
 _symmetry_equiv_pos_as_xyz
  1  'x, y, z'
loop_
 _atom_site_type_symbol
 _atom_site_label
 _atom_site_symmetry_multiplicity
 _atom_site_fract_x
 _atom_site_fract_y
 _atom_site_fract_z
 _atom_site_occupancy
  Tb  Tb0  1  0.250000  0.469510  0.180780  1
  Tb  Tb1  1  0.750000  0.532292  0.816830  1
  Tb  Tb2  1  0.250000  0.966959  0.321378  1
  Dy  Dy3  1  0.750000  0.025050  0.680445  1
  Al  Al4  1  0.250000  0.853792  0.935573  1
  Al  Al5  1  0.750000  0.145277  0.061480  1
  Al  Al6  1  0.750000  0.645331  0.439078  1
  Al  Al7  1  0.250000  0.359795  0.563508  1
  Ir  Ir8  1  0.250000  0.731242  0.617702  1
  Pt  Pt9  1  0.750000  0.271684  0.382369  1
  Pt  Pt10  1  0.750000  0.773192  0.118464  1
  Pt  Pt11  1  0.250000  0.225876  0.882391  1
