# generated using pymatgen
data_YbEr5Al19Si5Os8
_symmetry_space_group_name_H-M   'P 1'
_cell_length_a   8.69048300
_cell_length_b   8.66353868
_cell_length_c   9.59328100
_cell_angle_alpha   90.00000000
_cell_angle_beta   90.00000000
_cell_angle_gamma   120.10293794
_symmetry_Int_Tables_number   1
_chemical_formula_structural   YbEr5Al19Si5Os8
_chemical_formula_sum   'Yb1 Er5 Al19 Si5 Os8'
_cell_volume   624.86415812
_cell_formula_units_Z   1
loop_
 _symmetry_equiv_pos_site_id
 _symmetry_equiv_pos_as_xyz
  1  'x, y, z'
loop_
 _atom_site_type_symbol
 _atom_site_label
 _atom_site_symmetry_multiplicity
 _atom_site_fract_x
 _atom_site_fract_y
 _atom_site_fract_z
 _atom_site_occupancy
  Yb  Yb0  1  0.194284  0.388571  0.250000  1
  Er  Er1  1  0.804584  0.609166  0.750000  1
  Er  Er2  1  0.607446  0.805707  0.250000  1
  Er  Er3  1  0.391583  0.196771  0.750000  1
  Er  Er4  1  0.198261  0.805707  0.250000  1
  Er  Er5  1  0.805189  0.196771  0.750000  1
  Al  Al6  1  0.165150  0.330301  0.575831  1
  Al  Al7  1  0.834254  0.668506  0.421263  1
  Al  Al8  1  0.668982  0.835582  0.576561  1
  Al  Al9  1  0.834254  0.668506  0.078737  1
  Al  Al10  1  0.329345  0.165619  0.422196  1
  Al  Al11  1  0.165150  0.330301  0.924169  1
  Al  Al12  1  0.166599  0.835582  0.576561  1
  Al  Al13  1  0.329345  0.165619  0.077804  1
  Al  Al14  1  0.836274  0.165619  0.422196  1
  Al  Al15  1  0.668982  0.835582  0.923439  1
  Al  Al16  1  0.836274  0.165619  0.077804  1
  Al  Al17  1  0.166599  0.835582  0.923439  1
  Al  Al18  1  0.437429  0.874858  0.750000  1
  Al  Al19  1  0.874048  0.433086  0.250000  1
  Al  Al20  1  0.128243  0.564663  0.750000  1
  Al  Al21  1  0.559037  0.433086  0.250000  1
  Al  Al22  1  0.436418  0.564663  0.750000  1
  Al  Al23  1  0.999610  0.999220  0.250000  1
  Al  Al24  1  0.000825  0.001651  0.750000  1
  Si  Si25  1  0.332276  0.664553  0.039877  1
  Si  Si26  1  0.667148  0.334293  0.959939  1
  Si  Si27  1  0.667148  0.334293  0.540061  1
  Si  Si28  1  0.332276  0.664553  0.460123  1
  Si  Si29  1  0.564118  0.128238  0.250000  1
  Os  Os30  1  0.501098  0.002196  0.005902  1
  Os  Os31  1  0.998016  0.499455  0.999011  1
  Os  Os32  1  0.501098  0.002196  0.494098  1
  Os  Os33  1  0.501439  0.499455  0.999011  1
  Os  Os34  1  0.998016  0.499455  0.500989  1
  Os  Os35  1  0.501439  0.499455  0.500989  1
  Os  Os36  1  0.998881  0.997760  0.999561  1
  Os  Os37  1  0.998881  0.997760  0.500439  1
