# generated using pymatgen
data_Er16CdHg3Ir3Ru
_symmetry_space_group_name_H-M   'P 1'
_cell_length_a   9.56991022
_cell_length_b   9.53958339
_cell_length_c   9.53958505
_cell_angle_alpha   59.63963334
_cell_angle_beta   59.63615949
_cell_angle_gamma   59.63616036
_symmetry_Int_Tables_number   1
_chemical_formula_structural   Er16CdHg3Ir3Ru
_chemical_formula_sum   'Er16 Cd1 Hg3 Ir3 Ru1'
_cell_volume   610.74188448
_cell_formula_units_Z   1
loop_
 _symmetry_equiv_pos_site_id
 _symmetry_equiv_pos_as_xyz
  1  'x, y, z'
loop_
 _atom_site_type_symbol
 _atom_site_label
 _atom_site_symmetry_multiplicity
 _atom_site_fract_x
 _atom_site_fract_y
 _atom_site_fract_z
 _atom_site_occupancy
  Er  Er0  1  0.601087  0.600642  0.600642  1
  Er  Er1  1  0.599498  0.599388  0.204272  1
  Er  Er2  1  0.599498  0.204272  0.599388  1
  Er  Er3  1  0.199409  0.600878  0.600878  1
  Er  Er4  1  0.060705  0.439966  0.439966  1
  Er  Er5  1  0.436984  0.059626  0.059626  1
  Er  Er6  1  0.438788  0.061992  0.439267  1
  Er  Er7  1  0.058171  0.438133  0.058851  1
  Er  Er8  1  0.438788  0.439267  0.061992  1
  Er  Er9  1  0.058171  0.058851  0.438133  1
  Er  Er10  1  0.189157  0.810460  0.810460  1
  Er  Er11  1  0.809456  0.187740  0.187740  1
  Er  Er12  1  0.810297  0.189561  0.810891  1
  Er  Er13  1  0.187781  0.808444  0.188598  1
  Er  Er14  1  0.810297  0.810891  0.189561  1
  Er  Er15  1  0.187781  0.188598  0.808444  1
  Cd  Cd16  1  0.510598  0.829342  0.829342  1
  Hg  Hg17  1  0.833358  0.834454  0.834454  1
  Hg  Hg18  1  0.834655  0.835916  0.493439  1
  Hg  Hg19  1  0.834655  0.493439  0.835916  1
  Ir  Ir20  1  0.392656  0.395596  0.826014  1
  Ir  Ir21  1  0.392656  0.826014  0.395596  1
  Ir  Ir22  1  0.826122  0.394212  0.394212  1
  Ru  Ru23  1  0.389430  0.392314  0.392314  1
