# generated using pymatgen
data_Hf2Zn2IrPd
_symmetry_space_group_name_H-M   'P 1'
_cell_length_a   7.22049000
_cell_length_b   7.22048884
_cell_length_c   6.87077200
_cell_angle_alpha   90.00000000
_cell_angle_beta   90.00000000
_cell_angle_gamma   119.99999617
_symmetry_Int_Tables_number   1
_chemical_formula_structural   Hf2Zn2IrPd
_chemical_formula_sum   'Hf6 Zn6 Ir3 Pd3'
_cell_volume   310.21975977
_cell_formula_units_Z   3
loop_
 _symmetry_equiv_pos_site_id
 _symmetry_equiv_pos_as_xyz
  1  'x, y, z'
loop_
 _atom_site_type_symbol
 _atom_site_label
 _atom_site_symmetry_multiplicity
 _atom_site_fract_x
 _atom_site_fract_y
 _atom_site_fract_z
 _atom_site_occupancy
  Hf  Hf0  1  0.602413  0.594011  0.256406  1
  Hf  Hf1  1  0.021099  0.412398  0.744886  1
  Hf  Hf2  1  0.405989  0.008402  0.256406  1
  Hf  Hf3  1  0.991598  0.397587  0.256406  1
  Hf  Hf4  1  0.391299  0.978901  0.744886  1
  Hf  Hf5  1  0.587602  0.608701  0.744886  1
  Zn  Zn6  1  0.269362  0.266842  0.500695  1
  Zn  Zn7  1  0.733158  0.002520  0.500695  1
  Zn  Zn8  1  0.997480  0.730638  0.500695  1
  Zn  Zn9  1  0.732456  0.000794  0.000692  1
  Zn  Zn10  1  0.268338  0.267544  0.000692  1
  Zn  Zn11  1  0.999206  0.731662  0.000692  1
  Ir  Ir12  1  0.333333  0.666667  0.484040  1
  Ir  Ir13  1  0.333333  0.666667  0.014337  1
  Ir  Ir14  1  0.666667  0.333333  0.512971  1
  Pd  Pd15  1  0.000000  0.000000  0.750039  1
  Pd  Pd16  1  0.000000  0.000000  0.250978  1
  Pd  Pd17  1  0.666667  0.333333  0.979602  1
