# generated using pymatgen
data_La2Pr4ThPt3
_symmetry_space_group_name_H-M   'P 1'
_cell_length_a   6.55566401
_cell_length_b   10.28986785
_cell_length_c   10.28998742
_cell_angle_alpha   120.08467466
_cell_angle_beta   89.99573429
_cell_angle_gamma   90.00338820
_symmetry_Int_Tables_number   1
_chemical_formula_structural   La2Pr4ThPt3
_chemical_formula_sum   'La4 Pr8 Th2 Pt6'
_cell_volume   600.62135421
_cell_formula_units_Z   2
loop_
 _symmetry_equiv_pos_site_id
 _symmetry_equiv_pos_as_xyz
  1  'x, y, z'
loop_
 _atom_site_type_symbol
 _atom_site_label
 _atom_site_symmetry_multiplicity
 _atom_site_fract_x
 _atom_site_fract_y
 _atom_site_fract_z
 _atom_site_occupancy
  La  La0  1  0.247950  0.128566  0.871450  1
  La  La1  1  0.247873  0.743075  0.871178  1
  La  La2  1  0.247896  0.128836  0.256936  1
  La  La3  1  0.747690  0.871654  0.128348  1
  Pr  Pr4  1  0.747402  0.256748  0.128185  1
  Pr  Pr5  1  0.747403  0.871825  0.743272  1
  Pr  Pr6  1  0.446995  0.538299  0.461692  1
  Pr  Pr7  1  0.446866  0.923716  0.462089  1
  Pr  Pr8  1  0.446872  0.537905  0.076290  1
  Pr  Pr9  1  0.946008  0.461973  0.538015  1
  Pr  Pr10  1  0.946085  0.076239  0.538290  1
  Pr  Pr11  1  0.946082  0.461707  0.923759  1
  Th  Th12  1  0.467485  0.333238  0.666752  1
  Th  Th13  1  0.966803  0.666412  0.333560  1
  Pt  Pt14  1  0.181167  0.808615  0.191385  1
  Pt  Pt15  1  0.181337  0.382666  0.191410  1
  Pt  Pt16  1  0.181341  0.808589  0.617336  1
  Pt  Pt17  1  0.680926  0.191670  0.808319  1
  Pt  Pt18  1  0.680909  0.617042  0.808777  1
  Pt  Pt19  1  0.680907  0.191225  0.382957  1
