# generated using pymatgen
data_Tm2Hf5TcF30
_symmetry_space_group_name_H-M   'P 1'
_cell_length_a   8.04252894
_cell_length_b   8.04252787
_cell_length_c   8.03490300
_cell_angle_alpha   79.84803802
_cell_angle_beta   79.84803939
_cell_angle_gamma   100.17467806
_symmetry_Int_Tables_number   1
_chemical_formula_structural   Tm2Hf5TcF30
_chemical_formula_sum   'Tm2 Hf5 Tc1 F30'
_cell_volume   491.86196399
_cell_formula_units_Z   1
loop_
 _symmetry_equiv_pos_site_id
 _symmetry_equiv_pos_as_xyz
  1  'x, y, z'
loop_
 _atom_site_type_symbol
 _atom_site_label
 _atom_site_symmetry_multiplicity
 _atom_site_fract_x
 _atom_site_fract_y
 _atom_site_fract_z
 _atom_site_occupancy
  Tm  Tm0  1  0.677443  0.322557  0.750000  1
  Tm  Tm1  1  0.322551  0.677449  0.250000  1
  Hf  Hf2  1  0.748770  0.251230  0.250000  1
  Hf  Hf3  1  0.822108  0.751101  0.325173  1
  Hf  Hf4  1  0.248899  0.177892  0.174827  1
  Hf  Hf5  1  0.177139  0.248643  0.674167  1
  Hf  Hf6  1  0.751357  0.822861  0.825833  1
  Tc  Tc7  1  0.250281  0.749719  0.750000  1
  F  F8  1  0.150677  0.185486  0.945972  1
  F  F9  1  0.687983  0.563986  0.848592  1
  F  F10  1  0.040562  0.655345  0.315219  1
  F  F11  1  0.654753  0.039520  0.816775  1
  F  F12  1  0.562715  0.685863  0.348859  1
  F  F13  1  0.182885  0.149879  0.447783  1
  F  F14  1  0.850121  0.817115  0.052217  1
  F  F15  1  0.314137  0.437285  0.151141  1
  F  F16  1  0.960480  0.345247  0.683225  1
  F  F17  1  0.344655  0.959438  0.184781  1
  F  F18  1  0.436014  0.312017  0.651408  1
  F  F19  1  0.814514  0.849323  0.554028  1
  F  F20  1  0.967667  0.032333  0.750000  1
  F  F21  1  0.543816  0.752505  0.028395  1
  F  F22  1  0.247495  0.456184  0.471605  1
  F  F23  1  0.455985  0.247103  0.971364  1
  F  F24  1  0.752897  0.544015  0.528636  1
  F  F25  1  0.032989  0.967011  0.250000  1
  F  F26  1  0.217487  0.726004  0.000163  1
  F  F27  1  0.225749  0.497380  0.783427  1
  F  F28  1  0.996638  0.720100  0.775269  1
  F  F29  1  0.723043  0.992746  0.275999  1
  F  F30  1  0.491604  0.224452  0.281225  1
  F  F31  1  0.726149  0.218880  0.504233  1
  F  F32  1  0.781120  0.273851  0.995767  1
  F  F33  1  0.775548  0.508396  0.218775  1
  F  F34  1  0.007254  0.276957  0.224001  1
  F  F35  1  0.279900  0.003362  0.724731  1
  F  F36  1  0.502620  0.774251  0.716573  1
  F  F37  1  0.273996  0.782513  0.499837  1
