# generated using pymatgen
data_LiEr3Ir8
_symmetry_space_group_name_H-M   'P 1'
_cell_length_a   5.30445400
_cell_length_b   5.30445357
_cell_length_c   8.60421500
_cell_angle_alpha   90.00000000
_cell_angle_beta   90.00000000
_cell_angle_gamma   119.99999020
_symmetry_Int_Tables_number   1
_chemical_formula_structural   LiEr3Ir8
_chemical_formula_sum   'Li1 Er3 Ir8'
_cell_volume   209.66371106
_cell_formula_units_Z   1
loop_
 _symmetry_equiv_pos_site_id
 _symmetry_equiv_pos_as_xyz
  1  'x, y, z'
loop_
 _atom_site_type_symbol
 _atom_site_label
 _atom_site_symmetry_multiplicity
 _atom_site_fract_x
 _atom_site_fract_y
 _atom_site_fract_z
 _atom_site_occupancy
  Li  Li0  1  0.333333  0.666667  0.441604  1
  Er  Er1  1  0.333333  0.666667  0.087541  1
  Er  Er2  1  0.666667  0.333333  0.553881  1
  Er  Er3  1  0.666667  0.333333  0.929193  1
  Ir  Ir4  1  0.000000  0.000000  0.997404  1
  Ir  Ir5  1  0.000000  0.000000  0.497968  1
  Ir  Ir6  1  0.830645  0.661292  0.249801  1
  Ir  Ir7  1  0.171331  0.828669  0.747669  1
  Ir  Ir8  1  0.657338  0.828669  0.747669  1
  Ir  Ir9  1  0.338708  0.169355  0.249801  1
  Ir  Ir10  1  0.830645  0.169355  0.249801  1
  Ir  Ir11  1  0.171331  0.342662  0.747669  1
