# generated using pymatgen
data_Rb2FeCu4Se5
_symmetry_space_group_name_H-M   'P 1'
_cell_length_a   9.65899298
_cell_length_b   9.66742194
_cell_length_c   9.64051194
_cell_angle_alpha   124.93898595
_cell_angle_beta   125.08765811
_cell_angle_gamma   81.36619286
_symmetry_Int_Tables_number   1
_chemical_formula_structural   Rb2FeCu4Se5
_chemical_formula_sum   'Rb4 Fe2 Cu8 Se10'
_cell_volume   581.93142856
_cell_formula_units_Z   2
loop_
 _symmetry_equiv_pos_site_id
 _symmetry_equiv_pos_as_xyz
  1  'x, y, z'
loop_
 _atom_site_type_symbol
 _atom_site_label
 _atom_site_symmetry_multiplicity
 _atom_site_fract_x
 _atom_site_fract_y
 _atom_site_fract_z
 _atom_site_occupancy
  Rb  Rb0  1  0.376457  0.806330  0.183117  1
  Rb  Rb1  1  0.801668  0.617207  0.427506  1
  Rb  Rb2  1  0.195273  0.381355  0.578022  1
  Rb  Rb3  1  0.622913  0.195407  0.816008  1
  Fe  Fe4  1  0.845149  0.944842  0.299447  1
  Fe  Fe5  1  0.244782  0.745563  0.499147  1
  Cu  Cu6  1  0.950082  0.647364  0.093580  1
  Cu  Cu7  1  0.349719  0.444573  0.294545  1
  Cu  Cu8  1  0.749416  0.253971  0.504348  1
  Cu  Cu9  1  0.155523  0.058452  0.707291  1
  Cu  Cu10  1  0.548619  0.848838  0.899658  1
  Cu  Cu11  1  0.649221  0.544598  0.694772  1
  Cu  Cu12  1  0.057802  0.355766  0.899284  1
  Cu  Cu13  1  0.451484  0.155779  0.105570  1
  Se  Se14  1  0.949711  0.552612  0.796206  1
  Se  Se15  1  0.359823  0.354965  0.002255  1
  Se  Se16  1  0.753846  0.141644  0.203308  1
  Se  Se17  1  0.145945  0.945853  0.397526  1
  Se  Se18  1  0.537359  0.748997  0.594397  1
  Se  Se19  1  0.652705  0.652812  0.006075  1
  Se  Se20  1  0.055104  0.454056  0.204519  1
  Se  Se21  1  0.448156  0.247604  0.400817  1
  Se  Se22  1  0.851262  0.051196  0.597673  1
  Se  Se23  1  0.247985  0.850218  0.794928  1
