# generated using pymatgen
data_Hf2Zr4Ga5Sn
_symmetry_space_group_name_H-M   'P 1'
_cell_length_a   5.77247800
_cell_length_b   8.70155700
_cell_length_c   9.34893800
_cell_angle_alpha   90.09851111
_cell_angle_beta   90.00000000
_cell_angle_gamma   90.00000000
_symmetry_Int_Tables_number   1
_chemical_formula_structural   Hf2Zr4Ga5Sn
_chemical_formula_sum   'Hf4 Zr8 Ga10 Sn2'
_cell_volume   469.59222048
_cell_formula_units_Z   2
loop_
 _symmetry_equiv_pos_site_id
 _symmetry_equiv_pos_as_xyz
  1  'x, y, z'
loop_
 _atom_site_type_symbol
 _atom_site_label
 _atom_site_symmetry_multiplicity
 _atom_site_fract_x
 _atom_site_fract_y
 _atom_site_fract_z
 _atom_site_occupancy
  Hf  Hf0  1  0.999388  0.734282  0.114856  1
  Hf  Hf1  1  0.499388  0.265718  0.885144  1
  Hf  Hf2  1  0.000612  0.265718  0.885144  1
  Hf  Hf3  1  0.500612  0.734282  0.114856  1
  Zr  Zr4  1  0.750000  0.474345  0.616666  1
  Zr  Zr5  1  0.250000  0.525655  0.383334  1
  Zr  Zr6  1  0.750000  0.971214  0.391369  1
  Zr  Zr7  1  0.250000  0.028786  0.608631  1
  Zr  Zr8  1  0.750000  0.374606  0.193468  1
  Zr  Zr9  1  0.250000  0.625394  0.806532  1
  Zr  Zr10  1  0.750000  0.864395  0.799735  1
  Zr  Zr11  1  0.250000  0.135605  0.200265  1
  Ga  Ga12  1  0.005538  0.748054  0.567605  1
  Ga  Ga13  1  0.505538  0.251946  0.432395  1
  Ga  Ga14  1  0.994462  0.251946  0.432395  1
  Ga  Ga15  1  0.494462  0.748054  0.567605  1
  Ga  Ga16  1  0.750000  0.553435  0.910510  1
  Ga  Ga17  1  0.250000  0.446565  0.089490  1
  Ga  Ga18  1  0.750000  0.136801  0.654094  1
  Ga  Ga19  1  0.250000  0.863199  0.345906  1
  Ga  Ga20  1  0.750000  0.636087  0.353891  1
  Ga  Ga21  1  0.250000  0.363913  0.646109  1
  Sn  Sn22  1  0.750000  0.047799  0.084884  1
  Sn  Sn23  1  0.250000  0.952201  0.915116  1
