# generated using pymatgen
data_Er3Lu(Zn2In)2
_symmetry_space_group_name_H-M   'P 1'
_cell_length_a   7.34677108
_cell_length_b   7.34677108
_cell_length_c   4.11786000
_cell_angle_alpha   90.00000000
_cell_angle_beta   90.00000000
_cell_angle_gamma   89.78375557
_symmetry_Int_Tables_number   1
_chemical_formula_structural   Er3Lu(Zn2In)2
_chemical_formula_sum   'Er3 Lu1 Zn4 In2'
_cell_volume   222.26009713
_cell_formula_units_Z   1
loop_
 _symmetry_equiv_pos_site_id
 _symmetry_equiv_pos_as_xyz
  1  'x, y, z'
loop_
 _atom_site_type_symbol
 _atom_site_label
 _atom_site_symmetry_multiplicity
 _atom_site_fract_x
 _atom_site_fract_y
 _atom_site_fract_z
 _atom_site_occupancy
  Er  Er0  1  0.329694  0.170305  0.500000  1
  Er  Er1  1  0.829275  0.329386  0.500000  1
  Er  Er2  1  0.170613  0.670724  0.500000  1
  Lu  Lu3  1  0.670316  0.829683  0.500000  1
  Zn  Zn4  1  0.624240  0.123309  0.000000  1
  Zn  Zn5  1  0.123966  0.376033  0.000000  1
  Zn  Zn6  1  0.875273  0.624727  0.000000  1
  Zn  Zn7  1  0.376690  0.875760  0.000000  1
  In  In8  1  0.999787  0.999859  0.000000  1
  In  In9  1  0.500141  0.500213  0.000000  1
