# generated using pymatgen
data_Th3FeAu3
_symmetry_space_group_name_H-M   'P 1'
_cell_length_a   8.23399005
_cell_length_b   8.23399018
_cell_length_c   8.23399016
_cell_angle_alpha   114.27758405
_cell_angle_beta   114.27757866
_cell_angle_gamma   114.27756295
_symmetry_Int_Tables_number   1
_chemical_formula_structural   Th3FeAu3
_chemical_formula_sum   'Th6 Fe2 Au6'
_cell_volume   332.07153444
_cell_formula_units_Z   2
loop_
 _symmetry_equiv_pos_site_id
 _symmetry_equiv_pos_as_xyz
  1  'x, y, z'
loop_
 _atom_site_type_symbol
 _atom_site_label
 _atom_site_symmetry_multiplicity
 _atom_site_fract_x
 _atom_site_fract_y
 _atom_site_fract_z
 _atom_site_occupancy
  Th  Th0  1  0.053743  0.385802  0.281992  1
  Th  Th1  1  0.385802  0.281992  0.053743  1
  Th  Th2  1  0.718008  0.946257  0.614198  1
  Th  Th3  1  0.281992  0.053743  0.385802  1
  Th  Th4  1  0.614198  0.718008  0.946257  1
  Th  Th5  1  0.946257  0.614198  0.718008  1
  Fe  Fe6  1  0.000000  0.000000  0.000000  1
  Fe  Fe7  1  0.500000  0.500000  0.500000  1
  Au  Au8  1  0.429315  0.938136  0.771950  1
  Au  Au9  1  0.938136  0.771950  0.429315  1
  Au  Au10  1  0.228050  0.570685  0.061864  1
  Au  Au11  1  0.771950  0.429315  0.938136  1
  Au  Au12  1  0.061864  0.228050  0.570685  1
  Au  Au13  1  0.570685  0.061864  0.228050  1
