# generated using pymatgen
data_LaTb2(ZnPt)4
_symmetry_space_group_name_H-M   'P 1'
_cell_length_a   8.31907700
_cell_length_b   8.31907669
_cell_length_c   8.31907719
_cell_angle_alpha   151.71080884
_cell_angle_beta   126.09192201
_cell_angle_gamma   61.98847512
_symmetry_Int_Tables_number   1
_chemical_formula_structural   LaTb2(ZnPt)4
_chemical_formula_sum   'La1 Tb2 Zn4 Pt4'
_cell_volume   218.66898642
_cell_formula_units_Z   1
loop_
 _symmetry_equiv_pos_site_id
 _symmetry_equiv_pos_as_xyz
  1  'x, y, z'
loop_
 _atom_site_type_symbol
 _atom_site_label
 _atom_site_symmetry_multiplicity
 _atom_site_fract_x
 _atom_site_fract_y
 _atom_site_fract_z
 _atom_site_occupancy
  La  La0  1  0.500000  0.000000  0.500000  1
  Tb  Tb1  1  0.873771  0.873771  0.000000  1
  Tb  Tb2  1  0.126229  0.126229  0.000000  1
  Zn  Zn3  1  0.477622  0.674430  0.803192  1
  Zn  Zn4  1  0.871237  0.674430  0.196808  1
  Zn  Zn5  1  0.128763  0.325570  0.803192  1
  Zn  Zn6  1  0.522378  0.325570  0.196808  1
  Pt  Pt7  1  0.277113  0.777113  0.500000  1
  Pt  Pt8  1  0.722887  0.222887  0.500000  1
  Pt  Pt9  1  0.809315  0.500000  0.309315  1
  Pt  Pt10  1  0.190685  0.500000  0.690685  1
