# generated using pymatgen
data_Sm2AlRe3
_symmetry_space_group_name_H-M   'P 1'
_cell_length_a   5.38624300
_cell_length_b   5.38624252
_cell_length_c   9.24740600
_cell_angle_alpha   90.00000000
_cell_angle_beta   90.00000000
_cell_angle_gamma   119.99999682
_symmetry_Int_Tables_number   1
_chemical_formula_structural   Sm2AlRe3
_chemical_formula_sum   'Sm4 Al2 Re6'
_cell_volume   232.33916136
_cell_formula_units_Z   2
loop_
 _symmetry_equiv_pos_site_id
 _symmetry_equiv_pos_as_xyz
  1  'x, y, z'
loop_
 _atom_site_type_symbol
 _atom_site_label
 _atom_site_symmetry_multiplicity
 _atom_site_fract_x
 _atom_site_fract_y
 _atom_site_fract_z
 _atom_site_occupancy
  Sm  Sm0  1  0.333333  0.666667  0.432784  1
  Sm  Sm1  1  0.666667  0.333333  0.567216  1
  Sm  Sm2  1  0.666667  0.333333  0.932784  1
  Sm  Sm3  1  0.333333  0.666667  0.067216  1
  Al  Al4  1  0.000000  0.000000  0.500000  1
  Al  Al5  1  0.000000  0.000000  0.000000  1
  Re  Re6  1  0.831341  0.168659  0.250000  1
  Re  Re7  1  0.831341  0.662681  0.250000  1
  Re  Re8  1  0.337319  0.168659  0.250000  1
  Re  Re9  1  0.168659  0.831341  0.750000  1
  Re  Re10  1  0.168659  0.337319  0.750000  1
  Re  Re11  1  0.662681  0.831341  0.750000  1
