# generated using pymatgen
data_Dy4MnV(FeB8)2
_symmetry_space_group_name_H-M   'P 1'
_cell_length_a   3.41887100
_cell_length_b   5.92736582
_cell_length_c   11.45592910
_cell_angle_alpha   90.18411949
_cell_angle_beta   90.00000000
_cell_angle_gamma   90.00000000
_symmetry_Int_Tables_number   1
_chemical_formula_structural   Dy4MnV(FeB8)2
_chemical_formula_sum   'Dy4 Mn1 V1 Fe2 B16'
_cell_volume   232.15204863
_cell_formula_units_Z   1
loop_
 _symmetry_equiv_pos_site_id
 _symmetry_equiv_pos_as_xyz
  1  'x, y, z'
loop_
 _atom_site_type_symbol
 _atom_site_label
 _atom_site_symmetry_multiplicity
 _atom_site_fract_x
 _atom_site_fract_y
 _atom_site_fract_z
 _atom_site_occupancy
  Dy  Dy0  1  0.000000  0.626740  0.351677  1
  Dy  Dy1  1  0.000000  0.373511  0.649398  1
  Dy  Dy2  1  0.000000  0.125631  0.152473  1
  Dy  Dy3  1  0.000000  0.876178  0.847060  1
  Mn  Mn4  1  0.000000  0.376900  0.917047  1
  V  V5  1  0.000000  0.624273  0.081236  1
  Fe  Fe6  1  0.000000  0.133931  0.414315  1
  Fe  Fe7  1  0.000000  0.865012  0.588398  1
  B  B8  1  0.500000  0.785395  0.186531  1
  B  B9  1  0.500000  0.219478  0.816147  1
  B  B10  1  0.500000  0.279664  0.317795  1
  B  B11  1  0.500000  0.719079  0.682987  1
  B  B12  1  0.500000  0.865455  0.031132  1
  B  B13  1  0.500000  0.138350  0.965682  1
  B  B14  1  0.500000  0.360191  0.468525  1
  B  B15  1  0.500000  0.639556  0.532175  1
  B  B16  1  0.500000  0.888720  0.454754  1
  B  B17  1  0.500000  0.111412  0.546296  1
  B  B18  1  0.500000  0.383727  0.044114  1
  B  B19  1  0.500000  0.609976  0.950918  1
  B  B20  1  0.500000  0.976339  0.311199  1
  B  B21  1  0.500000  0.024869  0.689619  1
  B  B22  1  0.500000  0.473381  0.192459  1
  B  B23  1  0.500000  0.522236  0.808063  1
