# generated using pymatgen
data_Eu4HoIr2
_symmetry_space_group_name_H-M   'P 1'
_cell_length_a   6.74633206
_cell_length_b   7.50435208
_cell_length_c   8.89405213
_cell_angle_alpha   96.80015642
_cell_angle_beta   112.28790505
_cell_angle_gamma   89.99999846
_symmetry_Int_Tables_number   1
_chemical_formula_structural   Eu4HoIr2
_chemical_formula_sum   'Eu8 Ho2 Ir4'
_cell_volume   413.21208169
_cell_formula_units_Z   2
loop_
 _symmetry_equiv_pos_site_id
 _symmetry_equiv_pos_as_xyz
  1  'x, y, z'
loop_
 _atom_site_type_symbol
 _atom_site_label
 _atom_site_symmetry_multiplicity
 _atom_site_fract_x
 _atom_site_fract_y
 _atom_site_fract_z
 _atom_site_occupancy
  Eu  Eu0  1  0.975919  0.920941  0.176179  1
  Eu  Eu1  1  0.799741  0.579059  0.823821  1
  Eu  Eu2  1  0.024081  0.079059  0.823821  1
  Eu  Eu3  1  0.200259  0.420941  0.176179  1
  Eu  Eu4  1  0.639111  0.817335  0.432712  1
  Eu  Eu5  1  0.206399  0.682665  0.567288  1
  Eu  Eu6  1  0.360889  0.182665  0.567288  1
  Eu  Eu7  1  0.793601  0.317335  0.432712  1
  Ho  Ho8  1  0.437637  0.750000  0.000000  1
  Ho  Ho9  1  0.562363  0.250000  0.000000  1
  Ir  Ir10  1  0.801355  0.572027  0.203462  1
  Ir  Ir11  1  0.597894  0.927973  0.796538  1
  Ir  Ir12  1  0.198645  0.427973  0.796538  1
  Ir  Ir13  1  0.402106  0.072027  0.203462  1
