# generated using pymatgen
data_Ho9TmGa3Bi2Ir
_symmetry_space_group_name_H-M   'P 1'
_cell_length_a   8.62282763
_cell_length_b   8.62282687
_cell_length_c   8.74301565
_cell_angle_alpha   125.04040459
_cell_angle_beta   125.02532483
_cell_angle_gamma   80.55534537
_symmetry_Int_Tables_number   1
_chemical_formula_structural   Ho9TmGa3Bi2Ir
_chemical_formula_sum   'Ho9 Tm1 Ga3 Bi2 Ir1'
_cell_volume   422.37733601
_cell_formula_units_Z   1
loop_
 _symmetry_equiv_pos_site_id
 _symmetry_equiv_pos_as_xyz
  1  'x, y, z'
loop_
 _atom_site_type_symbol
 _atom_site_label
 _atom_site_symmetry_multiplicity
 _atom_site_fract_x
 _atom_site_fract_y
 _atom_site_fract_z
 _atom_site_occupancy
  Ho  Ho0  1  0.500208  0.500139  0.000346  1
  Ho  Ho1  1  0.016034  0.500991  0.798677  1
  Ho  Ho2  1  0.717522  0.201804  0.201200  1
  Ho  Ho3  1  0.516213  0.705645  0.500125  1
  Ho  Ho4  1  0.194711  0.038785  0.499790  1
  Ho  Ho5  1  0.999395  0.483677  0.201200  1
  Ho  Ho6  1  0.297686  0.782643  0.798677  1
  Ho  Ho7  1  0.461005  0.305079  0.499790  1
  Ho  Ho8  1  0.794480  0.983912  0.500125  1
  Tm  Tm9  1  0.000410  0.000777  0.001188  1
  Ga  Ga10  1  0.357158  0.855689  0.212846  1
  Ga  Ga11  1  0.644745  0.142327  0.787073  1
  Ga  Ga12  1  0.864138  0.636448  0.500586  1
  Bi  Bi13  1  0.755676  0.744869  0.999866  1
  Bi  Bi14  1  0.254997  0.244190  0.999866  1
  Ir  Ir15  1  0.125625  0.373023  0.498648  1
