# generated using pymatgen
data_Pa(FeP)2
_symmetry_space_group_name_H-M   'P 1'
_cell_length_a   5.41099863
_cell_length_b   5.41099851
_cell_length_c   5.41099897
_cell_angle_alpha   138.42485448
_cell_angle_beta   138.42485606
_cell_angle_gamma   60.25293559
_symmetry_Int_Tables_number   1
_chemical_formula_structural   Pa(FeP)2
_chemical_formula_sum   'Pa1 Fe2 P2'
_cell_volume   69.03833282
_cell_formula_units_Z   1
loop_
 _symmetry_equiv_pos_site_id
 _symmetry_equiv_pos_as_xyz
  1  'x, y, z'
loop_
 _atom_site_type_symbol
 _atom_site_label
 _atom_site_symmetry_multiplicity
 _atom_site_fract_x
 _atom_site_fract_y
 _atom_site_fract_z
 _atom_site_occupancy
  Pa  Pa0  1  0.000000  0.000000  0.000000  1
  Fe  Fe1  1  0.750000  0.250000  0.500000  1
  Fe  Fe2  1  0.250000  0.750000  0.500000  1
  P  P3  1  0.627438  0.627438  0.000000  1
  P  P4  1  0.372562  0.372562  0.000000  1
