# generated using pymatgen
data_HoLuB6Ru
_symmetry_space_group_name_H-M   'P 1'
_cell_length_a   3.61581800
_cell_length_b   9.05816000
_cell_length_c   11.43786500
_cell_angle_alpha   90.00000000
_cell_angle_beta   90.00000000
_cell_angle_gamma   90.00000000
_symmetry_Int_Tables_number   1
_chemical_formula_structural   HoLuB6Ru
_chemical_formula_sum   'Ho4 Lu4 B24 Ru4'
_cell_volume   374.62048031
_cell_formula_units_Z   4
loop_
 _symmetry_equiv_pos_site_id
 _symmetry_equiv_pos_as_xyz
  1  'x, y, z'
loop_
 _atom_site_type_symbol
 _atom_site_label
 _atom_site_symmetry_multiplicity
 _atom_site_fract_x
 _atom_site_fract_y
 _atom_site_fract_z
 _atom_site_occupancy
  Ho  Ho0  1  0.000000  0.321310  0.414413  1
  Ho  Ho1  1  0.000000  0.678690  0.585587  1
  Ho  Ho2  1  0.000000  0.821310  0.085587  1
  Ho  Ho3  1  0.000000  0.178690  0.914413  1
  Lu  Lu4  1  0.000000  0.943730  0.372452  1
  Lu  Lu5  1  0.000000  0.056270  0.627548  1
  Lu  Lu6  1  0.000000  0.443730  0.127548  1
  Lu  Lu7  1  0.000000  0.556270  0.872452  1
  B  B8  1  0.500000  0.554379  0.433051  1
  B  B9  1  0.500000  0.445621  0.566949  1
  B  B10  1  0.500000  0.054379  0.066949  1
  B  B11  1  0.500000  0.945621  0.933051  1
  B  B12  1  0.500000  0.749703  0.419379  1
  B  B13  1  0.500000  0.250297  0.580621  1
  B  B14  1  0.500000  0.249703  0.080621  1
  B  B15  1  0.500000  0.750297  0.919379  1
  B  B16  1  0.500000  0.791768  0.265459  1
  B  B17  1  0.500000  0.208232  0.734541  1
  B  B18  1  0.500000  0.291768  0.234541  1
  B  B19  1  0.500000  0.708232  0.765459  1
  B  B20  1  0.500000  0.630614  0.183998  1
  B  B21  1  0.500000  0.369386  0.816002  1
  B  B22  1  0.500000  0.130614  0.316002  1
  B  B23  1  0.500000  0.869386  0.683998  1
  B  B24  1  0.500000  0.982489  0.213322  1
  B  B25  1  0.500000  0.017511  0.786678  1
  B  B26  1  0.500000  0.482489  0.286678  1
  B  B27  1  0.500000  0.517511  0.713322  1
  B  B28  1  0.500000  0.604017  0.028490  1
  B  B29  1  0.500000  0.395983  0.971510  1
  B  B30  1  0.500000  0.104017  0.471510  1
  B  B31  1  0.500000  0.895983  0.528490  1
  Ru  Ru32  1  0.000000  0.638192  0.320085  1
  Ru  Ru33  1  0.000000  0.361808  0.679915  1
  Ru  Ru34  1  0.000000  0.138192  0.179915  1
  Ru  Ru35  1  0.000000  0.861808  0.820085  1
