# generated using pymatgen
data_Pr4HoSi2Sn
_symmetry_space_group_name_H-M   'P 1'
_cell_length_a   7.78941300
_cell_length_b   9.32491315
_cell_length_c   7.78941300
_cell_angle_alpha   114.68737267
_cell_angle_beta   90.00000000
_cell_angle_gamma   114.68737267
_symmetry_Int_Tables_number   1
_chemical_formula_structural   Pr4HoSi2Sn
_chemical_formula_sum   'Pr8 Ho2 Si4 Sn2'
_cell_volume   456.54232716
_cell_formula_units_Z   2
loop_
 _symmetry_equiv_pos_site_id
 _symmetry_equiv_pos_as_xyz
  1  'x, y, z'
loop_
 _atom_site_type_symbol
 _atom_site_label
 _atom_site_symmetry_multiplicity
 _atom_site_fract_x
 _atom_site_fract_y
 _atom_site_fract_z
 _atom_site_occupancy
  Pr  Pr0  1  0.537351  0.724405  0.687057  1
  Pr  Pr1  1  0.187057  0.724405  0.037351  1
  Pr  Pr2  1  0.687057  0.724405  0.187057  1
  Pr  Pr3  1  0.037351  0.724405  0.537351  1
  Pr  Pr4  1  0.462649  0.275595  0.312943  1
  Pr  Pr5  1  0.812943  0.275595  0.962649  1
  Pr  Pr6  1  0.312943  0.275595  0.812943  1
  Pr  Pr7  1  0.962649  0.275595  0.462649  1
  Ho  Ho8  1  0.000000  0.000000  0.000000  1
  Ho  Ho9  1  0.500000  0.000000  0.500000  1
  Si  Si10  1  0.879076  0.000000  0.620924  1
  Si  Si11  1  0.120924  0.000000  0.379076  1
  Si  Si12  1  0.620924  0.000000  0.120924  1
  Si  Si13  1  0.379076  0.000000  0.879076  1
  Sn  Sn14  1  0.750000  0.500000  0.750000  1
  Sn  Sn15  1  0.250000  0.500000  0.250000  1
