# generated using pymatgen
data_Dy2Lu3Sn3Se
_symmetry_space_group_name_H-M   'P 1'
_cell_length_a   8.95977500
_cell_length_b   8.95977634
_cell_length_c   6.58307300
_cell_angle_alpha   90.00000000
_cell_angle_beta   90.00000000
_cell_angle_gamma   119.97864636
_symmetry_Int_Tables_number   1
_chemical_formula_structural   Dy2Lu3Sn3Se
_chemical_formula_sum   'Dy4 Lu6 Sn6 Se2'
_cell_volume   457.76963719
_cell_formula_units_Z   2
loop_
 _symmetry_equiv_pos_site_id
 _symmetry_equiv_pos_as_xyz
  1  'x, y, z'
loop_
 _atom_site_type_symbol
 _atom_site_label
 _atom_site_symmetry_multiplicity
 _atom_site_fract_x
 _atom_site_fract_y
 _atom_site_fract_z
 _atom_site_occupancy
  Dy  Dy0  1  0.745814  0.745814  0.750000  1
  Dy  Dy1  1  0.253794  0.999826  0.750000  1
  Dy  Dy2  1  0.999826  0.253794  0.750000  1
  Dy  Dy3  1  0.255147  0.255147  0.250000  1
  Lu  Lu4  1  0.666873  0.333353  0.000293  1
  Lu  Lu5  1  0.333353  0.666873  0.000293  1
  Lu  Lu6  1  0.333353  0.666873  0.499707  1
  Lu  Lu7  1  0.666873  0.333353  0.499707  1
  Lu  Lu8  1  0.746322  0.000058  0.250000  1
  Lu  Lu9  1  0.000058  0.746322  0.250000  1
  Sn  Sn10  1  0.397277  0.397277  0.750000  1
  Sn  Sn11  1  0.602832  0.999772  0.750000  1
  Sn  Sn12  1  0.999772  0.602832  0.750000  1
  Sn  Sn13  1  0.605690  0.605690  0.250000  1
  Sn  Sn14  1  0.397060  0.998619  0.250000  1
  Sn  Sn15  1  0.998619  0.397060  0.250000  1
  Se  Se16  1  0.998669  0.998669  0.002393  1
  Se  Se17  1  0.998669  0.998669  0.497607  1
