# generated using pymatgen
data_Nb12Al3Ga(IrN)4
_symmetry_space_group_name_H-M   'P 1'
_cell_length_a   7.04190916
_cell_length_b   7.04190916
_cell_length_c   7.04190916
_cell_angle_alpha   90.07674933
_cell_angle_beta   89.92325067
_cell_angle_gamma   89.92325067
_symmetry_Int_Tables_number   1
_chemical_formula_structural   Nb12Al3Ga(IrN)4
_chemical_formula_sum   'Nb12 Al3 Ga1 Ir4 N4'
_cell_volume   349.19666350
_cell_formula_units_Z   1
loop_
 _symmetry_equiv_pos_site_id
 _symmetry_equiv_pos_as_xyz
  1  'x, y, z'
loop_
 _atom_site_type_symbol
 _atom_site_label
 _atom_site_symmetry_multiplicity
 _atom_site_fract_x
 _atom_site_fract_y
 _atom_site_fract_z
 _atom_site_occupancy
  Nb  Nb0  1  0.794213  0.955601  0.376138  1
  Nb  Nb1  1  0.705221  0.044857  0.876518  1
  Nb  Nb2  1  0.205778  0.455219  0.124337  1
  Nb  Nb3  1  0.295042  0.544214  0.623871  1
  Nb  Nb4  1  0.955143  0.376518  0.794779  1
  Nb  Nb5  1  0.044399  0.876138  0.705787  1
  Nb  Nb6  1  0.455786  0.123871  0.204958  1
  Nb  Nb7  1  0.544781  0.624337  0.294222  1
  Nb  Nb8  1  0.375663  0.794222  0.955219  1
  Nb  Nb9  1  0.876129  0.704958  0.044214  1
  Nb  Nb10  1  0.123862  0.205787  0.455601  1
  Nb  Nb11  1  0.623482  0.294779  0.544857  1
  Al  Al12  1  0.429320  0.929301  0.570281  1
  Al  Al13  1  0.929719  0.570680  0.429301  1
  Al  Al14  1  0.070699  0.070281  0.070680  1
  Ga  Ga15  1  0.569097  0.430903  0.930903  1
  Ir  Ir16  1  0.177578  0.822422  0.322422  1
  Ir  Ir17  1  0.320762  0.175692  0.821601  1
  Ir  Ir18  1  0.824308  0.321601  0.179238  1
  Ir  Ir19  1  0.678399  0.679238  0.675692  1
  N  N20  1  0.874148  0.125852  0.625852  1
  N  N21  1  0.625316  0.873980  0.124865  1
  N  N22  1  0.126020  0.624865  0.874684  1
  N  N23  1  0.375135  0.374684  0.373980  1
