# generated using pymatgen
data_Ba4Fe3(NiN2)3
_symmetry_space_group_name_H-M   'P 1'
_cell_length_a   6.82915733
_cell_length_b   6.76996756
_cell_length_c   6.58342425
_cell_angle_alpha   88.20403624
_cell_angle_beta   89.27148246
_cell_angle_gamma   118.09403353
_symmetry_Int_Tables_number   1
_chemical_formula_structural   Ba4Fe3(NiN2)3
_chemical_formula_sum   'Ba4 Fe3 Ni3 N6'
_cell_volume   268.24796514
_cell_formula_units_Z   1
loop_
 _symmetry_equiv_pos_site_id
 _symmetry_equiv_pos_as_xyz
  1  'x, y, z'
loop_
 _atom_site_type_symbol
 _atom_site_label
 _atom_site_symmetry_multiplicity
 _atom_site_fract_x
 _atom_site_fract_y
 _atom_site_fract_z
 _atom_site_occupancy
  Ba  Ba0  1  0.831069  0.666245  0.901536  1
  Ba  Ba1  1  0.323489  0.162959  0.597296  1
  Ba  Ba2  1  0.173035  0.322853  0.101820  1
  Ba  Ba3  1  0.669817  0.828155  0.395445  1
  Fe  Fe4  1  0.447839  0.854215  0.904237  1
  Fe  Fe5  1  0.835822  0.435383  0.392805  1
  Fe  Fe6  1  0.155282  0.558710  0.598662  1
  Ni  Ni7  1  0.573257  0.165679  0.112844  1
  Ni  Ni8  1  0.814523  0.188453  0.743434  1
  Ni  Ni9  1  0.187169  0.802265  0.250356  1
  N  N10  1  0.387258  0.616028  0.754314  1
  N  N11  1  0.596602  0.409535  0.259273  1
  N  N12  1  0.016229  0.714758  0.491795  1
  N  N13  1  0.728193  0.022372  0.985391  1
  N  N14  1  0.983260  0.282016  0.501196  1
  N  N15  1  0.277157  0.970374  0.009595  1
