# generated using pymatgen
data_Zr6Zn18Ni5Se
_symmetry_space_group_name_H-M   'P 1'
_cell_length_a   8.66626557
_cell_length_b   8.63583104
_cell_length_c   8.66518700
_cell_angle_alpha   60.11773043
_cell_angle_beta   59.46933533
_cell_angle_gamma   60.11107583
_symmetry_Int_Tables_number   1
_chemical_formula_structural   Zr6Zn18Ni5Se
_chemical_formula_sum   'Zr6 Zn18 Ni5 Se1'
_cell_volume   457.47767196
_cell_formula_units_Z   1
loop_
 _symmetry_equiv_pos_site_id
 _symmetry_equiv_pos_as_xyz
  1  'x, y, z'
loop_
 _atom_site_type_symbol
 _atom_site_label
 _atom_site_symmetry_multiplicity
 _atom_site_fract_x
 _atom_site_fract_y
 _atom_site_fract_z
 _atom_site_occupancy
  Zr  Zr0  1  0.714749  0.281150  0.285260  1
  Zr  Zr1  1  0.285251  0.718850  0.714741  1
  Zr  Zr2  1  0.287511  0.712488  0.287515  1
  Zr  Zr3  1  0.712485  0.287513  0.712485  1
  Zr  Zr4  1  0.285299  0.281188  0.714699  1
  Zr  Zr5  1  0.714700  0.718811  0.285301  1
  Zn  Zn6  1  0.129813  0.114827  0.129767  1
  Zn  Zn7  1  0.870192  0.885172  0.870233  1
  Zn  Zn8  1  0.122750  0.126228  0.624848  1
  Zn  Zn9  1  0.129767  0.625601  0.129811  1
  Zn  Zn10  1  0.877245  0.873775  0.375154  1
  Zn  Zn11  1  0.870239  0.374397  0.870185  1
  Zn  Zn12  1  0.624843  0.126179  0.122757  1
  Zn  Zn13  1  0.375156  0.873822  0.877242  1
  Zn  Zn14  1  0.000001  0.499999  0.999999  1
  Zn  Zn15  1  0.335709  0.333648  0.335684  1
  Zn  Zn16  1  0.664296  0.666352  0.664309  1
  Zn  Zn17  1  0.340838  0.332562  0.994053  1
  Zn  Zn18  1  0.335685  0.994965  0.335703  1
  Zn  Zn19  1  0.659164  0.667433  0.005947  1
  Zn  Zn20  1  0.664307  0.005037  0.664289  1
  Zn  Zn21  1  0.994051  0.332546  0.340843  1
  Zn  Zn22  1  0.005951  0.667448  0.659165  1
  Zn  Zn23  1  0.000000  0.999999  0.000001  1
  Ni  Ni24  1  0.499984  0.000008  0.000022  1
  Ni  Ni25  1  0.999995  0.499997  0.499997  1
  Ni  Ni26  1  0.500002  0.999996  0.500007  1
  Ni  Ni27  1  0.000023  0.000012  0.499982  1
  Ni  Ni28  1  0.499991  0.499996  0.000009  1
  Se  Se29  1  0.500002  0.500001  0.499998  1
