# generated using pymatgen
data_Pr2Al20Os3Rh
_symmetry_space_group_name_H-M   'P 1'
_cell_length_a   6.90084087
_cell_length_b   6.90612015
_cell_length_c   9.22510430
_cell_angle_alpha   90.25473313
_cell_angle_beta   90.10580225
_cell_angle_gamma   96.78802841
_symmetry_Int_Tables_number   1
_chemical_formula_structural   Pr2Al20Os3Rh
_chemical_formula_sum   'Pr2 Al20 Os3 Rh1'
_cell_volume   436.56294453
_cell_formula_units_Z   1
loop_
 _symmetry_equiv_pos_site_id
 _symmetry_equiv_pos_as_xyz
  1  'x, y, z'
loop_
 _atom_site_type_symbol
 _atom_site_label
 _atom_site_symmetry_multiplicity
 _atom_site_fract_x
 _atom_site_fract_y
 _atom_site_fract_z
 _atom_site_occupancy
  Pr  Pr0  1  0.873166  0.124918  0.749989  1
  Pr  Pr1  1  0.126834  0.875082  0.250011  1
  Al  Al2  1  0.620297  0.376669  0.550875  1
  Al  Al3  1  0.379703  0.623331  0.449125  1
  Al  Al4  1  0.377581  0.623003  0.049291  1
  Al  Al5  1  0.622419  0.376997  0.950709  1
  Al  Al6  1  0.227769  0.226791  0.499467  1
  Al  Al7  1  0.772231  0.773209  0.500533  1
  Al  Al8  1  0.774122  0.774515  0.999548  1
  Al  Al9  1  0.225878  0.225485  0.000452  1
  Al  Al10  1  0.840733  0.159658  0.101898  1
  Al  Al11  1  0.159267  0.840342  0.898102  1
  Al  Al12  1  0.160559  0.840827  0.603706  1
  Al  Al13  1  0.839441  0.159173  0.396294  1
  Al  Al14  1  0.856973  0.588148  0.750207  1
  Al  Al15  1  0.143027  0.411852  0.249793  1
  Al  Al16  1  0.411470  0.142091  0.750316  1
  Al  Al17  1  0.588530  0.857909  0.249684  1
  Al  Al18  1  0.222186  0.483222  0.751963  1
  Al  Al19  1  0.777814  0.516778  0.248037  1
  Al  Al20  1  0.516680  0.780118  0.749464  1
  Al  Al21  1  0.483320  0.219882  0.250536  1
  Os  Os22  1  0.000000  0.500000  0.000000  1
  Os  Os23  1  0.500000  0.000000  0.000000  1
  Os  Os24  1  0.500000  0.000000  0.500000  1
  Rh  Rh25  1  0.000000  0.500000  0.500000  1
