# generated using pymatgen
data_La5Nd3(DySn4)2
_symmetry_space_group_name_H-M   'P 1'
_cell_length_a   8.34909700
_cell_length_b   8.46573156
_cell_length_c   16.11036397
_cell_angle_alpha   90.06962855
_cell_angle_beta   90.00000000
_cell_angle_gamma   90.00000000
_symmetry_Int_Tables_number   1
_chemical_formula_structural   La5Nd3(DySn4)2
_chemical_formula_sum   'La10 Nd6 Dy4 Sn16'
_cell_volume   1138.69924273
_cell_formula_units_Z   2
loop_
 _symmetry_equiv_pos_site_id
 _symmetry_equiv_pos_as_xyz
  1  'x, y, z'
loop_
 _atom_site_type_symbol
 _atom_site_label
 _atom_site_symmetry_multiplicity
 _atom_site_fract_x
 _atom_site_fract_y
 _atom_site_fract_z
 _atom_site_occupancy
  La  La0  1  0.368040  0.837632  0.619853  1
  La  La1  1  0.868040  0.662368  0.880147  1
  La  La2  1  0.519904  0.318735  0.902150  1
  La  La3  1  0.019904  0.181265  0.597850  1
  La  La4  1  0.480001  0.680973  0.401715  1
  La  La5  1  0.980001  0.819027  0.098285  1
  La  La6  1  0.479959  0.680769  0.098187  1
  La  La7  1  0.979959  0.819231  0.401813  1
  La  La8  1  0.520078  0.319194  0.597897  1
  La  La9  1  0.020078  0.180806  0.902103  1
  Nd  Nd10  1  0.366964  0.838205  0.879611  1
  Nd  Nd11  1  0.866964  0.661795  0.620389  1
  Nd  Nd12  1  0.632587  0.161571  0.379318  1
  Nd  Nd13  1  0.132587  0.338429  0.120682  1
  Nd  Nd14  1  0.632542  0.161852  0.121136  1
  Nd  Nd15  1  0.132542  0.338148  0.378864  1
  Dy  Dy16  1  0.200361  0.501675  0.750118  1
  Dy  Dy17  1  0.700361  0.998325  0.749882  1
  Dy  Dy18  1  0.799916  0.497768  0.250079  1
  Dy  Dy19  1  0.299916  0.002232  0.249921  1
  Sn  Sn20  1  0.292556  0.035013  0.044684  1
  Sn  Sn21  1  0.792556  0.464987  0.455316  1
  Sn  Sn22  1  0.709942  0.965938  0.544448  1
  Sn  Sn23  1  0.209942  0.534062  0.955552  1
  Sn  Sn24  1  0.705630  0.967180  0.955611  1
  Sn  Sn25  1  0.205630  0.532820  0.544389  1
  Sn  Sn26  1  0.292274  0.036010  0.453935  1
  Sn  Sn27  1  0.792274  0.463990  0.046065  1
  Sn  Sn28  1  0.565379  0.615821  0.749734  1
  Sn  Sn29  1  0.065379  0.884179  0.750266  1
  Sn  Sn30  1  0.434475  0.382441  0.249961  1
  Sn  Sn31  1  0.934475  0.117559  0.250039  1
  Sn  Sn32  1  0.324788  0.145950  0.750539  1
  Sn  Sn33  1  0.824788  0.354050  0.749461  1
  Sn  Sn34  1  0.674603  0.855155  0.250005  1
  Sn  Sn35  1  0.174603  0.644845  0.249995  1
