# generated using pymatgen
data_Ac(ClO4)3
_symmetry_space_group_name_H-M   'P 1'
_cell_length_a   9.75011800
_cell_length_b   9.75011811
_cell_length_c   6.10490000
_cell_angle_alpha   90.00000000
_cell_angle_beta   90.00000000
_cell_angle_gamma   119.99999964
_symmetry_Int_Tables_number   1
_chemical_formula_structural   Ac(ClO4)3
_chemical_formula_sum   'Ac2 Cl6 O24'
_cell_volume   502.60746645
_cell_formula_units_Z   2
loop_
 _symmetry_equiv_pos_site_id
 _symmetry_equiv_pos_as_xyz
  1  'x, y, z'
loop_
 _atom_site_type_symbol
 _atom_site_label
 _atom_site_symmetry_multiplicity
 _atom_site_fract_x
 _atom_site_fract_y
 _atom_site_fract_z
 _atom_site_occupancy
  Ac  Ac0  1  0.666667  0.333333  0.750000  1
  Ac  Ac1  1  0.333333  0.666667  0.250000  1
  Cl  Cl2  1  0.094084  0.384610  0.750000  1
  Cl  Cl3  1  0.290526  0.905916  0.750000  1
  Cl  Cl4  1  0.384610  0.290526  0.250000  1
  Cl  Cl5  1  0.905916  0.615390  0.250000  1
  Cl  Cl6  1  0.615390  0.709474  0.750000  1
  Cl  Cl7  1  0.709474  0.094084  0.250000  1
  O  O8  1  0.804021  0.020934  0.250000  1
  O  O9  1  0.461213  0.022590  0.750000  1
  O  O10  1  0.216914  0.195979  0.250000  1
  O  O11  1  0.977410  0.438622  0.750000  1
  O  O12  1  0.804164  0.547886  0.444277  1
  O  O13  1  0.195836  0.452114  0.555723  1
  O  O14  1  0.020934  0.216914  0.750000  1
  O  O15  1  0.452114  0.256278  0.444277  1
  O  O16  1  0.256278  0.804164  0.555723  1
  O  O17  1  0.538787  0.977410  0.250000  1
  O  O18  1  0.195979  0.979066  0.750000  1
  O  O19  1  0.743722  0.195836  0.055723  1
  O  O20  1  0.561378  0.538787  0.750000  1
  O  O21  1  0.547886  0.743722  0.555723  1
  O  O22  1  0.783086  0.804021  0.750000  1
  O  O23  1  0.438622  0.461213  0.250000  1
  O  O24  1  0.022590  0.561378  0.250000  1
  O  O25  1  0.195836  0.452114  0.944277  1
  O  O26  1  0.979066  0.783086  0.250000  1
  O  O27  1  0.547886  0.743722  0.944277  1
  O  O28  1  0.256278  0.804164  0.944277  1
  O  O29  1  0.452114  0.256278  0.055723  1
  O  O30  1  0.743722  0.195836  0.444277  1
  O  O31  1  0.804164  0.547886  0.055723  1
