# generated using pymatgen
data_Yb2Y2Os7W
_symmetry_space_group_name_H-M   'P 1'
_cell_length_a   5.42841500
_cell_length_b   5.42841450
_cell_length_c   8.53315600
_cell_angle_alpha   90.00000000
_cell_angle_beta   90.00000000
_cell_angle_gamma   119.99999697
_symmetry_Int_Tables_number   1
_chemical_formula_structural   Yb2Y2Os7W
_chemical_formula_sum   'Yb2 Y2 Os7 W1'
_cell_volume   217.76414466
_cell_formula_units_Z   1
loop_
 _symmetry_equiv_pos_site_id
 _symmetry_equiv_pos_as_xyz
  1  'x, y, z'
loop_
 _atom_site_type_symbol
 _atom_site_label
 _atom_site_symmetry_multiplicity
 _atom_site_fract_x
 _atom_site_fract_y
 _atom_site_fract_z
 _atom_site_occupancy
  Yb  Yb0  1  0.666667  0.333333  0.941947  1
  Yb  Yb1  1  0.333333  0.666667  0.058053  1
  Y  Y2  1  0.333333  0.666667  0.423491  1
  Y  Y3  1  0.666667  0.333333  0.576509  1
  Os  Os4  1  0.000000  0.000000  0.000000  1
  Os  Os5  1  0.826800  0.173200  0.252131  1
  Os  Os6  1  0.826800  0.653600  0.252131  1
  Os  Os7  1  0.346400  0.173200  0.252131  1
  Os  Os8  1  0.173200  0.826800  0.747869  1
  Os  Os9  1  0.173200  0.346400  0.747869  1
  Os  Os10  1  0.653600  0.826800  0.747869  1
  W  W11  1  0.000000  0.000000  0.500000  1
