# generated using pymatgen
data_Nd16MgCo2Ni2Ag3
_symmetry_space_group_name_H-M   'P 1'
_cell_length_a   9.75841446
_cell_length_b   9.80602623
_cell_length_c   9.81018400
_cell_angle_alpha   59.98597317
_cell_angle_beta   59.82435239
_cell_angle_gamma   60.07934009
_symmetry_Int_Tables_number   1
_chemical_formula_structural   Nd16MgCo2Ni2Ag3
_chemical_formula_sum   'Nd16 Mg1 Co2 Ni2 Ag3'
_cell_volume   663.23538394
_cell_formula_units_Z   1
loop_
 _symmetry_equiv_pos_site_id
 _symmetry_equiv_pos_as_xyz
  1  'x, y, z'
loop_
 _atom_site_type_symbol
 _atom_site_label
 _atom_site_symmetry_multiplicity
 _atom_site_fract_x
 _atom_site_fract_y
 _atom_site_fract_z
 _atom_site_occupancy
  Nd  Nd0  1  0.811833  0.190941  0.191147  1
  Nd  Nd1  1  0.187542  0.814972  0.808729  1
  Nd  Nd2  1  0.187542  0.814972  0.188757  1
  Nd  Nd3  1  0.811833  0.190941  0.806079  1
  Nd  Nd4  1  0.186338  0.187441  0.813110  1
  Nd  Nd5  1  0.805140  0.806229  0.194315  1
  Nd  Nd6  1  0.936377  0.563132  0.563617  1
  Nd  Nd7  1  0.560647  0.937461  0.938038  1
  Nd  Nd8  1  0.560647  0.937461  0.563855  1
  Nd  Nd9  1  0.936377  0.563132  0.936874  1
  Nd  Nd10  1  0.561048  0.563449  0.937752  1
  Nd  Nd11  1  0.936793  0.936789  0.563209  1
  Nd  Nd12  1  0.346091  0.344929  0.349058  1
  Nd  Nd13  1  0.346091  0.344929  0.959923  1
  Nd  Nd14  1  0.343414  0.962449  0.347069  1
  Nd  Nd15  1  0.948964  0.348787  0.351125  1
  Mg  Mg16  1  0.294313  0.568465  0.568611  1
  Co  Co17  1  0.140543  0.143600  0.140234  1
  Co  Co18  1  0.140543  0.143600  0.575624  1
  Ni  Ni19  1  0.141017  0.573979  0.142503  1
  Ni  Ni20  1  0.574529  0.142997  0.141237  1
  Ag  Ag21  1  0.580977  0.583433  0.583622  1
  Ag  Ag22  1  0.580977  0.583433  0.251969  1
  Ag  Ag23  1  0.580429  0.252483  0.583545  1
