# generated using pymatgen
data_In6TcRh
_symmetry_space_group_name_H-M   'P 1'
_cell_length_a   7.13865392
_cell_length_b   7.13865392
_cell_length_c   7.34465100
_cell_angle_alpha   90.00000000
_cell_angle_beta   90.00000000
_cell_angle_gamma   89.59349161
_symmetry_Int_Tables_number   1
_chemical_formula_structural   In6TcRh
_chemical_formula_sum   'In12 Tc2 Rh2'
_cell_volume   374.27678384
_cell_formula_units_Z   2
loop_
 _symmetry_equiv_pos_site_id
 _symmetry_equiv_pos_as_xyz
  1  'x, y, z'
loop_
 _atom_site_type_symbol
 _atom_site_label
 _atom_site_symmetry_multiplicity
 _atom_site_fract_x
 _atom_site_fract_y
 _atom_site_fract_z
 _atom_site_occupancy
  In  In0  1  0.000000  0.500000  0.500000  1
  In  In1  1  0.500000  0.000000  0.000000  1
  In  In2  1  0.500000  0.000000  0.500000  1
  In  In3  1  0.000000  0.500000  0.000000  1
  In  In4  1  0.346538  0.653462  0.240629  1
  In  In5  1  0.653462  0.346538  0.240629  1
  In  In6  1  0.155188  0.155188  0.737857  1
  In  In7  1  0.844812  0.844812  0.737857  1
  In  In8  1  0.653462  0.346538  0.759371  1
  In  In9  1  0.346538  0.653462  0.759371  1
  In  In10  1  0.844812  0.844812  0.262143  1
  In  In11  1  0.155188  0.155188  0.262143  1
  Tc  Tc12  1  0.156398  0.843602  0.500000  1
  Tc  Tc13  1  0.843602  0.156398  0.500000  1
  Rh  Rh14  1  0.346341  0.346341  0.000000  1
  Rh  Rh15  1  0.653659  0.653659  0.000000  1
