# generated using pymatgen
data_Ca3ThPt4
_symmetry_space_group_name_H-M   'P 1'
_cell_length_a   4.40456600
_cell_length_b   5.75694101
_cell_length_c   7.44285600
_cell_angle_alpha   90.15479095
_cell_angle_beta   90.00000000
_cell_angle_gamma   90.00000000
_symmetry_Int_Tables_number   1
_chemical_formula_structural   Ca3ThPt4
_chemical_formula_sum   'Ca3 Th1 Pt4'
_cell_volume   188.72652051
_cell_formula_units_Z   1
loop_
 _symmetry_equiv_pos_site_id
 _symmetry_equiv_pos_as_xyz
  1  'x, y, z'
loop_
 _atom_site_type_symbol
 _atom_site_label
 _atom_site_symmetry_multiplicity
 _atom_site_fract_x
 _atom_site_fract_y
 _atom_site_fract_z
 _atom_site_occupancy
  Ca  Ca0  1  0.250000  0.366000  0.675179  1
  Ca  Ca1  1  0.250000  0.136581  0.185986  1
  Ca  Ca2  1  0.750000  0.633776  0.319065  1
  Th  Th3  1  0.750000  0.867550  0.818016  1
  Pt  Pt4  1  0.250000  0.857348  0.555559  1
  Pt  Pt5  1  0.250000  0.656262  0.023669  1
  Pt  Pt6  1  0.750000  0.139676  0.466193  1
  Pt  Pt7  1  0.750000  0.342804  0.956334  1
