# generated using pymatgen
data_Tm20Si5Sb7
_symmetry_space_group_name_H-M   'P 1'
_cell_length_a   7.83909635
_cell_length_b   8.91340879
_cell_length_c   11.68702306
_cell_angle_alpha   90.03243955
_cell_angle_beta   90.20153320
_cell_angle_gamma   90.09947169
_symmetry_Int_Tables_number   1
_chemical_formula_structural   Tm20Si5Sb7
_chemical_formula_sum   'Tm20 Si5 Sb7'
_cell_volume   816.60176800
_cell_formula_units_Z   1
loop_
 _symmetry_equiv_pos_site_id
 _symmetry_equiv_pos_as_xyz
  1  'x, y, z'
loop_
 _atom_site_type_symbol
 _atom_site_label
 _atom_site_symmetry_multiplicity
 _atom_site_fract_x
 _atom_site_fract_y
 _atom_site_fract_z
 _atom_site_occupancy
  Tm  Tm0  1  0.821866  0.949575  0.072483  1
  Tm  Tm1  1  0.311318  0.048445  0.433656  1
  Tm  Tm2  1  0.182825  0.447769  0.933916  1
  Tm  Tm3  1  0.685060  0.550252  0.563599  1
  Tm  Tm4  1  0.182707  0.052129  0.935553  1
  Tm  Tm5  1  0.682855  0.949058  0.563429  1
  Tm  Tm6  1  0.816269  0.551891  0.067058  1
  Tm  Tm7  1  0.313538  0.448561  0.434758  1
  Tm  Tm8  1  0.538934  0.251234  0.998258  1
  Tm  Tm9  1  0.034105  0.760855  0.495859  1
  Tm  Tm10  1  0.459657  0.748519  0.003918  1
  Tm  Tm11  1  0.959653  0.238871  0.492583  1
  Tm  Tm12  1  0.161749  0.760790  0.219608  1
  Tm  Tm13  1  0.677637  0.239507  0.284190  1
  Tm  Tm14  1  0.830962  0.251260  0.783271  1
  Tm  Tm15  1  0.331650  0.749788  0.713486  1
  Tm  Tm16  1  0.655799  0.760854  0.296510  1
  Tm  Tm17  1  0.134404  0.240467  0.208895  1
  Tm  Tm18  1  0.357498  0.249942  0.705266  1
  Tm  Tm19  1  0.858062  0.749806  0.794599  1
  Si  Si20  1  0.939502  0.991679  0.327960  1
  Si  Si21  1  0.913670  0.251179  0.019788  1
  Si  Si22  1  0.415022  0.748729  0.476813  1
  Si  Si23  1  0.085293  0.749321  0.980483  1
  Si  Si24  1  0.582745  0.250039  0.519522  1
  Sb  Sb25  1  0.434592  0.010534  0.173048  1
  Sb  Sb26  1  0.065282  0.490225  0.669711  1
  Sb  Sb27  1  0.565675  0.511472  0.825619  1
  Sb  Sb28  1  0.065294  0.010135  0.675763  1
  Sb  Sb29  1  0.565989  0.989099  0.826841  1
  Sb  Sb30  1  0.935181  0.509229  0.326479  1
  Sb  Sb31  1  0.435206  0.488788  0.177073  1
