# generated using pymatgen
data_Hf5Pa3(CdNi2)4
_symmetry_space_group_name_H-M   'P 1'
_cell_length_a   7.23150711
_cell_length_b   7.23150738
_cell_length_c   6.80082500
_cell_angle_alpha   90.00000000
_cell_angle_beta   90.00000000
_cell_angle_gamma   91.36192398
_symmetry_Int_Tables_number   1
_chemical_formula_structural   Hf5Pa3(CdNi2)4
_chemical_formula_sum   'Hf5 Pa3 Cd4 Ni8'
_cell_volume   355.54661475
_cell_formula_units_Z   1
loop_
 _symmetry_equiv_pos_site_id
 _symmetry_equiv_pos_as_xyz
  1  'x, y, z'
loop_
 _atom_site_type_symbol
 _atom_site_label
 _atom_site_symmetry_multiplicity
 _atom_site_fract_x
 _atom_site_fract_y
 _atom_site_fract_z
 _atom_site_occupancy
  Hf  Hf0  1  0.179091  0.820909  0.500000  1
  Hf  Hf1  1  0.320437  0.321283  0.000000  1
  Hf  Hf2  1  0.823522  0.176478  0.500000  1
  Hf  Hf3  1  0.678717  0.679563  0.000000  1
  Hf  Hf4  1  0.842227  0.157773  0.000000  1
  Pa  Pa5  1  0.651901  0.648479  0.500000  1
  Pa  Pa6  1  0.150788  0.849212  0.000000  1
  Pa  Pa7  1  0.351521  0.348099  0.500000  1
  Cd  Cd8  1  0.506339  0.002872  0.753744  1
  Cd  Cd9  1  0.997128  0.493661  0.246256  1
  Cd  Cd10  1  0.997128  0.493661  0.753744  1
  Cd  Cd11  1  0.506339  0.002872  0.246256  1
  Ni  Ni12  1  0.131045  0.127231  0.283675  1
  Ni  Ni13  1  0.872769  0.868955  0.716325  1
  Ni  Ni14  1  0.872769  0.868955  0.283675  1
  Ni  Ni15  1  0.131045  0.127231  0.716325  1
  Ni  Ni16  1  0.366326  0.633674  0.210474  1
  Ni  Ni17  1  0.627293  0.372707  0.788965  1
  Ni  Ni18  1  0.366326  0.633674  0.789526  1
  Ni  Ni19  1  0.627293  0.372707  0.211035  1
