# generated using pymatgen
data_La2SbIrI2
_symmetry_space_group_name_H-M   'P 1'
_cell_length_a   4.58507800
_cell_length_b   4.58507848
_cell_length_c   11.80929000
_cell_angle_alpha   90.00000000
_cell_angle_beta   90.00000000
_cell_angle_gamma   120.00001099
_symmetry_Int_Tables_number   1
_chemical_formula_structural   La2SbIrI2
_chemical_formula_sum   'La2 Sb1 Ir1 I2'
_cell_volume   215.00465996
_cell_formula_units_Z   1
loop_
 _symmetry_equiv_pos_site_id
 _symmetry_equiv_pos_as_xyz
  1  'x, y, z'
loop_
 _atom_site_type_symbol
 _atom_site_label
 _atom_site_symmetry_multiplicity
 _atom_site_fract_x
 _atom_site_fract_y
 _atom_site_fract_z
 _atom_site_occupancy
  La  La0  1  0.000000  0.000000  0.165299  1
  La  La1  1  0.000000  0.000000  0.838477  1
  Sb  Sb2  1  0.666667  0.333333  0.012274  1
  Ir  Ir3  1  0.333333  0.666667  0.987882  1
  I  I4  1  0.666667  0.333333  0.658511  1
  I  I5  1  0.333333  0.666667  0.337556  1
