# generated using pymatgen
data_Nd6Al24NiRu7
_symmetry_space_group_name_H-M   'P 1'
_cell_length_a   8.89160349
_cell_length_b   8.89887252
_cell_length_c   9.66853647
_cell_angle_alpha   89.99999755
_cell_angle_beta   89.85645965
_cell_angle_gamma   120.02705702
_symmetry_Int_Tables_number   1
_chemical_formula_structural   Nd6Al24NiRu7
_chemical_formula_sum   'Nd6 Al24 Ni1 Ru7'
_cell_volume   662.34788456
_cell_formula_units_Z   1
loop_
 _symmetry_equiv_pos_site_id
 _symmetry_equiv_pos_as_xyz
  1  'x, y, z'
loop_
 _atom_site_type_symbol
 _atom_site_label
 _atom_site_symmetry_multiplicity
 _atom_site_fract_x
 _atom_site_fract_y
 _atom_site_fract_z
 _atom_site_occupancy
  Nd  Nd0  1  0.191997  0.382428  0.249755  1
  Nd  Nd1  1  0.808003  0.617572  0.750245  1
  Nd  Nd2  1  0.614397  0.807199  0.250510  1
  Nd  Nd3  1  0.385603  0.192801  0.749490  1
  Nd  Nd4  1  0.191997  0.809570  0.249755  1
  Nd  Nd5  1  0.808003  0.190430  0.750245  1
  Al  Al6  1  0.330926  0.665464  0.012636  1
  Al  Al7  1  0.669074  0.334536  0.987364  1
  Al  Al8  1  0.667318  0.333658  0.512324  1
  Al  Al9  1  0.332682  0.666342  0.487676  1
  Al  Al10  1  0.162545  0.326568  0.575037  1
  Al  Al11  1  0.837455  0.673432  0.424963  1
  Al  Al12  1  0.673195  0.836597  0.575398  1
  Al  Al13  1  0.835699  0.673561  0.075708  1
  Al  Al14  1  0.326805  0.163403  0.424602  1
  Al  Al15  1  0.164301  0.326439  0.924292  1
  Al  Al16  1  0.162545  0.835978  0.575037  1
  Al  Al17  1  0.327366  0.163684  0.075265  1
  Al  Al18  1  0.837455  0.164022  0.424963  1
  Al  Al19  1  0.672634  0.836316  0.924735  1
  Al  Al20  1  0.835699  0.162138  0.075708  1
  Al  Al21  1  0.164301  0.837862  0.924292  1
  Al  Al22  1  0.562805  0.125590  0.249124  1
  Al  Al23  1  0.437195  0.874410  0.750876  1
  Al  Al24  1  0.877960  0.438981  0.247710  1
  Al  Al25  1  0.122040  0.561019  0.752290  1
  Al  Al26  1  0.562805  0.437216  0.249124  1
  Al  Al27  1  0.437195  0.562784  0.750876  1
  Al  Al28  1  0.000139  0.000069  0.250136  1
  Al  Al29  1  0.999861  0.999931  0.749864  1
  Ni  Ni30  1  0.000000  0.500000  0.000000  1
  Ru  Ru31  1  0.500000  0.000000  0.000000  1
  Ru  Ru32  1  0.500000  0.000000  0.500000  1
  Ru  Ru33  1  0.500000  0.500000  0.000000  1
  Ru  Ru34  1  0.000000  0.500000  0.500000  1
  Ru  Ru35  1  0.500000  0.500000  0.500000  1
  Ru  Ru36  1  0.000000  0.000000  0.000000  1
  Ru  Ru37  1  0.000000  0.000000  0.500000  1
