# generated using pymatgen
data_Ca4La16Ir7Rh5
_symmetry_space_group_name_H-M   'P 1'
_cell_length_a   11.33047083
_cell_length_b   11.33047077
_cell_length_c   6.62861500
_cell_angle_alpha   90.05289906
_cell_angle_beta   90.05289906
_cell_angle_gamma   90.10471263
_symmetry_Int_Tables_number   1
_chemical_formula_structural   Ca4La16Ir7Rh5
_chemical_formula_sum   'Ca4 La16 Ir7 Rh5'
_cell_volume   850.97658577
_cell_formula_units_Z   1
loop_
 _symmetry_equiv_pos_site_id
 _symmetry_equiv_pos_as_xyz
  1  'x, y, z'
loop_
 _atom_site_type_symbol
 _atom_site_label
 _atom_site_symmetry_multiplicity
 _atom_site_fract_x
 _atom_site_fract_y
 _atom_site_fract_z
 _atom_site_occupancy
  Ca  Ca0  1  0.000517  0.999394  0.500424  1
  Ca  Ca1  1  0.000606  0.999483  0.999576  1
  Ca  Ca2  1  0.500058  0.500294  0.000144  1
  Ca  Ca3  1  0.499706  0.499942  0.499856  1
  La  La4  1  0.287957  0.091205  0.391736  1
  La  La5  1  0.287968  0.909225  0.893627  1
  La  La6  1  0.711467  0.090337  0.892647  1
  La  La7  1  0.711536  0.907453  0.395268  1
  La  La8  1  0.591250  0.788034  0.893061  1
  La  La9  1  0.589460  0.212464  0.393609  1
  La  La10  1  0.409264  0.787746  0.393663  1
  La  La11  1  0.409780  0.212448  0.892087  1
  La  La12  1  0.211966  0.408750  0.606939  1
  La  La13  1  0.212254  0.590736  0.106337  1
  La  La14  1  0.787536  0.410540  0.106391  1
  La  La15  1  0.787552  0.590220  0.607913  1
  La  La16  1  0.908795  0.712043  0.108264  1
  La  La17  1  0.909663  0.288533  0.607353  1
  La  La18  1  0.090775  0.712032  0.606373  1
  La  La19  1  0.092547  0.288464  0.104732  1
  Ir  Ir20  1  0.841570  0.841011  0.750762  1
  Ir  Ir21  1  0.158989  0.158430  0.749238  1
  Ir  Ir22  1  0.158941  0.841059  0.250000  1
  Ir  Ir23  1  0.659158  0.340842  0.750000  1
  Ir  Ir24  1  0.658768  0.659150  0.251050  1
  Ir  Ir25  1  0.340850  0.341232  0.248950  1
  Ir  Ir26  1  0.340982  0.659018  0.750000  1
  Rh  Rh27  1  0.839193  0.160807  0.250000  1
  Rh  Rh28  1  0.501067  0.000633  0.119882  1
  Rh  Rh29  1  0.500665  0.000208  0.620612  1
  Rh  Rh30  1  0.999792  0.499335  0.879388  1
  Rh  Rh31  1  0.999367  0.498933  0.380118  1
