# generated using pymatgen
data_ErLu19CuBi11
_symmetry_space_group_name_H-M   'P 1'
_cell_length_a   8.10619945
_cell_length_b   9.38957000
_cell_length_c   11.79014500
_cell_angle_alpha   90.00000000
_cell_angle_beta   89.69026538
_cell_angle_gamma   90.00000000
_symmetry_Int_Tables_number   1
_chemical_formula_structural   ErLu19CuBi11
_chemical_formula_sum   'Er1 Lu19 Cu1 Bi11'
_cell_volume   897.37876689
_cell_formula_units_Z   1
loop_
 _symmetry_equiv_pos_site_id
 _symmetry_equiv_pos_as_xyz
  1  'x, y, z'
loop_
 _atom_site_type_symbol
 _atom_site_label
 _atom_site_symmetry_multiplicity
 _atom_site_fract_x
 _atom_site_fract_y
 _atom_site_fract_z
 _atom_site_occupancy
  Er  Er0  1  0.313292  0.750000  0.283075  1
  Lu  Lu1  1  0.039242  0.250000  0.507333  1
  Lu  Lu2  1  0.984733  0.750000  0.492083  1
  Lu  Lu3  1  0.476801  0.750000  0.009477  1
  Lu  Lu4  1  0.525072  0.250000  0.989404  1
  Lu  Lu5  1  0.355544  0.250000  0.300942  1
  Lu  Lu6  1  0.651443  0.750000  0.717807  1
  Lu  Lu7  1  0.152225  0.750000  0.779761  1
  Lu  Lu8  1  0.848468  0.250000  0.217121  1
  Lu  Lu9  1  0.198388  0.250000  0.778350  1
  Lu  Lu10  1  0.807800  0.750000  0.215289  1
  Lu  Lu11  1  0.665190  0.250000  0.705224  1
  Lu  Lu12  1  0.193107  0.068307  0.061647  1
  Lu  Lu13  1  0.807066  0.932593  0.941239  1
  Lu  Lu14  1  0.311932  0.960404  0.558172  1
  Lu  Lu15  1  0.807066  0.567407  0.941239  1
  Lu  Lu16  1  0.680502  0.074322  0.447217  1
  Lu  Lu17  1  0.193107  0.431693  0.061647  1
  Lu  Lu18  1  0.680502  0.425678  0.447217  1
  Lu  Lu19  1  0.311932  0.539596  0.558172  1
  Cu  Cu20  1  0.407482  0.250000  0.535899  1
  Bi  Bi21  1  0.597203  0.750000  0.458750  1
  Bi  Bi22  1  0.097742  0.750000  0.041966  1
  Bi  Bi23  1  0.905774  0.250000  0.952783  1
  Bi  Bi24  1  0.057218  0.001998  0.322541  1
  Bi  Bi25  1  0.936960  0.999878  0.676660  1
  Bi  Bi26  1  0.437939  0.996188  0.824706  1
  Bi  Bi27  1  0.936960  0.500122  0.676660  1
  Bi  Bi28  1  0.562076  0.005286  0.175187  1
  Bi  Bi29  1  0.057218  0.498002  0.322541  1
  Bi  Bi30  1  0.562076  0.494714  0.175187  1
  Bi  Bi31  1  0.437939  0.503812  0.824706  1
