# generated using pymatgen
data_Sm7Tm(SiBr6)2
_symmetry_space_group_name_H-M   'P 1'
_cell_length_a   4.13679000
_cell_length_b   13.45843452
_cell_length_c   14.27295288
_cell_angle_alpha   89.61210709
_cell_angle_beta   90.00000000
_cell_angle_gamma   90.00000000
_symmetry_Int_Tables_number   1
_chemical_formula_structural   Sm7Tm(SiBr6)2
_chemical_formula_sum   'Sm7 Tm1 Si2 Br12'
_cell_volume   794.62440646
_cell_formula_units_Z   1
loop_
 _symmetry_equiv_pos_site_id
 _symmetry_equiv_pos_as_xyz
  1  'x, y, z'
loop_
 _atom_site_type_symbol
 _atom_site_label
 _atom_site_symmetry_multiplicity
 _atom_site_fract_x
 _atom_site_fract_y
 _atom_site_fract_z
 _atom_site_occupancy
  Sm  Sm0  1  0.500000  0.119864  0.339533  1
  Sm  Sm1  1  0.500000  0.881179  0.659313  1
  Sm  Sm2  1  0.500000  0.617010  0.159695  1
  Sm  Sm3  1  0.500000  0.380484  0.841909  1
  Sm  Sm4  1  0.000000  0.119085  0.578295  1
  Sm  Sm5  1  0.000000  0.881235  0.420798  1
  Sm  Sm6  1  0.000000  0.616797  0.922446  1
  Tm  Tm7  1  0.000000  0.384165  0.076770  1
  Si  Si8  1  0.500000  0.000456  0.499119  1
  Si  Si9  1  0.500000  0.497466  0.001656  1
  Br  Br10  1  0.500000  0.255143  0.159506  1
  Br  Br11  1  0.500000  0.753760  0.837317  1
  Br  Br12  1  0.500000  0.743586  0.336061  1
  Br  Br13  1  0.500000  0.255220  0.664775  1
  Br  Br14  1  0.000000  0.256349  0.410759  1
  Br  Br15  1  0.000000  0.744201  0.588535  1
  Br  Br16  1  0.000000  0.754381  0.088106  1
  Br  Br17  1  0.000000  0.246025  0.919922  1
  Br  Br18  1  0.000000  0.003160  0.242246  1
  Br  Br19  1  0.000000  0.998252  0.756558  1
  Br  Br20  1  0.000000  0.493832  0.252214  1
  Br  Br21  1  0.000000  0.498346  0.744465  1
