# generated using pymatgen
data_TmZr8(In2Ru)7
_symmetry_space_group_name_H-M   'P 1'
_cell_length_a   9.70729382
_cell_length_b   9.70729359
_cell_length_c   9.70729300
_cell_angle_alpha   59.99999860
_cell_angle_beta   59.99999939
_cell_angle_gamma   60.00000077
_symmetry_Int_Tables_number   1
_chemical_formula_structural   TmZr8(In2Ru)7
_chemical_formula_sum   'Tm1 Zr8 In14 Ru7'
_cell_volume   646.81409653
_cell_formula_units_Z   1
loop_
 _symmetry_equiv_pos_site_id
 _symmetry_equiv_pos_as_xyz
  1  'x, y, z'
loop_
 _atom_site_type_symbol
 _atom_site_label
 _atom_site_symmetry_multiplicity
 _atom_site_fract_x
 _atom_site_fract_y
 _atom_site_fract_z
 _atom_site_occupancy
  Tm  Tm0  1  0.500000  0.500000  0.500000  1
  Zr  Zr1  1  0.121257  0.636232  0.121257  1
  Zr  Zr2  1  0.363768  0.878743  0.878743  1
  Zr  Zr3  1  0.878743  0.878743  0.878743  1
  Zr  Zr4  1  0.636232  0.121257  0.121257  1
  Zr  Zr5  1  0.878743  0.878743  0.363768  1
  Zr  Zr6  1  0.121257  0.121257  0.121257  1
  Zr  Zr7  1  0.878743  0.363768  0.878743  1
  Zr  Zr8  1  0.121257  0.121257  0.636232  1
  In  In9  1  0.500000  0.844984  0.155016  1
  In  In10  1  0.500000  0.844984  0.500000  1
  In  In11  1  0.500000  0.155016  0.500000  1
  In  In12  1  0.500000  0.500000  0.844984  1
  In  In13  1  0.155016  0.500000  0.500000  1
  In  In14  1  0.844984  0.155016  0.500000  1
  In  In15  1  0.155016  0.844984  0.500000  1
  In  In16  1  0.500000  0.155016  0.844984  1
  In  In17  1  0.155016  0.500000  0.844984  1
  In  In18  1  0.500000  0.500000  0.155016  1
  In  In19  1  0.844984  0.500000  0.500000  1
  In  In20  1  0.844984  0.500000  0.155016  1
  In  In21  1  0.250000  0.250000  0.250000  1
  In  In22  1  0.750000  0.750000  0.750000  1
  Ru  Ru23  1  0.777190  0.777190  0.222810  1
  Ru  Ru24  1  0.000000  0.000000  0.000000  1
  Ru  Ru25  1  0.222810  0.777190  0.222810  1
  Ru  Ru26  1  0.222810  0.777190  0.777190  1
  Ru  Ru27  1  0.222810  0.222810  0.777190  1
  Ru  Ru28  1  0.777190  0.222810  0.777190  1
  Ru  Ru29  1  0.777190  0.222810  0.222810  1
