# generated using pymatgen
data_AlCr3(SiRu2)4
_symmetry_space_group_name_H-M   'P 1'
_cell_length_a   5.91375800
_cell_length_b   4.18132100
_cell_length_c   8.38788000
_cell_angle_alpha   90.00000000
_cell_angle_beta   90.00054451
_cell_angle_gamma   90.00000000
_symmetry_Int_Tables_number   1
_chemical_formula_structural   AlCr3(SiRu2)4
_chemical_formula_sum   'Al1 Cr3 Si4 Ru8'
_cell_volume   207.40979719
_cell_formula_units_Z   1
loop_
 _symmetry_equiv_pos_site_id
 _symmetry_equiv_pos_as_xyz
  1  'x, y, z'
loop_
 _atom_site_type_symbol
 _atom_site_label
 _atom_site_symmetry_multiplicity
 _atom_site_fract_x
 _atom_site_fract_y
 _atom_site_fract_z
 _atom_site_occupancy
  Al  Al0  1  0.250011  0.749999  0.874988  1
  Cr  Cr1  1  0.749990  0.250000  0.122919  1
  Cr  Cr2  1  0.249989  0.749999  0.374974  1
  Cr  Cr3  1  0.750010  0.250000  0.627095  1
  Si  Si4  1  0.249997  0.250000  0.126949  1
  Si  Si5  1  0.749989  0.749999  0.374983  1
  Si  Si6  1  0.250014  0.250000  0.623085  1
  Si  Si7  1  0.750009  0.749999  0.874992  1
  Ru  Ru8  1  0.999227  0.749999  0.125706  1
  Ru  Ru9  1  0.500773  0.749999  0.125704  1
  Ru  Ru10  1  0.999455  0.250000  0.374999  1
  Ru  Ru11  1  0.500491  0.250000  0.375001  1
  Ru  Ru12  1  0.500768  0.749999  0.624291  1
  Ru  Ru13  1  0.999272  0.749999  0.624288  1
  Ru  Ru14  1  0.500607  0.250000  0.875012  1
  Ru  Ru15  1  0.999401  0.250000  0.875014  1
