# generated using pymatgen
data_Zr2ZnPd3
_symmetry_space_group_name_H-M   'P 1'
_cell_length_a   5.00504114
_cell_length_b   5.00239008
_cell_length_c   4.90938200
_cell_angle_alpha   90.00000000
_cell_angle_beta   90.00000000
_cell_angle_gamma   120.86778229
_symmetry_Int_Tables_number   1
_chemical_formula_structural   Zr2ZnPd3
_chemical_formula_sum   'Zr2 Zn1 Pd3'
_cell_volume   105.50626113
_cell_formula_units_Z   1
loop_
 _symmetry_equiv_pos_site_id
 _symmetry_equiv_pos_as_xyz
  1  'x, y, z'
loop_
 _atom_site_type_symbol
 _atom_site_label
 _atom_site_symmetry_multiplicity
 _atom_site_fract_x
 _atom_site_fract_y
 _atom_site_fract_z
 _atom_site_occupancy
  Zr  Zr0  1  0.236824  0.254052  0.750000  1
  Zr  Zr1  1  0.759692  0.750433  0.250000  1
  Zn  Zn2  1  0.438283  0.078222  0.250000  1
  Pd  Pd3  1  0.565267  0.914806  0.750000  1
  Pd  Pd4  1  0.897790  0.586198  0.750000  1
  Pd  Pd5  1  0.102144  0.416288  0.250000  1
