# generated using pymatgen
data_Cs6TbHoI12
_symmetry_space_group_name_H-M   'P 1'
_cell_length_a   10.68603522
_cell_length_b   10.68247922
_cell_length_c   8.84741400
_cell_angle_alpha   90.00000000
_cell_angle_beta   90.00000000
_cell_angle_gamma   90.02303788
_symmetry_Int_Tables_number   1
_chemical_formula_structural   Cs6TbHoI12
_chemical_formula_sum   'Cs6 Tb1 Ho1 I12'
_cell_volume   1009.96185728
_cell_formula_units_Z   1
loop_
 _symmetry_equiv_pos_site_id
 _symmetry_equiv_pos_as_xyz
  1  'x, y, z'
loop_
 _atom_site_type_symbol
 _atom_site_label
 _atom_site_symmetry_multiplicity
 _atom_site_fract_x
 _atom_site_fract_y
 _atom_site_fract_z
 _atom_site_occupancy
  Cs  Cs0  1  0.000000  0.000000  0.500000  1
  Cs  Cs1  1  0.000000  0.000000  0.000000  1
  Cs  Cs2  1  0.233046  0.587363  0.500000  1
  Cs  Cs3  1  0.766954  0.412637  0.500000  1
  Cs  Cs4  1  0.412653  0.233064  0.000000  1
  Cs  Cs5  1  0.587347  0.766936  0.000000  1
  Tb  Tb6  1  0.000000  0.500000  0.000000  1
  Ho  Ho7  1  0.500000  0.000000  0.500000  1
  I  I8  1  0.693984  0.059303  0.743206  1
  I  I9  1  0.306016  0.940697  0.743206  1
  I  I10  1  0.940479  0.694764  0.244153  1
  I  I11  1  0.059521  0.305236  0.244153  1
  I  I12  1  0.306016  0.940697  0.256794  1
  I  I13  1  0.693984  0.059303  0.256794  1
  I  I14  1  0.059521  0.305236  0.755847  1
  I  I15  1  0.940479  0.694764  0.755847  1
  I  I16  1  0.570261  0.725335  0.500000  1
  I  I17  1  0.429739  0.274665  0.500000  1
  I  I18  1  0.275831  0.570559  0.000000  1
  I  I19  1  0.724169  0.429441  0.000000  1
