# generated using pymatgen
data_Hf4Zr2Al16Co2Ni5
_symmetry_space_group_name_H-M   'P 1'
_cell_length_a   8.50379001
_cell_length_b   8.52344344
_cell_length_c   8.51266077
_cell_angle_alpha   59.88569885
_cell_angle_beta   60.12166883
_cell_angle_gamma   59.88678192
_symmetry_Int_Tables_number   1
_chemical_formula_structural   Hf4Zr2Al16Co2Ni5
_chemical_formula_sum   'Hf4 Zr2 Al16 Co2 Ni5'
_cell_volume   435.93867798
_cell_formula_units_Z   1
loop_
 _symmetry_equiv_pos_site_id
 _symmetry_equiv_pos_as_xyz
  1  'x, y, z'
loop_
 _atom_site_type_symbol
 _atom_site_label
 _atom_site_symmetry_multiplicity
 _atom_site_fract_x
 _atom_site_fract_y
 _atom_site_fract_z
 _atom_site_occupancy
  Hf  Hf0  1  0.689039  0.310217  0.310041  1
  Hf  Hf1  1  0.308392  0.307914  0.692056  1
  Hf  Hf2  1  0.683722  0.315498  0.685618  1
  Hf  Hf3  1  0.310643  0.688617  0.691200  1
  Zr  Zr4  1  0.694842  0.694328  0.305662  1
  Zr  Zr5  1  0.312550  0.686638  0.312668  1
  Al  Al6  1  0.882212  0.882163  0.354239  1
  Al  Al7  1  0.877539  0.354247  0.883627  1
  Al  Al8  1  0.354879  0.877696  0.883736  1
  Al  Al9  1  0.881985  0.883079  0.881391  1
  Al  Al10  1  0.117233  0.118143  0.646969  1
  Al  Al11  1  0.123239  0.644715  0.116091  1
  Al  Al12  1  0.645360  0.123314  0.115042  1
  Al  Al13  1  0.118087  0.118109  0.117539  1
  Al  Al14  1  0.665808  0.664668  0.001933  1
  Al  Al15  1  0.664789  0.002994  0.665831  1
  Al  Al16  1  0.002097  0.664916  0.667198  1
  Al  Al17  1  0.664610  0.665216  0.667386  1
  Al  Al18  1  0.334549  0.335344  0.996759  1
  Al  Al19  1  0.334398  0.998392  0.334245  1
  Al  Al20  1  0.997464  0.334604  0.333731  1
  Al  Al21  1  0.335287  0.334067  0.333056  1
  Co  Co22  1  0.000293  0.998924  0.001188  1
  Co  Co23  1  0.500814  0.498532  0.999512  1
  Ni  Ni24  1  0.999600  0.999965  0.501027  1
  Ni  Ni25  1  0.498888  0.000170  0.501813  1
  Ni  Ni26  1  0.999951  0.498142  0.502512  1
  Ni  Ni27  1  0.001732  0.498126  0.999034  1
  Ni  Ni28  1  0.499996  0.001262  0.998896  1
