# generated using pymatgen
data_CaLa9Si5Ge
_symmetry_space_group_name_H-M   'P 1'
_cell_length_a   9.02114876
_cell_length_b   9.02114934
_cell_length_c   9.02114969
_cell_angle_alpha   127.59853632
_cell_angle_beta   127.59853981
_cell_angle_gamma   77.27628909
_symmetry_Int_Tables_number   1
_chemical_formula_structural   CaLa9Si5Ge
_chemical_formula_sum   'Ca1 La9 Si5 Ge1'
_cell_volume   447.14712116
_cell_formula_units_Z   1
loop_
 _symmetry_equiv_pos_site_id
 _symmetry_equiv_pos_as_xyz
  1  'x, y, z'
loop_
 _atom_site_type_symbol
 _atom_site_label
 _atom_site_symmetry_multiplicity
 _atom_site_fract_x
 _atom_site_fract_y
 _atom_site_fract_z
 _atom_site_occupancy
  Ca  Ca0  1  0.500148  0.500148  0.000000  1
  La  La1  1  0.534126  0.032026  0.858828  1
  La  La2  1  0.173198  0.675298  0.141172  1
  La  La3  1  0.032026  0.173198  0.497900  1
  La  La4  1  0.675298  0.534126  0.502100  1
  La  La5  1  0.467658  0.967116  0.141530  1
  La  La6  1  0.825586  0.326129  0.858470  1
  La  La7  1  0.967116  0.825586  0.499458  1
  La  La8  1  0.326129  0.467658  0.500542  1
  La  La9  1  0.996866  0.996866  0.000000  1
  Si  Si10  1  0.753369  0.753369  0.000000  1
  Si  Si11  1  0.889620  0.386124  0.274997  1
  Si  Si12  1  0.111127  0.614622  0.725003  1
  Si  Si13  1  0.386124  0.111127  0.496505  1
  Si  Si14  1  0.614622  0.889620  0.503495  1
  Ge  Ge15  1  0.246987  0.246987  0.000000  1
