# generated using pymatgen
data_CeDy2Lu5(ReB6)4
_symmetry_space_group_name_H-M   'P 1'
_cell_length_a   3.65299500
_cell_length_b   9.10450908
_cell_length_c   11.48576284
_cell_angle_alpha   89.95496776
_cell_angle_beta   90.00000000
_cell_angle_gamma   90.00000000
_symmetry_Int_Tables_number   1
_chemical_formula_structural   CeDy2Lu5(ReB6)4
_chemical_formula_sum   'Ce1 Dy2 Lu5 Re4 B24'
_cell_volume   382.00172289
_cell_formula_units_Z   1
loop_
 _symmetry_equiv_pos_site_id
 _symmetry_equiv_pos_as_xyz
  1  'x, y, z'
loop_
 _atom_site_type_symbol
 _atom_site_label
 _atom_site_symmetry_multiplicity
 _atom_site_fract_x
 _atom_site_fract_y
 _atom_site_fract_z
 _atom_site_occupancy
  Ce  Ce0  1  0.000000  0.822946  0.085659  1
  Dy  Dy1  1  0.000000  0.322751  0.414456  1
  Dy  Dy2  1  0.000000  0.676634  0.586333  1
  Lu  Lu3  1  0.000000  0.177499  0.913347  1
  Lu  Lu4  1  0.000000  0.944006  0.370938  1
  Lu  Lu5  1  0.000000  0.056686  0.629735  1
  Lu  Lu6  1  0.000000  0.442825  0.129210  1
  Lu  Lu7  1  0.000000  0.555881  0.870164  1
  Re  Re8  1  0.000000  0.639982  0.319523  1
  Re  Re9  1  0.000000  0.360033  0.680700  1
  Re  Re10  1  0.000000  0.139075  0.178885  1
  Re  Re11  1  0.000000  0.861472  0.820800  1
  B  B12  1  0.500000  0.553507  0.432721  1
  B  B13  1  0.500000  0.446228  0.567861  1
  B  B14  1  0.500000  0.054499  0.066800  1
  B  B15  1  0.500000  0.946915  0.932106  1
  B  B16  1  0.500000  0.750611  0.418821  1
  B  B17  1  0.500000  0.249032  0.582259  1
  B  B18  1  0.500000  0.251008  0.080215  1
  B  B19  1  0.500000  0.749626  0.917566  1
  B  B20  1  0.500000  0.792690  0.265748  1
  B  B21  1  0.500000  0.206303  0.735772  1
  B  B22  1  0.500000  0.293113  0.233793  1
  B  B23  1  0.500000  0.707145  0.765283  1
  B  B24  1  0.500000  0.630271  0.185014  1
  B  B25  1  0.500000  0.368576  0.816045  1
  B  B26  1  0.500000  0.131104  0.315216  1
  B  B27  1  0.500000  0.870263  0.685041  1
  B  B28  1  0.500000  0.983423  0.212751  1
  B  B29  1  0.500000  0.019079  0.787321  1
  B  B30  1  0.500000  0.481885  0.287176  1
  B  B31  1  0.500000  0.517464  0.713216  1
  B  B32  1  0.500000  0.597937  0.027018  1
  B  B33  1  0.500000  0.398999  0.971840  1
  B  B34  1  0.500000  0.099070  0.472921  1
  B  B35  1  0.500000  0.901461  0.527749  1
