# generated using pymatgen
data_CaDyAl20(IrOs)2
_symmetry_space_group_name_H-M   'P 1'
_cell_length_a   6.86939869
_cell_length_b   6.86939860
_cell_length_c   9.16766125
_cell_angle_alpha   90.24734096
_cell_angle_beta   90.24732459
_cell_angle_gamma   96.54862595
_symmetry_Int_Tables_number   1
_chemical_formula_structural   CaDyAl20(IrOs)2
_chemical_formula_sum   'Ca1 Dy1 Al20 Ir2 Os2'
_cell_volume   429.77781292
_cell_formula_units_Z   1
loop_
 _symmetry_equiv_pos_site_id
 _symmetry_equiv_pos_as_xyz
  1  'x, y, z'
loop_
 _atom_site_type_symbol
 _atom_site_label
 _atom_site_symmetry_multiplicity
 _atom_site_fract_x
 _atom_site_fract_y
 _atom_site_fract_z
 _atom_site_occupancy
  Ca  Ca0  1  0.873389  0.126611  0.750000  1
  Dy  Dy1  1  0.128206  0.871794  0.250000  1
  Al  Al2  1  0.621125  0.376394  0.548206  1
  Al  Al3  1  0.379240  0.622958  0.445720  1
  Al  Al4  1  0.377042  0.620760  0.054280  1
  Al  Al5  1  0.623606  0.378875  0.951794  1
  Al  Al6  1  0.222719  0.222961  0.497538  1
  Al  Al7  1  0.775820  0.778634  0.501119  1
  Al  Al8  1  0.777039  0.777281  0.002462  1
  Al  Al9  1  0.221366  0.224180  0.998881  1
  Al  Al10  1  0.845574  0.156954  0.102241  1
  Al  Al11  1  0.158342  0.839969  0.898279  1
  Al  Al12  1  0.160031  0.841658  0.601721  1
  Al  Al13  1  0.843046  0.154426  0.397759  1
  Al  Al14  1  0.854142  0.586089  0.750927  1
  Al  Al15  1  0.143176  0.413498  0.249387  1
  Al  Al16  1  0.413911  0.145858  0.749073  1
  Al  Al17  1  0.586502  0.856824  0.250613  1
  Al  Al18  1  0.221443  0.480306  0.752203  1
  Al  Al19  1  0.777756  0.518319  0.248153  1
  Al  Al20  1  0.519694  0.778557  0.747797  1
  Al  Al21  1  0.481681  0.222244  0.251847  1
  Ir  Ir22  1  0.999587  0.502023  0.498904  1
  Ir  Ir23  1  0.497977  0.000413  0.001096  1
  Os  Os24  1  0.999963  0.502375  0.001198  1
  Os  Os25  1  0.497625  0.000037  0.498802  1
