# generated using pymatgen
data_Zr6Zn16Cu6SiPd
_symmetry_space_group_name_H-M   'P 1'
_cell_length_a   8.67985481
_cell_length_b   8.67985472
_cell_length_c   8.67985400
_cell_angle_alpha   60.00000273
_cell_angle_beta   60.00000309
_cell_angle_gamma   60.00000391
_symmetry_Int_Tables_number   1
_chemical_formula_structural   Zr6Zn16Cu6SiPd
_chemical_formula_sum   'Zr6 Zn16 Cu6 Si1 Pd1'
_cell_volume   462.40483974
_cell_formula_units_Z   1
loop_
 _symmetry_equiv_pos_site_id
 _symmetry_equiv_pos_as_xyz
  1  'x, y, z'
loop_
 _atom_site_type_symbol
 _atom_site_label
 _atom_site_symmetry_multiplicity
 _atom_site_fract_x
 _atom_site_fract_y
 _atom_site_fract_z
 _atom_site_occupancy
  Zr  Zr0  1  0.712915  0.287085  0.287085  1
  Zr  Zr1  1  0.287085  0.712915  0.712915  1
  Zr  Zr2  1  0.287085  0.712915  0.287085  1
  Zr  Zr3  1  0.712915  0.287085  0.712915  1
  Zr  Zr4  1  0.287085  0.287085  0.712915  1
  Zr  Zr5  1  0.712915  0.712915  0.287085  1
  Zn  Zn6  1  0.123779  0.123779  0.123779  1
  Zn  Zn7  1  0.876221  0.876221  0.876221  1
  Zn  Zn8  1  0.123779  0.123779  0.628664  1
  Zn  Zn9  1  0.123779  0.628664  0.123779  1
  Zn  Zn10  1  0.876221  0.876221  0.371336  1
  Zn  Zn11  1  0.876221  0.371336  0.876221  1
  Zn  Zn12  1  0.628664  0.123779  0.123779  1
  Zn  Zn13  1  0.371336  0.876221  0.876221  1
  Zn  Zn14  1  0.337246  0.337246  0.337246  1
  Zn  Zn15  1  0.662754  0.662754  0.662754  1
  Zn  Zn16  1  0.337246  0.337246  0.988263  1
  Zn  Zn17  1  0.337246  0.988263  0.337246  1
  Zn  Zn18  1  0.662754  0.662754  0.011737  1
  Zn  Zn19  1  0.662754  0.011737  0.662754  1
  Zn  Zn20  1  0.988263  0.337246  0.337246  1
  Zn  Zn21  1  0.011737  0.662754  0.662754  1
  Cu  Cu22  1  0.500000  0.000000  0.000000  1
  Cu  Cu23  1  0.000000  0.500000  0.500000  1
  Cu  Cu24  1  0.000000  0.500000  0.000000  1
  Cu  Cu25  1  0.500000  0.000000  0.500000  1
  Cu  Cu26  1  0.000000  0.000000  0.500000  1
  Cu  Cu27  1  0.500000  0.500000  0.000000  1
  Si  Si28  1  0.500000  0.500000  0.500000  1
  Pd  Pd29  1  0.000000  0.000000  0.000000  1
