# generated using pymatgen
data_Hf5Re(B2Ru5)2
_symmetry_space_group_name_H-M   'P 1'
_cell_length_a   3.09202700
_cell_length_b   9.48551200
_cell_length_c   9.48551200
_cell_angle_alpha   90.00000000
_cell_angle_beta   90.00000000
_cell_angle_gamma   90.00000000
_symmetry_Int_Tables_number   1
_chemical_formula_structural   Hf5Re(B2Ru5)2
_chemical_formula_sum   'Hf5 Re1 B4 Ru10'
_cell_volume   278.20493732
_cell_formula_units_Z   1
loop_
 _symmetry_equiv_pos_site_id
 _symmetry_equiv_pos_as_xyz
  1  'x, y, z'
loop_
 _atom_site_type_symbol
 _atom_site_label
 _atom_site_symmetry_multiplicity
 _atom_site_fract_x
 _atom_site_fract_y
 _atom_site_fract_z
 _atom_site_occupancy
  Hf  Hf0  1  0.000000  0.676685  0.825387  1
  Hf  Hf1  1  0.000000  0.323315  0.174613  1
  Hf  Hf2  1  0.000000  0.825387  0.323315  1
  Hf  Hf3  1  0.000000  0.174613  0.676685  1
  Hf  Hf4  1  0.000000  0.000000  0.000000  1
  Re  Re5  1  0.000000  0.500000  0.500000  1
  B  B6  1  0.000000  0.880088  0.622377  1
  B  B7  1  0.000000  0.119912  0.377623  1
  B  B8  1  0.000000  0.622377  0.119912  1
  B  B9  1  0.000000  0.377623  0.880088  1
  Ru  Ru10  1  0.500000  0.715158  0.566170  1
  Ru  Ru11  1  0.500000  0.284842  0.433830  1
  Ru  Ru12  1  0.500000  0.778159  0.076587  1
  Ru  Ru13  1  0.500000  0.221841  0.923413  1
  Ru  Ru14  1  0.500000  0.566170  0.284842  1
  Ru  Ru15  1  0.500000  0.433830  0.715158  1
  Ru  Ru16  1  0.500000  0.076587  0.221841  1
  Ru  Ru17  1  0.500000  0.923413  0.778159  1
  Ru  Ru18  1  0.500000  0.000000  0.500000  1
  Ru  Ru19  1  0.500000  0.500000  0.000000  1
