# generated using pymatgen
data_LiGa2Co3O8
_symmetry_space_group_name_H-M   'P 1'
_cell_length_a   5.78963788
_cell_length_b   5.78963752
_cell_length_c   5.78963800
_cell_angle_alpha   59.61064174
_cell_angle_beta   59.61064381
_cell_angle_gamma   59.61063668
_symmetry_Int_Tables_number   1
_chemical_formula_structural   LiGa2Co3O8
_chemical_formula_sum   'Li1 Ga2 Co3 O8'
_cell_volume   136.01254408
_cell_formula_units_Z   1
loop_
 _symmetry_equiv_pos_site_id
 _symmetry_equiv_pos_as_xyz
  1  'x, y, z'
loop_
 _atom_site_type_symbol
 _atom_site_label
 _atom_site_symmetry_multiplicity
 _atom_site_fract_x
 _atom_site_fract_y
 _atom_site_fract_z
 _atom_site_occupancy
  Li  Li0  1  0.879283  0.879283  0.879283  1
  Ga  Ga1  1  0.502762  0.502762  0.502762  1
  Ga  Ga2  1  0.122505  0.122505  0.122505  1
  Co  Co3  1  0.502480  0.502480  0.990586  1
  Co  Co4  1  0.990586  0.502480  0.502480  1
  Co  Co5  1  0.502480  0.990586  0.502480  1
  O  O6  1  0.287195  0.742612  0.742612  1
  O  O7  1  0.735313  0.735313  0.735313  1
  O  O8  1  0.742612  0.287195  0.742612  1
  O  O9  1  0.742612  0.742612  0.287195  1
  O  O10  1  0.256660  0.256660  0.720828  1
  O  O11  1  0.256660  0.720828  0.256660  1
  O  O12  1  0.720828  0.256660  0.256660  1
  O  O13  1  0.258022  0.258022  0.258022  1
