# generated using pymatgen
data_DyPb4W3O13
_symmetry_space_group_name_H-M   'P 1'
_cell_length_a   7.62359998
_cell_length_b   7.62359913
_cell_length_c   7.62359866
_cell_angle_alpha   60.47810514
_cell_angle_beta   60.47811063
_cell_angle_gamma   60.47810227
_symmetry_Int_Tables_number   1
_chemical_formula_structural   DyPb4W3O13
_chemical_formula_sum   'Dy1 Pb4 W3 O13'
_cell_volume   316.68922451
_cell_formula_units_Z   1
loop_
 _symmetry_equiv_pos_site_id
 _symmetry_equiv_pos_as_xyz
  1  'x, y, z'
loop_
 _atom_site_type_symbol
 _atom_site_label
 _atom_site_symmetry_multiplicity
 _atom_site_fract_x
 _atom_site_fract_y
 _atom_site_fract_z
 _atom_site_occupancy
  Dy  Dy0  1  0.501034  0.501034  0.501034  1
  Pb  Pb1  1  0.996637  0.996637  0.996637  1
  Pb  Pb2  1  0.495239  0.002942  0.002942  1
  Pb  Pb3  1  0.002942  0.002942  0.495239  1
  Pb  Pb4  1  0.002942  0.495239  0.002942  1
  W  W5  1  0.001519  0.500163  0.500163  1
  W  W6  1  0.500163  0.500163  0.001519  1
  W  W7  1  0.500163  0.001519  0.500163  1
  O  O8  1  0.856550  0.415213  0.415213  1
  O  O9  1  0.418758  0.815715  0.815715  1
  O  O10  1  0.415213  0.415213  0.856550  1
  O  O11  1  0.815715  0.815715  0.418758  1
  O  O12  1  0.815715  0.418758  0.815715  1
  O  O13  1  0.415213  0.856550  0.415213  1
  O  O14  1  0.150042  0.580860  0.580860  1
  O  O15  1  0.580804  0.186412  0.186412  1
  O  O16  1  0.580860  0.580860  0.150042  1
  O  O17  1  0.186412  0.186412  0.580804  1
  O  O18  1  0.186412  0.580804  0.186412  1
  O  O19  1  0.580860  0.150042  0.580860  1
  O  O20  1  0.121804  0.121804  0.121804  1
