# generated using pymatgen
data_Dy3Y5Tc2(B12Os)2
_symmetry_space_group_name_H-M   'P 1'
_cell_length_a   3.67686100
_cell_length_b   9.17407361
_cell_length_c   11.56697901
_cell_angle_alpha   89.92378597
_cell_angle_beta   90.00000000
_cell_angle_gamma   90.00000000
_symmetry_Int_Tables_number   1
_chemical_formula_structural   Dy3Y5Tc2(B12Os)2
_chemical_formula_sum   'Dy3 Y5 Tc2 B24 Os2'
_cell_volume   390.17460165
_cell_formula_units_Z   1
loop_
 _symmetry_equiv_pos_site_id
 _symmetry_equiv_pos_as_xyz
  1  'x, y, z'
loop_
 _atom_site_type_symbol
 _atom_site_label
 _atom_site_symmetry_multiplicity
 _atom_site_fract_x
 _atom_site_fract_y
 _atom_site_fract_z
 _atom_site_occupancy
  Dy  Dy0  1  0.000000  0.058305  0.629111  1
  Dy  Dy1  1  0.000000  0.443665  0.129937  1
  Dy  Dy2  1  0.000000  0.556351  0.870073  1
  Y  Y3  1  0.000000  0.325016  0.415215  1
  Y  Y4  1  0.000000  0.674996  0.584779  1
  Y  Y5  1  0.000000  0.821239  0.087402  1
  Y  Y6  1  0.000000  0.178752  0.912588  1
  Y  Y7  1  0.000000  0.941768  0.371172  1
  Tc  Tc8  1  0.000000  0.638332  0.320394  1
  Tc  Tc9  1  0.000000  0.361546  0.679572  1
  B  B10  1  0.500000  0.553181  0.432841  1
  B  B11  1  0.500000  0.446809  0.567165  1
  B  B12  1  0.500000  0.053680  0.067158  1
  B  B13  1  0.500000  0.946311  0.932815  1
  B  B14  1  0.500000  0.747889  0.418908  1
  B  B15  1  0.500000  0.252016  0.581182  1
  B  B16  1  0.500000  0.248312  0.081379  1
  B  B17  1  0.500000  0.751701  0.918601  1
  B  B18  1  0.500000  0.791100  0.265684  1
  B  B19  1  0.500000  0.208879  0.734204  1
  B  B20  1  0.500000  0.290423  0.233899  1
  B  B21  1  0.500000  0.709593  0.766111  1
  B  B22  1  0.500000  0.631517  0.185644  1
  B  B23  1  0.500000  0.368468  0.814331  1
  B  B24  1  0.500000  0.131102  0.313629  1
  B  B25  1  0.500000  0.869022  0.686411  1
  B  B26  1  0.500000  0.983189  0.211971  1
  B  B27  1  0.500000  0.016759  0.787919  1
  B  B28  1  0.500000  0.483148  0.287572  1
  B  B29  1  0.500000  0.516824  0.712421  1
  B  B30  1  0.500000  0.604396  0.028782  1
  B  B31  1  0.500000  0.395605  0.971209  1
  B  B32  1  0.500000  0.104264  0.470802  1
  B  B33  1  0.500000  0.895749  0.529260  1
  Os  Os34  1  0.000000  0.137498  0.178019  1
  Os  Os35  1  0.000000  0.862594  0.821841  1
