# generated using pymatgen
data_La(Nd2Au3)2
_symmetry_space_group_name_H-M   'P 1'
_cell_length_a   16.98565800
_cell_length_b   16.98565827
_cell_length_c   4.28227700
_cell_angle_alpha   90.00000000
_cell_angle_beta   90.00000000
_cell_angle_gamma   166.04770117
_symmetry_Int_Tables_number   1
_chemical_formula_structural   La(Nd2Au3)2
_chemical_formula_sum   'La1 Nd4 Au6'
_cell_volume   297.89412703
_cell_formula_units_Z   1
loop_
 _symmetry_equiv_pos_site_id
 _symmetry_equiv_pos_as_xyz
  1  'x, y, z'
loop_
 _atom_site_type_symbol
 _atom_site_label
 _atom_site_symmetry_multiplicity
 _atom_site_fract_x
 _atom_site_fract_y
 _atom_site_fract_z
 _atom_site_occupancy
  La  La0  1  0.000000  0.000000  0.000000  1
  Nd  Nd1  1  0.615348  0.384652  0.000000  1
  Nd  Nd2  1  0.384652  0.615348  0.000000  1
  Nd  Nd3  1  0.803242  0.196757  0.500000  1
  Nd  Nd4  1  0.196757  0.803242  0.500000  1
  Au  Au5  1  0.719184  0.280816  0.000000  1
  Au  Au6  1  0.280816  0.719184  0.000000  1
  Au  Au7  1  0.899337  0.100663  0.500000  1
  Au  Au8  1  0.541754  0.458245  0.500000  1
  Au  Au9  1  0.458245  0.541754  0.500000  1
  Au  Au10  1  0.100663  0.899337  0.500000  1
