# generated using pymatgen
data_LiDy5P12(IrRu5)3
_symmetry_space_group_name_H-M   'P 1'
_cell_length_a   12.60160097
_cell_length_b   12.46086733
_cell_length_c   3.97579200
_cell_angle_alpha   90.00000000
_cell_angle_beta   90.00000000
_cell_angle_gamma   119.37997839
_symmetry_Int_Tables_number   1
_chemical_formula_structural   LiDy5P12(IrRu5)3
_chemical_formula_sum   'Li1 Dy5 P12 Ir3 Ru15'
_cell_volume   544.01125005
_cell_formula_units_Z   1
loop_
 _symmetry_equiv_pos_site_id
 _symmetry_equiv_pos_as_xyz
  1  'x, y, z'
loop_
 _atom_site_type_symbol
 _atom_site_label
 _atom_site_symmetry_multiplicity
 _atom_site_fract_x
 _atom_site_fract_y
 _atom_site_fract_z
 _atom_site_occupancy
  Li  Li0  1  0.997449  0.437856  0.500000  1
  Dy  Dy1  1  0.339960  0.670558  0.500000  1
  Dy  Dy2  1  0.658817  0.329941  0.500000  1
  Dy  Dy3  1  0.001216  0.816485  0.000000  1
  Dy  Dy4  1  0.187461  0.186848  0.000000  1
  Dy  Dy5  1  0.814137  0.000464  0.000000  1
  P  P6  1  0.003138  0.632943  0.500000  1
  P  P7  1  0.373237  0.374950  0.500000  1
  P  P8  1  0.624073  0.997467  0.500000  1
  P  P9  1  0.525266  0.692485  0.000000  1
  P  P10  1  0.306845  0.825353  0.000000  1
  P  P11  1  0.179456  0.481040  0.000000  1
  P  P12  1  0.474602  0.166203  0.000000  1
  P  P13  1  0.687285  0.516634  0.000000  1
  P  P14  1  0.819994  0.304650  0.000000  1
  P  P15  1  0.003283  0.192796  0.500000  1
  P  P16  1  0.817622  0.819325  0.500000  1
  P  P17  1  0.184015  0.999701  0.500000  1
  Ir  Ir18  1  0.809979  0.623816  0.500000  1
  Ir  Ir19  1  0.813563  0.193638  0.500000  1
  Ir  Ir20  1  0.000364  0.004215  0.500000  1
  Ru  Ru21  1  0.507194  0.871333  0.000000  1
  Ru  Ru22  1  0.122827  0.632173  0.000000  1
  Ru  Ru23  1  0.368661  0.490464  0.000000  1
  Ru  Ru24  1  0.490945  0.361916  0.000000  1
  Ru  Ru25  1  0.871564  0.508377  0.000000  1
  Ru  Ru26  1  0.633592  0.122568  0.000000  1
  Ru  Ru27  1  0.557504  0.554168  0.500000  1
  Ru  Ru28  1  0.445592  0.001861  0.500000  1
  Ru  Ru29  1  0.998479  0.286241  0.000000  1
  Ru  Ru30  1  0.720221  0.716302  0.000000  1
  Ru  Ru31  1  0.280821  0.997386  0.000000  1
  Ru  Ru32  1  0.627033  0.809252  0.500000  1
  Ru  Ru33  1  0.195252  0.814554  0.500000  1
  Ru  Ru34  1  0.185700  0.382193  0.500000  1
  Ru  Ru35  1  0.372853  0.183843  0.500000  1
