# generated using pymatgen
data_GdDy4(RhO6)2
_symmetry_space_group_name_H-M   'P 1'
_cell_length_a   6.86081779
_cell_length_b   6.86081700
_cell_length_c   7.29355400
_cell_angle_alpha   74.48959660
_cell_angle_beta   74.48959844
_cell_angle_gamma   51.20079764
_symmetry_Int_Tables_number   1
_chemical_formula_structural   GdDy4(RhO6)2
_chemical_formula_sum   'Gd1 Dy4 Rh2 O12'
_cell_volume   255.52692097
_cell_formula_units_Z   1
loop_
 _symmetry_equiv_pos_site_id
 _symmetry_equiv_pos_as_xyz
  1  'x, y, z'
loop_
 _atom_site_type_symbol
 _atom_site_label
 _atom_site_symmetry_multiplicity
 _atom_site_fract_x
 _atom_site_fract_y
 _atom_site_fract_z
 _atom_site_occupancy
  Gd  Gd0  1  0.000000  0.000000  0.500000  1
  Dy  Dy1  1  0.302489  0.302489  0.359682  1
  Dy  Dy2  1  0.697511  0.697511  0.640318  1
  Dy  Dy3  1  0.308673  0.308673  0.830183  1
  Dy  Dy4  1  0.691327  0.691327  0.169817  1
  Rh  Rh5  1  0.752927  0.247073  0.000000  1
  Rh  Rh6  1  0.247073  0.752927  0.000000  1
  O  O7  1  0.901289  0.431151  0.915736  1
  O  O8  1  0.431151  0.901289  0.915736  1
  O  O9  1  0.098711  0.568849  0.084264  1
  O  O10  1  0.568849  0.098711  0.084264  1
  O  O11  1  0.096911  0.595008  0.574829  1
  O  O12  1  0.595008  0.096911  0.574829  1
  O  O13  1  0.903089  0.404992  0.425171  1
  O  O14  1  0.404992  0.903089  0.425171  1
  O  O15  1  0.000047  0.000047  0.818809  1
  O  O16  1  0.999953  0.999953  0.181191  1
  O  O17  1  0.500166  0.500166  0.809567  1
  O  O18  1  0.499834  0.499834  0.190433  1
