# generated using pymatgen
data_Lu12InCo4Os
_symmetry_space_group_name_H-M   'P 1'
_cell_length_a   8.09790085
_cell_length_b   8.09790160
_cell_length_c   8.09790143
_cell_angle_alpha   111.38639212
_cell_angle_beta   111.07618889
_cell_angle_gamma   106.00584115
_symmetry_Int_Tables_number   1
_chemical_formula_structural   Lu12InCo4Os
_chemical_formula_sum   'Lu12 In1 Co4 Os1'
_cell_volume   407.66953287
_cell_formula_units_Z   1
loop_
 _symmetry_equiv_pos_site_id
 _symmetry_equiv_pos_as_xyz
  1  'x, y, z'
loop_
 _atom_site_type_symbol
 _atom_site_label
 _atom_site_symmetry_multiplicity
 _atom_site_fract_x
 _atom_site_fract_y
 _atom_site_fract_z
 _atom_site_occupancy
  Lu  Lu0  1  0.419982  0.224395  0.195587  1
  Lu  Lu1  1  0.580018  0.775605  0.804413  1
  Lu  Lu2  1  0.028808  0.224395  0.804413  1
  Lu  Lu3  1  0.971192  0.775605  0.195587  1
  Lu  Lu4  1  0.181335  0.275925  0.457260  1
  Lu  Lu5  1  0.818665  0.724075  0.542740  1
  Lu  Lu6  1  0.181335  0.724075  0.905411  1
  Lu  Lu7  1  0.818665  0.275925  0.094589  1
  Lu  Lu8  1  0.315062  0.619958  0.304895  1
  Lu  Lu9  1  0.684938  0.380042  0.695105  1
  Lu  Lu10  1  0.315062  0.010166  0.695105  1
  Lu  Lu11  1  0.684938  0.989834  0.304895  1
  In  In12  1  0.500000  0.500000  0.000000  1
  Co  Co13  1  0.374171  0.000000  0.374171  1
  Co  Co14  1  0.625829  0.000000  0.625829  1
  Co  Co15  1  0.113001  0.613001  0.500000  1
  Co  Co16  1  0.886999  0.386999  0.500000  1
  Os  Os17  1  0.000000  0.000000  0.000000  1
