# generated using pymatgen
data_Ti12Tc5MoIr6
_symmetry_space_group_name_H-M   'P 1'
_cell_length_a   4.38546400
_cell_length_b   6.19028700
_cell_length_c   13.20446400
_cell_angle_alpha   90.00000000
_cell_angle_beta   90.00002613
_cell_angle_gamma   90.00000000
_symmetry_Int_Tables_number   1
_chemical_formula_structural   Ti12Tc5MoIr6
_chemical_formula_sum   'Ti12 Tc5 Mo1 Ir6'
_cell_volume   358.46529187
_cell_formula_units_Z   1
loop_
 _symmetry_equiv_pos_site_id
 _symmetry_equiv_pos_as_xyz
  1  'x, y, z'
loop_
 _atom_site_type_symbol
 _atom_site_label
 _atom_site_symmetry_multiplicity
 _atom_site_fract_x
 _atom_site_fract_y
 _atom_site_fract_z
 _atom_site_occupancy
  Ti  Ti0  1  0.500001  0.250403  0.000000  1
  Ti  Ti1  1  0.500001  0.749597  0.000000  1
  Ti  Ti2  1  0.999993  0.249687  0.166265  1
  Ti  Ti3  1  0.999993  0.750314  0.166265  1
  Ti  Ti4  1  0.499995  0.250074  0.333039  1
  Ti  Ti5  1  0.499995  0.749926  0.333039  1
  Ti  Ti6  1  0.000000  0.249596  0.500000  1
  Ti  Ti7  1  0.000000  0.750404  0.500000  1
  Ti  Ti8  1  0.500004  0.250074  0.666961  1
  Ti  Ti9  1  0.500004  0.749926  0.666961  1
  Ti  Ti10  1  0.000007  0.249687  0.833735  1
  Ti  Ti11  1  0.000007  0.750314  0.833735  1
  Tc  Tc12  1  0.499993  0.499999  0.167427  1
  Tc  Tc13  1  0.999996  0.000000  0.334262  1
  Tc  Tc14  1  0.500001  0.499999  0.500000  1
  Tc  Tc15  1  0.000004  0.000000  0.665738  1
  Tc  Tc16  1  0.500007  0.499999  0.832572  1
  Mo  Mo17  1  0.000000  0.000000  0.000000  1
  Ir  Ir18  1  0.000000  0.499999  0.000000  1
  Ir  Ir19  1  0.499994  0.000000  0.167855  1
  Ir  Ir20  1  0.999994  0.499999  0.333915  1
  Ir  Ir21  1  0.500001  0.000000  0.500000  1
  Ir  Ir22  1  0.000006  0.499999  0.666086  1
  Ir  Ir23  1  0.500005  0.000000  0.832145  1
