# generated using pymatgen
data_LaNdCoPtO6
_symmetry_space_group_name_H-M   'P 1'
_cell_length_a   5.54353273
_cell_length_b   5.82431900
_cell_length_c   7.93365181
_cell_angle_alpha   90.00000000
_cell_angle_beta   90.09232259
_cell_angle_gamma   90.00000000
_symmetry_Int_Tables_number   1
_chemical_formula_structural   LaNdCoPtO6
_chemical_formula_sum   'La2 Nd2 Co2 Pt2 O12'
_cell_volume   256.15588734
_cell_formula_units_Z   2
loop_
 _symmetry_equiv_pos_site_id
 _symmetry_equiv_pos_as_xyz
  1  'x, y, z'
loop_
 _atom_site_type_symbol
 _atom_site_label
 _atom_site_symmetry_multiplicity
 _atom_site_fract_x
 _atom_site_fract_y
 _atom_site_fract_z
 _atom_site_occupancy
  La  La0  1  0.485257  0.443238  0.749821  1
  La  La1  1  0.014744  0.943238  0.750179  1
  Nd  Nd2  1  0.980762  0.063712  0.250633  1
  Nd  Nd3  1  0.519236  0.563712  0.249368  1
  Co  Co4  1  0.498482  0.000776  0.002329  1
  Co  Co5  1  0.001518  0.500776  0.497670  1
  Pt  Pt6  1  0.001471  0.500204  0.001704  1
  Pt  Pt7  1  0.498530  0.000204  0.498296  1
  O  O8  1  0.702424  0.300050  0.055139  1
  O  O9  1  0.803489  0.793216  0.056754  1
  O  O10  1  0.103809  0.465395  0.248936  1
  O  O11  1  0.396192  0.965395  0.251066  1
  O  O12  1  0.696509  0.293216  0.443247  1
  O  O13  1  0.797577  0.800050  0.444861  1
  O  O14  1  0.197065  0.197211  0.546671  1
  O  O15  1  0.305574  0.705237  0.549791  1
  O  O16  1  0.594663  0.030963  0.749223  1
  O  O17  1  0.905336  0.530963  0.750777  1
  O  O18  1  0.194427  0.205237  0.950209  1
  O  O19  1  0.302934  0.697211  0.953329  1
