# generated using pymatgen
data_TbPr19Si15S
_symmetry_space_group_name_H-M   'P 1'
_cell_length_a   7.83398157
_cell_length_b   7.92890343
_cell_length_c   15.22417600
_cell_angle_alpha   89.53498221
_cell_angle_beta   84.89840868
_cell_angle_gamma   89.70667648
_symmetry_Int_Tables_number   1
_chemical_formula_structural   TbPr19Si15S
_chemical_formula_sum   'Tb1 Pr19 Si15 S1'
_cell_volume   941.86161900
_cell_formula_units_Z   1
loop_
 _symmetry_equiv_pos_site_id
 _symmetry_equiv_pos_as_xyz
  1  'x, y, z'
loop_
 _atom_site_type_symbol
 _atom_site_label
 _atom_site_symmetry_multiplicity
 _atom_site_fract_x
 _atom_site_fract_y
 _atom_site_fract_z
 _atom_site_occupancy
  Tb  Tb0  1  0.173572  0.508984  0.747013  1
  Pr  Pr1  1  0.865393  0.345464  0.610416  1
  Pr  Pr2  1  0.469656  0.688502  0.896511  1
  Pr  Pr3  1  0.968565  0.813514  0.897093  1
  Pr  Pr4  1  0.175465  0.678850  0.121051  1
  Pr  Pr5  1  0.675522  0.816768  0.121625  1
  Pr  Pr6  1  0.324834  0.181363  0.879235  1
  Pr  Pr7  1  0.124964  0.661825  0.388460  1
  Pr  Pr8  1  0.031650  0.186098  0.103326  1
  Pr  Pr9  1  0.367051  0.165721  0.615607  1
  Pr  Pr10  1  0.827620  0.491310  0.249427  1
  Pr  Pr11  1  0.328276  0.003238  0.254088  1
  Pr  Pr12  1  0.489243  0.316549  0.398822  1
  Pr  Pr13  1  0.825877  0.320494  0.878882  1
  Pr  Pr14  1  0.017865  0.830843  0.606559  1
  Pr  Pr15  1  0.508459  0.686257  0.603787  1
  Pr  Pr16  1  0.988546  0.175969  0.396191  1
  Pr  Pr17  1  0.631329  0.829979  0.385441  1
  Pr  Pr18  1  0.671920  0.996921  0.744730  1
  Pr  Pr19  1  0.531949  0.309938  0.103665  1
  Si  Si20  1  0.444443  0.601207  0.252205  1
  Si  Si21  1  0.220214  0.377454  0.249692  1
  Si  Si22  1  0.551069  0.402021  0.750324  1
  Si  Si23  1  0.637657  0.025338  0.958498  1
  Si  Si24  1  0.052306  0.108570  0.750993  1
  Si  Si25  1  0.783691  0.620747  0.751697  1
  Si  Si26  1  0.719349  0.118394  0.249128  1
  Si  Si27  1  0.286564  0.969934  0.454718  1
  Si  Si28  1  0.947489  0.895763  0.250502  1
  Si  Si29  1  0.364629  0.972636  0.041629  1
  Si  Si30  1  0.719469  0.029180  0.541985  1
  Si  Si31  1  0.137421  0.476491  0.955980  1
  Si  Si32  1  0.216653  0.479427  0.550187  1
  Si  Si33  1  0.865196  0.523256  0.041992  1
  Si  Si34  1  0.277254  0.876327  0.752192  1
  S  S35  1  0.778841  0.514669  0.446352  1
