# generated using pymatgen
data_Ta4Cd4SO13
_symmetry_space_group_name_H-M   'P 1'
_cell_length_a   7.52909600
_cell_length_b   7.52909611
_cell_length_c   7.52909600
_cell_angle_alpha   119.99999950
_cell_angle_beta   90.00000000
_cell_angle_gamma   119.99999950
_symmetry_Int_Tables_number   1
_chemical_formula_structural   Ta4Cd4SO13
_chemical_formula_sum   'Ta4 Cd4 S1 O13'
_cell_volume   301.79602783
_cell_formula_units_Z   1
loop_
 _symmetry_equiv_pos_site_id
 _symmetry_equiv_pos_as_xyz
  1  'x, y, z'
loop_
 _atom_site_type_symbol
 _atom_site_label
 _atom_site_symmetry_multiplicity
 _atom_site_fract_x
 _atom_site_fract_y
 _atom_site_fract_z
 _atom_site_occupancy
  Ta  Ta0  1  0.999733  0.499467  0.999200  1
  Ta  Ta1  1  0.999733  0.000533  0.500267  1
  Ta  Ta2  1  0.500800  0.000533  0.500267  1
  Ta  Ta3  1  0.999733  0.499467  0.500267  1
  Cd  Cd4  1  0.977713  0.985142  0.992571  1
  Cd  Cd5  1  0.507429  0.985142  0.992571  1
  Cd  Cd6  1  0.507429  0.514858  0.992571  1
  Cd  Cd7  1  0.507429  0.514858  0.522287  1
  S  S8  1  0.375000  0.250000  0.125000  1
  O  O9  1  0.933713  0.367425  0.183713  1
  O  O10  1  0.933713  0.750001  0.183713  1
  O  O11  1  0.316288  0.750001  0.183713  1
  O  O12  1  0.061810  0.250000  0.438190  1
  O  O13  1  0.688190  0.250000  0.438190  1
  O  O14  1  0.688190  0.876381  0.438190  1
  O  O15  1  0.316288  0.132576  0.566288  1
  O  O16  1  0.316288  0.750001  0.566288  1
  O  O17  1  0.933713  0.750001  0.566288  1
  O  O18  1  0.688189  0.250000  0.811810  1
  O  O19  1  0.061810  0.623620  0.811811  1
  O  O20  1  0.061810  0.250000  0.811811  1
  O  O21  1  0.625000  0.750001  0.875001  1
