# generated using pymatgen
data_KPPbO4
_symmetry_space_group_name_H-M   'P 1'
_cell_length_a   5.76854100
_cell_length_b   7.57471600
_cell_length_c   10.30834100
_cell_angle_alpha   90.00000000
_cell_angle_beta   90.00000000
_cell_angle_gamma   90.00000000
_symmetry_Int_Tables_number   1
_chemical_formula_structural   KPPbO4
_chemical_formula_sum   'K4 P4 Pb4 O16'
_cell_volume   450.42357653
_cell_formula_units_Z   4
loop_
 _symmetry_equiv_pos_site_id
 _symmetry_equiv_pos_as_xyz
  1  'x, y, z'
loop_
 _atom_site_type_symbol
 _atom_site_label
 _atom_site_symmetry_multiplicity
 _atom_site_fract_x
 _atom_site_fract_y
 _atom_site_fract_z
 _atom_site_occupancy
  K  K0  1  0.250000  0.648625  0.079946  1
  K  K1  1  0.750000  0.851375  0.579946  1
  K  K2  1  0.750000  0.351375  0.920054  1
  K  K3  1  0.250000  0.148625  0.420054  1
  P  P4  1  0.250000  0.204392  0.085480  1
  P  P5  1  0.750000  0.795608  0.914520  1
  P  P6  1  0.250000  0.704392  0.414520  1
  P  P7  1  0.750000  0.295608  0.585480  1
  Pb  Pb8  1  0.750000  0.501493  0.321073  1
  Pb  Pb9  1  0.750000  0.001493  0.178927  1
  Pb  Pb10  1  0.250000  0.998507  0.821073  1
  Pb  Pb11  1  0.250000  0.498507  0.678927  1
  O  O12  1  0.250000  0.500356  0.442217  1
  O  O13  1  0.750000  0.499644  0.557783  1
  O  O14  1  0.250000  0.000356  0.057783  1
  O  O15  1  0.750000  0.999644  0.942217  1
  O  O16  1  0.528747  0.748204  0.834177  1
  O  O17  1  0.028747  0.251796  0.165823  1
  O  O18  1  0.971253  0.248204  0.665823  1
  O  O19  1  0.471253  0.751796  0.334177  1
  O  O20  1  0.471253  0.251796  0.165823  1
  O  O21  1  0.971253  0.748204  0.834177  1
  O  O22  1  0.028747  0.751796  0.334177  1
  O  O23  1  0.528747  0.248204  0.665823  1
  O  O24  1  0.750000  0.195224  0.453835  1
  O  O25  1  0.250000  0.804776  0.546165  1
  O  O26  1  0.750000  0.695224  0.046165  1
  O  O27  1  0.250000  0.304776  0.953835  1
