# generated using pymatgen
data_EuAl5Pt3
_symmetry_space_group_name_H-M   'P 1'
_cell_length_a   4.16645000
_cell_length_b   7.54399447
_cell_length_c   20.73539600
_cell_angle_alpha   89.96419011
_cell_angle_beta   90.00000000
_cell_angle_gamma   90.00000000
_symmetry_Int_Tables_number   1
_chemical_formula_structural   EuAl5Pt3
_chemical_formula_sum   'Eu4 Al20 Pt12'
_cell_volume   651.74811682
_cell_formula_units_Z   4
loop_
 _symmetry_equiv_pos_site_id
 _symmetry_equiv_pos_as_xyz
  1  'x, y, z'
loop_
 _atom_site_type_symbol
 _atom_site_label
 _atom_site_symmetry_multiplicity
 _atom_site_fract_x
 _atom_site_fract_y
 _atom_site_fract_z
 _atom_site_occupancy
  Eu  Eu0  1  0.250000  0.384274  0.139429  1
  Eu  Eu1  1  0.750000  0.615726  0.860571  1
  Eu  Eu2  1  0.250000  0.115554  0.639363  1
  Eu  Eu3  1  0.750000  0.884446  0.360637  1
  Al  Al4  1  0.750000  0.351438  0.383351  1
  Al  Al5  1  0.750000  0.885300  0.982716  1
  Al  Al6  1  0.750000  0.688269  0.200384  1
  Al  Al7  1  0.250000  0.870198  0.492257  1
  Al  Al8  1  0.250000  0.629751  0.992266  1
  Al  Al9  1  0.250000  0.311731  0.799616  1
  Al  Al10  1  0.750000  0.074254  0.208899  1
  Al  Al11  1  0.250000  0.648562  0.616649  1
  Al  Al12  1  0.250000  0.574207  0.291109  1
  Al  Al13  1  0.250000  0.188191  0.299625  1
  Al  Al14  1  0.750000  0.148626  0.883349  1
  Al  Al15  1  0.250000  0.925746  0.791101  1
  Al  Al16  1  0.750000  0.370249  0.007734  1
  Al  Al17  1  0.750000  0.614692  0.482680  1
  Al  Al18  1  0.750000  0.129802  0.507743  1
  Al  Al19  1  0.250000  0.114700  0.017284  1
  Al  Al20  1  0.250000  0.851374  0.116651  1
  Al  Al21  1  0.250000  0.385308  0.517320  1
  Al  Al22  1  0.750000  0.425793  0.708891  1
  Al  Al23  1  0.750000  0.811809  0.700375  1
  Pt  Pt24  1  0.750000  0.382507  0.261808  1
  Pt  Pt25  1  0.250000  0.882568  0.238223  1
  Pt  Pt26  1  0.250000  0.617493  0.738192  1
  Pt  Pt27  1  0.750000  0.117432  0.761777  1
  Pt  Pt28  1  0.250000  0.164606  0.428459  1
  Pt  Pt29  1  0.750000  0.422481  0.584057  1
  Pt  Pt30  1  0.750000  0.077597  0.084078  1
  Pt  Pt31  1  0.250000  0.922403  0.915922  1
  Pt  Pt32  1  0.750000  0.835394  0.571541  1
  Pt  Pt33  1  0.250000  0.335575  0.928396  1
  Pt  Pt34  1  0.750000  0.664425  0.071604  1
  Pt  Pt35  1  0.250000  0.577519  0.415943  1
