# generated using pymatgen
data_Tb2SmSiPd5
_symmetry_space_group_name_H-M   'P 1'
_cell_length_a   8.28092737
_cell_length_b   8.28092714
_cell_length_c   8.28092683
_cell_angle_alpha   127.52284630
_cell_angle_beta   125.98744083
_cell_angle_gamma   78.65678731
_symmetry_Int_Tables_number   1
_chemical_formula_structural   Tb2SmSiPd5
_chemical_formula_sum   'Tb4 Sm2 Si2 Pd10'
_cell_volume   352.72992509
_cell_formula_units_Z   2
loop_
 _symmetry_equiv_pos_site_id
 _symmetry_equiv_pos_as_xyz
  1  'x, y, z'
loop_
 _atom_site_type_symbol
 _atom_site_label
 _atom_site_symmetry_multiplicity
 _atom_site_fract_x
 _atom_site_fract_y
 _atom_site_fract_z
 _atom_site_occupancy
  Tb  Tb0  1  0.223948  0.449934  0.774013  1
  Tb  Tb1  1  0.776052  0.550066  0.225987  1
  Tb  Tb2  1  0.824078  0.050066  0.774013  1
  Tb  Tb3  1  0.175922  0.949934  0.225987  1
  Sm  Sm4  1  0.385935  0.250000  0.135935  1
  Sm  Sm5  1  0.614065  0.750000  0.864065  1
  Si  Si6  1  0.782523  0.250000  0.532523  1
  Si  Si7  1  0.217477  0.750000  0.467477  1
  Pd  Pd8  1  0.165494  0.401277  0.357201  1
  Pd  Pd9  1  0.834506  0.191708  0.235782  1
  Pd  Pd10  1  0.455924  0.098723  0.764218  1
  Pd  Pd11  1  0.544076  0.308292  0.642799  1
  Pd  Pd12  1  0.000000  0.500000  0.000000  1
  Pd  Pd13  1  0.000000  0.000000  0.500000  1
  Pd  Pd14  1  0.455924  0.691708  0.357201  1
  Pd  Pd15  1  0.544076  0.901277  0.235782  1
  Pd  Pd16  1  0.165494  0.808292  0.764218  1
  Pd  Pd17  1  0.834506  0.598723  0.642799  1
