# generated using pymatgen
data_La9Nd7Cd4(IrRu)2
_symmetry_space_group_name_H-M   'P 1'
_cell_length_a   10.02503130
_cell_length_b   10.02503141
_cell_length_c   10.04887100
_cell_angle_alpha   59.92130825
_cell_angle_beta   59.92130790
_cell_angle_gamma   60.19505953
_symmetry_Int_Tables_number   1
_chemical_formula_structural   La9Nd7Cd4(IrRu)2
_chemical_formula_sum   'La9 Nd7 Cd4 Ir2 Ru2'
_cell_volume   714.31663547
_cell_formula_units_Z   1
loop_
 _symmetry_equiv_pos_site_id
 _symmetry_equiv_pos_as_xyz
  1  'x, y, z'
loop_
 _atom_site_type_symbol
 _atom_site_label
 _atom_site_symmetry_multiplicity
 _atom_site_fract_x
 _atom_site_fract_y
 _atom_site_fract_z
 _atom_site_occupancy
  La  La0  1  0.346118  0.346118  0.349191  1
  La  La1  1  0.346118  0.346118  0.958574  1
  La  La2  1  0.346464  0.959765  0.346886  1
  La  La3  1  0.959765  0.346464  0.346886  1
  La  La4  1  0.811949  0.189463  0.190384  1
  La  La5  1  0.189463  0.811949  0.808203  1
  La  La6  1  0.189463  0.811949  0.190384  1
  La  La7  1  0.811949  0.189463  0.808203  1
  La  La8  1  0.190381  0.190381  0.809619  1
  Nd  Nd9  1  0.807097  0.807097  0.192903  1
  Nd  Nd10  1  0.936089  0.563585  0.563124  1
  Nd  Nd11  1  0.563585  0.936089  0.937202  1
  Nd  Nd12  1  0.563585  0.936089  0.563124  1
  Nd  Nd13  1  0.936089  0.563585  0.937202  1
  Nd  Nd14  1  0.563275  0.563275  0.936725  1
  Nd  Nd15  1  0.937722  0.937722  0.562278  1
  Cd  Cd16  1  0.580753  0.580753  0.579011  1
  Cd  Cd17  1  0.580753  0.580753  0.259482  1
  Cd  Cd18  1  0.580156  0.258600  0.580622  1
  Cd  Cd19  1  0.258600  0.580156  0.580622  1
  Ir  Ir20  1  0.144649  0.578744  0.138303  1
  Ir  Ir21  1  0.578744  0.144649  0.138303  1
  Ru  Ru22  1  0.138616  0.138616  0.135911  1
  Ru  Ru23  1  0.138616  0.138616  0.586857  1
