# generated using pymatgen
data_BaMn2(Sb6Os)2
_symmetry_space_group_name_H-M   'P 1'
_cell_length_a   8.19878897
_cell_length_b   8.19878934
_cell_length_c   8.18382312
_cell_angle_alpha   109.37681723
_cell_angle_beta   109.44832097
_cell_angle_gamma   109.66239942
_symmetry_Int_Tables_number   1
_chemical_formula_structural   BaMn2(Sb6Os)2
_chemical_formula_sum   'Ba1 Mn2 Sb12 Os2'
_cell_volume   423.09217924
_cell_formula_units_Z   1
loop_
 _symmetry_equiv_pos_site_id
 _symmetry_equiv_pos_as_xyz
  1  'x, y, z'
loop_
 _atom_site_type_symbol
 _atom_site_label
 _atom_site_symmetry_multiplicity
 _atom_site_fract_x
 _atom_site_fract_y
 _atom_site_fract_z
 _atom_site_occupancy
  Ba  Ba0  1  0.000000  0.000000  0.000000  1
  Mn  Mn1  1  0.000000  0.000000  0.500000  1
  Mn  Mn2  1  0.500000  0.500000  0.500000  1
  Sb  Sb3  1  0.340218  0.182047  0.840963  1
  Sb  Sb4  1  0.659782  0.817953  0.159037  1
  Sb  Sb5  1  0.658917  0.500745  0.840963  1
  Sb  Sb6  1  0.341083  0.499255  0.159037  1
  Sb  Sb7  1  0.183035  0.841418  0.340920  1
  Sb  Sb8  1  0.816965  0.158582  0.659080  1
  Sb  Sb9  1  0.500497  0.842115  0.659080  1
  Sb  Sb10  1  0.499503  0.157885  0.340920  1
  Sb  Sb11  1  0.841461  0.340360  0.181821  1
  Sb  Sb12  1  0.158539  0.659640  0.818179  1
  Sb  Sb13  1  0.842188  0.657654  0.499840  1
  Sb  Sb14  1  0.157812  0.342346  0.500160  1
  Os  Os15  1  0.500000  0.000000  0.000000  1
  Os  Os16  1  0.000000  0.500000  0.000000  1
