# generated using pymatgen
data_Na2Zr2CuAgTe6
_symmetry_space_group_name_H-M   'P 1'
_cell_length_a   4.14449400
_cell_length_b   11.23402301
_cell_length_c   14.76189401
_cell_angle_alpha   90.00041901
_cell_angle_beta   90.00000000
_cell_angle_gamma   90.00000000
_symmetry_Int_Tables_number   1
_chemical_formula_structural   Na2Zr2CuAgTe6
_chemical_formula_sum   'Na4 Zr4 Cu2 Ag2 Te12'
_cell_volume   687.30405639
_cell_formula_units_Z   2
loop_
 _symmetry_equiv_pos_site_id
 _symmetry_equiv_pos_as_xyz
  1  'x, y, z'
loop_
 _atom_site_type_symbol
 _atom_site_label
 _atom_site_symmetry_multiplicity
 _atom_site_fract_x
 _atom_site_fract_y
 _atom_site_fract_z
 _atom_site_occupancy
  Na  Na0  1  0.250000  0.050979  0.227464  1
  Na  Na1  1  0.750000  0.949021  0.772536  1
  Na  Na2  1  0.750000  0.551927  0.271870  1
  Na  Na3  1  0.250000  0.448073  0.728130  1
  Zr  Zr4  1  0.250000  0.315914  0.008522  1
  Zr  Zr5  1  0.750000  0.684086  0.991478  1
  Zr  Zr6  1  0.750000  0.817401  0.490732  1
  Zr  Zr7  1  0.250000  0.182599  0.509268  1
  Cu  Cu8  1  0.750000  0.094578  0.007814  1
  Cu  Cu9  1  0.250000  0.905422  0.992186  1
  Ag  Ag10  1  0.250000  0.592026  0.489716  1
  Ag  Ag11  1  0.750000  0.407974  0.510284  1
  Te  Te12  1  0.250000  0.561919  0.101309  1
  Te  Te13  1  0.750000  0.438081  0.898691  1
  Te  Te14  1  0.750000  0.060305  0.400210  1
  Te  Te15  1  0.250000  0.939695  0.599790  1
  Te  Te16  1  0.250000  0.370630  0.380370  1
  Te  Te17  1  0.750000  0.629370  0.619630  1
  Te  Te18  1  0.750000  0.887125  0.104536  1
  Te  Te19  1  0.250000  0.112875  0.895464  1
  Te  Te20  1  0.250000  0.765139  0.354919  1
  Te  Te21  1  0.750000  0.234861  0.645081  1
  Te  Te22  1  0.750000  0.252491  0.139153  1
  Te  Te23  1  0.250000  0.747509  0.860847  1
