# generated using pymatgen
data_CoSb(SeO3)4
_symmetry_space_group_name_H-M   'P 1'
_cell_length_a   8.03026800
_cell_length_b   8.00919683
_cell_length_c   8.03556404
_cell_angle_alpha   89.36247689
_cell_angle_beta   90.00000000
_cell_angle_gamma   90.00000000
_symmetry_Int_Tables_number   1
_chemical_formula_structural   CoSb(SeO3)4
_chemical_formula_sum   'Co2 Sb2 Se8 O24'
_cell_volume   516.78332020
_cell_formula_units_Z   2
loop_
 _symmetry_equiv_pos_site_id
 _symmetry_equiv_pos_as_xyz
  1  'x, y, z'
loop_
 _atom_site_type_symbol
 _atom_site_label
 _atom_site_symmetry_multiplicity
 _atom_site_fract_x
 _atom_site_fract_y
 _atom_site_fract_z
 _atom_site_occupancy
  Co  Co0  1  0.000000  0.500000  0.000000  1
  Co  Co1  1  0.500000  0.500000  0.500000  1
  Sb  Sb2  1  0.000000  0.000000  0.500000  1
  Sb  Sb3  1  0.500000  0.000000  0.000000  1
  Se  Se4  1  0.319000  0.648878  0.181430  1
  Se  Se5  1  0.819000  0.351122  0.318570  1
  Se  Se6  1  0.660956  0.808604  0.658294  1
  Se  Se7  1  0.160956  0.191396  0.841706  1
  Se  Se8  1  0.681000  0.351122  0.818570  1
  Se  Se9  1  0.181000  0.648878  0.681430  1
  Se  Se10  1  0.339044  0.191396  0.341706  1
  Se  Se11  1  0.839044  0.808604  0.158294  1
  O  O12  1  0.237082  0.521254  0.031912  1
  O  O13  1  0.737082  0.478746  0.468088  1
  O  O14  1  0.753764  0.966798  0.531045  1
  O  O15  1  0.253764  0.033202  0.968955  1
  O  O16  1  0.521397  0.948279  0.755343  1
  O  O17  1  0.461780  0.509223  0.263571  1
  O  O18  1  0.961780  0.490777  0.236429  1
  O  O19  1  0.021397  0.051721  0.744657  1
  O  O20  1  0.966259  0.243324  0.451592  1
  O  O21  1  0.525770  0.738011  0.511638  1
  O  O22  1  0.466259  0.756676  0.048408  1
  O  O23  1  0.025770  0.261989  0.988362  1
  O  O24  1  0.762918  0.478746  0.968088  1
  O  O25  1  0.262918  0.521254  0.531912  1
  O  O26  1  0.246236  0.033202  0.468955  1
  O  O27  1  0.746236  0.966798  0.031045  1
  O  O28  1  0.478603  0.051721  0.244657  1
  O  O29  1  0.538220  0.490777  0.736429  1
  O  O30  1  0.038220  0.509223  0.763571  1
  O  O31  1  0.978603  0.948279  0.255343  1
  O  O32  1  0.033741  0.756676  0.548408  1
  O  O33  1  0.474230  0.261989  0.488362  1
  O  O34  1  0.533741  0.243324  0.951592  1
  O  O35  1  0.974230  0.738011  0.011638  1
