# generated using pymatgen
data_Eu9TmSn6F2
_symmetry_space_group_name_H-M   'P 1'
_cell_length_a   9.65218520
_cell_length_b   9.65218545
_cell_length_c   9.65218500
_cell_angle_alpha   128.99362906
_cell_angle_beta   128.99363026
_cell_angle_gamma   75.02082079
_symmetry_Int_Tables_number   1
_chemical_formula_structural   Eu9TmSn6F2
_chemical_formula_sum   'Eu9 Tm1 Sn6 F2'
_cell_volume   528.94796893
_cell_formula_units_Z   1
loop_
 _symmetry_equiv_pos_site_id
 _symmetry_equiv_pos_as_xyz
  1  'x, y, z'
loop_
 _atom_site_type_symbol
 _atom_site_label
 _atom_site_symmetry_multiplicity
 _atom_site_fract_x
 _atom_site_fract_y
 _atom_site_fract_z
 _atom_site_occupancy
  Eu  Eu0  1  0.500000  0.500000  0.000000  1
  Eu  Eu1  1  0.516066  0.013915  0.829705  1
  Eu  Eu2  1  0.184210  0.686361  0.170295  1
  Eu  Eu3  1  0.013915  0.184210  0.497849  1
  Eu  Eu4  1  0.686361  0.516066  0.502151  1
  Eu  Eu5  1  0.483934  0.986085  0.170295  1
  Eu  Eu6  1  0.815790  0.313639  0.829705  1
  Eu  Eu7  1  0.986085  0.815790  0.502151  1
  Eu  Eu8  1  0.313639  0.483934  0.497849  1
  Tm  Tm9  1  0.000000  0.000000  0.000000  1
  Sn  Sn10  1  0.246552  0.246552  0.000000  1
  Sn  Sn11  1  0.753448  0.753448  0.000000  1
  Sn  Sn12  1  0.878380  0.365289  0.243668  1
  Sn  Sn13  1  0.121620  0.634711  0.756332  1
  Sn  Sn14  1  0.365289  0.121620  0.486909  1
  Sn  Sn15  1  0.634711  0.878380  0.513091  1
  F  F16  1  0.250000  0.750000  0.500000  1
  F  F17  1  0.750000  0.250000  0.500000  1
