# generated using pymatgen
data_HoTh2In3Ru2
_symmetry_space_group_name_H-M   'P 1'
_cell_length_a   8.48603290
_cell_length_b   8.48603238
_cell_length_c   5.14303273
_cell_angle_alpha   80.38386283
_cell_angle_beta   80.38386126
_cell_angle_gamma   32.84160781
_symmetry_Int_Tables_number   1
_chemical_formula_structural   HoTh2In3Ru2
_chemical_formula_sum   'Ho1 Th2 In3 Ru2'
_cell_volume   197.78597083
_cell_formula_units_Z   1
loop_
 _symmetry_equiv_pos_site_id
 _symmetry_equiv_pos_as_xyz
  1  'x, y, z'
loop_
 _atom_site_type_symbol
 _atom_site_label
 _atom_site_symmetry_multiplicity
 _atom_site_fract_x
 _atom_site_fract_y
 _atom_site_fract_z
 _atom_site_occupancy
  Ho  Ho0  1  0.000000  0.000000  0.000000  1
  Th  Th1  1  0.829247  0.829247  0.591013  1
  Th  Th2  1  0.170753  0.170753  0.408987  1
  In  In3  1  0.371059  0.371059  0.055778  1
  In  In4  1  0.500000  0.500000  0.500000  1
  In  In5  1  0.628941  0.628941  0.944222  1
  Ru  Ru6  1  0.788743  0.788743  0.121755  1
  Ru  Ru7  1  0.211257  0.211257  0.878245  1
