# generated using pymatgen
data_TbY3Al18Ir5Au
_symmetry_space_group_name_H-M   'P 1'
_cell_length_a   7.58952911
_cell_length_b   7.58958565
_cell_length_c   9.48267630
_cell_angle_alpha   89.96548240
_cell_angle_beta   89.96780581
_cell_angle_gamma   119.57817202
_symmetry_Int_Tables_number   1
_chemical_formula_structural   TbY3Al18Ir5Au
_chemical_formula_sum   'Tb1 Y3 Al18 Ir5 Au1'
_cell_volume   475.03382510
_cell_formula_units_Z   1
loop_
 _symmetry_equiv_pos_site_id
 _symmetry_equiv_pos_as_xyz
  1  'x, y, z'
loop_
 _atom_site_type_symbol
 _atom_site_label
 _atom_site_symmetry_multiplicity
 _atom_site_fract_x
 _atom_site_fract_y
 _atom_site_fract_z
 _atom_site_occupancy
  Tb  Tb0  1  0.995710  0.673162  0.251072  1
  Y  Y1  1  0.004303  0.326825  0.748904  1
  Y  Y2  1  0.673163  0.995710  0.251093  1
  Y  Y3  1  0.326837  0.004312  0.748901  1
  Al  Al4  1  0.135103  0.135107  0.256353  1
  Al  Al5  1  0.864931  0.864941  0.743646  1
  Al  Al6  1  0.001499  0.344202  0.079022  1
  Al  Al7  1  0.998497  0.655757  0.920955  1
  Al  Al8  1  0.000196  0.664689  0.573425  1
  Al  Al9  1  0.335363  0.999845  0.426620  1
  Al  Al10  1  0.999803  0.335278  0.426611  1
  Al  Al11  1  0.664690  0.000201  0.573391  1
  Al  Al12  1  0.655764  0.998505  0.920974  1
  Al  Al13  1  0.344280  0.001532  0.079030  1
  Al  Al14  1  0.333213  0.333215  0.551988  1
  Al  Al15  1  0.666742  0.666782  0.448027  1
  Al  Al16  1  0.657975  0.658007  0.058452  1
  Al  Al17  1  0.341992  0.341995  0.941538  1
  Al  Al18  1  0.339151  0.549671  0.251314  1
  Al  Al19  1  0.660852  0.450288  0.748686  1
  Al  Al20  1  0.549657  0.339138  0.251312  1
  Al  Al21  1  0.450295  0.660854  0.748686  1
  Ir  Ir22  1  0.671698  0.328265  0.999975  1
  Ir  Ir23  1  0.328296  0.671718  0.999983  1
  Ir  Ir24  1  0.328306  0.671696  0.500014  1
  Ir  Ir25  1  0.671686  0.328297  0.500019  1
  Ir  Ir26  1  0.999998  0.000005  0.500012  1
  Au  Au27  1  0.999998  0.000003  0.999995  1
