# generated using pymatgen
data_Zr2(TaN2)3
_symmetry_space_group_name_H-M   'P 1'
_cell_length_a   5.32910500
_cell_length_b   5.32910498
_cell_length_c   10.65893600
_cell_angle_alpha   90.00000000
_cell_angle_beta   90.00000000
_cell_angle_gamma   120.00000632
_symmetry_Int_Tables_number   1
_chemical_formula_structural   Zr2(TaN2)3
_chemical_formula_sum   'Zr4 Ta6 N12'
_cell_volume   262.15190121
_cell_formula_units_Z   2
loop_
 _symmetry_equiv_pos_site_id
 _symmetry_equiv_pos_as_xyz
  1  'x, y, z'
loop_
 _atom_site_type_symbol
 _atom_site_label
 _atom_site_symmetry_multiplicity
 _atom_site_fract_x
 _atom_site_fract_y
 _atom_site_fract_z
 _atom_site_occupancy
  Zr  Zr0  1  0.666667  0.333333  0.000000  1
  Zr  Zr1  1  0.333333  0.666667  0.000000  1
  Zr  Zr2  1  0.333333  0.666667  0.500000  1
  Zr  Zr3  1  0.666667  0.333333  0.500000  1
  Ta  Ta4  1  0.679966  0.679966  0.750000  1
  Ta  Ta5  1  0.320034  0.000000  0.750000  1
  Ta  Ta6  1  0.000000  0.320034  0.750000  1
  Ta  Ta7  1  0.320034  0.320034  0.250000  1
  Ta  Ta8  1  0.679966  0.000000  0.250000  1
  Ta  Ta9  1  0.000000  0.679966  0.250000  1
  N  N10  1  0.658308  0.658308  0.370883  1
  N  N11  1  0.341692  0.000000  0.370883  1
  N  N12  1  0.000000  0.341692  0.370883  1
  N  N13  1  0.341692  0.341692  0.629117  1
  N  N14  1  0.658308  0.000000  0.629117  1
  N  N15  1  0.000000  0.658308  0.629117  1
  N  N16  1  0.341692  0.341692  0.870883  1
  N  N17  1  0.658308  0.000000  0.870883  1
  N  N18  1  0.000000  0.658308  0.870883  1
  N  N19  1  0.658308  0.658308  0.129117  1
  N  N20  1  0.341692  0.000000  0.129117  1
  N  N21  1  0.000000  0.341692  0.129117  1
