# generated using pymatgen
data_Ce7DySe12
_symmetry_space_group_name_H-M   'P 1'
_cell_length_a   7.38907801
_cell_length_b   7.43750323
_cell_length_c   13.45391045
_cell_angle_alpha   100.86223518
_cell_angle_beta   100.71913611
_cell_angle_gamma   108.68707166
_symmetry_Int_Tables_number   1
_chemical_formula_structural   Ce7DySe12
_chemical_formula_sum   'Ce7 Dy1 Se12'
_cell_volume   663.29055679
_cell_formula_units_Z   1
loop_
 _symmetry_equiv_pos_site_id
 _symmetry_equiv_pos_as_xyz
  1  'x, y, z'
loop_
 _atom_site_type_symbol
 _atom_site_label
 _atom_site_symmetry_multiplicity
 _atom_site_fract_x
 _atom_site_fract_y
 _atom_site_fract_z
 _atom_site_occupancy
  Ce  Ce0  1  0.289664  0.039885  0.080625  1
  Ce  Ce1  1  0.370382  0.620199  0.240516  1
  Ce  Ce2  1  0.878022  0.127618  0.255962  1
  Ce  Ce3  1  0.460464  0.210175  0.419060  1
  Ce  Ce4  1  0.540818  0.790465  0.580308  1
  Ce  Ce5  1  0.121839  0.871810  0.743348  1
  Ce  Ce6  1  0.629748  0.379493  0.759313  1
  Dy  Dy7  1  0.708295  0.958413  0.917854  1
  Se  Se8  1  0.032868  0.271960  0.086506  1
  Se  Se9  1  0.553001  0.814521  0.086292  1
  Se  Se10  1  0.609275  0.359923  0.249519  1
  Se  Se11  1  0.141243  0.890517  0.250453  1
  Se  Se12  1  0.222358  0.461352  0.408918  1
  Se  Se13  1  0.686112  0.946943  0.408740  1
  Se  Se14  1  0.314379  0.053026  0.591390  1
  Se  Se15  1  0.777655  0.538763  0.591669  1
  Se  Se16  1  0.857331  0.107229  0.754240  1
  Se  Se17  1  0.396298  0.646903  0.753969  1
  Se  Se18  1  0.454345  0.180097  0.910547  1
  Se  Se19  1  0.955911  0.730716  0.910779  1
