# generated using pymatgen
data_Tb4Al22Ga2Pt9
_symmetry_space_group_name_H-M   'P 1'
_cell_length_a   7.54639634
_cell_length_b   7.55861538
_cell_length_c   13.15020951
_cell_angle_alpha   84.54004894
_cell_angle_beta   79.10135573
_cell_angle_gamma   59.94887591
_symmetry_Int_Tables_number   1
_chemical_formula_structural   Tb4Al22Ga2Pt9
_chemical_formula_sum   'Tb4 Al22 Ga2 Pt9'
_cell_volume   637.55306865
_cell_formula_units_Z   1
loop_
 _symmetry_equiv_pos_site_id
 _symmetry_equiv_pos_as_xyz
  1  'x, y, z'
loop_
 _atom_site_type_symbol
 _atom_site_label
 _atom_site_symmetry_multiplicity
 _atom_site_fract_x
 _atom_site_fract_y
 _atom_site_fract_z
 _atom_site_occupancy
  Tb  Tb0  1  0.394029  0.166270  0.810329  1
  Tb  Tb1  1  0.605971  0.833730  0.189671  1
  Tb  Tb2  1  0.733313  0.499930  0.808523  1
  Tb  Tb3  1  0.266687  0.500070  0.191477  1
  Al  Al4  1  0.147167  0.832592  0.561413  1
  Al  Al5  1  0.852833  0.167408  0.438587  1
  Al  Al6  1  0.479153  0.167365  0.558763  1
  Al  Al7  1  0.520847  0.832635  0.441237  1
  Al  Al8  1  0.216475  0.165164  0.332123  1
  Al  Al9  1  0.783525  0.834836  0.667877  1
  Al  Al10  1  0.437833  0.505786  0.669789  1
  Al  Al11  1  0.562167  0.494214  0.330211  1
  Al  Al12  1  0.109507  0.160421  0.668864  1
  Al  Al13  1  0.890493  0.839579  0.331136  1
  Al  Al14  1  0.352607  0.499613  0.944153  1
  Al  Al15  1  0.647393  0.500387  0.055847  1
  Al  Al16  1  0.016112  0.167442  0.953679  1
  Al  Al17  1  0.983888  0.832558  0.046321  1
  Al  Al18  1  0.187010  0.499488  0.441253  1
  Al  Al19  1  0.812990  0.500512  0.558747  1
  Al  Al20  1  0.736153  0.163128  0.183833  1
  Al  Al21  1  0.263847  0.836872  0.816167  1
  Al  Al22  1  0.063600  0.629976  0.815047  1
  Al  Al23  1  0.936400  0.370024  0.184953  1
  Al  Al24  1  0.855714  0.042379  0.815878  1
  Al  Al25  1  0.144286  0.957621  0.184123  1
  Ga  Ga26  1  0.685107  0.833566  0.938546  1
  Ga  Ga27  1  0.314893  0.166434  0.061454  1
  Pt  Pt28  1  0.119743  0.492263  0.638397  1
  Pt  Pt29  1  0.880257  0.507737  0.361603  1
  Pt  Pt30  1  0.660449  0.174485  0.999658  1
  Pt  Pt31  1  0.339551  0.825515  0.000342  1
  Pt  Pt32  1  0.537912  0.166501  0.361371  1
  Pt  Pt33  1  0.462088  0.833499  0.638629  1
  Pt  Pt34  1  0.778540  0.174736  0.637020  1
  Pt  Pt35  1  0.221460  0.825264  0.362980  1
  Pt  Pt36  1  0.000000  0.500000  0.000000  1
