# generated using pymatgen
data_Zr16Nb4Si15Se
_symmetry_space_group_name_H-M   'P 1'
_cell_length_a   7.09685162
_cell_length_b   7.06849397
_cell_length_c   12.98700594
_cell_angle_alpha   90.07237497
_cell_angle_beta   89.37475587
_cell_angle_gamma   90.04582184
_symmetry_Int_Tables_number   1
_chemical_formula_structural   Zr16Nb4Si15Se
_chemical_formula_sum   'Zr16 Nb4 Si15 Se1'
_cell_volume   651.44134176
_cell_formula_units_Z   1
loop_
 _symmetry_equiv_pos_site_id
 _symmetry_equiv_pos_as_xyz
  1  'x, y, z'
loop_
 _atom_site_type_symbol
 _atom_site_label
 _atom_site_symmetry_multiplicity
 _atom_site_fract_x
 _atom_site_fract_y
 _atom_site_fract_z
 _atom_site_occupancy
  Zr  Zr0  1  0.352377  0.505159  0.378590  1
  Zr  Zr1  1  0.850286  0.001195  0.370995  1
  Zr  Zr2  1  0.002242  0.146460  0.126151  1
  Zr  Zr3  1  0.002126  0.853386  0.623729  1
  Zr  Zr4  1  0.647772  0.498240  0.876515  1
  Zr  Zr5  1  0.507128  0.352427  0.624819  1
  Zr  Zr6  1  0.495461  0.645581  0.123849  1
  Zr  Zr7  1  0.146800  0.001823  0.873391  1
  Zr  Zr8  1  0.999609  0.649555  0.034666  1
  Zr  Zr9  1  0.001034  0.345026  0.533620  1
  Zr  Zr10  1  0.651933  0.998369  0.965075  1
  Zr  Zr11  1  0.152755  0.501263  0.781379  1
  Zr  Zr12  1  0.837005  0.496698  0.277480  1
  Zr  Zr13  1  0.500045  0.152290  0.216711  1
  Zr  Zr14  1  0.506986  0.850574  0.720858  1
  Zr  Zr15  1  0.354278  0.006098  0.469211  1
  Nb  Nb16  1  0.668235  0.675273  0.500108  1
  Nb  Nb17  1  0.827880  0.173574  0.749556  1
  Nb  Nb18  1  0.171727  0.825573  0.248410  1
  Nb  Nb19  1  0.324592  0.325426  0.000671  1
  Si  Si20  1  0.952100  0.301097  0.935444  1
  Si  Si21  1  0.701914  0.046580  0.564568  1
  Si  Si22  1  0.198038  0.450516  0.186817  1
  Si  Si23  1  0.801929  0.549391  0.686284  1
  Si  Si24  1  0.451599  0.201003  0.815483  1
  Si  Si25  1  0.546416  0.802082  0.313296  1
  Si  Si26  1  0.300944  0.951899  0.063965  1
  Si  Si27  1  0.857116  0.796830  0.820010  1
  Si  Si28  1  0.148787  0.201776  0.321488  1
  Si  Si29  1  0.792779  0.854628  0.177492  1
  Si  Si30  1  0.310938  0.648591  0.583155  1
  Si  Si31  1  0.703539  0.353201  0.071037  1
  Si  Si32  1  0.643992  0.297242  0.427740  1
  Si  Si33  1  0.352667  0.702330  0.928303  1
  Si  Si34  1  0.205146  0.146557  0.679036  1
  Se  Se35  1  0.031823  0.692290  0.430098  1
