# generated using pymatgen
data_Yb2Pa(SnPd)3
_symmetry_space_group_name_H-M   'P 1'
_cell_length_a   7.51650819
_cell_length_b   7.57349469
_cell_length_c   4.06288400
_cell_angle_alpha   90.00000000
_cell_angle_beta   90.00000000
_cell_angle_gamma   120.25111103
_symmetry_Int_Tables_number   1
_chemical_formula_structural   Yb2Pa(SnPd)3
_chemical_formula_sum   'Yb2 Pa1 Sn3 Pd3'
_cell_volume   199.78966671
_cell_formula_units_Z   1
loop_
 _symmetry_equiv_pos_site_id
 _symmetry_equiv_pos_as_xyz
  1  'x, y, z'
loop_
 _atom_site_type_symbol
 _atom_site_label
 _atom_site_symmetry_multiplicity
 _atom_site_fract_x
 _atom_site_fract_y
 _atom_site_fract_z
 _atom_site_occupancy
  Yb  Yb0  1  0.407288  0.407794  0.000000  1
  Yb  Yb1  1  0.592712  0.000506  0.000000  1
  Pa  Pa2  1  0.000000  0.583226  0.000000  1
  Sn  Sn3  1  0.734588  0.744429  0.500000  1
  Sn  Sn4  1  0.000000  0.248016  0.500000  1
  Sn  Sn5  1  0.265412  0.009842  0.500000  1
  Pd  Pd6  1  0.312268  0.665733  0.500000  1
  Pd  Pd7  1  0.000000  0.986991  0.000000  1
  Pd  Pd8  1  0.687732  0.353464  0.500000  1
