# generated using pymatgen
data_La10Al3ZnOs6
_symmetry_space_group_name_H-M   'P 1'
_cell_length_a   8.67900031
_cell_length_b   8.67896537
_cell_length_c   8.59930400
_cell_angle_alpha   109.28429201
_cell_angle_beta   109.28618176
_cell_angle_gamma   109.65677721
_symmetry_Int_Tables_number   1
_chemical_formula_structural   La10Al3ZnOs6
_chemical_formula_sum   'La10 Al3 Zn1 Os6'
_cell_volume   499.76934152
_cell_formula_units_Z   1
loop_
 _symmetry_equiv_pos_site_id
 _symmetry_equiv_pos_as_xyz
  1  'x, y, z'
loop_
 _atom_site_type_symbol
 _atom_site_label
 _atom_site_symmetry_multiplicity
 _atom_site_fract_x
 _atom_site_fract_y
 _atom_site_fract_z
 _atom_site_occupancy
  La  La0  1  0.250492  0.687455  0.439691  1
  La  La1  1  0.748029  0.812263  0.061453  1
  La  La2  1  0.436942  0.249492  0.689196  1
  La  La3  1  0.687741  0.435781  0.249191  1
  La  La4  1  0.064226  0.751971  0.813414  1
  La  La5  1  0.812549  0.063065  0.752260  1
  La  La6  1  0.212117  0.213119  0.212178  1
  La  La7  1  0.499999  0.999981  0.285728  1
  La  La8  1  0.286890  0.498988  0.999065  1
  La  La9  1  0.001007  0.287876  0.500057  1
  Al  Al10  1  0.587469  0.585590  0.586312  1
  Al  Al11  1  0.914411  0.501881  0.000722  1
  Al  Al12  1  0.998121  0.912531  0.498843  1
  Zn  Zn13  1  0.500001  0.000001  0.916236  1
  Os  Os14  1  0.243375  0.118858  0.863354  1
  Os  Os15  1  0.748871  0.384179  0.633620  1
  Os  Os16  1  0.875482  0.256625  0.119981  1
  Os  Os17  1  0.115820  0.864692  0.249446  1
  Os  Os18  1  0.635308  0.751130  0.384750  1
  Os  Os19  1  0.381153  0.624522  0.744504  1
