# generated using pymatgen
data_TbNd2Er7(In2Pd)4
_symmetry_space_group_name_H-M   'P 1'
_cell_length_a   3.61588700
_cell_length_b   8.18626626
_cell_length_c   18.33233097
_cell_angle_alpha   89.93565386
_cell_angle_beta   90.00000000
_cell_angle_gamma   90.00000000
_symmetry_Int_Tables_number   1
_chemical_formula_structural   TbNd2Er7(In2Pd)4
_chemical_formula_sum   'Tb1 Nd2 Er7 In8 Pd4'
_cell_volume   542.64790563
_cell_formula_units_Z   1
loop_
 _symmetry_equiv_pos_site_id
 _symmetry_equiv_pos_as_xyz
  1  'x, y, z'
loop_
 _atom_site_type_symbol
 _atom_site_label
 _atom_site_symmetry_multiplicity
 _atom_site_fract_x
 _atom_site_fract_y
 _atom_site_fract_z
 _atom_site_occupancy
  Tb  Tb0  1  0.000000  0.739380  0.282864  1
  Nd  Nd1  1  0.000000  0.500794  0.499835  1
  Nd  Nd2  1  0.000000  0.999282  0.999454  1
  Er  Er3  1  0.000000  0.260443  0.717682  1
  Er  Er4  1  0.000000  0.760422  0.782186  1
  Er  Er5  1  0.000000  0.239032  0.217587  1
  Er  Er6  1  0.000000  0.620770  0.084440  1
  Er  Er7  1  0.000000  0.378315  0.915068  1
  Er  Er8  1  0.000000  0.878700  0.585117  1
  Er  Er9  1  0.000000  0.122792  0.415874  1
  In  In10  1  0.500000  0.698447  0.932341  1
  In  In11  1  0.500000  0.300539  0.067323  1
  In  In12  1  0.500000  0.803483  0.433642  1
  In  In13  1  0.500000  0.199288  0.567644  1
  In  In14  1  0.500000  0.581970  0.653766  1
  In  In15  1  0.500000  0.415665  0.346478  1
  In  In16  1  0.500000  0.917904  0.153117  1
  In  In17  1  0.500000  0.082184  0.846035  1
  Pd  Pd18  1  0.500000  0.522252  0.195076  1
  Pd  Pd19  1  0.500000  0.474760  0.804055  1
  Pd  Pd20  1  0.500000  0.974960  0.695800  1
  Pd  Pd21  1  0.500000  0.028619  0.304614  1
