# generated using pymatgen
data_Tb3Y3(MoO7)2
_symmetry_space_group_name_H-M   'P 1'
_cell_length_a   6.49610413
_cell_length_b   6.49517286
_cell_length_c   7.49548309
_cell_angle_alpha   89.98316364
_cell_angle_beta   89.99886802
_cell_angle_gamma   108.80042841
_symmetry_Int_Tables_number   1
_chemical_formula_structural   Tb3Y3(MoO7)2
_chemical_formula_sum   'Tb3 Y3 Mo2 O14'
_cell_volume   299.38586581
_cell_formula_units_Z   1
loop_
 _symmetry_equiv_pos_site_id
 _symmetry_equiv_pos_as_xyz
  1  'x, y, z'
loop_
 _atom_site_type_symbol
 _atom_site_label
 _atom_site_symmetry_multiplicity
 _atom_site_fract_x
 _atom_site_fract_y
 _atom_site_fract_z
 _atom_site_occupancy
  Tb  Tb0  1  0.529903  0.529919  0.500038  1
  Tb  Tb1  1  0.535824  0.000320  0.755407  1
  Tb  Tb2  1  0.999748  0.464133  0.744813  1
  Y  Y3  1  0.464382  0.999533  0.255382  1
  Y  Y4  1  0.000538  0.535602  0.244397  1
  Y  Y5  1  0.470037  0.470044  0.999957  1
  Mo  Mo6  1  0.001394  0.001635  0.499844  1
  Mo  Mo7  1  0.998447  0.998664  0.000158  1
  O  O8  1  0.926888  0.073082  0.749947  1
  O  O9  1  0.636998  0.363084  0.750199  1
  O  O10  1  0.311970  0.059098  0.536240  1
  O  O11  1  0.941004  0.688172  0.963719  1
  O  O12  1  0.630621  0.369381  0.249681  1
  O  O13  1  0.917674  0.674168  0.525778  1
  O  O14  1  0.325756  0.082188  0.974200  1
  O  O15  1  0.082192  0.326152  0.026153  1
  O  O16  1  0.673703  0.917629  0.473876  1
  O  O17  1  0.369746  0.630216  0.750321  1
  O  O18  1  0.688618  0.941134  0.036630  1
  O  O19  1  0.058946  0.311446  0.463397  1
  O  O20  1  0.362498  0.637526  0.249804  1
  O  O21  1  0.073110  0.926875  0.250054  1
