# generated using pymatgen
data_CaYNb3Ni9As7
_symmetry_space_group_name_H-M   'P 1'
_cell_length_a   3.84846800
_cell_length_b   9.63480125
_cell_length_c   9.63480200
_cell_angle_alpha   119.99999572
_cell_angle_beta   90.00000000
_cell_angle_gamma   90.00000000
_symmetry_Int_Tables_number   1
_chemical_formula_structural   CaYNb3Ni9As7
_chemical_formula_sum   'Ca1 Y1 Nb3 Ni9 As7'
_cell_volume   309.38844127
_cell_formula_units_Z   1
loop_
 _symmetry_equiv_pos_site_id
 _symmetry_equiv_pos_as_xyz
  1  'x, y, z'
loop_
 _atom_site_type_symbol
 _atom_site_label
 _atom_site_symmetry_multiplicity
 _atom_site_fract_x
 _atom_site_fract_y
 _atom_site_fract_z
 _atom_site_occupancy
  Ca  Ca0  1  0.500000  0.333333  0.666667  1
  Y  Y1  1  0.000000  0.666667  0.333333  1
  Nb  Nb2  1  0.500000  0.776985  0.893718  1
  Nb  Nb3  1  0.500000  0.116734  0.223015  1
  Nb  Nb4  1  0.500000  0.106282  0.883266  1
  Ni  Ni5  1  0.000000  0.574626  0.937741  1
  Ni  Ni6  1  0.000000  0.363114  0.425374  1
  Ni  Ni7  1  0.000000  0.062259  0.636886  1
  Ni  Ni8  1  0.000000  0.871525  0.155738  1
  Ni  Ni9  1  0.000000  0.284214  0.128475  1
  Ni  Ni10  1  0.000000  0.844262  0.715786  1
  Ni  Ni11  1  0.500000  0.939214  0.377716  1
  Ni  Ni12  1  0.500000  0.438502  0.060786  1
  Ni  Ni13  1  0.500000  0.622284  0.561498  1
  As  As14  1  0.500000  0.704842  0.117522  1
  As  As15  1  0.500000  0.412683  0.295158  1
  As  As16  1  0.500000  0.882478  0.587317  1
  As  As17  1  0.000000  0.000000  0.000000  1
  As  As18  1  0.000000  0.581925  0.692406  1
  As  As19  1  0.000000  0.110481  0.418075  1
  As  As20  1  0.000000  0.307594  0.889519  1
