# generated using pymatgen
data_Tb9TmIr5Au
_symmetry_space_group_name_H-M   'P 1'
_cell_length_a   11.10256994
_cell_length_b   11.03881500
_cell_length_c   6.33820161
_cell_angle_alpha   90.00000000
_cell_angle_beta   89.83110826
_cell_angle_gamma   90.00000000
_symmetry_Int_Tables_number   1
_chemical_formula_structural   Tb9TmIr5Au
_chemical_formula_sum   'Tb18 Tm2 Ir10 Au2'
_cell_volume   776.80164281
_cell_formula_units_Z   2
loop_
 _symmetry_equiv_pos_site_id
 _symmetry_equiv_pos_as_xyz
  1  'x, y, z'
loop_
 _atom_site_type_symbol
 _atom_site_label
 _atom_site_symmetry_multiplicity
 _atom_site_fract_x
 _atom_site_fract_y
 _atom_site_fract_z
 _atom_site_occupancy
  Tb  Tb0  1  0.291699  0.088688  0.371958  1
  Tb  Tb1  1  0.291699  0.911312  0.871958  1
  Tb  Tb2  1  0.697900  0.092277  0.865034  1
  Tb  Tb3  1  0.697900  0.907723  0.365034  1
  Tb  Tb4  1  0.577789  0.788193  0.877742  1
  Tb  Tb5  1  0.577789  0.211807  0.377742  1
  Tb  Tb6  1  0.408776  0.789384  0.376760  1
  Tb  Tb7  1  0.408776  0.210616  0.876760  1
  Tb  Tb8  1  0.211355  0.411783  0.620993  1
  Tb  Tb9  1  0.211355  0.588217  0.120993  1
  Tb  Tb10  1  0.788197  0.419813  0.122734  1
  Tb  Tb11  1  0.788197  0.580187  0.622734  1
  Tb  Tb12  1  0.917221  0.705381  0.139334  1
  Tb  Tb13  1  0.917221  0.294619  0.639334  1
  Tb  Tb14  1  0.096507  0.702929  0.624177  1
  Tb  Tb15  1  0.096507  0.297071  0.124177  1
  Tb  Tb16  1  0.008792  0.997347  0.499885  1
  Tb  Tb17  1  0.008792  0.002653  0.999885  1
  Tm  Tm18  1  0.499940  0.498820  0.000623  1
  Tm  Tm19  1  0.499940  0.501180  0.500623  1
  Ir  Ir20  1  0.154247  0.154135  0.750625  1
  Ir  Ir21  1  0.154247  0.845865  0.250625  1
  Ir  Ir22  1  0.653541  0.348857  0.748455  1
  Ir  Ir23  1  0.653541  0.651143  0.248455  1
  Ir  Ir24  1  0.350066  0.348577  0.251438  1
  Ir  Ir25  1  0.350066  0.651423  0.751438  1
  Ir  Ir26  1  0.499517  0.999539  0.119877  1
  Ir  Ir27  1  0.499517  0.000461  0.619877  1
  Ir  Ir28  1  0.999868  0.501076  0.880042  1
  Ir  Ir29  1  0.999868  0.498924  0.380042  1
  Au  Au30  1  0.844586  0.155434  0.250323  1
  Au  Au31  1  0.844586  0.844566  0.750323  1
