# generated using pymatgen
data_Ca3CoMoP6Ir7
_symmetry_space_group_name_H-M   'P 1'
_cell_length_a   3.93930200
_cell_length_b   11.11972600
_cell_length_c   12.80353200
_cell_angle_alpha   90.00000000
_cell_angle_beta   90.00000000
_cell_angle_gamma   90.00000000
_symmetry_Int_Tables_number   1
_chemical_formula_structural   Ca3CoMoP6Ir7
_chemical_formula_sum   'Ca6 Co2 Mo2 P12 Ir14'
_cell_volume   560.84538913
_cell_formula_units_Z   2
loop_
 _symmetry_equiv_pos_site_id
 _symmetry_equiv_pos_as_xyz
  1  'x, y, z'
loop_
 _atom_site_type_symbol
 _atom_site_label
 _atom_site_symmetry_multiplicity
 _atom_site_fract_x
 _atom_site_fract_y
 _atom_site_fract_z
 _atom_site_occupancy
  Ca  Ca0  1  0.000000  0.500000  0.523174  1
  Ca  Ca1  1  0.500000  0.000000  0.476826  1
  Ca  Ca2  1  0.500000  0.821603  0.201732  1
  Ca  Ca3  1  0.500000  0.178397  0.201732  1
  Ca  Ca4  1  0.000000  0.678397  0.798268  1
  Ca  Ca5  1  0.000000  0.321603  0.798268  1
  Co  Co6  1  0.000000  0.500000  0.993160  1
  Co  Co7  1  0.500000  0.000000  0.006840  1
  Mo  Mo8  1  0.500000  0.500000  0.156866  1
  Mo  Mo9  1  0.000000  0.000000  0.843134  1
  P  P10  1  0.500000  0.500000  0.882224  1
  P  P11  1  0.000000  0.000000  0.117776  1
  P  P12  1  0.500000  0.500000  0.342438  1
  P  P13  1  0.000000  0.000000  0.657562  1
  P  P14  1  0.500000  0.309947  0.619616  1
  P  P15  1  0.500000  0.690053  0.619616  1
  P  P16  1  0.000000  0.190053  0.380384  1
  P  P17  1  0.000000  0.809947  0.380384  1
  P  P18  1  0.500000  0.850370  0.892988  1
  P  P19  1  0.500000  0.149630  0.892988  1
  P  P20  1  0.000000  0.649630  0.107012  1
  P  P21  1  0.000000  0.350370  0.107012  1
  Ir  Ir22  1  0.500000  0.500000  0.698533  1
  Ir  Ir23  1  0.000000  0.000000  0.301467  1
  Ir  Ir24  1  0.500000  0.333490  0.988899  1
  Ir  Ir25  1  0.500000  0.666510  0.988899  1
  Ir  Ir26  1  0.000000  0.166510  0.011101  1
  Ir  Ir27  1  0.000000  0.833490  0.011101  1
  Ir  Ir28  1  0.500000  0.294590  0.430777  1
  Ir  Ir29  1  0.500000  0.705410  0.430777  1
  Ir  Ir30  1  0.000000  0.205410  0.569223  1
  Ir  Ir31  1  0.000000  0.794590  0.569223  1
  Ir  Ir32  1  0.500000  0.875108  0.711898  1
  Ir  Ir33  1  0.500000  0.124892  0.711898  1
  Ir  Ir34  1  0.000000  0.624892  0.288102  1
  Ir  Ir35  1  0.000000  0.375108  0.288102  1
