# generated using pymatgen
data_Sr5Cd6
_symmetry_space_group_name_H-M   'P 1'
_cell_length_a   18.37129272
_cell_length_b   18.37129113
_cell_length_c   4.81979200
_cell_angle_alpha   90.00000000
_cell_angle_beta   90.00000000
_cell_angle_gamma   166.35726150
_symmetry_Int_Tables_number   1
_chemical_formula_structural   Sr5Cd6
_chemical_formula_sum   'Sr5 Cd6'
_cell_volume   383.68514685
_cell_formula_units_Z   1
loop_
 _symmetry_equiv_pos_site_id
 _symmetry_equiv_pos_as_xyz
  1  'x, y, z'
loop_
 _atom_site_type_symbol
 _atom_site_label
 _atom_site_symmetry_multiplicity
 _atom_site_fract_x
 _atom_site_fract_y
 _atom_site_fract_z
 _atom_site_occupancy
  Sr  Sr0  1  0.000000  0.000000  0.000000  1
  Sr  Sr1  1  0.620927  0.379071  0.000000  1
  Sr  Sr2  1  0.379071  0.620927  0.000000  1
  Sr  Sr3  1  0.806372  0.193626  0.500001  1
  Sr  Sr4  1  0.193626  0.806372  0.500001  1
  Cd  Cd5  1  0.721775  0.278223  0.000000  1
  Cd  Cd6  1  0.278223  0.721775  0.000000  1
  Cd  Cd7  1  0.906316  0.093683  0.500001  1
  Cd  Cd8  1  0.539803  0.460195  0.500001  1
  Cd  Cd9  1  0.460195  0.539803  0.500001  1
  Cd  Cd10  1  0.093683  0.906316  0.500001  1
