# generated using pymatgen
data_HfScCr2(Co4P3)2
_symmetry_space_group_name_H-M   'P 1'
_cell_length_a   3.59156300
_cell_length_b   10.15085600
_cell_length_c   11.61488400
_cell_angle_alpha   90.00000000
_cell_angle_beta   90.00000000
_cell_angle_gamma   90.00000000
_symmetry_Int_Tables_number   1
_chemical_formula_structural   HfScCr2(Co4P3)2
_chemical_formula_sum   'Hf2 Sc2 Cr4 Co16 P12'
_cell_volume   423.44892292
_cell_formula_units_Z   2
loop_
 _symmetry_equiv_pos_site_id
 _symmetry_equiv_pos_as_xyz
  1  'x, y, z'
loop_
 _atom_site_type_symbol
 _atom_site_label
 _atom_site_symmetry_multiplicity
 _atom_site_fract_x
 _atom_site_fract_y
 _atom_site_fract_z
 _atom_site_occupancy
  Hf  Hf0  1  0.250000  0.582220  0.704416  1
  Hf  Hf1  1  0.250000  0.917780  0.204416  1
  Sc  Sc2  1  0.750000  0.417787  0.295374  1
  Sc  Sc3  1  0.750000  0.082213  0.795374  1
  Cr  Cr4  1  0.250000  0.713368  0.988692  1
  Cr  Cr5  1  0.250000  0.786632  0.488692  1
  Cr  Cr6  1  0.750000  0.287889  0.010715  1
  Cr  Cr7  1  0.750000  0.212111  0.510715  1
  Co  Co8  1  0.250000  0.408664  0.488157  1
  Co  Co9  1  0.250000  0.091336  0.988157  1
  Co  Co10  1  0.750000  0.593215  0.514154  1
  Co  Co11  1  0.750000  0.906785  0.014154  1
  Co  Co12  1  0.250000  0.220737  0.178554  1
  Co  Co13  1  0.250000  0.279264  0.678554  1
  Co  Co14  1  0.750000  0.777560  0.821649  1
  Co  Co15  1  0.750000  0.722440  0.321649  1
  Co  Co16  1  0.250000  0.885563  0.700266  1
  Co  Co17  1  0.250000  0.614437  0.200266  1
  Co  Co18  1  0.750000  0.111775  0.298916  1
  Co  Co19  1  0.750000  0.388225  0.798916  1
  Co  Co20  1  0.250000  0.465872  0.931072  1
  Co  Co21  1  0.250000  0.034128  0.431072  1
  Co  Co22  1  0.750000  0.534020  0.068022  1
  Co  Co23  1  0.750000  0.965980  0.568022  1
  P  P24  1  0.250000  0.417756  0.115512  1
  P  P25  1  0.250000  0.082244  0.615512  1
  P  P26  1  0.750000  0.582224  0.885180  1
  P  P27  1  0.750000  0.917776  0.385180  1
  P  P28  1  0.250000  0.263816  0.868418  1
  P  P29  1  0.250000  0.236184  0.368418  1
  P  P30  1  0.750000  0.734462  0.131821  1
  P  P31  1  0.750000  0.765538  0.631821  1
  P  P32  1  0.250000  0.596885  0.389654  1
  P  P33  1  0.250000  0.903115  0.889654  1
  P  P34  1  0.750000  0.402029  0.609428  1
  P  P35  1  0.750000  0.097971  0.109428  1
