# generated using pymatgen
data_Dy20MgIn5Os2
_symmetry_space_group_name_H-M   'P 1'
_cell_length_a   9.76394300
_cell_length_b   9.82973012
_cell_length_c   9.75570300
_cell_angle_alpha   90.00000000
_cell_angle_beta   90.00000000
_cell_angle_gamma   120.22313311
_symmetry_Int_Tables_number   1
_chemical_formula_structural   Dy20MgIn5Os2
_chemical_formula_sum   'Dy20 Mg1 In5 Os2'
_cell_volume   809.04960444
_cell_formula_units_Z   1
loop_
 _symmetry_equiv_pos_site_id
 _symmetry_equiv_pos_as_xyz
  1  'x, y, z'
loop_
 _atom_site_type_symbol
 _atom_site_label
 _atom_site_symmetry_multiplicity
 _atom_site_fract_x
 _atom_site_fract_y
 _atom_site_fract_z
 _atom_site_occupancy
  Dy  Dy0  1  0.999172  0.999585  0.499801  1
  Dy  Dy1  1  0.999172  0.999585  0.000199  1
  Dy  Dy2  1  0.210924  0.790600  0.440584  1
  Dy  Dy3  1  0.210924  0.420323  0.440584  1
  Dy  Dy4  1  0.578635  0.789316  0.438104  1
  Dy  Dy5  1  0.789426  0.212103  0.558518  1
  Dy  Dy6  1  0.789426  0.577322  0.558516  1
  Dy  Dy7  1  0.420245  0.210123  0.560840  1
  Dy  Dy8  1  0.789426  0.212103  0.941482  1
  Dy  Dy9  1  0.789426  0.577322  0.941484  1
  Dy  Dy10  1  0.420245  0.210123  0.939160  1
  Dy  Dy11  1  0.210924  0.790600  0.059416  1
  Dy  Dy12  1  0.210924  0.420323  0.059416  1
  Dy  Dy13  1  0.578635  0.789316  0.061896  1
  Dy  Dy14  1  0.540982  0.460740  0.250000  1
  Dy  Dy15  1  0.540982  0.080242  0.250000  1
  Dy  Dy16  1  0.927875  0.463939  0.250000  1
  Dy  Dy17  1  0.458917  0.537445  0.750000  1
  Dy  Dy18  1  0.458915  0.921470  0.750000  1
  Dy  Dy19  1  0.080331  0.540166  0.750000  1
  Mg  Mg20  1  0.772154  0.886076  0.750000  1
  In  In21  1  0.884530  0.118978  0.250000  1
  In  In22  1  0.884534  0.765558  0.250000  1
  In  In23  1  0.231662  0.115831  0.250000  1
  In  In24  1  0.112976  0.881238  0.750000  1
  In  In25  1  0.112977  0.231739  0.750000  1
  Os  Os26  1  0.327850  0.663925  0.250000  1
  Os  Os27  1  0.667809  0.333905  0.750000  1
