# generated using pymatgen
data_RhBr37
_symmetry_space_group_name_H-M   'P 1'
_cell_length_a   14.20848141
_cell_length_b   15.29732181
_cell_length_c   14.42416200
_cell_angle_alpha   103.00376457
_cell_angle_beta   48.80056783
_cell_angle_gamma   81.50743146
_symmetry_Int_Tables_number   1
_chemical_formula_structural   RhBr37
_chemical_formula_sum   'Rh1 Br37'
_cell_volume   2102.91272627
_cell_formula_units_Z   1
loop_
 _symmetry_equiv_pos_site_id
 _symmetry_equiv_pos_as_xyz
  1  'x, y, z'
loop_
 _atom_site_type_symbol
 _atom_site_label
 _atom_site_symmetry_multiplicity
 _atom_site_fract_x
 _atom_site_fract_y
 _atom_site_fract_z
 _atom_site_occupancy
  Rh  Rh0  1  0.500000  0.000000  0.000000  1
  Br  Br1  1  0.789130  0.300609  0.135537  1
  Br  Br2  1  0.210870  0.699391  0.864463  1
  Br  Br3  1  0.743677  0.084030  0.362189  1
  Br  Br4  1  0.256323  0.915970  0.637811  1
  Br  Br5  1  0.116626  0.349818  0.169270  1
  Br  Br6  1  0.883374  0.650182  0.830730  1
  Br  Br7  1  0.865565  0.532262  0.247478  1
  Br  Br8  1  0.134435  0.467738  0.752522  1
  Br  Br9  1  0.685871  0.275517  0.521192  1
  Br  Br10  1  0.314129  0.724483  0.478808  1
  Br  Br11  1  0.030674  0.144454  0.507893  1
  Br  Br12  1  0.969326  0.855546  0.492107  1
  Br  Br13  1  0.977763  0.010736  0.284448  1
  Br  Br14  1  0.022237  0.989264  0.715552  1
  Br  Br15  1  0.941463  0.338867  0.613095  1
  Br  Br16  1  0.058537  0.661133  0.386905  1
  Br  Br17  1  0.579526  0.429086  0.234636  1
  Br  Br18  1  0.420474  0.570914  0.765364  1
  Br  Br19  1  0.167847  0.478702  0.284443  1
  Br  Br20  1  0.832153  0.521298  0.715557  1
  Br  Br21  1  0.000000  0.500000  0.000000  1
  Br  Br22  1  0.556831  0.972941  0.124403  1
  Br  Br23  1  0.443169  0.027059  0.875597  1
  Br  Br24  1  0.291926  0.060997  0.315361  1
  Br  Br25  1  0.708074  0.939003  0.684639  1
  Br  Br26  1  0.530721  0.132025  0.412537  1
  Br  Br27  1  0.469279  0.867975  0.587463  1
  Br  Br28  1  0.095208  0.217423  0.065713  1
  Br  Br29  1  0.904792  0.782577  0.934287  1
  Br  Br30  1  0.664449  0.692285  0.403324  1
  Br  Br31  1  0.335551  0.307715  0.596676  1
  Br  Br32  1  0.900231  0.146139  0.923390  1
  Br  Br33  1  0.099769  0.853861  0.076610  1
  Br  Br34  1  0.498627  0.162689  0.047506  1
  Br  Br35  1  0.501373  0.837311  0.952494  1
  Br  Br36  1  0.650998  0.430353  0.649098  1
  Br  Br37  1  0.349002  0.569647  0.350902  1
