# generated using pymatgen
data_Mg3CrN4
_symmetry_space_group_name_H-M   'P 1'
_cell_length_a   6.61350800
_cell_length_b   5.73094400
_cell_length_c   5.20765400
_cell_angle_alpha   90.00000000
_cell_angle_beta   90.00000000
_cell_angle_gamma   90.00000000
_symmetry_Int_Tables_number   1
_chemical_formula_structural   Mg3CrN4
_chemical_formula_sum   'Mg6 Cr2 N8'
_cell_volume   197.37864794
_cell_formula_units_Z   2
loop_
 _symmetry_equiv_pos_site_id
 _symmetry_equiv_pos_as_xyz
  1  'x, y, z'
loop_
 _atom_site_type_symbol
 _atom_site_label
 _atom_site_symmetry_multiplicity
 _atom_site_fract_x
 _atom_site_fract_y
 _atom_site_fract_z
 _atom_site_occupancy
  Mg  Mg0  1  0.252814  0.828535  0.722529  1
  Mg  Mg1  1  0.247186  0.171465  0.222529  1
  Mg  Mg2  1  0.747186  0.828535  0.722529  1
  Mg  Mg3  1  0.752814  0.171465  0.222529  1
  Mg  Mg4  1  0.000000  0.347574  0.720635  1
  Mg  Mg5  1  0.500000  0.652426  0.220635  1
  Cr  Cr6  1  0.000000  0.674065  0.230674  1
  Cr  Cr7  1  0.500000  0.325935  0.730674  1
  N  N8  1  0.777986  0.818217  0.126014  1
  N  N9  1  0.722014  0.181783  0.626014  1
  N  N10  1  0.222014  0.818217  0.126014  1
  N  N11  1  0.277986  0.181783  0.626014  1
  N  N12  1  0.000000  0.381928  0.127542  1
  N  N13  1  0.500000  0.618072  0.627542  1
  N  N14  1  0.000000  0.678360  0.563323  1
  N  N15  1  0.500000  0.321640  0.063323  1
