# generated using pymatgen
data_TmLu4(Hg2Pt)2
_symmetry_space_group_name_H-M   'P 1'
_cell_length_a   3.54479700
_cell_length_b   7.89686000
_cell_length_c   18.07140000
_cell_angle_alpha   90.00000000
_cell_angle_beta   90.00000000
_cell_angle_gamma   90.00000000
_symmetry_Int_Tables_number   1
_chemical_formula_structural   TmLu4(Hg2Pt)2
_chemical_formula_sum   'Tm2 Lu8 Hg8 Pt4'
_cell_volume   505.86846494
_cell_formula_units_Z   2
loop_
 _symmetry_equiv_pos_site_id
 _symmetry_equiv_pos_as_xyz
  1  'x, y, z'
loop_
 _atom_site_type_symbol
 _atom_site_label
 _atom_site_symmetry_multiplicity
 _atom_site_fract_x
 _atom_site_fract_y
 _atom_site_fract_z
 _atom_site_occupancy
  Tm  Tm0  1  0.000000  0.000000  0.000000  1
  Tm  Tm1  1  0.000000  0.500000  0.500000  1
  Lu  Lu2  1  0.000000  0.113911  0.414681  1
  Lu  Lu3  1  0.000000  0.886089  0.585319  1
  Lu  Lu4  1  0.000000  0.386089  0.914681  1
  Lu  Lu5  1  0.000000  0.613911  0.085319  1
  Lu  Lu6  1  0.000000  0.243161  0.217855  1
  Lu  Lu7  1  0.000000  0.756839  0.782145  1
  Lu  Lu8  1  0.000000  0.256839  0.717855  1
  Lu  Lu9  1  0.000000  0.743161  0.282145  1
  Hg  Hg10  1  0.500000  0.424843  0.354906  1
  Hg  Hg11  1  0.500000  0.575157  0.645094  1
  Hg  Hg12  1  0.500000  0.075157  0.854906  1
  Hg  Hg13  1  0.500000  0.924843  0.145094  1
  Hg  Hg14  1  0.500000  0.288756  0.063233  1
  Hg  Hg15  1  0.500000  0.711244  0.936767  1
  Hg  Hg16  1  0.500000  0.211244  0.563233  1
  Hg  Hg17  1  0.500000  0.788756  0.436767  1
  Pt  Pt18  1  0.500000  0.028591  0.303189  1
  Pt  Pt19  1  0.500000  0.971409  0.696811  1
  Pt  Pt20  1  0.500000  0.471409  0.803189  1
  Pt  Pt21  1  0.500000  0.528591  0.196811  1
