# generated using pymatgen
data_Sr2V3Rh(SeO3)8
_symmetry_space_group_name_H-M   'P 1'
_cell_length_a   9.03839178
_cell_length_b   9.04969565
_cell_length_c   9.06983793
_cell_angle_alpha   109.90928164
_cell_angle_beta   112.49998173
_cell_angle_gamma   105.91676093
_symmetry_Int_Tables_number   1
_chemical_formula_structural   Sr2V3Rh(SeO3)8
_chemical_formula_sum   'Sr2 V3 Rh1 Se8 O24'
_cell_volume   570.27536131
_cell_formula_units_Z   1
loop_
 _symmetry_equiv_pos_site_id
 _symmetry_equiv_pos_as_xyz
  1  'x, y, z'
loop_
 _atom_site_type_symbol
 _atom_site_label
 _atom_site_symmetry_multiplicity
 _atom_site_fract_x
 _atom_site_fract_y
 _atom_site_fract_z
 _atom_site_occupancy
  Sr  Sr0  1  0.751095  0.250022  0.499965  1
  Sr  Sr1  1  0.248867  0.749932  0.500053  1
  V  V2  1  0.749621  0.750223  0.500310  1
  V  V3  1  0.250338  0.249773  0.499648  1
  V  V4  1  0.500101  0.000068  0.000051  1
  Rh  Rh5  1  0.000019  0.499976  0.999970  1
  Se  Se6  1  0.846369  0.931891  0.278508  1
  Se  Se7  1  0.342891  0.432054  0.274366  1
  Se  Se8  1  0.657090  0.567999  0.725585  1
  Se  Se9  1  0.153634  0.068048  0.721513  1
  Se  Se10  1  0.700314  0.408156  0.106561  1
  Se  Se11  1  0.197633  0.905007  0.104925  1
  Se  Se12  1  0.299642  0.591910  0.893461  1
  Se  Se13  1  0.802466  0.094968  0.895055  1
  O  O14  1  0.824825  0.602920  0.927864  1
  O  O15  1  0.321378  0.095489  0.914820  1
  O  O16  1  0.678656  0.904497  0.085224  1
  O  O17  1  0.175127  0.397102  0.072092  1
  O  O18  1  0.670766  0.567734  0.239917  1
  O  O19  1  0.173338  0.068878  0.239312  1
  O  O20  1  0.329137  0.432214  0.760114  1
  O  O21  1  0.826625  0.931062  0.760642  1
  O  O22  1  0.808487  0.237751  0.802377  1
  O  O23  1  0.311831  0.738739  0.806392  1
  O  O24  1  0.063895  0.492593  0.801201  1
  O  O25  1  0.568264  0.996149  0.808907  1
  O  O26  1  0.431866  0.003866  0.191111  1
  O  O27  1  0.936065  0.507437  0.198798  1
  O  O28  1  0.688298  0.261411  0.193729  1
  O  O29  1  0.191440  0.762197  0.197557  1
  O  O30  1  0.520426  0.336781  0.591091  1
  O  O31  1  0.017287  0.836009  0.588499  1
  O  O32  1  0.754269  0.571565  0.591322  1
  O  O33  1  0.251808  0.070276  0.587246  1
  O  O34  1  0.748220  0.929710  0.412798  1
  O  O35  1  0.245647  0.428401  0.408605  1
  O  O36  1  0.982760  0.163965  0.411524  1
  O  O37  1  0.479506  0.663227  0.408882  1
