# generated using pymatgen
data_Sr2Ga6PdAu
_symmetry_space_group_name_H-M   'P 1'
_cell_length_a   6.25664420
_cell_length_b   6.25664359
_cell_length_c   6.09618400
_cell_angle_alpha   90.00000000
_cell_angle_beta   90.00000000
_cell_angle_gamma   117.13707467
_symmetry_Int_Tables_number   1
_chemical_formula_structural   Sr2Ga6PdAu
_chemical_formula_sum   'Sr2 Ga6 Pd1 Au1'
_cell_volume   212.36887040
_cell_formula_units_Z   1
loop_
 _symmetry_equiv_pos_site_id
 _symmetry_equiv_pos_as_xyz
  1  'x, y, z'
loop_
 _atom_site_type_symbol
 _atom_site_label
 _atom_site_symmetry_multiplicity
 _atom_site_fract_x
 _atom_site_fract_y
 _atom_site_fract_z
 _atom_site_occupancy
  Sr  Sr0  1  0.234785  0.765215  0.750000  1
  Sr  Sr1  1  0.765991  0.234009  0.250000  1
  Ga  Ga2  1  0.725141  0.719531  0.009199  1
  Ga  Ga3  1  0.725141  0.719531  0.490801  1
  Ga  Ga4  1  0.280469  0.274859  0.009199  1
  Ga  Ga5  1  0.280469  0.274859  0.490801  1
  Ga  Ga6  1  0.649433  0.350567  0.750000  1
  Ga  Ga7  1  0.340901  0.659099  0.250000  1
  Pd  Pd8  1  0.105835  0.894165  0.250000  1
  Au  Au9  1  0.891836  0.108164  0.750000  1
