# generated using pymatgen
data_Tb3Dy5Re2(B12Ir)2
_symmetry_space_group_name_H-M   'P 1'
_cell_length_a   3.68015200
_cell_length_b   9.18287214
_cell_length_c   11.57054505
_cell_angle_alpha   90.33702130
_cell_angle_beta   90.00000000
_cell_angle_gamma   90.00000000
_symmetry_Int_Tables_number   1
_chemical_formula_structural   Tb3Dy5Re2(B12Ir)2
_chemical_formula_sum   'Tb3 Dy5 Re2 B24 Ir2'
_cell_volume   391.01246153
_cell_formula_units_Z   1
loop_
 _symmetry_equiv_pos_site_id
 _symmetry_equiv_pos_as_xyz
  1  'x, y, z'
loop_
 _atom_site_type_symbol
 _atom_site_label
 _atom_site_symmetry_multiplicity
 _atom_site_fract_x
 _atom_site_fract_y
 _atom_site_fract_z
 _atom_site_occupancy
  Tb  Tb0  1  0.000000  0.317937  0.409792  1
  Tb  Tb1  1  0.000000  0.682065  0.590216  1
  Tb  Tb2  1  0.000000  0.826870  0.082566  1
  Dy  Dy3  1  0.000000  0.173083  0.917592  1
  Dy  Dy4  1  0.000000  0.946224  0.372233  1
  Dy  Dy5  1  0.000000  0.053831  0.627780  1
  Dy  Dy6  1  0.000000  0.441774  0.125740  1
  Dy  Dy7  1  0.000000  0.558118  0.874199  1
  Re  Re8  1  0.000000  0.138461  0.179561  1
  Re  Re9  1  0.000000  0.861725  0.820381  1
  B  B10  1  0.500000  0.554256  0.433521  1
  B  B11  1  0.500000  0.445724  0.566491  1
  B  B12  1  0.500000  0.053527  0.067397  1
  B  B13  1  0.500000  0.946731  0.932475  1
  B  B14  1  0.500000  0.749008  0.420964  1
  B  B15  1  0.500000  0.251004  0.579057  1
  B  B16  1  0.500000  0.247350  0.080683  1
  B  B17  1  0.500000  0.752654  0.919100  1
  B  B18  1  0.500000  0.790647  0.266516  1
  B  B19  1  0.500000  0.209279  0.733623  1
  B  B20  1  0.500000  0.291935  0.233727  1
  B  B21  1  0.500000  0.708067  0.766231  1
  B  B22  1  0.500000  0.632005  0.184390  1
  B  B23  1  0.500000  0.367811  0.815702  1
  B  B24  1  0.500000  0.131998  0.314253  1
  B  B25  1  0.500000  0.868046  0.685756  1
  B  B26  1  0.500000  0.983736  0.213041  1
  B  B27  1  0.500000  0.016523  0.787014  1
  B  B28  1  0.500000  0.483219  0.287114  1
  B  B29  1  0.500000  0.516741  0.712892  1
  B  B30  1  0.500000  0.608222  0.030329  1
  B  B31  1  0.500000  0.391489  0.969594  1
  B  B32  1  0.500000  0.108860  0.470426  1
  B  B33  1  0.500000  0.891150  0.529583  1
  Ir  Ir34  1  0.000000  0.636817  0.322164  1
  Ir  Ir35  1  0.000000  0.363114  0.677896  1
