# generated using pymatgen
data_Hf2Al9FeRh2
_symmetry_space_group_name_H-M   'P 1'
_cell_length_a   7.39159801
_cell_length_b   7.39159797
_cell_length_c   9.15958900
_cell_angle_alpha   90.00000000
_cell_angle_beta   90.00000000
_cell_angle_gamma   119.70077253
_symmetry_Int_Tables_number   1
_chemical_formula_structural   Hf2Al9FeRh2
_chemical_formula_sum   'Hf4 Al18 Fe2 Rh4'
_cell_volume   434.69526148
_cell_formula_units_Z   2
loop_
 _symmetry_equiv_pos_site_id
 _symmetry_equiv_pos_as_xyz
  1  'x, y, z'
loop_
 _atom_site_type_symbol
 _atom_site_label
 _atom_site_symmetry_multiplicity
 _atom_site_fract_x
 _atom_site_fract_y
 _atom_site_fract_z
 _atom_site_occupancy
  Hf  Hf0  1  0.991664  0.671336  0.250000  1
  Hf  Hf1  1  0.008336  0.328664  0.750000  1
  Hf  Hf2  1  0.671336  0.991664  0.250000  1
  Hf  Hf3  1  0.328664  0.008336  0.750000  1
  Al  Al4  1  0.113109  0.113109  0.250000  1
  Al  Al5  1  0.886891  0.886891  0.750000  1
  Al  Al6  1  0.997146  0.328873  0.076612  1
  Al  Al7  1  0.002854  0.671127  0.923388  1
  Al  Al8  1  0.002854  0.671127  0.576612  1
  Al  Al9  1  0.328873  0.997146  0.423388  1
  Al  Al10  1  0.997146  0.328873  0.423388  1
  Al  Al11  1  0.671127  0.002854  0.576612  1
  Al  Al12  1  0.671127  0.002854  0.923388  1
  Al  Al13  1  0.328873  0.997146  0.076612  1
  Al  Al14  1  0.324370  0.324370  0.555230  1
  Al  Al15  1  0.675630  0.675630  0.444770  1
  Al  Al16  1  0.675630  0.675630  0.055230  1
  Al  Al17  1  0.324370  0.324370  0.944770  1
  Al  Al18  1  0.340584  0.553959  0.250000  1
  Al  Al19  1  0.659416  0.446041  0.750000  1
  Al  Al20  1  0.553959  0.340584  0.250000  1
  Al  Al21  1  0.446041  0.659416  0.750000  1
  Fe  Fe22  1  0.000000  0.000000  0.000000  1
  Fe  Fe23  1  0.000000  0.000000  0.500000  1
  Rh  Rh24  1  0.673172  0.326828  0.000000  1
  Rh  Rh25  1  0.326828  0.673172  0.000000  1
  Rh  Rh26  1  0.326828  0.673172  0.500000  1
  Rh  Rh27  1  0.673172  0.326828  0.500000  1
