# generated using pymatgen
data_La4Yb7PrRu4
_symmetry_space_group_name_H-M   'P 1'
_cell_length_a   6.52531286
_cell_length_b   7.49005999
_cell_length_c   9.66027939
_cell_angle_alpha   89.93063608
_cell_angle_beta   90.39563451
_cell_angle_gamma   90.45506715
_symmetry_Int_Tables_number   1
_chemical_formula_structural   La4Yb7PrRu4
_chemical_formula_sum   'La4 Yb7 Pr1 Ru4'
_cell_volume   472.11954513
_cell_formula_units_Z   1
loop_
 _symmetry_equiv_pos_site_id
 _symmetry_equiv_pos_as_xyz
  1  'x, y, z'
loop_
 _atom_site_type_symbol
 _atom_site_label
 _atom_site_symmetry_multiplicity
 _atom_site_fract_x
 _atom_site_fract_y
 _atom_site_fract_z
 _atom_site_occupancy
  La  La0  1  0.858480  0.556066  0.252543  1
  La  La1  1  0.640793  0.055300  0.251101  1
  La  La2  1  0.134404  0.443849  0.748470  1
  La  La3  1  0.368515  0.939517  0.749612  1
  Yb  Yb4  1  0.335182  0.668422  0.067072  1
  Yb  Yb5  1  0.162784  0.170643  0.432683  1
  Yb  Yb6  1  0.661450  0.329782  0.570149  1
  Yb  Yb7  1  0.836935  0.828104  0.932147  1
  Yb  Yb8  1  0.663082  0.328293  0.931338  1
  Yb  Yb9  1  0.840425  0.830452  0.571573  1
  Yb  Yb10  1  0.338273  0.669693  0.428715  1
  Pr  Pr11  1  0.163708  0.171473  0.069477  1
  Ru  Ru12  1  0.009349  0.871973  0.245422  1
  Ru  Ru13  1  0.485902  0.362907  0.248320  1
  Ru  Ru14  1  0.988834  0.136924  0.754343  1
  Ru  Ru15  1  0.511881  0.636604  0.747035  1
