# generated using pymatgen
data_Tb2Dy3P12Ru16Pt3
_symmetry_space_group_name_H-M   'P 1'
_cell_length_a   12.63239304
_cell_length_b   12.63197439
_cell_length_c   3.97341800
_cell_angle_alpha   90.00000000
_cell_angle_beta   90.00000000
_cell_angle_gamma   120.01011163
_symmetry_Int_Tables_number   1
_chemical_formula_structural   Tb2Dy3P12Ru16Pt3
_chemical_formula_sum   'Tb2 Dy3 P12 Ru16 Pt3'
_cell_volume   549.04443352
_cell_formula_units_Z   1
loop_
 _symmetry_equiv_pos_site_id
 _symmetry_equiv_pos_as_xyz
  1  'x, y, z'
loop_
 _atom_site_type_symbol
 _atom_site_label
 _atom_site_symmetry_multiplicity
 _atom_site_fract_x
 _atom_site_fract_y
 _atom_site_fract_z
 _atom_site_occupancy
  Tb  Tb0  1  0.816144  0.999214  0.500000  1
  Tb  Tb1  1  0.183069  0.183748  0.500000  1
  Dy  Dy2  1  0.666668  0.333360  0.000000  1
  Dy  Dy3  1  0.333309  0.666694  0.000000  1
  Dy  Dy4  1  0.000673  0.816890  0.500000  1
  P  P5  1  0.627643  0.987035  0.000000  1
  P  P6  1  0.359446  0.372394  0.000000  1
  P  P7  1  0.012916  0.640747  0.000000  1
  P  P8  1  0.695936  0.528621  0.500000  1
  P  P9  1  0.832718  0.304071  0.500000  1
  P  P10  1  0.308400  0.829422  0.500000  1
  P  P11  1  0.521041  0.691645  0.500000  1
  P  P12  1  0.183445  0.000919  0.000000  1
  P  P13  1  0.817601  0.816483  0.000000  1
  P  P14  1  0.999094  0.182587  0.000000  1
  P  P15  1  0.471332  0.167247  0.500000  1
  P  P16  1  0.170569  0.479000  0.500000  1
  Ru  Ru17  1  0.620793  0.799416  0.000000  1
  Ru  Ru18  1  0.178678  0.379251  0.000000  1
  Ru  Ru19  1  0.378605  0.187996  0.000000  1
  Ru  Ru20  1  0.200375  0.821330  0.000000  1
  Ru  Ru21  1  0.809614  0.621616  0.000000  1
  Ru  Ru22  1  0.126507  0.636135  0.500000  1
  Ru  Ru23  1  0.363923  0.490442  0.500000  1
  Ru  Ru24  1  0.509581  0.873474  0.500000  1
  Ru  Ru25  1  0.000012  0.999800  0.000000  1
  Ru  Ru26  1  0.717086  0.715583  0.500000  1
  Ru  Ru27  1  0.998598  0.282971  0.500000  1
  Ru  Ru28  1  0.453305  0.005664  0.000000  1
  Ru  Ru29  1  0.552363  0.546641  0.000000  1
  Ru  Ru30  1  0.994336  0.447695  0.000000  1
  Ru  Ru31  1  0.812021  0.190611  0.000000  1
  Ru  Ru32  1  0.284256  0.001321  0.500000  1
  Pt  Pt33  1  0.868111  0.501832  0.500000  1
  Pt  Pt34  1  0.498148  0.366283  0.500000  1
  Pt  Pt35  1  0.633684  0.131861  0.500000  1
