# generated using pymatgen
data_LaPrEr6Mo(WO8)3
_symmetry_space_group_name_H-M   'P 1'
_cell_length_a   5.43641700
_cell_length_b   7.76051920
_cell_length_c   11.52932600
_cell_angle_alpha   75.50618320
_cell_angle_beta   90.00000000
_cell_angle_gamma   90.00000000
_symmetry_Int_Tables_number   1
_chemical_formula_structural   LaPrEr6Mo(WO8)3
_chemical_formula_sum   'La1 Pr1 Er6 Mo1 W3 O24'
_cell_volume   470.93521678
_cell_formula_units_Z   1
loop_
 _symmetry_equiv_pos_site_id
 _symmetry_equiv_pos_as_xyz
  1  'x, y, z'
loop_
 _atom_site_type_symbol
 _atom_site_label
 _atom_site_symmetry_multiplicity
 _atom_site_fract_x
 _atom_site_fract_y
 _atom_site_fract_z
 _atom_site_occupancy
  La  La0  1  0.686747  0.498537  0.250203  1
  Pr  Pr1  1  0.314761  0.500170  0.749407  1
  Er  Er2  1  0.186520  0.201819  0.422627  1
  Er  Er3  1  0.184133  0.800355  0.076533  1
  Er  Er4  1  0.814877  0.797414  0.576782  1
  Er  Er5  1  0.815213  0.202339  0.923670  1
  Er  Er6  1  0.743044  0.000933  0.249781  1
  Er  Er7  1  0.257140  0.000193  0.749883  1
  Mo  Mo8  1  0.253753  0.271751  0.115069  1
  W  W9  1  0.253749  0.730000  0.383816  1
  W  W10  1  0.746283  0.729598  0.883281  1
  W  W11  1  0.746411  0.270238  0.616648  1
  O  O12  1  0.456392  0.201952  0.274747  1
  O  O13  1  0.453867  0.798205  0.225986  1
  O  O14  1  0.544853  0.797625  0.725848  1
  O  O15  1  0.544937  0.202236  0.774511  1
  O  O16  1  0.039111  0.057299  0.102899  1
  O  O17  1  0.041913  0.942366  0.396502  1
  O  O18  1  0.957196  0.943176  0.895397  1
  O  O19  1  0.957276  0.056934  0.604572  1
  O  O20  1  0.988234  0.275264  0.231803  1
  O  O21  1  0.986119  0.723783  0.268265  1
  O  O22  1  0.014656  0.722214  0.768599  1
  O  O23  1  0.014518  0.277622  0.731834  1
  O  O24  1  0.857440  0.356871  0.455798  1
  O  O25  1  0.857437  0.643199  0.044173  1
  O  O26  1  0.144882  0.643343  0.545678  1
  O  O27  1  0.146587  0.356478  0.954906  1
  O  O28  1  0.654651  0.506173  0.613277  1
  O  O29  1  0.655013  0.493588  0.886870  1
  O  O30  1  0.343244  0.493981  0.387108  1
  O  O31  1  0.340963  0.504401  0.112540  1
  O  O32  1  0.463094  0.155302  0.569931  1
  O  O33  1  0.462897  0.844521  0.930393  1
  O  O34  1  0.537394  0.844534  0.430342  1
  O  O35  1  0.534690  0.155586  0.070322  1
