# generated using pymatgen
data_Sm8Ta9Si16W3
_symmetry_space_group_name_H-M   'P 1'
_cell_length_a   6.87032018
_cell_length_b   7.12225558
_cell_length_c   13.40929600
_cell_angle_alpha   90.00000000
_cell_angle_beta   90.00000000
_cell_angle_gamma   89.98946391
_symmetry_Int_Tables_number   1
_chemical_formula_structural   Sm8Ta9Si16W3
_chemical_formula_sum   'Sm8 Ta9 Si16 W3'
_cell_volume   656.14602378
_cell_formula_units_Z   1
loop_
 _symmetry_equiv_pos_site_id
 _symmetry_equiv_pos_as_xyz
  1  'x, y, z'
loop_
 _atom_site_type_symbol
 _atom_site_label
 _atom_site_symmetry_multiplicity
 _atom_site_fract_x
 _atom_site_fract_y
 _atom_site_fract_z
 _atom_site_occupancy
  Sm  Sm0  1  0.503085  0.670176  0.594841  1
  Sm  Sm1  1  0.002873  0.830169  0.904769  1
  Sm  Sm2  1  0.497173  0.329713  0.095327  1
  Sm  Sm3  1  0.997594  0.169926  0.404660  1
  Sm  Sm4  1  0.497173  0.329713  0.404673  1
  Sm  Sm5  1  0.997594  0.169926  0.095340  1
  Sm  Sm6  1  0.503085  0.670176  0.905159  1
  Sm  Sm7  1  0.002873  0.830169  0.595231  1
  Ta  Ta8  1  0.663154  0.170743  0.626318  1
  Ta  Ta9  1  0.164612  0.327585  0.874055  1
  Ta  Ta10  1  0.336200  0.829171  0.126973  1
  Ta  Ta11  1  0.835342  0.671308  0.372793  1
  Ta  Ta12  1  0.336200  0.829171  0.373027  1
  Ta  Ta13  1  0.835342  0.671308  0.127207  1
  Ta  Ta14  1  0.663154  0.170743  0.873682  1
  Ta  Ta15  1  0.164612  0.327585  0.625945  1
  Ta  Ta16  1  0.838147  0.488187  0.750000  1
  Si  Si17  1  0.662028  0.959115  0.456356  1
  Si  Si18  1  0.161379  0.540689  0.043772  1
  Si  Si19  1  0.337839  0.040829  0.956693  1
  Si  Si20  1  0.838207  0.459811  0.542435  1
  Si  Si21  1  0.337839  0.040829  0.543307  1
  Si  Si22  1  0.838207  0.459811  0.957565  1
  Si  Si23  1  0.662028  0.959115  0.043644  1
  Si  Si24  1  0.161379  0.540689  0.456228  1
  Si  Si25  1  0.460580  0.375903  0.750000  1
  Si  Si26  1  0.963253  0.124198  0.750000  1
  Si  Si27  1  0.536273  0.622781  0.250000  1
  Si  Si28  1  0.037381  0.875449  0.250000  1
  Si  Si29  1  0.699771  0.876654  0.750000  1
  Si  Si30  1  0.203114  0.625393  0.750000  1
  Si  Si31  1  0.300872  0.124469  0.250000  1
  Si  Si32  1  0.800882  0.375327  0.250000  1
  W  W33  1  0.339666  0.014551  0.750000  1
  W  W34  1  0.160933  0.514147  0.250000  1
  W  W35  1  0.660153  0.984472  0.250000  1
