# generated using pymatgen
data_Lu12Co4HgPt
_symmetry_space_group_name_H-M   'P 1'
_cell_length_a   8.09139575
_cell_length_b   8.09139531
_cell_length_c   8.09139623
_cell_angle_alpha   111.09985542
_cell_angle_beta   110.90536513
_cell_angle_gamma   106.45009605
_symmetry_Int_Tables_number   1
_chemical_formula_structural   Lu12Co4HgPt
_chemical_formula_sum   'Lu12 Co4 Hg1 Pt1'
_cell_volume   406.95523232
_cell_formula_units_Z   1
loop_
 _symmetry_equiv_pos_site_id
 _symmetry_equiv_pos_as_xyz
  1  'x, y, z'
loop_
 _atom_site_type_symbol
 _atom_site_label
 _atom_site_symmetry_multiplicity
 _atom_site_fract_x
 _atom_site_fract_y
 _atom_site_fract_z
 _atom_site_occupancy
  Lu  Lu0  1  0.419229  0.221053  0.198176  1
  Lu  Lu1  1  0.580771  0.778947  0.801824  1
  Lu  Lu2  1  0.022877  0.221053  0.801824  1
  Lu  Lu3  1  0.977123  0.778947  0.198176  1
  Lu  Lu4  1  0.186204  0.287818  0.474023  1
  Lu  Lu5  1  0.813796  0.712182  0.525977  1
  Lu  Lu6  1  0.186204  0.712182  0.898387  1
  Lu  Lu7  1  0.813796  0.287818  0.101613  1
  Lu  Lu8  1  0.315448  0.619146  0.303697  1
  Lu  Lu9  1  0.684552  0.380854  0.696303  1
  Lu  Lu10  1  0.315448  0.011751  0.696303  1
  Lu  Lu11  1  0.684552  0.988249  0.303697  1
  Co  Co12  1  0.376492  0.000000  0.376492  1
  Co  Co13  1  0.623508  0.000000  0.623508  1
  Co  Co14  1  0.113501  0.613501  0.500000  1
  Co  Co15  1  0.886499  0.386499  0.500000  1
  Hg  Hg16  1  0.500000  0.500000  0.000000  1
  Pt  Pt17  1  0.000000  0.000000  0.000000  1
