# generated using pymatgen
data_Tb4Ce2TcRu
_symmetry_space_group_name_H-M   'P 1'
_cell_length_a   6.37041000
_cell_length_b   7.15544500
_cell_length_c   9.62562100
_cell_angle_alpha   90.00000000
_cell_angle_beta   90.00000000
_cell_angle_gamma   90.00000000
_symmetry_Int_Tables_number   1
_chemical_formula_structural   Tb4Ce2TcRu
_chemical_formula_sum   'Tb8 Ce4 Tc2 Ru2'
_cell_volume   438.76582155
_cell_formula_units_Z   2
loop_
 _symmetry_equiv_pos_site_id
 _symmetry_equiv_pos_as_xyz
  1  'x, y, z'
loop_
 _atom_site_type_symbol
 _atom_site_label
 _atom_site_symmetry_multiplicity
 _atom_site_fract_x
 _atom_site_fract_y
 _atom_site_fract_z
 _atom_site_occupancy
  Tb  Tb0  1  0.329438  0.676141  0.065445  1
  Tb  Tb1  1  0.170562  0.176141  0.434555  1
  Tb  Tb2  1  0.666869  0.323733  0.565470  1
  Tb  Tb3  1  0.833131  0.823733  0.934530  1
  Tb  Tb4  1  0.666869  0.323733  0.934530  1
  Tb  Tb5  1  0.833131  0.823733  0.565470  1
  Tb  Tb6  1  0.329438  0.676141  0.434555  1
  Tb  Tb7  1  0.170562  0.176141  0.065445  1
  Ce  Ce8  1  0.857418  0.554924  0.250000  1
  Ce  Ce9  1  0.642582  0.054924  0.250000  1
  Ce  Ce10  1  0.147508  0.446005  0.750000  1
  Ce  Ce11  1  0.352492  0.946005  0.750000  1
  Tc  Tc12  1  0.998840  0.864184  0.250000  1
  Tc  Tc13  1  0.501160  0.364184  0.250000  1
  Ru  Ru14  1  0.988058  0.135139  0.750000  1
  Ru  Ru15  1  0.511942  0.635139  0.750000  1
