# generated using pymatgen
data_Tb4Al4Pd3Rh
_symmetry_space_group_name_H-M   'P 1'
_cell_length_a   4.44456700
_cell_length_b   6.89083815
_cell_length_c   7.83236245
_cell_angle_alpha   90.09065353
_cell_angle_beta   90.00000000
_cell_angle_gamma   90.00000000
_symmetry_Int_Tables_number   1
_chemical_formula_structural   Tb4Al4Pd3Rh
_chemical_formula_sum   'Tb4 Al4 Pd3 Rh1'
_cell_volume   239.87983439
_cell_formula_units_Z   1
loop_
 _symmetry_equiv_pos_site_id
 _symmetry_equiv_pos_as_xyz
  1  'x, y, z'
loop_
 _atom_site_type_symbol
 _atom_site_label
 _atom_site_symmetry_multiplicity
 _atom_site_fract_x
 _atom_site_fract_y
 _atom_site_fract_z
 _atom_site_occupancy
  Tb  Tb0  1  0.250000  0.535995  0.816468  1
  Tb  Tb1  1  0.750000  0.466121  0.180909  1
  Tb  Tb2  1  0.250000  0.026668  0.680543  1
  Tb  Tb3  1  0.750000  0.962855  0.321956  1
  Al  Al4  1  0.250000  0.645181  0.439484  1
  Al  Al5  1  0.750000  0.361513  0.563367  1
  Al  Al6  1  0.250000  0.144477  0.061918  1
  Al  Al7  1  0.750000  0.853619  0.935402  1
  Pd  Pd8  1  0.250000  0.272451  0.382633  1
  Pd  Pd9  1  0.750000  0.226310  0.882830  1
  Pd  Pd10  1  0.250000  0.772669  0.117950  1
  Rh  Rh11  1  0.750000  0.732141  0.616540  1
