# generated using pymatgen
data_EuDyEr2(NiP)4
_symmetry_space_group_name_H-M   'P 1'
_cell_length_a   3.88938400
_cell_length_b   3.88938593
_cell_length_c   15.84917400
_cell_angle_alpha   90.00000000
_cell_angle_beta   90.00000000
_cell_angle_gamma   120.00000060
_symmetry_Int_Tables_number   1
_chemical_formula_structural   EuDyEr2(NiP)4
_chemical_formula_sum   'Eu1 Dy1 Er2 Ni4 P4'
_cell_volume   207.63431262
_cell_formula_units_Z   1
loop_
 _symmetry_equiv_pos_site_id
 _symmetry_equiv_pos_as_xyz
  1  'x, y, z'
loop_
 _atom_site_type_symbol
 _atom_site_label
 _atom_site_symmetry_multiplicity
 _atom_site_fract_x
 _atom_site_fract_y
 _atom_site_fract_z
 _atom_site_occupancy
  Eu  Eu0  1  0.000000  0.000000  0.500000  1
  Dy  Dy1  1  0.000000  0.000000  0.000000  1
  Er  Er2  1  0.000000  0.000000  0.245304  1
  Er  Er3  1  0.000000  0.000000  0.754696  1
  Ni  Ni4  1  0.333333  0.666667  0.361122  1
  Ni  Ni5  1  0.666667  0.333333  0.638878  1
  Ni  Ni6  1  0.666667  0.333333  0.874108  1
  Ni  Ni7  1  0.333333  0.666667  0.125892  1
  P  P8  1  0.333333  0.666667  0.879099  1
  P  P9  1  0.666667  0.333333  0.120901  1
  P  P10  1  0.666667  0.333333  0.367352  1
  P  P11  1  0.333333  0.666667  0.632648  1
