# generated using pymatgen
data_Tb4Y12Cd3InIr3Pd
_symmetry_space_group_name_H-M   'P 1'
_cell_length_a   9.66955869
_cell_length_b   9.66955733
_cell_length_c   9.66955600
_cell_angle_alpha   60.21464025
_cell_angle_beta   60.21464486
_cell_angle_gamma   60.21464458
_symmetry_Int_Tables_number   1
_chemical_formula_structural   Tb4Y12Cd3InIr3Pd
_chemical_formula_sum   'Tb4 Y12 Cd3 In1 Ir3 Pd1'
_cell_volume   642.40702903
_cell_formula_units_Z   1
loop_
 _symmetry_equiv_pos_site_id
 _symmetry_equiv_pos_as_xyz
  1  'x, y, z'
loop_
 _atom_site_type_symbol
 _atom_site_label
 _atom_site_symmetry_multiplicity
 _atom_site_fract_x
 _atom_site_fract_y
 _atom_site_fract_z
 _atom_site_occupancy
  Tb  Tb0  1  0.348329  0.348329  0.348329  1
  Tb  Tb1  1  0.352974  0.352974  0.947460  1
  Tb  Tb2  1  0.352974  0.947460  0.352974  1
  Tb  Tb3  1  0.947460  0.352974  0.352974  1
  Y  Y4  1  0.805980  0.189941  0.189941  1
  Y  Y5  1  0.189921  0.810433  0.810433  1
  Y  Y6  1  0.189941  0.805980  0.189941  1
  Y  Y7  1  0.810433  0.189921  0.810433  1
  Y  Y8  1  0.189941  0.189941  0.805980  1
  Y  Y9  1  0.810433  0.810433  0.189921  1
  Y  Y10  1  0.938396  0.563115  0.563115  1
  Y  Y11  1  0.565677  0.936754  0.936754  1
  Y  Y12  1  0.563115  0.938396  0.563115  1
  Y  Y13  1  0.936754  0.565677  0.936754  1
  Y  Y14  1  0.563115  0.563115  0.938396  1
  Y  Y15  1  0.936754  0.936754  0.565677  1
  Cd  Cd16  1  0.580691  0.580691  0.256100  1
  Cd  Cd17  1  0.580691  0.256100  0.580691  1
  Cd  Cd18  1  0.256100  0.580691  0.580691  1
  In  In19  1  0.581641  0.581641  0.581641  1
  Ir  Ir20  1  0.141326  0.141326  0.572718  1
  Ir  Ir21  1  0.141326  0.572718  0.141326  1
  Ir  Ir22  1  0.572718  0.141326  0.141326  1
  Pd  Pd23  1  0.143313  0.143313  0.143313  1
