# generated using pymatgen
data_SrZn4Ni
_symmetry_space_group_name_H-M   'P 1'
_cell_length_a   5.17798200
_cell_length_b   6.67884500
_cell_length_c   12.80041500
_cell_angle_alpha   90.00000000
_cell_angle_beta   90.00000000
_cell_angle_gamma   90.00000000
_symmetry_Int_Tables_number   1
_chemical_formula_structural   SrZn4Ni
_chemical_formula_sum   'Sr4 Zn16 Ni4'
_cell_volume   442.67597356
_cell_formula_units_Z   4
loop_
 _symmetry_equiv_pos_site_id
 _symmetry_equiv_pos_as_xyz
  1  'x, y, z'
loop_
 _atom_site_type_symbol
 _atom_site_label
 _atom_site_symmetry_multiplicity
 _atom_site_fract_x
 _atom_site_fract_y
 _atom_site_fract_z
 _atom_site_occupancy
  Sr  Sr0  1  0.260168  0.641518  0.915506  1
  Sr  Sr1  1  0.239832  0.858482  0.415506  1
  Sr  Sr2  1  0.760168  0.358482  0.084494  1
  Sr  Sr3  1  0.739832  0.141518  0.584494  1
  Zn  Zn4  1  0.226605  0.347209  0.715836  1
  Zn  Zn5  1  0.273395  0.152791  0.215836  1
  Zn  Zn6  1  0.726605  0.652791  0.284164  1
  Zn  Zn7  1  0.773395  0.847209  0.784164  1
  Zn  Zn8  1  0.229042  0.951046  0.712729  1
  Zn  Zn9  1  0.270958  0.548954  0.212729  1
  Zn  Zn10  1  0.729042  0.048954  0.287271  1
  Zn  Zn11  1  0.770958  0.451046  0.787271  1
  Zn  Zn12  1  0.003745  0.843254  0.148317  1
  Zn  Zn13  1  0.496255  0.656746  0.648317  1
  Zn  Zn14  1  0.503745  0.156746  0.851683  1
  Zn  Zn15  1  0.996255  0.343254  0.351683  1
  Zn  Zn16  1  0.248776  0.419159  0.517229  1
  Zn  Zn17  1  0.251224  0.080841  0.017229  1
  Zn  Zn18  1  0.748776  0.580841  0.482771  1
  Zn  Zn19  1  0.751224  0.919159  0.982771  1
  Ni  Ni20  1  0.001654  0.152484  0.857036  1
  Ni  Ni21  1  0.498346  0.347516  0.357036  1
  Ni  Ni22  1  0.501654  0.847516  0.142964  1
  Ni  Ni23  1  0.998346  0.652484  0.642964  1
