# generated using pymatgen
data_CaNd2(TmSn2)2
_symmetry_space_group_name_H-M   'P 1'
_cell_length_a   8.00532100
_cell_length_b   8.38570500
_cell_length_c   15.66847400
_cell_angle_alpha   90.00000000
_cell_angle_beta   90.00000000
_cell_angle_gamma   90.00000000
_symmetry_Int_Tables_number   1
_chemical_formula_structural   CaNd2(TmSn2)2
_chemical_formula_sum   'Ca4 Nd8 Tm8 Sn16'
_cell_volume   1051.82873869
_cell_formula_units_Z   4
loop_
 _symmetry_equiv_pos_site_id
 _symmetry_equiv_pos_as_xyz
  1  'x, y, z'
loop_
 _atom_site_type_symbol
 _atom_site_label
 _atom_site_symmetry_multiplicity
 _atom_site_fract_x
 _atom_site_fract_y
 _atom_site_fract_z
 _atom_site_occupancy
  Ca  Ca0  1  0.167374  0.498385  0.750000  1
  Ca  Ca1  1  0.667374  0.001615  0.750000  1
  Ca  Ca2  1  0.832626  0.501615  0.250000  1
  Ca  Ca3  1  0.332626  0.998385  0.250000  1
  Nd  Nd4  1  0.495332  0.320536  0.904983  1
  Nd  Nd5  1  0.995332  0.179464  0.595017  1
  Nd  Nd6  1  0.504668  0.679464  0.404983  1
  Nd  Nd7  1  0.004668  0.820536  0.095017  1
  Nd  Nd8  1  0.504668  0.679464  0.095017  1
  Nd  Nd9  1  0.004668  0.820536  0.404983  1
  Nd  Nd10  1  0.495332  0.320536  0.595017  1
  Nd  Nd11  1  0.995332  0.179464  0.904983  1
  Tm  Tm12  1  0.335650  0.828527  0.875760  1
  Tm  Tm13  1  0.835650  0.671473  0.624240  1
  Tm  Tm14  1  0.664350  0.171473  0.375760  1
  Tm  Tm15  1  0.164350  0.328527  0.124240  1
  Tm  Tm16  1  0.664350  0.171473  0.124240  1
  Tm  Tm17  1  0.164350  0.328527  0.375760  1
  Tm  Tm18  1  0.335650  0.828527  0.624240  1
  Tm  Tm19  1  0.835650  0.671473  0.875760  1
  Sn  Sn20  1  0.323725  0.039694  0.037517  1
  Sn  Sn21  1  0.823725  0.460306  0.462483  1
  Sn  Sn22  1  0.676275  0.960306  0.537517  1
  Sn  Sn23  1  0.176275  0.539694  0.962483  1
  Sn  Sn24  1  0.676275  0.960306  0.962483  1
  Sn  Sn25  1  0.176275  0.539694  0.537517  1
  Sn  Sn26  1  0.323725  0.039694  0.462483  1
  Sn  Sn27  1  0.823725  0.460306  0.037517  1
  Sn  Sn28  1  0.535482  0.617736  0.750000  1
  Sn  Sn29  1  0.035482  0.882264  0.750000  1
  Sn  Sn30  1  0.464518  0.382264  0.250000  1
  Sn  Sn31  1  0.964518  0.117736  0.250000  1
  Sn  Sn32  1  0.296649  0.135461  0.750000  1
  Sn  Sn33  1  0.796649  0.364539  0.750000  1
  Sn  Sn34  1  0.703351  0.864539  0.250000  1
  Sn  Sn35  1  0.203351  0.635461  0.250000  1
