# generated using pymatgen
data_Nd2Ho3Si12Ir19
_symmetry_space_group_name_H-M   'P 1'
_cell_length_a   12.85917300
_cell_length_b   12.85917419
_cell_length_c   3.99763800
_cell_angle_alpha   90.00000000
_cell_angle_beta   90.00000000
_cell_angle_gamma   120.00000465
_symmetry_Int_Tables_number   1
_chemical_formula_structural   Nd2Ho3Si12Ir19
_chemical_formula_sum   'Nd2 Ho3 Si12 Ir19'
_cell_volume   572.47983605
_cell_formula_units_Z   1
loop_
 _symmetry_equiv_pos_site_id
 _symmetry_equiv_pos_as_xyz
  1  'x, y, z'
loop_
 _atom_site_type_symbol
 _atom_site_label
 _atom_site_symmetry_multiplicity
 _atom_site_fract_x
 _atom_site_fract_y
 _atom_site_fract_z
 _atom_site_occupancy
  Nd  Nd0  1  0.333333  0.666667  0.000000  1
  Nd  Nd1  1  0.666667  0.333333  0.000000  1
  Ho  Ho2  1  0.000000  0.814527  0.500000  1
  Ho  Ho3  1  0.185473  0.185473  0.500000  1
  Ho  Ho4  1  0.814527  0.000000  0.500000  1
  Si  Si5  1  0.000000  0.180383  0.000000  1
  Si  Si6  1  0.819617  0.819617  0.000000  1
  Si  Si7  1  0.180383  0.000000  0.000000  1
  Si  Si8  1  0.521520  0.688146  0.500000  1
  Si  Si9  1  0.311854  0.833374  0.500000  1
  Si  Si10  1  0.166626  0.478480  0.500000  1
  Si  Si11  1  0.478480  0.166626  0.500000  1
  Si  Si12  1  0.688146  0.521520  0.500000  1
  Si  Si13  1  0.833374  0.311854  0.500000  1
  Si  Si14  1  0.000000  0.631660  0.000000  1
  Si  Si15  1  0.368340  0.368340  0.000000  1
  Si  Si16  1  0.631660  0.000000  0.000000  1
  Ir  Ir17  1  0.000000  0.280771  0.500000  1
  Ir  Ir18  1  0.719229  0.719229  0.500000  1
  Ir  Ir19  1  0.280771  0.000000  0.500000  1
  Ir  Ir20  1  0.625459  0.807480  0.000000  1
  Ir  Ir21  1  0.192520  0.817978  0.000000  1
  Ir  Ir22  1  0.182022  0.374541  0.000000  1
  Ir  Ir23  1  0.374541  0.182022  0.000000  1
  Ir  Ir24  1  0.807480  0.625459  0.000000  1
  Ir  Ir25  1  0.817978  0.192520  0.000000  1
  Ir  Ir26  1  0.513547  0.874932  0.500000  1
  Ir  Ir27  1  0.125068  0.638617  0.500000  1
  Ir  Ir28  1  0.361383  0.486453  0.500000  1
  Ir  Ir29  1  0.486453  0.361383  0.500000  1
  Ir  Ir30  1  0.874932  0.513547  0.500000  1
  Ir  Ir31  1  0.638617  0.125068  0.500000  1
  Ir  Ir32  1  0.000000  0.000000  0.000000  1
  Ir  Ir33  1  0.000000  0.446769  0.000000  1
  Ir  Ir34  1  0.553231  0.553231  0.000000  1
  Ir  Ir35  1  0.446769  0.000000  0.000000  1
