# generated using pymatgen
data_Cs4K2HoLuAs4
_symmetry_space_group_name_H-M   'P 1'
_cell_length_a   9.91371523
_cell_length_b   9.91371564
_cell_length_c   9.91371531
_cell_angle_alpha   132.84181275
_cell_angle_beta   136.65185283
_cell_angle_gamma   65.97264698
_symmetry_Int_Tables_number   1
_chemical_formula_structural   Cs4K2HoLuAs4
_chemical_formula_sum   'Cs4 K2 Ho1 Lu1 As4'
_cell_volume   482.96331250
_cell_formula_units_Z   1
loop_
 _symmetry_equiv_pos_site_id
 _symmetry_equiv_pos_as_xyz
  1  'x, y, z'
loop_
 _atom_site_type_symbol
 _atom_site_label
 _atom_site_symmetry_multiplicity
 _atom_site_fract_x
 _atom_site_fract_y
 _atom_site_fract_z
 _atom_site_occupancy
  Cs  Cs0  1  0.689500  0.438499  0.761427  1
  Cs  Cs1  1  0.810500  0.071926  0.249000  1
  Cs  Cs2  1  0.177073  0.928074  0.738573  1
  Cs  Cs3  1  0.322927  0.561501  0.251000  1
  K  K4  1  0.750000  0.000000  0.750000  1
  K  K5  1  0.250000  0.000000  0.250000  1
  Ho  Ho6  1  0.250000  0.500000  0.750000  1
  Lu  Lu7  1  0.750000  0.500000  0.250000  1
  As  As8  1  0.411585  0.214483  0.808934  1
  As  As9  1  0.594451  0.785517  0.197103  1
  As  As10  1  0.088415  0.397350  0.302897  1
  As  As11  1  0.905549  0.602650  0.691066  1
