# generated using pymatgen
data_CeSn6Ru3Rh
_symmetry_space_group_name_H-M   'P 1'
_cell_length_a   6.97879863
_cell_length_b   6.99963528
_cell_length_c   6.94018391
_cell_angle_alpha   120.00642012
_cell_angle_beta   119.90632360
_cell_angle_gamma   90.47703265
_symmetry_Int_Tables_number   1
_chemical_formula_structural   CeSn6Ru3Rh
_chemical_formula_sum   'Ce1 Sn6 Ru3 Rh1'
_cell_volume   239.02721320
_cell_formula_units_Z   1
loop_
 _symmetry_equiv_pos_site_id
 _symmetry_equiv_pos_as_xyz
  1  'x, y, z'
loop_
 _atom_site_type_symbol
 _atom_site_label
 _atom_site_symmetry_multiplicity
 _atom_site_fract_x
 _atom_site_fract_y
 _atom_site_fract_z
 _atom_site_occupancy
  Ce  Ce0  1  0.004796  0.992323  0.000000  1
  Sn  Sn1  1  0.502207  0.002587  0.499467  1
  Sn  Sn2  1  0.533784  0.874931  0.000000  1
  Sn  Sn3  1  0.118908  0.126167  0.653799  1
  Sn  Sn4  1  0.465109  0.472367  0.346201  1
  Sn  Sn5  1  0.876386  0.533300  0.000000  1
  Sn  Sn6  1  0.002740  0.503120  0.500533  1
  Ru  Ru7  1  0.244502  0.602699  0.000000  1
  Ru  Ru8  1  0.398443  0.397693  0.645365  1
  Ru  Ru9  1  0.753077  0.752327  0.354635  1
  Rh  Rh10  1  0.600047  0.242486  0.000000  1
