# generated using pymatgen
data_Ca4CoOs7O24
_symmetry_space_group_name_H-M   'P 1'
_cell_length_a   5.33930299
_cell_length_b   7.40188489
_cell_length_c   11.11599234
_cell_angle_alpha   89.82785096
_cell_angle_beta   89.94159852
_cell_angle_gamma   90.04528218
_symmetry_Int_Tables_number   1
_chemical_formula_structural   Ca4CoOs7O24
_chemical_formula_sum   'Ca4 Co1 Os7 O24'
_cell_volume   439.31173994
_cell_formula_units_Z   1
loop_
 _symmetry_equiv_pos_site_id
 _symmetry_equiv_pos_as_xyz
  1  'x, y, z'
loop_
 _atom_site_type_symbol
 _atom_site_label
 _atom_site_symmetry_multiplicity
 _atom_site_fract_x
 _atom_site_fract_y
 _atom_site_fract_z
 _atom_site_occupancy
  Ca  Ca0  1  0.457863  0.745276  0.046048  1
  Ca  Ca1  1  0.951045  0.256483  0.462248  1
  Ca  Ca2  1  0.543065  0.253102  0.956345  1
  Ca  Ca3  1  0.040913  0.738683  0.543848  1
  Co  Co4  1  0.549260  0.494053  0.638662  1
  Os  Os5  1  0.058499  0.501152  0.854822  1
  Os  Os6  1  0.440645  0.999535  0.360907  1
  Os  Os7  1  0.941847  0.000915  0.139133  1
  Os  Os8  1  0.058413  0.998945  0.860367  1
  Os  Os9  1  0.557133  0.998626  0.638346  1
  Os  Os10  1  0.945240  0.498672  0.138968  1
  Os  Os11  1  0.445609  0.500595  0.365894  1
  O  O12  1  0.662343  0.238966  0.624614  1
  O  O13  1  0.171286  0.749369  0.876372  1
  O  O14  1  0.333547  0.751143  0.376593  1
  O  O15  1  0.829368  0.251203  0.125048  1
  O  O16  1  0.444161  0.760575  0.643386  1
  O  O17  1  0.943223  0.250662  0.854961  1
  O  O18  1  0.555924  0.249682  0.358835  1
  O  O19  1  0.058881  0.751050  0.143177  1
  O  O20  1  0.150503  0.450506  0.273715  1
  O  O21  1  0.634431  0.559111  0.217631  1
  O  O22  1  0.854399  0.940176  0.724749  1
  O  O23  1  0.357413  0.057960  0.776764  1
  O  O24  1  0.775216  0.959015  0.979274  1
  O  O25  1  0.274562  0.044619  0.520467  1
  O  O26  1  0.224740  0.460425  0.021536  1
  O  O27  1  0.731961  0.542544  0.466493  1
  O  O28  1  0.223938  0.042005  0.020186  1
  O  O29  1  0.723743  0.954571  0.479434  1
  O  O30  1  0.782430  0.540826  0.978839  1
  O  O31  1  0.261185  0.461033  0.515872  1
  O  O32  1  0.640263  0.944120  0.222356  1
  O  O33  1  0.141741  0.058854  0.276983  1
  O  O34  1  0.361798  0.430786  0.793652  1
  O  O35  1  0.873414  0.564762  0.723474  1
