# generated using pymatgen
data_CsTc6Se2S5
_symmetry_space_group_name_H-M   'P 1'
_cell_length_a   9.57896245
_cell_length_b   9.58134246
_cell_length_c   9.58988824
_cell_angle_alpha   60.13292823
_cell_angle_beta   60.40512106
_cell_angle_gamma   60.45736181
_symmetry_Int_Tables_number   1
_chemical_formula_structural   CsTc6Se2S5
_chemical_formula_sum   'Cs2 Tc12 Se4 S10'
_cell_volume   627.02301902
_cell_formula_units_Z   2
loop_
 _symmetry_equiv_pos_site_id
 _symmetry_equiv_pos_as_xyz
  1  'x, y, z'
loop_
 _atom_site_type_symbol
 _atom_site_label
 _atom_site_symmetry_multiplicity
 _atom_site_fract_x
 _atom_site_fract_y
 _atom_site_fract_z
 _atom_site_occupancy
  Cs  Cs0  1  0.391722  0.375178  0.382448  1
  Cs  Cs1  1  0.617815  0.621630  0.625194  1
  Tc  Tc2  1  0.310846  0.128947  0.991738  1
  Tc  Tc3  1  0.198629  0.882750  0.063120  1
  Tc  Tc4  1  0.882162  0.063525  0.198165  1
  Tc  Tc5  1  0.935520  0.800527  0.118519  1
  Tc  Tc6  1  0.801569  0.119305  0.935834  1
  Tc  Tc7  1  0.118288  0.938040  0.801253  1
  Tc  Tc8  1  0.993165  0.312117  0.125877  1
  Tc  Tc9  1  0.872679  0.008302  0.687208  1
  Tc  Tc10  1  0.127955  0.994164  0.310921  1
  Tc  Tc11  1  0.005749  0.689646  0.871344  1
  Tc  Tc12  1  0.688406  0.873043  0.004980  1
  Tc  Tc13  1  0.063349  0.198956  0.882067  1
  Se  Se14  1  0.988761  0.245102  0.633311  1
  Se  Se15  1  0.241640  0.635796  0.989190  1
  Se  Se16  1  0.635218  0.987861  0.242350  1
  Se  Se17  1  0.012496  0.754800  0.365016  1
  S  S18  1  0.770728  0.344981  0.013885  1
  S  S19  1  0.345040  0.014629  0.771087  1
  S  S20  1  0.165961  0.410942  0.825742  1
  S  S21  1  0.408926  0.829595  0.165320  1
  S  S22  1  0.828770  0.166806  0.407445  1
  S  S23  1  0.832865  0.590670  0.170126  1
  S  S24  1  0.591153  0.172641  0.832218  1
  S  S25  1  0.171280  0.836209  0.590576  1
  S  S26  1  0.780391  0.783039  0.779326  1
  S  S27  1  0.218918  0.220797  0.215738  1
