# generated using pymatgen
data_Nd20Ir8Pd3Au
_symmetry_space_group_name_H-M   'P 1'
_cell_length_a   11.45679394
_cell_length_b   11.45679393
_cell_length_c   6.52498078
_cell_angle_alpha   90.05299581
_cell_angle_beta   90.05299189
_cell_angle_gamma   89.67789110
_symmetry_Int_Tables_number   1
_chemical_formula_structural   Nd20Ir8Pd3Au
_chemical_formula_sum   'Nd20 Ir8 Pd3 Au1'
_cell_volume   856.44249533
_cell_formula_units_Z   1
loop_
 _symmetry_equiv_pos_site_id
 _symmetry_equiv_pos_as_xyz
  1  'x, y, z'
loop_
 _atom_site_type_symbol
 _atom_site_label
 _atom_site_symmetry_multiplicity
 _atom_site_fract_x
 _atom_site_fract_y
 _atom_site_fract_z
 _atom_site_occupancy
  Nd  Nd0  1  0.095278  0.290552  0.116752  1
  Nd  Nd1  1  0.795149  0.416444  0.129086  1
  Nd  Nd2  1  0.204706  0.578631  0.128947  1
  Nd  Nd3  1  0.902813  0.706316  0.116215  1
  Nd  Nd4  1  0.421369  0.795294  0.371053  1
  Nd  Nd5  1  0.583556  0.204851  0.370914  1
  Nd  Nd6  1  0.293684  0.097187  0.383785  1
  Nd  Nd7  1  0.709448  0.904722  0.383248  1
  Nd  Nd8  1  0.403877  0.208348  0.884728  1
  Nd  Nd9  1  0.703508  0.083670  0.870739  1
  Nd  Nd10  1  0.297680  0.919192  0.864949  1
  Nd  Nd11  1  0.597091  0.793208  0.884066  1
  Nd  Nd12  1  0.080808  0.702320  0.635051  1
  Nd  Nd13  1  0.916330  0.296492  0.629261  1
  Nd  Nd14  1  0.206792  0.402909  0.615934  1
  Nd  Nd15  1  0.791652  0.596123  0.615272  1
  Nd  Nd16  1  0.997814  0.001360  0.000242  1
  Nd  Nd17  1  0.500856  0.500725  0.997961  1
  Nd  Nd18  1  0.499275  0.499144  0.502039  1
  Nd  Nd19  1  0.998640  0.002186  0.499758  1
  Ir  Ir20  1  0.348500  0.350798  0.249029  1
  Ir  Ir21  1  0.649202  0.651500  0.250971  1
  Ir  Ir22  1  0.150640  0.149925  0.749273  1
  Ir  Ir23  1  0.850075  0.849360  0.750727  1
  Ir  Ir24  1  0.999180  0.499807  0.378618  1
  Ir  Ir25  1  0.500193  0.000820  0.121382  1
  Ir  Ir26  1  0.501047  0.000270  0.618807  1
  Ir  Ir27  1  0.999730  0.498953  0.881193  1
  Pd  Pd28  1  0.841688  0.158312  0.250000  1
  Pd  Pd29  1  0.342892  0.657108  0.750000  1
  Pd  Pd30  1  0.657476  0.342524  0.750000  1
  Au  Au31  1  0.159054  0.840946  0.250000  1
