# generated using pymatgen
data_Ba4Ho(TcO6)2
_symmetry_space_group_name_H-M   'P 1'
_cell_length_a   10.08789134
_cell_length_b   10.08789136
_cell_length_c   10.08789184
_cell_angle_alpha   33.91920528
_cell_angle_beta   33.91920363
_cell_angle_gamma   33.91920626
_symmetry_Int_Tables_number   1
_chemical_formula_structural   Ba4Ho(TcO6)2
_chemical_formula_sum   'Ba4 Ho1 Tc2 O12'
_cell_volume   284.91054745
_cell_formula_units_Z   1
loop_
 _symmetry_equiv_pos_site_id
 _symmetry_equiv_pos_as_xyz
  1  'x, y, z'
loop_
 _atom_site_type_symbol
 _atom_site_label
 _atom_site_symmetry_multiplicity
 _atom_site_fract_x
 _atom_site_fract_y
 _atom_site_fract_z
 _atom_site_occupancy
  Ba  Ba0  1  0.710614  0.710614  0.710614  1
  Ba  Ba1  1  0.289386  0.289386  0.289386  1
  Ba  Ba2  1  0.867471  0.867471  0.867471  1
  Ba  Ba3  1  0.132529  0.132529  0.132529  1
  Ho  Ho4  1  0.000000  0.000000  0.000000  1
  Tc  Tc5  1  0.577858  0.577858  0.577858  1
  Tc  Tc6  1  0.422142  0.422142  0.422142  1
  O  O7  1  0.223318  0.688660  0.223318  1
  O  O8  1  0.223318  0.223318  0.688660  1
  O  O9  1  0.688660  0.223318  0.223318  1
  O  O10  1  0.776682  0.311340  0.776682  1
  O  O11  1  0.776682  0.776682  0.311340  1
  O  O12  1  0.311340  0.776682  0.776682  1
  O  O13  1  0.388239  0.857958  0.388239  1
  O  O14  1  0.388239  0.388239  0.857958  1
  O  O15  1  0.857958  0.388239  0.388239  1
  O  O16  1  0.611761  0.142042  0.611761  1
  O  O17  1  0.611761  0.611761  0.142042  1
  O  O18  1  0.142042  0.611761  0.611761  1
