# generated using pymatgen
data_YbPr5(HfSb5)2
_symmetry_space_group_name_H-M   'P 1'
_cell_length_a   9.59026500
_cell_length_b   9.60175267
_cell_length_c   6.31314300
_cell_angle_alpha   90.00000000
_cell_angle_beta   90.00000000
_cell_angle_gamma   119.96043429
_symmetry_Int_Tables_number   1
_chemical_formula_structural   YbPr5(HfSb5)2
_chemical_formula_sum   'Yb1 Pr5 Hf2 Sb10'
_cell_volume   503.65180167
_cell_formula_units_Z   1
loop_
 _symmetry_equiv_pos_site_id
 _symmetry_equiv_pos_as_xyz
  1  'x, y, z'
loop_
 _atom_site_type_symbol
 _atom_site_label
 _atom_site_symmetry_multiplicity
 _atom_site_fract_x
 _atom_site_fract_y
 _atom_site_fract_z
 _atom_site_occupancy
  Yb  Yb0  1  0.620930  0.000000  0.250000  1
  Pr  Pr1  1  0.384186  0.000000  0.750000  1
  Pr  Pr2  1  0.998324  0.619076  0.250000  1
  Pr  Pr3  1  0.000234  0.379511  0.750000  1
  Pr  Pr4  1  0.379248  0.380924  0.250000  1
  Pr  Pr5  1  0.620722  0.620489  0.750000  1
  Hf  Hf6  1  0.999142  0.000000  0.001614  1
  Hf  Hf7  1  0.999142  0.000000  0.498386  1
  Sb  Sb8  1  0.260736  0.000000  0.250000  1
  Sb  Sb9  1  0.740886  0.000000  0.750000  1
  Sb  Sb10  1  0.998823  0.260584  0.250000  1
  Sb  Sb11  1  0.001826  0.740415  0.750000  1
  Sb  Sb12  1  0.738239  0.739416  0.250000  1
  Sb  Sb13  1  0.261411  0.259585  0.750000  1
  Sb  Sb14  1  0.332712  0.667349  0.001064  1
  Sb  Sb15  1  0.665364  0.332651  0.001064  1
  Sb  Sb16  1  0.665364  0.332651  0.498936  1
  Sb  Sb17  1  0.332712  0.667349  0.498936  1
