# generated using pymatgen
data_Gd8Nb12Si15Ge
_symmetry_space_group_name_H-M   'P 1'
_cell_length_a   6.86639800
_cell_length_b   7.09425509
_cell_length_c   13.32604600
_cell_angle_alpha   90.00000000
_cell_angle_beta   90.00000000
_cell_angle_gamma   90.05351399
_symmetry_Int_Tables_number   1
_chemical_formula_structural   Gd8Nb12Si15Ge
_chemical_formula_sum   'Gd8 Nb12 Si15 Ge1'
_cell_volume   649.13778965
_cell_formula_units_Z   1
loop_
 _symmetry_equiv_pos_site_id
 _symmetry_equiv_pos_as_xyz
  1  'x, y, z'
loop_
 _atom_site_type_symbol
 _atom_site_label
 _atom_site_symmetry_multiplicity
 _atom_site_fract_x
 _atom_site_fract_y
 _atom_site_fract_z
 _atom_site_occupancy
  Gd  Gd0  1  0.504202  0.671051  0.595593  1
  Gd  Gd1  1  0.004069  0.828845  0.904241  1
  Gd  Gd2  1  0.494696  0.329440  0.094829  1
  Gd  Gd3  1  0.997666  0.168989  0.406168  1
  Gd  Gd4  1  0.494696  0.329440  0.405171  1
  Gd  Gd5  1  0.997666  0.168989  0.093832  1
  Gd  Gd6  1  0.504202  0.671051  0.904407  1
  Gd  Gd7  1  0.004069  0.828845  0.595759  1
  Nb  Nb8  1  0.662151  0.176014  0.625536  1
  Nb  Nb9  1  0.162162  0.324242  0.874546  1
  Nb  Nb10  1  0.337478  0.824587  0.125244  1
  Nb  Nb11  1  0.837821  0.677895  0.375028  1
  Nb  Nb12  1  0.337478  0.824587  0.374756  1
  Nb  Nb13  1  0.837821  0.677895  0.124972  1
  Nb  Nb14  1  0.662151  0.176014  0.874464  1
  Nb  Nb15  1  0.162162  0.324242  0.625454  1
  Nb  Nb16  1  0.835881  0.491278  0.750000  1
  Nb  Nb17  1  0.336252  0.009199  0.750000  1
  Nb  Nb18  1  0.166199  0.510305  0.250000  1
  Nb  Nb19  1  0.663151  0.988855  0.250000  1
  Si  Si20  1  0.661788  0.963264  0.459295  1
  Si  Si21  1  0.161216  0.537434  0.041012  1
  Si  Si22  1  0.338017  0.037184  0.958640  1
  Si  Si23  1  0.837979  0.463037  0.540986  1
  Si  Si24  1  0.338017  0.037184  0.541360  1
  Si  Si25  1  0.837979  0.463037  0.959014  1
  Si  Si26  1  0.661788  0.963264  0.040705  1
  Si  Si27  1  0.161216  0.537434  0.458988  1
  Si  Si28  1  0.457489  0.376321  0.750000  1
  Si  Si29  1  0.957336  0.124332  0.750000  1
  Si  Si30  1  0.541032  0.625567  0.250000  1
  Si  Si31  1  0.042677  0.876073  0.250000  1
  Si  Si32  1  0.703585  0.876479  0.750000  1
  Si  Si33  1  0.203948  0.623748  0.750000  1
  Si  Si34  1  0.296388  0.124116  0.250000  1
  Ge  Ge35  1  0.797576  0.369761  0.250000  1
