# generated using pymatgen
data_Cs(SmI3)2
_symmetry_space_group_name_H-M   'P 1'
_cell_length_a   9.10012100
_cell_length_b   9.10012115
_cell_length_c   14.76779000
_cell_angle_alpha   90.00000000
_cell_angle_beta   90.00000000
_cell_angle_gamma   119.99998856
_symmetry_Int_Tables_number   1
_chemical_formula_structural   Cs(SmI3)2
_chemical_formula_sum   'Cs2 Sm4 I12'
_cell_volume   1059.10868830
_cell_formula_units_Z   2
loop_
 _symmetry_equiv_pos_site_id
 _symmetry_equiv_pos_as_xyz
  1  'x, y, z'
loop_
 _atom_site_type_symbol
 _atom_site_label
 _atom_site_symmetry_multiplicity
 _atom_site_fract_x
 _atom_site_fract_y
 _atom_site_fract_z
 _atom_site_occupancy
  Cs  Cs0  1  0.333333  0.666667  0.872818  1
  Cs  Cs1  1  0.666667  0.333333  0.372818  1
  Sm  Sm2  1  0.000000  0.000000  0.125833  1
  Sm  Sm3  1  0.000000  0.000000  0.375906  1
  Sm  Sm4  1  0.000000  0.000000  0.625833  1
  Sm  Sm5  1  0.000000  0.000000  0.875906  1
  I  I6  1  0.974769  0.710922  0.001410  1
  I  I7  1  0.259942  0.968001  0.250315  1
  I  I8  1  0.031999  0.291941  0.250315  1
  I  I9  1  0.289078  0.263848  0.001410  1
  I  I10  1  0.263848  0.289078  0.501410  1
  I  I11  1  0.736152  0.025231  0.001410  1
  I  I12  1  0.291941  0.031999  0.750315  1
  I  I13  1  0.708059  0.740058  0.250315  1
  I  I14  1  0.740058  0.708059  0.750315  1
  I  I15  1  0.025231  0.736152  0.501410  1
  I  I16  1  0.710922  0.974769  0.501410  1
  I  I17  1  0.968001  0.259942  0.750315  1
