# generated using pymatgen
data_In2GaPt3
_symmetry_space_group_name_H-M   'P 1'
_cell_length_a   6.83966509
_cell_length_b   6.83966511
_cell_length_c   5.61433400
_cell_angle_alpha   90.00000000
_cell_angle_beta   90.00000000
_cell_angle_gamma   62.85390505
_symmetry_Int_Tables_number   1
_chemical_formula_structural   In2GaPt3
_chemical_formula_sum   'In4 Ga2 Pt6'
_cell_volume   233.71295437
_cell_formula_units_Z   2
loop_
 _symmetry_equiv_pos_site_id
 _symmetry_equiv_pos_as_xyz
  1  'x, y, z'
loop_
 _atom_site_type_symbol
 _atom_site_label
 _atom_site_symmetry_multiplicity
 _atom_site_fract_x
 _atom_site_fract_y
 _atom_site_fract_z
 _atom_site_occupancy
  In  In0  1  0.487894  0.153827  0.250000  1
  In  In1  1  0.846173  0.512105  0.250000  1
  In  In2  1  0.153827  0.487894  0.750000  1
  In  In3  1  0.512105  0.846173  0.750000  1
  Ga  Ga4  1  0.197233  0.802767  0.250000  1
  Ga  Ga5  1  0.802767  0.197233  0.750000  1
  Pt  Pt6  1  0.140587  0.140587  0.000000  1
  Pt  Pt7  1  0.500000  0.500000  0.000000  1
  Pt  Pt8  1  0.859413  0.859413  0.000000  1
  Pt  Pt9  1  0.140587  0.140587  0.500000  1
  Pt  Pt10  1  0.500000  0.500000  0.500000  1
  Pt  Pt11  1  0.859413  0.859413  0.500000  1
