# generated using pymatgen
data_Mn3Fe4P4Ru
_symmetry_space_group_name_H-M   'P 1'
_cell_length_a   3.58702700
_cell_length_b   5.82511663
_cell_length_c   6.61440858
_cell_angle_alpha   90.53411052
_cell_angle_beta   90.00000000
_cell_angle_gamma   90.00000000
_symmetry_Int_Tables_number   1
_chemical_formula_structural   Mn3Fe4P4Ru
_chemical_formula_sum   'Mn3 Fe4 P4 Ru1'
_cell_volume   138.20107436
_cell_formula_units_Z   1
loop_
 _symmetry_equiv_pos_site_id
 _symmetry_equiv_pos_as_xyz
  1  'x, y, z'
loop_
 _atom_site_type_symbol
 _atom_site_label
 _atom_site_symmetry_multiplicity
 _atom_site_fract_x
 _atom_site_fract_y
 _atom_site_fract_z
 _atom_site_occupancy
  Mn  Mn0  1  0.750000  0.975880  0.172359  1
  Mn  Mn1  1  0.250000  0.525386  0.669891  1
  Mn  Mn2  1  0.250000  0.028120  0.830056  1
  Fe  Fe3  1  0.750000  0.350265  0.934748  1
  Fe  Fe4  1  0.750000  0.856039  0.569178  1
  Fe  Fe5  1  0.250000  0.651085  0.060188  1
  Fe  Fe6  1  0.250000  0.137784  0.431999  1
  P  P7  1  0.750000  0.726131  0.877606  1
  P  P8  1  0.750000  0.232282  0.618345  1
  P  P9  1  0.250000  0.277462  0.124791  1
  P  P10  1  0.250000  0.766515  0.377291  1
  Ru  Ru11  1  0.750000  0.473052  0.333547  1
