# generated using pymatgen
data_HoTm3(Hf3Ge4)2
_symmetry_space_group_name_H-M   'P 1'
_cell_length_a   7.37871000
_cell_length_b   7.38303045
_cell_length_c   13.53850800
_cell_angle_alpha   90.00000000
_cell_angle_beta   90.00000000
_cell_angle_gamma   89.98003231
_symmetry_Int_Tables_number   1
_chemical_formula_structural   HoTm3(Hf3Ge4)2
_chemical_formula_sum   'Ho2 Tm6 Hf12 Ge16'
_cell_volume   737.54051289
_cell_formula_units_Z   2
loop_
 _symmetry_equiv_pos_site_id
 _symmetry_equiv_pos_as_xyz
  1  'x, y, z'
loop_
 _atom_site_type_symbol
 _atom_site_label
 _atom_site_symmetry_multiplicity
 _atom_site_fract_x
 _atom_site_fract_y
 _atom_site_fract_z
 _atom_site_occupancy
  Ho  Ho0  1  0.995736  0.343099  0.217191  1
  Ho  Ho1  1  0.004264  0.656901  0.717191  1
  Tm  Tm2  1  0.157758  0.497594  0.468702  1
  Tm  Tm3  1  0.501654  0.842436  0.031399  1
  Tm  Tm4  1  0.842242  0.502406  0.968702  1
  Tm  Tm5  1  0.498346  0.157564  0.531399  1
  Tm  Tm6  1  0.342333  0.996036  0.782091  1
  Tm  Tm7  1  0.657667  0.003964  0.282091  1
  Hf  Hf8  1  0.172828  0.172908  0.000267  1
  Hf  Hf9  1  0.827172  0.827092  0.500267  1
  Hf  Hf10  1  0.327122  0.673176  0.250125  1
  Hf  Hf11  1  0.672878  0.326824  0.750125  1
  Hf  Hf12  1  0.155932  0.998364  0.375298  1
  Hf  Hf13  1  0.844068  0.001636  0.875298  1
  Hf  Hf14  1  0.502685  0.655400  0.625999  1
  Hf  Hf15  1  0.343922  0.496622  0.873625  1
  Hf  Hf16  1  0.497315  0.344600  0.125999  1
  Hf  Hf17  1  0.656078  0.503378  0.373625  1
  Hf  Hf18  1  0.997297  0.155289  0.625160  1
  Hf  Hf19  1  0.002703  0.844711  0.125160  1
  Ge  Ge20  1  0.364262  0.302040  0.324107  1
  Ge  Ge21  1  0.635738  0.697960  0.824107  1
  Ge  Ge22  1  0.200850  0.866205  0.572383  1
  Ge  Ge23  1  0.135626  0.801076  0.927219  1
  Ge  Ge24  1  0.799150  0.133795  0.072383  1
  Ge  Ge25  1  0.864374  0.198924  0.427219  1
  Ge  Ge26  1  0.302619  0.362102  0.676374  1
  Ge  Ge27  1  0.697381  0.637898  0.176374  1
  Ge  Ge28  1  0.298665  0.037362  0.181404  1
  Ge  Ge29  1  0.701335  0.962638  0.681404  1
  Ge  Ge30  1  0.463207  0.798322  0.431199  1
  Ge  Ge31  1  0.203316  0.538917  0.067878  1
  Ge  Ge32  1  0.536793  0.201678  0.931199  1
  Ge  Ge33  1  0.796684  0.461083  0.567878  1
  Ge  Ge34  1  0.036958  0.296722  0.819580  1
  Ge  Ge35  1  0.963042  0.703278  0.319580  1
