# generated using pymatgen
data_Y6Er4Tl3In3Br2
_symmetry_space_group_name_H-M   'P 1'
_cell_length_a   9.17003371
_cell_length_b   9.17605867
_cell_length_c   6.77486800
_cell_angle_alpha   90.00000000
_cell_angle_beta   90.00000000
_cell_angle_gamma   119.95421790
_symmetry_Int_Tables_number   1
_chemical_formula_structural   Y6Er4Tl3In3Br2
_chemical_formula_sum   'Y6 Er4 Tl3 In3 Br2'
_cell_volume   493.92243362
_cell_formula_units_Z   1
loop_
 _symmetry_equiv_pos_site_id
 _symmetry_equiv_pos_as_xyz
  1  'x, y, z'
loop_
 _atom_site_type_symbol
 _atom_site_label
 _atom_site_symmetry_multiplicity
 _atom_site_fract_x
 _atom_site_fract_y
 _atom_site_fract_z
 _atom_site_occupancy
  Y  Y0  1  0.734025  0.734049  0.250000  1
  Y  Y1  1  0.999441  0.734074  0.750000  1
  Y  Y2  1  0.734337  0.999969  0.750000  1
  Y  Y3  1  0.265458  0.266101  0.750000  1
  Y  Y4  1  0.000672  0.266437  0.250000  1
  Y  Y5  1  0.266160  0.000570  0.250000  1
  Er  Er6  1  0.333293  0.665364  0.500431  1
  Er  Er7  1  0.666730  0.333937  0.500468  1
  Er  Er8  1  0.333293  0.665364  0.999569  1
  Er  Er9  1  0.666730  0.333937  0.999532  1
  Tl  Tl10  1  0.394507  0.999850  0.750000  1
  Tl  Tl11  1  0.000264  0.605185  0.250000  1
  Tl  Tl12  1  0.605020  0.000173  0.250000  1
  In  In13  1  0.999543  0.394848  0.750000  1
  In  In14  1  0.395728  0.395495  0.250000  1
  In  In15  1  0.604793  0.605008  0.750000  1
  Br  Br16  1  0.000004  0.999819  0.500023  1
  Br  Br17  1  0.000004  0.999819  0.999977  1
