# generated using pymatgen
data_Li2HgBPd5
_symmetry_space_group_name_H-M   'P 1'
_cell_length_a   4.18953100
_cell_length_b   4.15271400
_cell_length_c   7.85522300
_cell_angle_alpha   90.00000000
_cell_angle_beta   90.00000000
_cell_angle_gamma   90.00000000
_symmetry_Int_Tables_number   1
_chemical_formula_structural   Li2HgBPd5
_chemical_formula_sum   'Li2 Hg1 B1 Pd5'
_cell_volume   136.66457305
_cell_formula_units_Z   1
loop_
 _symmetry_equiv_pos_site_id
 _symmetry_equiv_pos_as_xyz
  1  'x, y, z'
loop_
 _atom_site_type_symbol
 _atom_site_label
 _atom_site_symmetry_multiplicity
 _atom_site_fract_x
 _atom_site_fract_y
 _atom_site_fract_z
 _atom_site_occupancy
  Li  Li0  1  0.000000  0.000000  0.011774  1
  Li  Li1  1  0.000000  0.000000  0.488226  1
  Hg  Hg2  1  0.500000  0.000000  0.750000  1
  B  B3  1  0.500000  0.500000  0.250000  1
  Pd  Pd4  1  0.500000  0.500000  0.989687  1
  Pd  Pd5  1  0.500000  0.500000  0.510313  1
  Pd  Pd6  1  0.500000  0.000000  0.250000  1
  Pd  Pd7  1  0.000000  0.500000  0.250000  1
  Pd  Pd8  1  0.000000  0.500000  0.750000  1
