# generated using pymatgen
data_NdErI18
_symmetry_space_group_name_H-M   'P 1'
_cell_length_a   10.44485319
_cell_length_b   10.47801936
_cell_length_c   10.43045589
_cell_angle_alpha   88.33155397
_cell_angle_beta   88.45290934
_cell_angle_gamma   88.23068581
_symmetry_Int_Tables_number   1
_chemical_formula_structural   NdErI18
_chemical_formula_sum   'Nd1 Er1 I18'
_cell_volume   1140.10625500
_cell_formula_units_Z   1
loop_
 _symmetry_equiv_pos_site_id
 _symmetry_equiv_pos_as_xyz
  1  'x, y, z'
loop_
 _atom_site_type_symbol
 _atom_site_label
 _atom_site_symmetry_multiplicity
 _atom_site_fract_x
 _atom_site_fract_y
 _atom_site_fract_z
 _atom_site_occupancy
  Nd  Nd0  1  0.000000  0.000000  0.000000  1
  Er  Er1  1  0.500000  0.500000  0.500000  1
  I  I2  1  0.788737  0.465734  0.501698  1
  I  I3  1  0.500312  0.787698  0.464779  1
  I  I4  1  0.465938  0.501603  0.789024  1
  I  I5  1  0.211263  0.534266  0.498302  1
  I  I6  1  0.499688  0.212302  0.535221  1
  I  I7  1  0.534062  0.498397  0.210976  1
  I  I8  1  0.896979  0.378721  0.748479  1
  I  I9  1  0.746477  0.895367  0.379006  1
  I  I10  1  0.379233  0.747365  0.896878  1
  I  I11  1  0.103021  0.621279  0.251521  1
  I  I12  1  0.253523  0.104633  0.620994  1
  I  I13  1  0.620767  0.252635  0.103122  1
  I  I14  1  0.015268  0.978497  0.699649  1
  I  I15  1  0.700422  0.014853  0.976395  1
  I  I16  1  0.976457  0.701338  0.012519  1
  I  I17  1  0.984732  0.021503  0.300351  1
  I  I18  1  0.299578  0.985147  0.023605  1
  I  I19  1  0.023543  0.298662  0.987481  1
