# generated using pymatgen
data_Er12Cd2Fe2Tc
_symmetry_space_group_name_H-M   'P 1'
_cell_length_a   8.28085357
_cell_length_b   8.28094437
_cell_length_c   8.28085300
_cell_angle_alpha   108.47834525
_cell_angle_beta   108.47759953
_cell_angle_gamma   111.47606747
_symmetry_Int_Tables_number   1
_chemical_formula_structural   Er12Cd2Fe2Tc
_chemical_formula_sum   'Er12 Cd2 Fe2 Tc1'
_cell_volume   436.72690125
_cell_formula_units_Z   1
loop_
 _symmetry_equiv_pos_site_id
 _symmetry_equiv_pos_as_xyz
  1  'x, y, z'
loop_
 _atom_site_type_symbol
 _atom_site_label
 _atom_site_symmetry_multiplicity
 _atom_site_fract_x
 _atom_site_fract_y
 _atom_site_fract_z
 _atom_site_occupancy
  Er  Er0  1  0.308406  0.308405  0.616823  1
  Er  Er1  1  0.691594  0.691595  0.383177  1
  Er  Er2  1  0.308419  0.691595  0.000000  1
  Er  Er3  1  0.691581  0.308405  0.000000  1
  Er  Er4  1  0.431063  0.192430  0.238659  1
  Er  Er5  1  0.568937  0.807570  0.761341  1
  Er  Er6  1  0.953771  0.192430  0.761367  1
  Er  Er7  1  0.192410  0.953763  0.761354  1
  Er  Er8  1  0.046229  0.807570  0.238633  1
  Er  Er9  1  0.807590  0.046237  0.238646  1
  Er  Er10  1  0.192409  0.431071  0.238662  1
  Er  Er11  1  0.807591  0.568929  0.761338  1
  Cd  Cd12  1  0.500000  0.000000  0.500000  1
  Cd  Cd13  1  0.000000  0.500000  0.500000  1
  Fe  Fe14  1  0.383095  0.383115  0.000020  1
  Fe  Fe15  1  0.616905  0.616885  0.999980  1
  Tc  Tc16  1  0.000000  0.000000  0.000000  1
