# generated using pymatgen
data_ReTc2(TeCl)3
_symmetry_space_group_name_H-M   'P 1'
_cell_length_a   10.13598195
_cell_length_b   10.14056476
_cell_length_c   11.49450906
_cell_angle_alpha   90.00568559
_cell_angle_beta   90.00768142
_cell_angle_gamma   106.35856923
_symmetry_Int_Tables_number   1
_chemical_formula_structural   ReTc2(TeCl)3
_chemical_formula_sum   'Re4 Tc8 Te12 Cl12'
_cell_volume   1133.63034874
_cell_formula_units_Z   4
loop_
 _symmetry_equiv_pos_site_id
 _symmetry_equiv_pos_as_xyz
  1  'x, y, z'
loop_
 _atom_site_type_symbol
 _atom_site_label
 _atom_site_symmetry_multiplicity
 _atom_site_fract_x
 _atom_site_fract_y
 _atom_site_fract_z
 _atom_site_occupancy
  Re  Re0  1  0.873074  0.126901  0.749978  1
  Re  Re1  1  0.109574  0.622490  0.167845  1
  Re  Re2  1  0.166232  0.678826  0.391646  1
  Re  Re3  1  0.126768  0.873649  0.249987  1
  Tc  Tc4  1  0.360046  0.640677  0.249883  1
  Tc  Tc5  1  0.322237  0.834148  0.107740  1
  Tc  Tc6  1  0.378765  0.890858  0.332423  1
  Tc  Tc7  1  0.640672  0.359188  0.749996  1
  Tc  Tc8  1  0.621509  0.109314  0.832187  1
  Tc  Tc9  1  0.677804  0.165811  0.607947  1
  Tc  Tc10  1  0.834226  0.322094  0.891893  1
  Tc  Tc11  1  0.890568  0.378347  0.667709  1
  Te  Te12  1  0.301968  0.581568  0.021758  1
  Te  Te13  1  0.418342  0.697577  0.478172  1
  Te  Te14  1  0.340698  0.088537  0.189054  1
  Te  Te15  1  0.582633  0.301655  0.977735  1
  Te  Te16  1  0.698071  0.417292  0.522271  1
  Te  Te17  1  0.659144  0.911205  0.689072  1
  Te  Te18  1  0.908925  0.658043  0.311707  1
  Te  Te19  1  0.813297  0.072766  0.977961  1
  Te  Te20  1  0.927123  0.186448  0.522043  1
  Te  Te21  1  0.088830  0.340799  0.810967  1
  Te  Te22  1  0.072175  0.814135  0.021189  1
  Te  Te23  1  0.186570  0.928569  0.478677  1
  Cl  Cl24  1  0.493914  0.505947  0.749937  1
  Cl  Cl25  1  0.450809  0.161740  0.694555  1
  Cl  Cl26  1  0.428743  0.921536  0.914933  1
  Cl  Cl27  1  0.506377  0.493333  0.250062  1
  Cl  Cl28  1  0.571515  0.078677  0.415269  1
  Cl  Cl29  1  0.548993  0.838171  0.194603  1
  Cl  Cl30  1  0.838425  0.549064  0.805386  1
  Cl  Cl31  1  0.922700  0.429656  0.086222  1
  Cl  Cl32  1  0.977495  0.022031  0.250073  1
  Cl  Cl33  1  0.079224  0.571862  0.583293  1
  Cl  Cl34  1  0.021972  0.977929  0.749848  1
  Cl  Cl35  1  0.160578  0.449155  0.305979  1
