# generated using pymatgen
data_SrTa4Cd3O14
_symmetry_space_group_name_H-M   'P 1'
_cell_length_a   7.44054303
_cell_length_b   7.44054310
_cell_length_c   7.52056575
_cell_angle_alpha   60.35136417
_cell_angle_beta   60.35136226
_cell_angle_gamma   60.00000257
_symmetry_Int_Tables_number   1
_chemical_formula_structural   SrTa4Cd3O14
_chemical_formula_sum   'Sr1 Ta4 Cd3 O14'
_cell_volume   295.95860094
_cell_formula_units_Z   1
loop_
 _symmetry_equiv_pos_site_id
 _symmetry_equiv_pos_as_xyz
  1  'x, y, z'
loop_
 _atom_site_type_symbol
 _atom_site_label
 _atom_site_symmetry_multiplicity
 _atom_site_fract_x
 _atom_site_fract_y
 _atom_site_fract_z
 _atom_site_occupancy
  Sr  Sr0  1  0.125000  0.125000  0.625000  1
  Ta  Ta1  1  0.625000  0.625000  0.625000  1
  Ta  Ta2  1  0.125000  0.625000  0.625000  1
  Ta  Ta3  1  0.625000  0.625000  0.125000  1
  Ta  Ta4  1  0.625000  0.125000  0.625000  1
  Cd  Cd5  1  0.125000  0.125000  0.125000  1
  Cd  Cd6  1  0.625000  0.125000  0.125000  1
  Cd  Cd7  1  0.125000  0.625000  0.125000  1
  O  O8  1  0.561574  0.561574  0.937122  1
  O  O9  1  0.308641  0.308641  0.688147  1
  O  O10  1  0.939730  0.561574  0.937122  1
  O  O11  1  0.941359  0.555428  0.561853  1
  O  O12  1  0.561574  0.939730  0.937122  1
  O  O13  1  0.555428  0.941359  0.561853  1
  O  O14  1  0.310270  0.688426  0.312878  1
  O  O15  1  0.694572  0.308641  0.688147  1
  O  O16  1  0.260889  0.260889  0.217334  1
  O  O17  1  0.989111  0.989111  0.032666  1
  O  O18  1  0.941359  0.941359  0.561853  1
  O  O19  1  0.688426  0.310270  0.312878  1
  O  O20  1  0.308641  0.694572  0.688147  1
  O  O21  1  0.688426  0.688426  0.312878  1
