# generated using pymatgen
data_Tm6Lu9Th(CdPt)4
_symmetry_space_group_name_H-M   'P 1'
_cell_length_a   9.53165720
_cell_length_b   9.53165819
_cell_length_c   9.53165674
_cell_angle_alpha   60.19342268
_cell_angle_beta   60.19341895
_cell_angle_gamma   60.19342512
_symmetry_Int_Tables_number   1
_chemical_formula_structural   Tm6Lu9Th(CdPt)4
_chemical_formula_sum   'Tm6 Lu9 Th1 Cd4 Pt4'
_cell_volume   615.01870087
_cell_formula_units_Z   1
loop_
 _symmetry_equiv_pos_site_id
 _symmetry_equiv_pos_as_xyz
  1  'x, y, z'
loop_
 _atom_site_type_symbol
 _atom_site_label
 _atom_site_symmetry_multiplicity
 _atom_site_fract_x
 _atom_site_fract_y
 _atom_site_fract_z
 _atom_site_occupancy
  Tm  Tm0  1  0.934443  0.566793  0.566793  1
  Tm  Tm1  1  0.563223  0.937126  0.937126  1
  Tm  Tm2  1  0.566793  0.934443  0.566793  1
  Tm  Tm3  1  0.937126  0.563223  0.937126  1
  Tm  Tm4  1  0.566793  0.566793  0.934443  1
  Tm  Tm5  1  0.937126  0.937126  0.563223  1
  Lu  Lu6  1  0.354749  0.354749  0.937387  1
  Lu  Lu7  1  0.354749  0.937387  0.354749  1
  Lu  Lu8  1  0.937387  0.354749  0.354749  1
  Lu  Lu9  1  0.813876  0.187761  0.187761  1
  Lu  Lu10  1  0.190031  0.811066  0.811066  1
  Lu  Lu11  1  0.187761  0.813876  0.187761  1
  Lu  Lu12  1  0.811066  0.190031  0.811066  1
  Lu  Lu13  1  0.187761  0.187761  0.813876  1
  Lu  Lu14  1  0.811066  0.811066  0.190031  1
  Th  Th15  1  0.350611  0.350611  0.350611  1
  Cd  Cd16  1  0.582295  0.582295  0.582295  1
  Cd  Cd17  1  0.583762  0.583762  0.251057  1
  Cd  Cd18  1  0.583762  0.251057  0.583762  1
  Cd  Cd19  1  0.251057  0.583762  0.583762  1
  Pt  Pt20  1  0.144358  0.144358  0.144358  1
  Pt  Pt21  1  0.139123  0.139123  0.571966  1
  Pt  Pt22  1  0.139123  0.571966  0.139123  1
  Pt  Pt23  1  0.571966  0.139123  0.139123  1
