# generated using pymatgen
data_ScGa3Rh4
_symmetry_space_group_name_H-M   'P 1'
_cell_length_a   4.28884100
_cell_length_b   5.34542269
_cell_length_c   10.69092539
_cell_angle_alpha   107.27811187
_cell_angle_beta   90.00000000
_cell_angle_gamma   90.00000000
_symmetry_Int_Tables_number   1
_chemical_formula_structural   ScGa3Rh4
_chemical_formula_sum   'Sc2 Ga6 Rh8'
_cell_volume   234.03645831
_cell_formula_units_Z   2
loop_
 _symmetry_equiv_pos_site_id
 _symmetry_equiv_pos_as_xyz
  1  'x, y, z'
loop_
 _atom_site_type_symbol
 _atom_site_label
 _atom_site_symmetry_multiplicity
 _atom_site_fract_x
 _atom_site_fract_y
 _atom_site_fract_z
 _atom_site_occupancy
  Sc  Sc0  1  0.000000  0.500210  0.249981  1
  Sc  Sc1  1  0.000000  0.499930  0.749940  1
  Ga  Ga2  1  0.500000  0.257727  0.371180  1
  Ga  Ga3  1  0.500000  0.257385  0.871213  1
  Ga  Ga4  1  0.500000  0.742705  0.128825  1
  Ga  Ga5  1  0.500000  0.742040  0.628872  1
  Ga  Ga6  1  0.000000  0.000138  0.999985  1
  Ga  Ga7  1  0.000000  0.999987  0.499935  1
  Rh  Rh8  1  0.500000  0.766026  0.382952  1
  Rh  Rh9  1  0.500000  0.765555  0.882811  1
  Rh  Rh10  1  0.500000  0.234357  0.117110  1
  Rh  Rh11  1  0.500000  0.234087  0.617131  1
  Rh  Rh12  1  0.000000  0.000386  0.250132  1
  Rh  Rh13  1  0.000000  0.999557  0.749902  1
  Rh  Rh14  1  0.000000  0.500027  0.000017  1
  Rh  Rh15  1  0.000000  0.499883  0.500011  1
