# generated using pymatgen
data_Hf12Al10Ir7
_symmetry_space_group_name_H-M   'P 1'
_cell_length_a   9.06135177
_cell_length_b   9.02872465
_cell_length_c   9.02872500
_cell_angle_alpha   59.76499639
_cell_angle_beta   59.88038312
_cell_angle_gamma   59.88038546
_symmetry_Int_Tables_number   1
_chemical_formula_structural   Hf12Al10Ir7
_chemical_formula_sum   'Hf12 Al10 Ir7'
_cell_volume   520.43773746
_cell_formula_units_Z   1
loop_
 _symmetry_equiv_pos_site_id
 _symmetry_equiv_pos_as_xyz
  1  'x, y, z'
loop_
 _atom_site_type_symbol
 _atom_site_label
 _atom_site_symmetry_multiplicity
 _atom_site_fract_x
 _atom_site_fract_y
 _atom_site_fract_z
 _atom_site_occupancy
  Hf  Hf0  1  0.876028  0.885048  0.362899  1
  Hf  Hf1  1  0.876028  0.362899  0.885048  1
  Hf  Hf2  1  0.367549  0.880922  0.880922  1
  Hf  Hf3  1  0.870607  0.880922  0.880922  1
  Hf  Hf4  1  0.123919  0.123933  0.628229  1
  Hf  Hf5  1  0.123919  0.628229  0.123933  1
  Hf  Hf6  1  0.678946  0.684573  0.319594  1
  Hf  Hf7  1  0.316887  0.684573  0.319594  1
  Hf  Hf8  1  0.684748  0.315252  0.315252  1
  Hf  Hf9  1  0.316887  0.319594  0.684573  1
  Hf  Hf10  1  0.678946  0.319594  0.684573  1
  Hf  Hf11  1  0.320578  0.679422  0.679422  1
  Al  Al12  1  0.635103  0.121535  0.121535  1
  Al  Al13  1  0.121826  0.121535  0.121535  1
  Al  Al14  1  0.657673  0.655345  0.029310  1
  Al  Al15  1  0.657673  0.029310  0.655345  1
  Al  Al16  1  0.024345  0.658108  0.658108  1
  Al  Al17  1  0.659435  0.658108  0.658108  1
  Al  Al18  1  0.341411  0.332730  0.984446  1
  Al  Al19  1  0.341411  0.984446  0.332730  1
  Al  Al20  1  0.973712  0.338586  0.338586  1
  Al  Al21  1  0.349116  0.338586  0.338586  1
  Ir  Ir22  1  0.004141  0.995859  0.995859  1
  Ir  Ir23  1  0.000535  0.998554  0.501996  1
  Ir  Ir24  1  0.498913  0.998554  0.501996  1
  Ir  Ir25  1  0.999579  0.500421  0.500421  1
  Ir  Ir26  1  0.498913  0.501996  0.998554  1
  Ir  Ir27  1  0.000535  0.501996  0.998554  1
  Ir  Ir28  1  0.500630  0.999370  0.999370  1
