# generated using pymatgen
data_Ho4Cd3Au10
_symmetry_space_group_name_H-M   'P 1'
_cell_length_a   8.55871630
_cell_length_b   8.55871794
_cell_length_c   10.21709900
_cell_angle_alpha   90.00000000
_cell_angle_beta   90.00000000
_cell_angle_gamma   108.06794002
_symmetry_Int_Tables_number   1
_chemical_formula_structural   Ho4Cd3Au10
_chemical_formula_sum   'Ho8 Cd6 Au20'
_cell_volume   711.51425976
_cell_formula_units_Z   2
loop_
 _symmetry_equiv_pos_site_id
 _symmetry_equiv_pos_as_xyz
  1  'x, y, z'
loop_
 _atom_site_type_symbol
 _atom_site_label
 _atom_site_symmetry_multiplicity
 _atom_site_fract_x
 _atom_site_fract_y
 _atom_site_fract_z
 _atom_site_occupancy
  Ho  Ho0  1  0.699230  0.300771  0.000000  1
  Ho  Ho1  1  0.199230  0.800771  0.500000  1
  Ho  Ho2  1  0.806123  0.806122  0.296861  1
  Ho  Ho3  1  0.306123  0.306122  0.203139  1
  Ho  Ho4  1  0.800770  0.199229  0.500000  1
  Ho  Ho5  1  0.300770  0.699229  0.000000  1
  Ho  Ho6  1  0.693877  0.693878  0.796861  1
  Ho  Ho7  1  0.193877  0.193878  0.703139  1
  Cd  Cd8  1  0.520705  0.020705  0.250002  1
  Cd  Cd9  1  0.979295  0.479295  0.750002  1
  Cd  Cd10  1  0.000000  0.000000  0.000000  1
  Cd  Cd11  1  0.020705  0.520705  0.249998  1
  Cd  Cd12  1  0.479295  0.979295  0.749998  1
  Cd  Cd13  1  0.500000  0.500000  0.500000  1
  Au  Au14  1  0.147401  0.431054  0.492002  1
  Au  Au15  1  0.898964  0.898964  0.594139  1
  Au  Au16  1  0.568947  0.852599  0.507997  1
  Au  Au17  1  0.881132  0.163094  0.212413  1
  Au  Au18  1  0.381132  0.663094  0.287587  1
  Au  Au19  1  0.663095  0.381132  0.287586  1
  Au  Au20  1  0.398964  0.398964  0.905861  1
  Au  Au21  1  0.931053  0.647401  0.007997  1
  Au  Au22  1  0.336905  0.618868  0.712414  1
  Au  Au23  1  0.352599  0.068946  0.992002  1
  Au  Au24  1  0.601036  0.601036  0.094139  1
  Au  Au25  1  0.647401  0.931054  0.007998  1
  Au  Au26  1  0.101036  0.101036  0.405861  1
  Au  Au27  1  0.618868  0.336906  0.712413  1
  Au  Au28  1  0.118868  0.836906  0.787587  1
  Au  Au29  1  0.068947  0.352599  0.992003  1
  Au  Au30  1  0.852599  0.568946  0.507998  1
  Au  Au31  1  0.163095  0.881132  0.212414  1
  Au  Au32  1  0.431053  0.147401  0.492003  1
  Au  Au33  1  0.836905  0.118868  0.787586  1
