# generated using pymatgen
data_DyHo2Fe8Os
_symmetry_space_group_name_H-M   'P 1'
_cell_length_a   5.10645903
_cell_length_b   5.10645800
_cell_length_c   8.72398500
_cell_angle_alpha   72.98226436
_cell_angle_beta   72.98226751
_cell_angle_gamma   60.00000300
_symmetry_Int_Tables_number   1
_chemical_formula_structural   DyHo2Fe8Os
_chemical_formula_sum   'Dy1 Ho2 Fe8 Os1'
_cell_volume   185.41786613
_cell_formula_units_Z   1
loop_
 _symmetry_equiv_pos_site_id
 _symmetry_equiv_pos_as_xyz
  1  'x, y, z'
loop_
 _atom_site_type_symbol
 _atom_site_label
 _atom_site_symmetry_multiplicity
 _atom_site_fract_x
 _atom_site_fract_y
 _atom_site_fract_z
 _atom_site_occupancy
  Dy  Dy0  1  0.000000  0.000000  0.000000  1
  Ho  Ho1  1  0.141849  0.141849  0.574454  1
  Ho  Ho2  1  0.858151  0.858151  0.425546  1
  Fe  Fe3  1  0.077965  0.581737  0.758559  1
  Fe  Fe4  1  0.581737  0.581737  0.758559  1
  Fe  Fe5  1  0.581737  0.077965  0.758559  1
  Fe  Fe6  1  0.922035  0.418263  0.241441  1
  Fe  Fe7  1  0.418263  0.418263  0.241441  1
  Fe  Fe8  1  0.418263  0.922035  0.241441  1
  Fe  Fe9  1  0.332835  0.332835  0.001494  1
  Fe  Fe10  1  0.667164  0.667164  0.998506  1
  Os  Os11  1  0.500000  0.500000  0.500000  1
