# generated using pymatgen
data_Ac2SiN3
_symmetry_space_group_name_H-M   'P 1'
_cell_length_a   6.34879932
_cell_length_b   6.34879960
_cell_length_c   12.38333700
_cell_angle_alpha   90.00000000
_cell_angle_beta   90.00000000
_cell_angle_gamma   127.62012159
_symmetry_Int_Tables_number   1
_chemical_formula_structural   Ac2SiN3
_chemical_formula_sum   'Ac8 Si4 N12'
_cell_volume   395.35514169
_cell_formula_units_Z   4
loop_
 _symmetry_equiv_pos_site_id
 _symmetry_equiv_pos_as_xyz
  1  'x, y, z'
loop_
 _atom_site_type_symbol
 _atom_site_label
 _atom_site_symmetry_multiplicity
 _atom_site_fract_x
 _atom_site_fract_y
 _atom_site_fract_z
 _atom_site_occupancy
  Ac  Ac0  1  0.058615  0.941385  0.859123  1
  Ac  Ac1  1  0.941385  0.058615  0.140877  1
  Ac  Ac2  1  0.441385  0.558615  0.359123  1
  Ac  Ac3  1  0.558615  0.441385  0.640877  1
  Ac  Ac4  1  0.640621  0.359379  0.071849  1
  Ac  Ac5  1  0.359379  0.640621  0.928151  1
  Ac  Ac6  1  0.859379  0.140621  0.571849  1
  Ac  Ac7  1  0.140621  0.859379  0.428151  1
  Si  Si8  1  0.741026  0.258974  0.830898  1
  Si  Si9  1  0.258974  0.741026  0.169102  1
  Si  Si10  1  0.758974  0.241026  0.330898  1
  Si  Si11  1  0.241026  0.758974  0.669102  1
  N  N12  1  0.586620  0.413380  0.859382  1
  N  N13  1  0.413380  0.586620  0.140618  1
  N  N14  1  0.913380  0.086620  0.359382  1
  N  N15  1  0.086620  0.913380  0.640618  1
  N  N16  1  0.521323  0.978677  0.750000  1
  N  N17  1  0.978677  0.521323  0.250000  1
  N  N18  1  0.478677  0.021323  0.250000  1
  N  N19  1  0.021323  0.478677  0.750000  1
  N  N20  1  0.836835  0.163165  0.943674  1
  N  N21  1  0.163165  0.836835  0.056326  1
  N  N22  1  0.663165  0.336835  0.443674  1
  N  N23  1  0.336835  0.663165  0.556326  1
