# generated using pymatgen
data_Lu6TiAl15CuOs6
_symmetry_space_group_name_H-M   'P 1'
_cell_length_a   8.89698084
_cell_length_b   8.89698064
_cell_length_c   8.88984440
_cell_angle_alpha   59.97344085
_cell_angle_beta   59.97343817
_cell_angle_gamma   60.00000339
_symmetry_Int_Tables_number   1
_chemical_formula_structural   Lu6TiAl15CuOs6
_chemical_formula_sum   'Lu6 Ti1 Al15 Cu1 Os6'
_cell_volume   497.38193165
_cell_formula_units_Z   1
loop_
 _symmetry_equiv_pos_site_id
 _symmetry_equiv_pos_as_xyz
  1  'x, y, z'
loop_
 _atom_site_type_symbol
 _atom_site_label
 _atom_site_symmetry_multiplicity
 _atom_site_fract_x
 _atom_site_fract_y
 _atom_site_fract_z
 _atom_site_occupancy
  Lu  Lu0  1  0.707177  0.707177  0.289385  1
  Lu  Lu1  1  0.296262  0.707177  0.289385  1
  Lu  Lu2  1  0.707177  0.296262  0.289385  1
  Lu  Lu3  1  0.291533  0.291533  0.709233  1
  Lu  Lu4  1  0.707701  0.291533  0.709233  1
  Lu  Lu5  1  0.291533  0.707701  0.709233  1
  Ti  Ti6  1  0.874988  0.874988  0.375035  1
  Al  Al7  1  0.878970  0.364273  0.877786  1
  Al  Al8  1  0.364273  0.878970  0.877786  1
  Al  Al9  1  0.878970  0.878970  0.877786  1
  Al  Al10  1  0.121675  0.121675  0.634976  1
  Al  Al11  1  0.119499  0.638084  0.122920  1
  Al  Al12  1  0.638084  0.119499  0.122920  1
  Al  Al13  1  0.119499  0.119499  0.122920  1
  Al  Al14  1  0.667973  0.667973  0.996081  1
  Al  Al15  1  0.665782  0.000445  0.667994  1
  Al  Al16  1  0.000445  0.665782  0.667994  1
  Al  Al17  1  0.665782  0.665782  0.667994  1
  Al  Al18  1  0.332351  0.332351  0.002946  1
  Al  Al19  1  0.333055  0.001285  0.332604  1
  Al  Al20  1  0.001285  0.333055  0.332604  1
  Al  Al21  1  0.333055  0.333055  0.332604  1
  Cu  Cu22  1  0.999532  0.999532  0.001406  1
  Os  Os23  1  0.999861  0.999861  0.498493  1
  Os  Os24  1  0.501787  0.999861  0.498493  1
  Os  Os25  1  0.999861  0.501787  0.498493  1
  Os  Os26  1  0.500622  0.500622  0.998105  1
  Os  Os27  1  0.000652  0.500622  0.998105  1
  Os  Os28  1  0.500622  0.000652  0.998105  1
