# generated using pymatgen
data_TbY15Cd4Ir3Ru
_symmetry_space_group_name_H-M   'P 1'
_cell_length_a   9.70548193
_cell_length_b   9.70548063
_cell_length_c   9.70548110
_cell_angle_alpha   59.65727982
_cell_angle_beta   59.65728189
_cell_angle_gamma   59.65728384
_symmetry_Int_Tables_number   1
_chemical_formula_structural   TbY15Cd4Ir3Ru
_chemical_formula_sum   'Tb1 Y15 Cd4 Ir3 Ru1'
_cell_volume   641.41808450
_cell_formula_units_Z   1
loop_
 _symmetry_equiv_pos_site_id
 _symmetry_equiv_pos_as_xyz
  1  'x, y, z'
loop_
 _atom_site_type_symbol
 _atom_site_label
 _atom_site_symmetry_multiplicity
 _atom_site_fract_x
 _atom_site_fract_y
 _atom_site_fract_z
 _atom_site_occupancy
  Tb  Tb0  1  0.349193  0.349193  0.349193  1
  Y  Y1  1  0.348609  0.348609  0.956091  1
  Y  Y2  1  0.348609  0.956091  0.348609  1
  Y  Y3  1  0.956091  0.348609  0.348609  1
  Y  Y4  1  0.811664  0.189116  0.189116  1
  Y  Y5  1  0.187997  0.809582  0.809582  1
  Y  Y6  1  0.189116  0.811664  0.189116  1
  Y  Y7  1  0.809582  0.187997  0.809582  1
  Y  Y8  1  0.189116  0.189116  0.811664  1
  Y  Y9  1  0.809582  0.809582  0.187997  1
  Y  Y10  1  0.939042  0.561197  0.561197  1
  Y  Y11  1  0.559952  0.937763  0.937763  1
  Y  Y12  1  0.561197  0.939042  0.561197  1
  Y  Y13  1  0.937763  0.559952  0.937763  1
  Y  Y14  1  0.561197  0.561197  0.939042  1
  Y  Y15  1  0.937763  0.937763  0.559952  1
  Cd  Cd16  1  0.579597  0.579597  0.579597  1
  Cd  Cd17  1  0.580751  0.580751  0.257199  1
  Cd  Cd18  1  0.580751  0.257199  0.580751  1
  Cd  Cd19  1  0.257199  0.580751  0.580751  1
  Ir  Ir20  1  0.143756  0.143756  0.576623  1
  Ir  Ir21  1  0.143756  0.576623  0.143756  1
  Ir  Ir22  1  0.576623  0.143756  0.143756  1
  Ru  Ru23  1  0.141098  0.141098  0.141098  1
