# generated using pymatgen
data_EuPt3(SeO3)8
_symmetry_space_group_name_H-M   'P 1'
_cell_length_a   8.24468351
_cell_length_b   8.24468246
_cell_length_c   8.24468200
_cell_angle_alpha   89.30387315
_cell_angle_beta   90.69612676
_cell_angle_gamma   90.69612461
_symmetry_Int_Tables_number   1
_chemical_formula_structural   EuPt3(SeO3)8
_chemical_formula_sum   'Eu1 Pt3 Se8 O24'
_cell_volume   560.30749532
_cell_formula_units_Z   1
loop_
 _symmetry_equiv_pos_site_id
 _symmetry_equiv_pos_as_xyz
  1  'x, y, z'
loop_
 _atom_site_type_symbol
 _atom_site_label
 _atom_site_symmetry_multiplicity
 _atom_site_fract_x
 _atom_site_fract_y
 _atom_site_fract_z
 _atom_site_occupancy
  Eu  Eu0  1  0.500000  0.500000  0.000000  1
  Pt  Pt1  1  0.500000  0.000000  0.500000  1
  Pt  Pt2  1  0.000000  0.000000  0.000000  1
  Pt  Pt3  1  0.000000  0.500000  0.500000  1
  Se  Se4  1  0.823025  0.176975  0.676975  1
  Se  Se5  1  0.176975  0.823025  0.323025  1
  Se  Se6  1  0.684891  0.678235  0.621637  1
  Se  Se7  1  0.121637  0.684891  0.821765  1
  Se  Se8  1  0.321765  0.121637  0.815109  1
  Se  Se9  1  0.878363  0.315109  0.178235  1
  Se  Se10  1  0.678235  0.878363  0.184891  1
  Se  Se11  1  0.315109  0.321765  0.378363  1
  O  O12  1  0.240907  0.463521  0.519791  1
  O  O13  1  0.019791  0.240907  0.036479  1
  O  O14  1  0.036747  0.740546  0.461290  1
  O  O15  1  0.444088  0.232011  0.935778  1
  O  O16  1  0.259454  0.961290  0.463253  1
  O  O17  1  0.564222  0.555912  0.732011  1
  O  O18  1  0.961290  0.036747  0.759454  1
  O  O19  1  0.555912  0.767989  0.064222  1
  O  O20  1  0.536479  0.019791  0.259093  1
  O  O21  1  0.463521  0.980209  0.740907  1
  O  O22  1  0.760354  0.021647  0.041330  1
  O  O23  1  0.232011  0.564222  0.944088  1
  O  O24  1  0.978353  0.541330  0.739646  1
  O  O25  1  0.038710  0.963253  0.240546  1
  O  O26  1  0.239646  0.978353  0.958670  1
  O  O27  1  0.435778  0.444088  0.267989  1
  O  O28  1  0.759093  0.536479  0.480209  1
  O  O29  1  0.021647  0.458670  0.260354  1
  O  O30  1  0.980209  0.759093  0.963521  1
  O  O31  1  0.458670  0.239646  0.521647  1
  O  O32  1  0.541330  0.760354  0.478353  1
  O  O33  1  0.963253  0.259454  0.538710  1
  O  O34  1  0.740546  0.038710  0.536747  1
  O  O35  1  0.767989  0.435778  0.055912  1
