# generated using pymatgen
data_Y20Cd3CoNiPdAu2
_symmetry_space_group_name_H-M   'P 1'
_cell_length_a   9.63804600
_cell_length_b   9.63807192
_cell_length_c   9.59677300
_cell_angle_alpha   90.00000000
_cell_angle_beta   90.00000000
_cell_angle_gamma   119.99712413
_symmetry_Int_Tables_number   1
_chemical_formula_structural   Y20Cd3CoNiPdAu2
_chemical_formula_sum   'Y20 Cd3 Co1 Ni1 Pd1 Au2'
_cell_volume   772.05385562
_cell_formula_units_Z   1
loop_
 _symmetry_equiv_pos_site_id
 _symmetry_equiv_pos_as_xyz
  1  'x, y, z'
loop_
 _atom_site_type_symbol
 _atom_site_label
 _atom_site_symmetry_multiplicity
 _atom_site_fract_x
 _atom_site_fract_y
 _atom_site_fract_z
 _atom_site_occupancy
  Y  Y0  1  0.998643  0.001370  0.455580  1
  Y  Y1  1  0.998643  0.001370  0.044420  1
  Y  Y2  1  0.541685  0.458291  0.250000  1
  Y  Y3  1  0.545176  0.083368  0.250000  1
  Y  Y4  1  0.916622  0.454848  0.250000  1
  Y  Y5  1  0.456439  0.543533  0.750000  1
  Y  Y6  1  0.456314  0.913570  0.750000  1
  Y  Y7  1  0.086427  0.543705  0.750000  1
  Y  Y8  1  0.210404  0.789608  0.436028  1
  Y  Y9  1  0.211459  0.422945  0.435979  1
  Y  Y10  1  0.577055  0.788521  0.435978  1
  Y  Y11  1  0.791451  0.208552  0.560534  1
  Y  Y12  1  0.791402  0.582190  0.560492  1
  Y  Y13  1  0.417803  0.208581  0.560488  1
  Y  Y14  1  0.791451  0.208552  0.939466  1
  Y  Y15  1  0.791402  0.582190  0.939508  1
  Y  Y16  1  0.417803  0.208581  0.939512  1
  Y  Y17  1  0.210404  0.789608  0.063972  1
  Y  Y18  1  0.211459  0.422945  0.064021  1
  Y  Y19  1  0.577055  0.788521  0.064022  1
  Cd  Cd20  1  0.109557  0.890455  0.750000  1
  Cd  Cd21  1  0.109632  0.218454  0.750000  1
  Cd  Cd22  1  0.781541  0.890345  0.750000  1
  Co  Co23  1  0.333001  0.667002  0.250000  1
  Ni  Ni24  1  0.667224  0.332877  0.750000  1
  Pd  Pd25  1  0.868852  0.131184  0.250000  1
  Au  Au26  1  0.869125  0.738023  0.250000  1
  Au  Au27  1  0.261972  0.130814  0.250000  1
