# generated using pymatgen
data_NaYb3(SnPd)4
_symmetry_space_group_name_H-M   'P 1'
_cell_length_a   4.50275900
_cell_length_b   7.28199954
_cell_length_c   8.21348889
_cell_angle_alpha   90.76148316
_cell_angle_beta   90.00000000
_cell_angle_gamma   90.00000000
_symmetry_Int_Tables_number   1
_chemical_formula_structural   NaYb3(SnPd)4
_chemical_formula_sum   'Na1 Yb3 Sn4 Pd4'
_cell_volume   269.28903342
_cell_formula_units_Z   1
loop_
 _symmetry_equiv_pos_site_id
 _symmetry_equiv_pos_as_xyz
  1  'x, y, z'
loop_
 _atom_site_type_symbol
 _atom_site_label
 _atom_site_symmetry_multiplicity
 _atom_site_fract_x
 _atom_site_fract_y
 _atom_site_fract_z
 _atom_site_occupancy
  Na  Na0  1  0.250000  0.525131  0.180025  1
  Yb  Yb1  1  0.750000  0.470998  0.823765  1
  Yb  Yb2  1  0.250000  0.030334  0.319321  1
  Yb  Yb3  1  0.750000  0.971119  0.680501  1
  Sn  Sn4  1  0.250000  0.154244  0.935504  1
  Sn  Sn5  1  0.750000  0.350324  0.433202  1
  Sn  Sn6  1  0.250000  0.651620  0.562346  1
  Sn  Sn7  1  0.750000  0.843421  0.065847  1
  Pd  Pd8  1  0.750000  0.219698  0.120623  1
  Pd  Pd9  1  0.250000  0.274616  0.625612  1
  Pd  Pd10  1  0.750000  0.730103  0.379894  1
  Pd  Pd11  1  0.250000  0.778392  0.873360  1
