# generated using pymatgen
data_Li4DyPaSe6
_symmetry_space_group_name_H-M   'P 1'
_cell_length_a   6.99798288
_cell_length_b   6.99797928
_cell_length_c   6.82845200
_cell_angle_alpha   99.94211340
_cell_angle_beta   99.94220798
_cell_angle_gamma   119.89190653
_symmetry_Int_Tables_number   1
_chemical_formula_structural   Li4DyPaSe6
_chemical_formula_sum   'Li4 Dy1 Pa1 Se6'
_cell_volume   272.14202501
_cell_formula_units_Z   1
loop_
 _symmetry_equiv_pos_site_id
 _symmetry_equiv_pos_as_xyz
  1  'x, y, z'
loop_
 _atom_site_type_symbol
 _atom_site_label
 _atom_site_symmetry_multiplicity
 _atom_site_fract_x
 _atom_site_fract_y
 _atom_site_fract_z
 _atom_site_occupancy
  Li  Li0  1  0.499865  0.500139  0.000000  1
  Li  Li1  1  0.004100  0.995901  0.499999  1
  Li  Li2  1  0.663929  0.336072  0.500001  1
  Li  Li3  1  0.335357  0.664645  0.500000  1
  Dy  Dy4  1  0.833053  0.166949  0.000001  1
  Pa  Pa5  1  0.166705  0.833295  0.000000  1
  Se  Se6  1  0.924400  0.590011  0.247004  1
  Se  Se7  1  0.576279  0.919888  0.251418  1
  Se  Se8  1  0.246806  0.240587  0.253686  1
  Se  Se9  1  0.759415  0.753196  0.746315  1
  Se  Se10  1  0.080113  0.423723  0.748583  1
  Se  Se11  1  0.409991  0.075601  0.752995  1
