# generated using pymatgen
data_Dy16HoTm3Pb16
_symmetry_space_group_name_H-M   'P 1'
_cell_length_a   8.20218300
_cell_length_b   8.27498238
_cell_length_c   15.66914000
_cell_angle_alpha   90.00000000
_cell_angle_beta   90.00000000
_cell_angle_gamma   90.01728917
_symmetry_Int_Tables_number   1
_chemical_formula_structural   Dy16HoTm3Pb16
_chemical_formula_sum   'Dy16 Ho1 Tm3 Pb16'
_cell_volume   1063.51023376
_cell_formula_units_Z   1
loop_
 _symmetry_equiv_pos_site_id
 _symmetry_equiv_pos_as_xyz
  1  'x, y, z'
loop_
 _atom_site_type_symbol
 _atom_site_label
 _atom_site_symmetry_multiplicity
 _atom_site_fract_x
 _atom_site_fract_y
 _atom_site_fract_z
 _atom_site_occupancy
  Dy  Dy0  1  0.377448  0.841481  0.879106  1
  Dy  Dy1  1  0.877045  0.658790  0.620896  1
  Dy  Dy2  1  0.622730  0.158607  0.378977  1
  Dy  Dy3  1  0.122706  0.341398  0.121129  1
  Dy  Dy4  1  0.622730  0.158607  0.121023  1
  Dy  Dy5  1  0.122706  0.341398  0.378871  1
  Dy  Dy6  1  0.377448  0.841481  0.620894  1
  Dy  Dy7  1  0.877045  0.658790  0.879104  1
  Dy  Dy8  1  0.536653  0.323599  0.900091  1
  Dy  Dy9  1  0.036429  0.176094  0.599922  1
  Dy  Dy10  1  0.463449  0.676276  0.399928  1
  Dy  Dy11  1  0.963455  0.823723  0.100004  1
  Dy  Dy12  1  0.463449  0.676276  0.100072  1
  Dy  Dy13  1  0.963455  0.823723  0.399996  1
  Dy  Dy14  1  0.536653  0.323599  0.599909  1
  Dy  Dy15  1  0.036429  0.176094  0.900078  1
  Ho  Ho16  1  0.208808  0.504072  0.750000  1
  Tm  Tm17  1  0.708964  0.995712  0.750000  1
  Tm  Tm18  1  0.791080  0.495752  0.250000  1
  Tm  Tm19  1  0.291062  0.004202  0.250000  1
  Pb  Pb20  1  0.280752  0.032673  0.043321  1
  Pb  Pb21  1  0.780841  0.467426  0.456697  1
  Pb  Pb22  1  0.719201  0.967381  0.543131  1
  Pb  Pb23  1  0.219154  0.532740  0.957130  1
  Pb  Pb24  1  0.719201  0.967381  0.956869  1
  Pb  Pb25  1  0.219154  0.532740  0.542870  1
  Pb  Pb26  1  0.280752  0.032673  0.456679  1
  Pb  Pb27  1  0.780841  0.467426  0.043303  1
  Pb  Pb28  1  0.572355  0.626320  0.750000  1
  Pb  Pb29  1  0.071619  0.874285  0.750000  1
  Pb  Pb30  1  0.428382  0.373819  0.250000  1
  Pb  Pb31  1  0.928315  0.126195  0.250000  1
  Pb  Pb32  1  0.348673  0.153827  0.750000  1
  Pb  Pb33  1  0.848156  0.345261  0.750000  1
  Pb  Pb34  1  0.651452  0.845479  0.250000  1
  Pb  Pb35  1  0.151410  0.654698  0.250000  1
