# generated using pymatgen
data_U4I17Cl3
_symmetry_space_group_name_H-M   'P 1'
_cell_length_a   12.76394528
_cell_length_b   9.76206450
_cell_length_c   14.10146817
_cell_angle_alpha   46.20753690
_cell_angle_beta   89.93802314
_cell_angle_gamma   90.37362445
_symmetry_Int_Tables_number   1
_chemical_formula_structural   U4I17Cl3
_chemical_formula_sum   'U4 I17 Cl3'
_cell_volume   1268.28362232
_cell_formula_units_Z   1
loop_
 _symmetry_equiv_pos_site_id
 _symmetry_equiv_pos_as_xyz
  1  'x, y, z'
loop_
 _atom_site_type_symbol
 _atom_site_label
 _atom_site_symmetry_multiplicity
 _atom_site_fract_x
 _atom_site_fract_y
 _atom_site_fract_z
 _atom_site_occupancy
  U  U0  1  0.627743  0.199590  0.346472  1
  U  U1  1  0.129071  0.798015  0.155440  1
  U  U2  1  0.366618  0.797352  0.649445  1
  U  U3  1  0.870601  0.206059  0.847861  1
  I  I4  1  0.886144  0.822600  0.137342  1
  I  I5  1  0.620814  0.554856  0.077922  1
  I  I6  1  0.353508  0.819743  0.137973  1
  I  I7  1  0.609699  0.816977  0.637038  1
  I  I8  1  0.119984  0.611459  0.063250  1
  I  I9  1  0.371883  0.004026  0.726903  1
  I  I10  1  0.620471  0.390663  0.435419  1
  I  I11  1  0.622599  0.993934  0.268441  1
  I  I12  1  0.881637  0.562854  0.578932  1
  I  I13  1  0.645683  0.184753  0.862159  1
  I  I14  1  0.112891  0.182511  0.865442  1
  I  I15  1  0.379027  0.443047  0.918938  1
  I  I16  1  0.851366  0.175915  0.366433  1
  I  I17  1  0.123869  0.001958  0.234738  1
  I  I18  1  0.120094  0.440414  0.423539  1
  I  I19  1  0.876523  0.999765  0.769799  1
  I  I20  1  0.384820  0.179993  0.359776  1
  Cl  Cl21  1  0.878059  0.364734  0.928385  1
  Cl  Cl22  1  0.373511  0.634545  0.571991  1
  Cl  Cl23  1  0.173386  0.814238  0.636361  1
