# generated using pymatgen
data_Y3Cd3Sn2Pd
_symmetry_space_group_name_H-M   'P 1'
_cell_length_a   7.48274900
_cell_length_b   7.48274776
_cell_length_c   4.50404100
_cell_angle_alpha   90.00000000
_cell_angle_beta   90.00000000
_cell_angle_gamma   120.00000992
_symmetry_Int_Tables_number   1
_chemical_formula_structural   Y3Cd3Sn2Pd
_chemical_formula_sum   'Y3 Cd3 Sn2 Pd1'
_cell_volume   218.40129366
_cell_formula_units_Z   1
loop_
 _symmetry_equiv_pos_site_id
 _symmetry_equiv_pos_as_xyz
  1  'x, y, z'
loop_
 _atom_site_type_symbol
 _atom_site_label
 _atom_site_symmetry_multiplicity
 _atom_site_fract_x
 _atom_site_fract_y
 _atom_site_fract_z
 _atom_site_occupancy
  Y  Y0  1  0.401857  0.401857  0.500000  1
  Y  Y1  1  0.000000  0.598143  0.500000  1
  Y  Y2  1  0.598143  0.000000  0.500000  1
  Cd  Cd3  1  0.763524  0.763524  0.000000  1
  Cd  Cd4  1  0.236476  0.000000  0.000000  1
  Cd  Cd5  1  0.000000  0.236476  0.000000  1
  Sn  Sn6  1  0.666667  0.333333  0.000000  1
  Sn  Sn7  1  0.333333  0.666667  0.000000  1
  Pd  Pd8  1  0.000000  0.000000  0.500000  1
