# generated using pymatgen
data_Pr8SnPd24
_symmetry_space_group_name_H-M   'P 1'
_cell_length_a   8.57893100
_cell_length_b   8.57893100
_cell_length_c   8.57893100
_cell_angle_alpha   90.00000000
_cell_angle_beta   90.00000000
_cell_angle_gamma   90.00000000
_symmetry_Int_Tables_number   1
_chemical_formula_structural   Pr8SnPd24
_chemical_formula_sum   'Pr8 Sn1 Pd24'
_cell_volume   631.39265362
_cell_formula_units_Z   1
loop_
 _symmetry_equiv_pos_site_id
 _symmetry_equiv_pos_as_xyz
  1  'x, y, z'
loop_
 _atom_site_type_symbol
 _atom_site_label
 _atom_site_symmetry_multiplicity
 _atom_site_fract_x
 _atom_site_fract_y
 _atom_site_fract_z
 _atom_site_occupancy
  Pr  Pr0  1  0.252349  0.252349  0.252349  1
  Pr  Pr1  1  0.747651  0.747651  0.747651  1
  Pr  Pr2  1  0.747651  0.747651  0.252349  1
  Pr  Pr3  1  0.747651  0.252349  0.747651  1
  Pr  Pr4  1  0.252349  0.252349  0.747651  1
  Pr  Pr5  1  0.252349  0.747651  0.252349  1
  Pr  Pr6  1  0.252349  0.747651  0.747651  1
  Pr  Pr7  1  0.747651  0.252349  0.252349  1
  Sn  Sn8  1  0.000000  0.000000  0.000000  1
  Pd  Pd9  1  0.267094  0.500000  0.000000  1
  Pd  Pd10  1  0.732906  0.500000  0.000000  1
  Pd  Pd11  1  0.000000  0.267094  0.500000  1
  Pd  Pd12  1  0.500000  0.267094  0.000000  1
  Pd  Pd13  1  0.000000  0.732906  0.500000  1
  Pd  Pd14  1  0.500000  0.732906  0.000000  1
  Pd  Pd15  1  0.500000  0.000000  0.267094  1
  Pd  Pd16  1  0.267094  0.000000  0.500000  1
  Pd  Pd17  1  0.500000  0.000000  0.732906  1
  Pd  Pd18  1  0.732906  0.000000  0.500000  1
  Pd  Pd19  1  0.000000  0.500000  0.267094  1
  Pd  Pd20  1  0.000000  0.500000  0.732906  1
  Pd  Pd21  1  0.255307  0.500000  0.500000  1
  Pd  Pd22  1  0.744693  0.500000  0.500000  1
  Pd  Pd23  1  0.500000  0.255307  0.500000  1
  Pd  Pd24  1  0.500000  0.744693  0.500000  1
  Pd  Pd25  1  0.500000  0.500000  0.255307  1
  Pd  Pd26  1  0.500000  0.500000  0.744693  1
  Pd  Pd27  1  0.313162  0.000000  0.000000  1
  Pd  Pd28  1  0.686838  0.000000  0.000000  1
  Pd  Pd29  1  0.000000  0.313162  0.000000  1
  Pd  Pd30  1  0.000000  0.686838  0.000000  1
  Pd  Pd31  1  0.000000  0.000000  0.313162  1
  Pd  Pd32  1  0.000000  0.000000  0.686838  1
