# generated using pymatgen
data_Pa8Si13Rh3
_symmetry_space_group_name_H-M   'P 1'
_cell_length_a   8.15815200
_cell_length_b   8.15815210
_cell_length_c   7.86044200
_cell_angle_alpha   90.00000000
_cell_angle_beta   90.00000000
_cell_angle_gamma   119.99999958
_symmetry_Int_Tables_number   1
_chemical_formula_structural   Pa8Si13Rh3
_chemical_formula_sum   'Pa8 Si13 Rh3'
_cell_volume   453.06570776
_cell_formula_units_Z   1
loop_
 _symmetry_equiv_pos_site_id
 _symmetry_equiv_pos_as_xyz
  1  'x, y, z'
loop_
 _atom_site_type_symbol
 _atom_site_label
 _atom_site_symmetry_multiplicity
 _atom_site_fract_x
 _atom_site_fract_y
 _atom_site_fract_z
 _atom_site_occupancy
  Pa  Pa0  1  0.000000  0.000000  0.750882  1
  Pa  Pa1  1  0.000000  0.000000  0.249193  1
  Pa  Pa2  1  0.501327  0.498673  0.754400  1
  Pa  Pa3  1  0.501327  0.002654  0.754400  1
  Pa  Pa4  1  0.997346  0.498673  0.754400  1
  Pa  Pa5  1  0.502045  0.497955  0.245497  1
  Pa  Pa6  1  0.995910  0.497955  0.245497  1
  Pa  Pa7  1  0.502045  0.004090  0.245497  1
  Si  Si8  1  0.666667  0.333333  0.999044  1
  Si  Si9  1  0.831868  0.168132  0.999899  1
  Si  Si10  1  0.831868  0.663737  0.999899  1
  Si  Si11  1  0.336263  0.168132  0.999899  1
  Si  Si12  1  0.834814  0.165186  0.500377  1
  Si  Si13  1  0.834814  0.669630  0.500377  1
  Si  Si14  1  0.330370  0.165186  0.500377  1
  Si  Si15  1  0.165124  0.834876  0.499623  1
  Si  Si16  1  0.669751  0.834876  0.499623  1
  Si  Si17  1  0.165124  0.330249  0.499623  1
  Si  Si18  1  0.164640  0.835360  0.000117  1
  Si  Si19  1  0.670722  0.835360  0.000117  1
  Si  Si20  1  0.164640  0.329278  0.000117  1
  Rh  Rh21  1  0.666667  0.333333  0.500257  1
  Rh  Rh22  1  0.333333  0.666667  0.498984  1
  Rh  Rh23  1  0.333333  0.666667  0.001905  1
