# generated using pymatgen
data_Tb3Pr17Si15Ir
_symmetry_space_group_name_H-M   'P 1'
_cell_length_a   7.89426190
_cell_length_b   7.87260464
_cell_length_c   15.27837207
_cell_angle_alpha   90.15306217
_cell_angle_beta   89.78412627
_cell_angle_gamma   90.22602956
_symmetry_Int_Tables_number   1
_chemical_formula_structural   Tb3Pr17Si15Ir
_chemical_formula_sum   'Tb3 Pr17 Si15 Ir1'
_cell_volume   949.50894449
_cell_formula_units_Z   1
loop_
 _symmetry_equiv_pos_site_id
 _symmetry_equiv_pos_as_xyz
  1  'x, y, z'
loop_
 _atom_site_type_symbol
 _atom_site_label
 _atom_site_symmetry_multiplicity
 _atom_site_fract_x
 _atom_site_fract_y
 _atom_site_fract_z
 _atom_site_occupancy
  Tb  Tb0  1  0.307487  0.308401  0.999594  1
  Tb  Tb1  1  0.189089  0.809259  0.249862  1
  Tb  Tb2  1  0.822051  0.188942  0.750059  1
  Pr  Pr3  1  0.695841  0.687440  0.500748  1
  Pr  Pr4  1  0.375184  0.010193  0.447470  1
  Pr  Pr5  1  0.487982  0.878015  0.699372  1
  Pr  Pr6  1  0.511972  0.123905  0.196661  1
  Pr  Pr7  1  0.876630  0.486505  0.299872  1
  Pr  Pr8  1  0.124882  0.505995  0.800236  1
  Pr  Pr9  1  0.625556  0.988672  0.947826  1
  Pr  Pr10  1  0.004828  0.373895  0.552880  1
  Pr  Pr11  1  0.988024  0.624568  0.052216  1
  Pr  Pr12  1  0.134595  0.985033  0.874157  1
  Pr  Pr13  1  0.519687  0.631389  0.125305  1
  Pr  Pr14  1  0.470289  0.362976  0.630617  1
  Pr  Pr15  1  0.627607  0.517493  0.873900  1
  Pr  Pr16  1  0.372969  0.480397  0.372539  1
  Pr  Pr17  1  0.874353  0.022827  0.377073  1
  Pr  Pr18  1  0.979944  0.125953  0.123023  1
  Pr  Pr19  1  0.026938  0.881897  0.624978  1
  Si  Si20  1  0.331100  0.691560  0.953257  1
  Si  Si21  1  0.662041  0.302975  0.454415  1
  Si  Si22  1  0.693321  0.332838  0.047037  1
  Si  Si23  1  0.306520  0.668943  0.545781  1
  Si  Si24  1  0.809733  0.831106  0.205290  1
  Si  Si25  1  0.169889  0.192414  0.294070  1
  Si  Si26  1  0.831959  0.807344  0.796930  1
  Si  Si27  1  0.287181  0.923494  0.061134  1
  Si  Si28  1  0.575645  0.787698  0.309402  1
  Si  Si29  1  0.429609  0.207551  0.814997  1
  Si  Si30  1  0.782932  0.579164  0.690836  1
  Si  Si31  1  0.213247  0.423617  0.186931  1
  Si  Si32  1  0.705343  0.075642  0.561922  1
  Si  Si33  1  0.920902  0.285554  0.939284  1
  Si  Si34  1  0.083603  0.717858  0.437430  1
  Ir  Ir35  1  0.181063  0.178487  0.702899  1
