# generated using pymatgen
data_Er5Hg3Pt2Pb
_symmetry_space_group_name_H-M   'P 1'
_cell_length_a   3.62384400
_cell_length_b   7.97851987
_cell_length_c   18.20441057
_cell_angle_alpha   90.57191131
_cell_angle_beta   90.00000000
_cell_angle_gamma   90.00000000
_symmetry_Int_Tables_number   1
_chemical_formula_structural   Er5Hg3Pt2Pb
_chemical_formula_sum   'Er10 Hg6 Pt4 Pb2'
_cell_volume   526.31628860
_cell_formula_units_Z   2
loop_
 _symmetry_equiv_pos_site_id
 _symmetry_equiv_pos_as_xyz
  1  'x, y, z'
loop_
 _atom_site_type_symbol
 _atom_site_label
 _atom_site_symmetry_multiplicity
 _atom_site_fract_x
 _atom_site_fract_y
 _atom_site_fract_z
 _atom_site_occupancy
  Er  Er0  1  0.000000  0.107862  0.413207  1
  Er  Er1  1  0.000000  0.892138  0.586793  1
  Er  Er2  1  0.000000  0.388235  0.913821  1
  Er  Er3  1  0.000000  0.611765  0.086179  1
  Er  Er4  1  0.000000  0.232317  0.211882  1
  Er  Er5  1  0.000000  0.767683  0.788118  1
  Er  Er6  1  0.000000  0.250654  0.721177  1
  Er  Er7  1  0.000000  0.749346  0.278823  1
  Er  Er8  1  0.000000  0.000000  0.000000  1
  Er  Er9  1  0.000000  0.500000  0.500000  1
  Hg  Hg10  1  0.500000  0.080037  0.857586  1
  Hg  Hg11  1  0.500000  0.919963  0.142414  1
  Hg  Hg12  1  0.500000  0.288912  0.061014  1
  Hg  Hg13  1  0.500000  0.711088  0.938986  1
  Hg  Hg14  1  0.500000  0.206941  0.562226  1
  Hg  Hg15  1  0.500000  0.793059  0.437774  1
  Pt  Pt16  1  0.500000  0.026997  0.301218  1
  Pt  Pt17  1  0.500000  0.973003  0.698782  1
  Pt  Pt18  1  0.500000  0.477195  0.804148  1
  Pt  Pt19  1  0.500000  0.522805  0.195852  1
  Pb  Pb20  1  0.500000  0.425274  0.352692  1
  Pb  Pb21  1  0.500000  0.574726  0.647308  1
