# generated using pymatgen
data_Ho15Th(NiHg)4
_symmetry_space_group_name_H-M   'P 1'
_cell_length_a   9.47452233
_cell_length_b   9.47452190
_cell_length_c   9.47452238
_cell_angle_alpha   60.15121418
_cell_angle_beta   60.15121781
_cell_angle_gamma   60.15121341
_symmetry_Int_Tables_number   1
_chemical_formula_structural   Ho15Th(NiHg)4
_chemical_formula_sum   'Ho15 Th1 Ni4 Hg4'
_cell_volume   603.45089320
_cell_formula_units_Z   1
loop_
 _symmetry_equiv_pos_site_id
 _symmetry_equiv_pos_as_xyz
  1  'x, y, z'
loop_
 _atom_site_type_symbol
 _atom_site_label
 _atom_site_symmetry_multiplicity
 _atom_site_fract_x
 _atom_site_fract_y
 _atom_site_fract_z
 _atom_site_occupancy
  Ho  Ho0  1  0.350939  0.350939  0.944930  1
  Ho  Ho1  1  0.350939  0.944930  0.350939  1
  Ho  Ho2  1  0.944930  0.350939  0.350939  1
  Ho  Ho3  1  0.813634  0.188420  0.188420  1
  Ho  Ho4  1  0.189597  0.812049  0.812049  1
  Ho  Ho5  1  0.188420  0.813634  0.188420  1
  Ho  Ho6  1  0.812049  0.189597  0.812049  1
  Ho  Ho7  1  0.188420  0.188420  0.813634  1
  Ho  Ho8  1  0.812049  0.812049  0.189597  1
  Ho  Ho9  1  0.937586  0.564264  0.564264  1
  Ho  Ho10  1  0.562734  0.936783  0.936783  1
  Ho  Ho11  1  0.564264  0.937586  0.564264  1
  Ho  Ho12  1  0.936783  0.562734  0.936783  1
  Ho  Ho13  1  0.564264  0.564264  0.937586  1
  Ho  Ho14  1  0.936783  0.936783  0.562734  1
  Th  Th15  1  0.345862  0.345862  0.345862  1
  Ni  Ni16  1  0.143696  0.143696  0.143696  1
  Ni  Ni17  1  0.142727  0.142727  0.570407  1
  Ni  Ni18  1  0.142727  0.570407  0.142727  1
  Ni  Ni19  1  0.570407  0.142727  0.142727  1
  Hg  Hg20  1  0.584972  0.584972  0.584972  1
  Hg  Hg21  1  0.586565  0.586565  0.243091  1
  Hg  Hg22  1  0.586565  0.243091  0.586565  1
  Hg  Hg23  1  0.243091  0.586565  0.586565  1
