# generated using pymatgen
data_Hf2ScBP2Os3
_symmetry_space_group_name_H-M   'P 1'
_cell_length_a   6.51828936
_cell_length_b   6.51829024
_cell_length_c   3.55010100
_cell_angle_alpha   90.00000000
_cell_angle_beta   90.00000000
_cell_angle_gamma   120.09745289
_symmetry_Int_Tables_number   1
_chemical_formula_structural   Hf2ScBP2Os3
_chemical_formula_sum   'Hf2 Sc1 B1 P2 Os3'
_cell_volume   130.50025342
_cell_formula_units_Z   1
loop_
 _symmetry_equiv_pos_site_id
 _symmetry_equiv_pos_as_xyz
  1  'x, y, z'
loop_
 _atom_site_type_symbol
 _atom_site_label
 _atom_site_symmetry_multiplicity
 _atom_site_fract_x
 _atom_site_fract_y
 _atom_site_fract_z
 _atom_site_occupancy
  Hf  Hf0  1  0.600861  0.001151  0.500000  1
  Hf  Hf1  1  0.001151  0.600861  0.500000  1
  Sc  Sc2  1  0.400647  0.400647  0.500000  1
  B  B3  1  0.999345  0.999345  0.500000  1
  P  P4  1  0.663726  0.333951  0.000000  1
  P  P5  1  0.333951  0.663726  0.000000  1
  Os  Os6  1  0.762430  0.762430  0.000000  1
  Os  Os7  1  0.238642  0.999246  0.000000  1
  Os  Os8  1  0.999246  0.238642  0.000000  1
