# generated using pymatgen
data_Y5Ho10Th(CdPt)4
_symmetry_space_group_name_H-M   'P 1'
_cell_length_a   9.68326024
_cell_length_b   9.68232952
_cell_length_c   9.68233024
_cell_angle_alpha   60.28291758
_cell_angle_beta   60.28144831
_cell_angle_gamma   60.28144617
_symmetry_Int_Tables_number   1
_chemical_formula_structural   Y5Ho10Th(CdPt)4
_chemical_formula_sum   'Y5 Ho10 Th1 Cd4 Pt4'
_cell_volume   645.99429552
_cell_formula_units_Z   1
loop_
 _symmetry_equiv_pos_site_id
 _symmetry_equiv_pos_as_xyz
  1  'x, y, z'
loop_
 _atom_site_type_symbol
 _atom_site_label
 _atom_site_symmetry_multiplicity
 _atom_site_fract_x
 _atom_site_fract_y
 _atom_site_fract_z
 _atom_site_occupancy
  Y  Y0  1  0.563048  0.937373  0.937373  1
  Y  Y1  1  0.566334  0.935926  0.565739  1
  Y  Y2  1  0.937206  0.563124  0.936752  1
  Y  Y3  1  0.566334  0.565739  0.935926  1
  Y  Y4  1  0.937206  0.936752  0.563124  1
  Ho  Ho5  1  0.353717  0.353734  0.939566  1
  Ho  Ho6  1  0.353717  0.939566  0.353734  1
  Ho  Ho7  1  0.939659  0.353861  0.353861  1
  Ho  Ho8  1  0.812705  0.189146  0.189146  1
  Ho  Ho9  1  0.190429  0.811006  0.811006  1
  Ho  Ho10  1  0.188804  0.812612  0.189414  1
  Ho  Ho11  1  0.811074  0.190891  0.810803  1
  Ho  Ho12  1  0.188804  0.189414  0.812612  1
  Ho  Ho13  1  0.811074  0.810803  0.190891  1
  Ho  Ho14  1  0.936652  0.565851  0.565851  1
  Th  Th15  1  0.348780  0.349411  0.349411  1
  Cd  Cd16  1  0.581689  0.581404  0.581404  1
  Cd  Cd17  1  0.582349  0.582325  0.253226  1
  Cd  Cd18  1  0.582349  0.253226  0.582325  1
  Cd  Cd19  1  0.252813  0.582347  0.582347  1
  Pt  Pt20  1  0.144077  0.144153  0.144153  1
  Pt  Pt21  1  0.140098  0.140242  0.570965  1
  Pt  Pt22  1  0.140098  0.570965  0.140242  1
  Pt  Pt23  1  0.570986  0.140126  0.140126  1
