# generated using pymatgen
data_Ca2Al20Ru3Rh
_symmetry_space_group_name_H-M   'P 1'
_cell_length_a   6.88310438
_cell_length_b   6.88691122
_cell_length_c   9.16201953
_cell_angle_alpha   90.07447158
_cell_angle_beta   90.28510668
_cell_angle_gamma   96.82495801
_symmetry_Int_Tables_number   1
_chemical_formula_structural   Ca2Al20Ru3Rh
_chemical_formula_sum   'Ca2 Al20 Ru3 Rh1'
_cell_volume   431.22651021
_cell_formula_units_Z   1
loop_
 _symmetry_equiv_pos_site_id
 _symmetry_equiv_pos_as_xyz
  1  'x, y, z'
loop_
 _atom_site_type_symbol
 _atom_site_label
 _atom_site_symmetry_multiplicity
 _atom_site_fract_x
 _atom_site_fract_y
 _atom_site_fract_z
 _atom_site_occupancy
  Ca  Ca0  1  0.877091  0.125482  0.750157  1
  Ca  Ca1  1  0.122909  0.874518  0.249843  1
  Al  Al2  1  0.775537  0.773718  0.000956  1
  Al  Al3  1  0.774455  0.773798  0.499778  1
  Al  Al4  1  0.224463  0.226282  0.999044  1
  Al  Al5  1  0.225545  0.226202  0.500222  1
  Al  Al6  1  0.623859  0.379024  0.951145  1
  Al  Al7  1  0.376141  0.620976  0.048855  1
  Al  Al8  1  0.623513  0.376978  0.547760  1
  Al  Al9  1  0.376487  0.623022  0.452240  1
  Al  Al10  1  0.841358  0.157492  0.400825  1
  Al  Al11  1  0.158642  0.842508  0.599175  1
  Al  Al12  1  0.843525  0.158545  0.100143  1
  Al  Al13  1  0.156475  0.841455  0.899857  1
  Al  Al14  1  0.412383  0.141310  0.748946  1
  Al  Al15  1  0.140188  0.412468  0.250426  1
  Al  Al16  1  0.587617  0.858690  0.251054  1
  Al  Al17  1  0.859812  0.587532  0.749574  1
  Al  Al18  1  0.521121  0.778172  0.747508  1
  Al  Al19  1  0.779240  0.520662  0.249430  1
  Al  Al20  1  0.478879  0.221828  0.252492  1
  Al  Al21  1  0.220760  0.479338  0.750570  1
  Ru  Ru22  1  0.000000  0.500000  0.000000  1
  Ru  Ru23  1  0.500000  0.000000  0.500000  1
  Ru  Ru24  1  0.000000  0.500000  0.500000  1
  Rh  Rh25  1  0.500000  0.000000  0.000000  1
