# generated using pymatgen
data_Dy4Er8InCo4Ru
_symmetry_space_group_name_H-M   'P 1'
_cell_length_a   8.23845589
_cell_length_b   8.23845523
_cell_length_c   8.23845598
_cell_angle_alpha   111.10621931
_cell_angle_beta   110.86102874
_cell_angle_gamma   106.48710475
_symmetry_Int_Tables_number   1
_chemical_formula_structural   Dy4Er8InCo4Ru
_chemical_formula_sum   'Dy4 Er8 In1 Co4 Ru1'
_cell_volume   429.57085396
_cell_formula_units_Z   1
loop_
 _symmetry_equiv_pos_site_id
 _symmetry_equiv_pos_as_xyz
  1  'x, y, z'
loop_
 _atom_site_type_symbol
 _atom_site_label
 _atom_site_symmetry_multiplicity
 _atom_site_fract_x
 _atom_site_fract_y
 _atom_site_fract_z
 _atom_site_occupancy
  Dy  Dy0  1  0.184801  0.283469  0.468270  1
  Dy  Dy1  1  0.815199  0.716531  0.531730  1
  Dy  Dy2  1  0.184801  0.716531  0.901332  1
  Dy  Dy3  1  0.815199  0.283469  0.098668  1
  Er  Er4  1  0.314466  0.621169  0.306703  1
  Er  Er5  1  0.685534  0.378831  0.693297  1
  Er  Er6  1  0.314466  0.007763  0.693297  1
  Er  Er7  1  0.685534  0.992237  0.306703  1
  Er  Er8  1  0.412228  0.218674  0.193554  1
  Er  Er9  1  0.587772  0.781326  0.806446  1
  Er  Er10  1  0.025120  0.218674  0.806446  1
  Er  Er11  1  0.974880  0.781326  0.193554  1
  In  In12  1  0.500000  0.500000  0.000000  1
  Co  Co13  1  0.111635  0.611635  0.500000  1
  Co  Co14  1  0.888365  0.388365  0.500000  1
  Co  Co15  1  0.376762  0.000000  0.376762  1
  Co  Co16  1  0.623238  0.000000  0.623238  1
  Ru  Ru17  1  0.000000  0.000000  0.000000  1
