# generated using pymatgen
data_Tm3In3Pd2Pt
_symmetry_space_group_name_H-M   'P 1'
_cell_length_a   7.76649400
_cell_length_b   7.76649478
_cell_length_c   3.69899000
_cell_angle_alpha   90.00000000
_cell_angle_beta   90.00000000
_cell_angle_gamma   119.99999669
_symmetry_Int_Tables_number   1
_chemical_formula_structural   Tm3In3Pd2Pt
_chemical_formula_sum   'Tm3 In3 Pd2 Pt1'
_cell_volume   193.22524606
_cell_formula_units_Z   1
loop_
 _symmetry_equiv_pos_site_id
 _symmetry_equiv_pos_as_xyz
  1  'x, y, z'
loop_
 _atom_site_type_symbol
 _atom_site_label
 _atom_site_symmetry_multiplicity
 _atom_site_fract_x
 _atom_site_fract_y
 _atom_site_fract_z
 _atom_site_occupancy
  Tm  Tm0  1  0.402654  0.410707  0.500000  1
  Tm  Tm1  1  0.589293  0.991948  0.500000  1
  Tm  Tm2  1  0.008052  0.597346  0.500000  1
  In  In3  1  0.994620  0.261431  0.000000  1
  In  In4  1  0.738569  0.733190  0.000000  1
  In  In5  1  0.266810  0.005380  0.000000  1
  Pd  Pd6  1  0.666667  0.333333  0.000000  1
  Pd  Pd7  1  0.000000  0.000000  0.500000  1
  Pt  Pt8  1  0.333333  0.666667  0.000000  1
