# generated using pymatgen
data_Pr2AlSi13Ir6
_symmetry_space_group_name_H-M   'P 1'
_cell_length_a   8.11659575
_cell_length_b   8.11659507
_cell_length_c   8.11659415
_cell_angle_alpha   56.90686959
_cell_angle_beta   56.90687726
_cell_angle_gamma   56.90686633
_symmetry_Int_Tables_number   1
_chemical_formula_structural   Pr2AlSi13Ir6
_chemical_formula_sum   'Pr2 Al1 Si13 Ir6'
_cell_volume   351.12131913
_cell_formula_units_Z   1
loop_
 _symmetry_equiv_pos_site_id
 _symmetry_equiv_pos_as_xyz
  1  'x, y, z'
loop_
 _atom_site_type_symbol
 _atom_site_label
 _atom_site_symmetry_multiplicity
 _atom_site_fract_x
 _atom_site_fract_y
 _atom_site_fract_z
 _atom_site_occupancy
  Pr  Pr0  1  0.999206  0.999206  0.999206  1
  Pr  Pr1  1  0.500794  0.500794  0.500794  1
  Al  Al2  1  0.750000  0.750000  0.750000  1
  Si  Si3  1  0.250000  0.250000  0.250000  1
  Si  Si4  1  0.849804  0.063052  0.671669  1
  Si  Si5  1  0.671669  0.849804  0.063052  1
  Si  Si6  1  0.063052  0.671669  0.849804  1
  Si  Si7  1  0.650196  0.828331  0.436948  1
  Si  Si8  1  0.436948  0.650196  0.828331  1
  Si  Si9  1  0.828331  0.436948  0.650196  1
  Si  Si10  1  0.170847  0.560611  0.355294  1
  Si  Si11  1  0.560611  0.355294  0.170847  1
  Si  Si12  1  0.355294  0.170847  0.560611  1
  Si  Si13  1  0.939389  0.329153  0.144706  1
  Si  Si14  1  0.329153  0.144706  0.939389  1
  Si  Si15  1  0.144706  0.939389  0.329153  1
  Ir  Ir16  1  0.078553  0.421447  0.750000  1
  Ir  Ir17  1  0.250000  0.931520  0.568480  1
  Ir  Ir18  1  0.568480  0.250000  0.931520  1
  Ir  Ir19  1  0.931520  0.568480  0.250000  1
  Ir  Ir20  1  0.421447  0.750000  0.078553  1
  Ir  Ir21  1  0.750000  0.078553  0.421447  1
