# generated using pymatgen
data_UTcB4
_symmetry_space_group_name_H-M   'P 1'
_cell_length_a   3.60424800
_cell_length_b   5.92894900
_cell_length_c   11.50018600
_cell_angle_alpha   90.00000000
_cell_angle_beta   90.00000000
_cell_angle_gamma   90.00000000
_symmetry_Int_Tables_number   1
_chemical_formula_structural   UTcB4
_chemical_formula_sum   'U4 Tc4 B16'
_cell_volume   245.75210433
_cell_formula_units_Z   4
loop_
 _symmetry_equiv_pos_site_id
 _symmetry_equiv_pos_as_xyz
  1  'x, y, z'
loop_
 _atom_site_type_symbol
 _atom_site_label
 _atom_site_symmetry_multiplicity
 _atom_site_fract_x
 _atom_site_fract_y
 _atom_site_fract_z
 _atom_site_occupancy
  U  U0  1  0.000000  0.628387  0.650092  1
  U  U1  1  0.000000  0.371613  0.349908  1
  U  U2  1  0.000000  0.128387  0.849908  1
  U  U3  1  0.000000  0.871613  0.150092  1
  Tc  Tc4  1  0.000000  0.640078  0.906569  1
  Tc  Tc5  1  0.000000  0.359922  0.093431  1
  Tc  Tc6  1  0.000000  0.140078  0.593431  1
  Tc  Tc7  1  0.000000  0.859922  0.406569  1
  B  B8  1  0.500000  0.973851  0.692744  1
  B  B9  1  0.500000  0.026149  0.307256  1
  B  B10  1  0.500000  0.473851  0.807256  1
  B  B11  1  0.500000  0.526149  0.192744  1
  B  B12  1  0.500000  0.867601  0.967971  1
  B  B13  1  0.500000  0.132399  0.032029  1
  B  B14  1  0.500000  0.367601  0.532029  1
  B  B15  1  0.500000  0.632399  0.467971  1
  B  B16  1  0.500000  0.790335  0.811362  1
  B  B17  1  0.500000  0.209665  0.188638  1
  B  B18  1  0.500000  0.290335  0.688638  1
  B  B19  1  0.500000  0.709665  0.311362  1
  B  B20  1  0.500000  0.885401  0.546776  1
  B  B21  1  0.500000  0.114599  0.453224  1
  B  B22  1  0.500000  0.385401  0.953224  1
  B  B23  1  0.500000  0.614599  0.046776  1
