# generated using pymatgen
data_Nb3SeS4
_symmetry_space_group_name_H-M   'P 1'
_cell_length_a   8.06309573
_cell_length_b   9.01129749
_cell_length_c   9.31779348
_cell_angle_alpha   93.45948262
_cell_angle_beta   95.01623206
_cell_angle_gamma   114.10624267
_symmetry_Int_Tables_number   1
_chemical_formula_structural   Nb3SeS4
_chemical_formula_sum   'Nb12 Se4 S16'
_cell_volume   612.16654123
_cell_formula_units_Z   4
loop_
 _symmetry_equiv_pos_site_id
 _symmetry_equiv_pos_as_xyz
  1  'x, y, z'
loop_
 _atom_site_type_symbol
 _atom_site_label
 _atom_site_symmetry_multiplicity
 _atom_site_fract_x
 _atom_site_fract_y
 _atom_site_fract_z
 _atom_site_occupancy
  Nb  Nb0  1  0.012053  0.005681  0.000446  1
  Nb  Nb1  1  0.605807  0.400079  0.593678  1
  Nb  Nb2  1  0.503392  0.999756  0.502533  1
  Nb  Nb3  1  0.204488  0.804953  0.198179  1
  Nb  Nb4  1  0.093752  0.395745  0.094701  1
  Nb  Nb5  1  0.798896  0.201284  0.799889  1
  Nb  Nb6  1  0.706726  0.801085  0.692183  1
  Nb  Nb7  1  0.416806  0.605288  0.401969  1
  Nb  Nb8  1  0.302190  0.200176  0.291029  1
  Nb  Nb9  1  0.899979  0.593384  0.901808  1
  Nb  Nb10  1  0.859169  0.700514  0.400204  1
  Nb  Nb11  1  0.450818  0.095520  0.994878  1
  Se  Se12  1  0.067425  0.541120  0.337468  1
  Se  Se13  1  0.406520  0.655552  0.129117  1
  Se  Se14  1  0.662379  0.938299  0.934330  1
  Se  Se15  1  0.557167  0.541963  0.828924  1
  S  S16  1  0.994679  0.056697  0.740204  1
  S  S17  1  0.905233  0.649374  0.647564  1
  S  S18  1  0.282433  0.350847  0.522149  1
  S  S19  1  0.170338  0.949990  0.427620  1
  S  S20  1  0.597044  0.444915  0.327532  1
  S  S21  1  0.503747  0.054249  0.246157  1
  S  S22  1  0.874502  0.750803  0.130560  1
  S  S23  1  0.764191  0.344144  0.029290  1
  S  S24  1  0.188892  0.840551  0.931866  1
  S  S25  1  0.091097  0.448956  0.837507  1
  S  S26  1  0.469750  0.148119  0.727883  1
  S  S27  1  0.378943  0.746324  0.626987  1
  S  S28  1  0.797123  0.251824  0.540890  1
  S  S29  1  0.702968  0.872129  0.435093  1
  S  S30  1  0.975326  0.145454  0.226570  1
  S  S31  1  0.294565  0.266829  0.031192  1
