# generated using pymatgen
data_Th2B6Ir8Rh
_symmetry_space_group_name_H-M   'P 1'
_cell_length_a   5.67021804
_cell_length_b   5.67021631
_cell_length_c   8.76566800
_cell_angle_alpha   90.00000000
_cell_angle_beta   90.00000000
_cell_angle_gamma   120.20303810
_symmetry_Int_Tables_number   1
_chemical_formula_structural   Th2B6Ir8Rh
_chemical_formula_sum   'Th2 B6 Ir8 Rh1'
_cell_volume   243.56947007
_cell_formula_units_Z   1
loop_
 _symmetry_equiv_pos_site_id
 _symmetry_equiv_pos_as_xyz
  1  'x, y, z'
loop_
 _atom_site_type_symbol
 _atom_site_label
 _atom_site_symmetry_multiplicity
 _atom_site_fract_x
 _atom_site_fract_y
 _atom_site_fract_z
 _atom_site_occupancy
  Th  Th0  1  0.000000  0.000000  0.703712  1
  Th  Th1  1  0.000000  0.000000  0.295985  1
  B  B2  1  0.666029  0.333971  0.000545  1
  B  B3  1  0.333971  0.666029  0.000545  1
  B  B4  1  0.665983  0.334017  0.668046  1
  B  B5  1  0.334017  0.665983  0.668046  1
  B  B6  1  0.334080  0.665920  0.331250  1
  B  B7  1  0.665920  0.334080  0.331250  1
  Ir  Ir8  1  0.500000  0.500000  0.838615  1
  Ir  Ir9  1  0.500000  0.000000  0.839314  1
  Ir  Ir10  1  0.000000  0.500000  0.839314  1
  Ir  Ir11  1  0.500000  0.000000  0.162232  1
  Ir  Ir12  1  0.000000  0.500000  0.162232  1
  Ir  Ir13  1  0.500000  0.500000  0.499246  1
  Ir  Ir14  1  0.500000  0.000000  0.499415  1
  Ir  Ir15  1  0.000000  0.500000  0.499415  1
  Rh  Rh16  1  0.500000  0.500000  0.160838  1
