# generated using pymatgen
data_Pr2SmMg(Co4P3)2
_symmetry_space_group_name_H-M   'P 1'
_cell_length_a   3.78956300
_cell_length_b   10.75587300
_cell_length_c   12.48183100
_cell_angle_alpha   90.00000000
_cell_angle_beta   90.00000000
_cell_angle_gamma   90.00000000
_symmetry_Int_Tables_number   1
_chemical_formula_structural   Pr2SmMg(Co4P3)2
_chemical_formula_sum   'Pr4 Sm2 Mg2 Co16 P12'
_cell_volume   508.76015992
_cell_formula_units_Z   2
loop_
 _symmetry_equiv_pos_site_id
 _symmetry_equiv_pos_as_xyz
  1  'x, y, z'
loop_
 _atom_site_type_symbol
 _atom_site_label
 _atom_site_symmetry_multiplicity
 _atom_site_fract_x
 _atom_site_fract_y
 _atom_site_fract_z
 _atom_site_occupancy
  Pr  Pr0  1  0.000000  0.500000  0.525504  1
  Pr  Pr1  1  0.500000  0.000000  0.473688  1
  Pr  Pr2  1  0.000000  0.679603  0.793414  1
  Pr  Pr3  1  0.000000  0.320397  0.793414  1
  Sm  Sm4  1  0.500000  0.820982  0.206156  1
  Sm  Sm5  1  0.500000  0.179018  0.206156  1
  Mg  Mg6  1  0.500000  0.500000  0.153410  1
  Mg  Mg7  1  0.000000  0.000000  0.846793  1
  Co  Co8  1  0.500000  0.500000  0.706562  1
  Co  Co9  1  0.000000  0.000000  0.292501  1
  Co  Co10  1  0.000000  0.500000  0.990070  1
  Co  Co11  1  0.500000  0.000000  0.013107  1
  Co  Co12  1  0.500000  0.332103  0.998193  1
  Co  Co13  1  0.500000  0.667897  0.998193  1
  Co  Co14  1  0.000000  0.166501  0.004553  1
  Co  Co15  1  0.000000  0.833499  0.004553  1
  Co  Co16  1  0.500000  0.296521  0.430078  1
  Co  Co17  1  0.500000  0.703479  0.430078  1
  Co  Co18  1  0.000000  0.202559  0.567367  1
  Co  Co19  1  0.000000  0.797441  0.567367  1
  Co  Co20  1  0.500000  0.880610  0.705151  1
  Co  Co21  1  0.500000  0.119390  0.705151  1
  Co  Co22  1  0.000000  0.620556  0.293241  1
  Co  Co23  1  0.000000  0.379444  0.293241  1
  P  P24  1  0.500000  0.500000  0.889165  1
  P  P25  1  0.000000  0.000000  0.114127  1
  P  P26  1  0.500000  0.500000  0.349825  1
  P  P27  1  0.000000  0.000000  0.649641  1
  P  P28  1  0.500000  0.302997  0.612190  1
  P  P29  1  0.500000  0.697003  0.612190  1
  P  P30  1  0.000000  0.195563  0.384653  1
  P  P31  1  0.000000  0.804437  0.384653  1
  P  P32  1  0.500000  0.841568  0.898242  1
  P  P33  1  0.500000  0.158432  0.898242  1
  P  P34  1  0.000000  0.660074  0.104565  1
  P  P35  1  0.000000  0.339926  0.104565  1
