# generated using pymatgen
data_TbY11Fe2I17
_symmetry_space_group_name_H-M   'P 1'
_cell_length_a   9.73108423
_cell_length_b   11.69457289
_cell_length_c   11.70337301
_cell_angle_alpha   93.51055322
_cell_angle_beta   104.74604117
_cell_angle_gamma   114.08309351
_symmetry_Int_Tables_number   1
_chemical_formula_structural   TbY11Fe2I17
_chemical_formula_sum   'Tb1 Y11 Fe2 I17'
_cell_volume   1155.13194168
_cell_formula_units_Z   1
loop_
 _symmetry_equiv_pos_site_id
 _symmetry_equiv_pos_as_xyz
  1  'x, y, z'
loop_
 _atom_site_type_symbol
 _atom_site_label
 _atom_site_symmetry_multiplicity
 _atom_site_fract_x
 _atom_site_fract_y
 _atom_site_fract_z
 _atom_site_occupancy
  Tb  Tb0  1  0.051544  0.501523  0.319228  1
  Y  Y1  1  0.991643  0.809644  0.587009  1
  Y  Y2  1  0.653670  0.241237  0.281123  1
  Y  Y3  1  0.007810  0.191001  0.411311  1
  Y  Y4  1  0.220162  0.670783  0.984878  1
  Y  Y5  1  0.255814  0.979406  0.889637  1
  Y  Y6  1  0.343188  0.758530  0.719705  1
  Y  Y7  1  0.946372  0.495829  0.679468  1
  Y  Y8  1  0.745423  0.022699  0.111258  1
  Y  Y9  1  0.143221  0.286758  0.153391  1
  Y  Y10  1  0.780827  0.328713  0.016509  1
  Y  Y11  1  0.860468  0.713249  0.845854  1
  Fe  Fe12  1  0.104144  0.738268  0.786336  1
  Fe  Fe13  1  0.896112  0.261956  0.213640  1
  I  I14  1  0.782299  0.528677  0.417432  1
  I  I15  1  0.643459  0.419267  0.761798  1
  I  I16  1  0.843821  0.895380  0.327347  1
  I  I17  1  0.329429  0.213690  0.368828  1
  I  I18  1  0.156142  0.104717  0.672706  1
  I  I19  1  0.585671  0.052768  0.842214  1
  I  I20  1  0.758136  0.187972  0.539774  1
  I  I21  1  0.552239  0.711129  0.954428  1
  I  I22  1  0.357478  0.581309  0.238022  1
  I  I23  1  0.216697  0.471693  0.583421  1
  I  I24  1  0.056889  0.367353  0.896085  1
  I  I25  1  0.447124  0.289098  0.044897  1
  I  I26  1  0.999244  0.999044  0.999475  1
  I  I27  1  0.242450  0.812904  0.461780  1
  I  I28  1  0.413333  0.946433  0.157748  1
  I  I29  1  0.671782  0.786098  0.631714  1
  I  I30  1  0.943409  0.632872  0.102987  1
