# generated using pymatgen
data_YInSiIr2
_symmetry_space_group_name_H-M   'P 1'
_cell_length_a   4.12617800
_cell_length_b   4.12617800
_cell_length_c   11.05889700
_cell_angle_alpha   90.00000000
_cell_angle_beta   90.00000000
_cell_angle_gamma   90.00000000
_symmetry_Int_Tables_number   1
_chemical_formula_structural   YInSiIr2
_chemical_formula_sum   'Y2 In2 Si2 Ir4'
_cell_volume   188.28153550
_cell_formula_units_Z   2
loop_
 _symmetry_equiv_pos_site_id
 _symmetry_equiv_pos_as_xyz
  1  'x, y, z'
loop_
 _atom_site_type_symbol
 _atom_site_label
 _atom_site_symmetry_multiplicity
 _atom_site_fract_x
 _atom_site_fract_y
 _atom_site_fract_z
 _atom_site_occupancy
  Y  Y0  1  0.500000  0.000000  0.234508  1
  Y  Y1  1  0.000000  0.500000  0.765492  1
  In  In2  1  0.000000  0.000000  0.500000  1
  In  In3  1  0.500000  0.500000  0.500000  1
  Si  Si4  1  0.000000  0.500000  0.115643  1
  Si  Si5  1  0.500000  0.000000  0.884357  1
  Ir  Ir6  1  0.000000  0.500000  0.326849  1
  Ir  Ir7  1  0.500000  0.000000  0.673151  1
  Ir  Ir8  1  0.000000  0.000000  0.000000  1
  Ir  Ir9  1  0.500000  0.500000  0.000000  1
