# generated using pymatgen
data_YHo4Np5O20
_symmetry_space_group_name_H-M   'P 1'
_cell_length_a   6.42237678
_cell_length_b   7.64502633
_cell_length_c   8.47804700
_cell_angle_alpha   102.89539447
_cell_angle_beta   96.69342986
_cell_angle_gamma   107.38075845
_symmetry_Int_Tables_number   1
_chemical_formula_structural   YHo4Np5O20
_chemical_formula_sum   'Y1 Ho4 Np5 O20'
_cell_volume   379.65488918
_cell_formula_units_Z   1
loop_
 _symmetry_equiv_pos_site_id
 _symmetry_equiv_pos_as_xyz
  1  'x, y, z'
loop_
 _atom_site_type_symbol
 _atom_site_label
 _atom_site_symmetry_multiplicity
 _atom_site_fract_x
 _atom_site_fract_y
 _atom_site_fract_z
 _atom_site_occupancy
  Y  Y0  1  0.003272  0.002505  0.002293  1
  Ho  Ho1  1  0.798295  0.599626  0.599319  1
  Ho  Ho2  1  0.604544  0.200507  0.200714  1
  Ho  Ho3  1  0.998499  0.498879  0.001199  1
  Ho  Ho4  1  0.797831  0.098824  0.598550  1
  Np  Np5  1  0.193873  0.396038  0.397225  1
  Np  Np6  1  0.600833  0.700984  0.199289  1
  Np  Np7  1  0.398999  0.299328  0.801937  1
  Np  Np8  1  0.199770  0.900294  0.397300  1
  Np  Np9  1  0.399729  0.801631  0.800841  1
  O  O10  1  0.864655  0.331048  0.453504  1
  O  O11  1  0.641952  0.916612  0.055340  1
  O  O12  1  0.426199  0.518725  0.651328  1
  O  O13  1  0.950165  0.773970  0.154222  1
  O  O14  1  0.853235  0.823138  0.445206  1
  O  O15  1  0.727275  0.369839  0.754625  1
  O  O16  1  0.249293  0.120952  0.256748  1
  O  O17  1  0.642001  0.433148  0.058127  1
  O  O18  1  0.964394  0.281014  0.153623  1
  O  O19  1  0.433985  0.020970  0.644881  1
  O  O20  1  0.545578  0.966558  0.351061  1
  O  O21  1  0.069764  0.725970  0.843182  1
  O  O22  1  0.728181  0.870526  0.752330  1
  O  O23  1  0.254490  0.631737  0.251145  1
  O  O24  1  0.364767  0.579524  0.954097  1
  O  O25  1  0.069458  0.230566  0.842799  1
  O  O26  1  0.534204  0.478368  0.352975  1
  O  O27  1  0.157102  0.169837  0.542450  1
  O  O28  1  0.368021  0.078126  0.942570  1
  O  O29  1  0.159632  0.680759  0.541122  1
