# generated using pymatgen
data_PrAgRuPtO7
_symmetry_space_group_name_H-M   'P 1'
_cell_length_a   7.32760816
_cell_length_b   7.51308617
_cell_length_c   7.32760851
_cell_angle_alpha   59.15908627
_cell_angle_beta   58.66321070
_cell_angle_gamma   59.15908561
_symmetry_Int_Tables_number   1
_chemical_formula_structural   PrAgRuPtO7
_chemical_formula_sum   'Pr2 Ag2 Ru2 Pt2 O14'
_cell_volume   278.68981571
_cell_formula_units_Z   2
loop_
 _symmetry_equiv_pos_site_id
 _symmetry_equiv_pos_as_xyz
  1  'x, y, z'
loop_
 _atom_site_type_symbol
 _atom_site_label
 _atom_site_symmetry_multiplicity
 _atom_site_fract_x
 _atom_site_fract_y
 _atom_site_fract_z
 _atom_site_occupancy
  Pr  Pr0  1  0.625000  0.125000  0.625000  1
  Pr  Pr1  1  0.625000  0.625000  0.625000  1
  Ag  Ag2  1  0.625000  0.625000  0.125000  1
  Ag  Ag3  1  0.125000  0.625000  0.625000  1
  Ru  Ru4  1  0.125000  0.625000  0.125000  1
  Ru  Ru5  1  0.125000  0.125000  0.125000  1
  Pt  Pt6  1  0.125000  0.125000  0.625000  1
  Pt  Pt7  1  0.625000  0.125000  0.125000  1
  O  O8  1  0.766204  0.733796  0.766204  1
  O  O9  1  0.483796  0.516204  0.483796  1
  O  O10  1  0.071374  0.428626  0.071374  1
  O  O11  1  0.783510  0.216490  0.783510  1
  O  O12  1  0.050587  0.045234  0.450419  1
  O  O13  1  0.450419  0.045234  0.050587  1
  O  O14  1  0.050587  0.453761  0.450419  1
  O  O15  1  0.450419  0.453761  0.050587  1
  O  O16  1  0.466490  0.033510  0.466490  1
  O  O17  1  0.199413  0.796239  0.799581  1
  O  O18  1  0.799581  0.204766  0.199413  1
  O  O19  1  0.178626  0.821374  0.178626  1
  O  O20  1  0.799581  0.796239  0.199413  1
  O  O21  1  0.199413  0.204766  0.799581  1
