# generated using pymatgen
data_AcEu7(MoO6)4
_symmetry_space_group_name_H-M   'P 1'
_cell_length_a   10.16311392
_cell_length_b   10.16311415
_cell_length_c   5.51251700
_cell_angle_alpha   75.05737380
_cell_angle_beta   75.05736763
_cell_angle_gamma   68.19618185
_symmetry_Int_Tables_number   1
_chemical_formula_structural   AcEu7(MoO6)4
_chemical_formula_sum   'Ac1 Eu7 Mo4 O24'
_cell_volume   502.36633043
_cell_formula_units_Z   1
loop_
 _symmetry_equiv_pos_site_id
 _symmetry_equiv_pos_as_xyz
  1  'x, y, z'
loop_
 _atom_site_type_symbol
 _atom_site_label
 _atom_site_symmetry_multiplicity
 _atom_site_fract_x
 _atom_site_fract_y
 _atom_site_fract_z
 _atom_site_occupancy
  Ac  Ac0  1  0.633583  0.366417  0.250000  1
  Eu  Eu1  1  0.287146  0.055725  0.617646  1
  Eu  Eu2  1  0.944275  0.712854  0.882354  1
  Eu  Eu3  1  0.711641  0.941394  0.384547  1
  Eu  Eu4  1  0.058606  0.288359  0.115453  1
  Eu  Eu5  1  0.893216  0.106784  0.750000  1
  Eu  Eu6  1  0.110776  0.889224  0.250000  1
  Eu  Eu7  1  0.362906  0.637094  0.750000  1
  Mo  Mo8  1  0.804875  0.508768  0.563211  1
  Mo  Mo9  1  0.491232  0.195125  0.936789  1
  Mo  Mo10  1  0.197701  0.493552  0.438623  1
  Mo  Mo11  1  0.506448  0.802299  0.061377  1
  O  O12  1  0.835289  0.383049  0.867896  1
  O  O13  1  0.616951  0.164711  0.632104  1
  O  O14  1  0.170800  0.618884  0.134451  1
  O  O15  1  0.381116  0.829200  0.365549  1
  O  O16  1  0.935181  0.524818  0.259663  1
  O  O17  1  0.475182  0.064819  0.240337  1
  O  O18  1  0.062204  0.480223  0.734601  1
  O  O19  1  0.519777  0.937796  0.765399  1
  O  O20  1  0.789231  0.680858  0.633882  1
  O  O21  1  0.319142  0.210769  0.866118  1
  O  O22  1  0.213583  0.321967  0.367200  1
  O  O23  1  0.678033  0.786417  0.132800  1
  O  O24  1  0.075611  0.104118  0.934283  1
  O  O25  1  0.895882  0.924389  0.565717  1
  O  O26  1  0.925079  0.893633  0.069815  1
  O  O27  1  0.106367  0.074921  0.430185  1
  O  O28  1  0.307829  0.842179  0.918813  1
  O  O29  1  0.157821  0.692171  0.581187  1
  O  O30  1  0.690643  0.151345  0.069809  1
  O  O31  1  0.848655  0.309357  0.430191  1
  O  O32  1  0.540533  0.623165  0.007152  1
  O  O33  1  0.376835  0.459467  0.492848  1
  O  O34  1  0.453771  0.377916  0.976562  1
  O  O35  1  0.622084  0.546229  0.523438  1
