# generated using pymatgen
data_Nd5IrPb3
_symmetry_space_group_name_H-M   'P 1'
_cell_length_a   9.58367400
_cell_length_b   9.58367437
_cell_length_c   7.05603900
_cell_angle_alpha   90.00000000
_cell_angle_beta   90.00000000
_cell_angle_gamma   120.00000561
_symmetry_Int_Tables_number   1
_chemical_formula_structural   Nd5IrPb3
_chemical_formula_sum   'Nd10 Ir2 Pb6'
_cell_volume   561.24910459
_cell_formula_units_Z   2
loop_
 _symmetry_equiv_pos_site_id
 _symmetry_equiv_pos_as_xyz
  1  'x, y, z'
loop_
 _atom_site_type_symbol
 _atom_site_label
 _atom_site_symmetry_multiplicity
 _atom_site_fract_x
 _atom_site_fract_y
 _atom_site_fract_z
 _atom_site_occupancy
  Nd  Nd0  1  0.666666  0.333333  0.000000  1
  Nd  Nd1  1  0.333333  0.666666  0.000000  1
  Nd  Nd2  1  0.236346  0.000000  0.249999  1
  Nd  Nd3  1  0.000000  0.236346  0.249999  1
  Nd  Nd4  1  0.763653  0.763653  0.249999  1
  Nd  Nd5  1  0.666666  0.333333  0.500000  1
  Nd  Nd6  1  0.333333  0.666666  0.500000  1
  Nd  Nd7  1  0.763653  0.000000  0.750000  1
  Nd  Nd8  1  0.236348  0.236348  0.750000  1
  Nd  Nd9  1  0.000000  0.763653  0.750000  1
  Ir  Ir10  1  0.000000  0.000000  0.000000  1
  Ir  Ir11  1  0.000000  0.000000  0.500000  1
  Pb  Pb12  1  0.592114  0.000000  0.249999  1
  Pb  Pb13  1  0.407886  0.407886  0.249999  1
  Pb  Pb14  1  0.000000  0.592114  0.249999  1
  Pb  Pb15  1  0.407885  0.000000  0.750000  1
  Pb  Pb16  1  0.000000  0.407885  0.750000  1
  Pb  Pb17  1  0.592116  0.592116  0.750000  1
