# generated using pymatgen
data_Nd8SiRuBr12
_symmetry_space_group_name_H-M   'P 1'
_cell_length_a   4.23151700
_cell_length_b   13.82214378
_cell_length_c   14.48009209
_cell_angle_alpha   88.36922673
_cell_angle_beta   90.00000000
_cell_angle_gamma   90.00000000
_symmetry_Int_Tables_number   1
_chemical_formula_structural   Nd8SiRuBr12
_chemical_formula_sum   'Nd8 Si1 Ru1 Br12'
_cell_volume   846.57781616
_cell_formula_units_Z   1
loop_
 _symmetry_equiv_pos_site_id
 _symmetry_equiv_pos_as_xyz
  1  'x, y, z'
loop_
 _atom_site_type_symbol
 _atom_site_label
 _atom_site_symmetry_multiplicity
 _atom_site_fract_x
 _atom_site_fract_y
 _atom_site_fract_z
 _atom_site_occupancy
  Nd  Nd0  1  0.500000  0.112392  0.348845  1
  Nd  Nd1  1  0.500000  0.887608  0.651155  1
  Nd  Nd2  1  0.500000  0.616935  0.158909  1
  Nd  Nd3  1  0.500000  0.383065  0.841091  1
  Nd  Nd4  1  0.000000  0.120227  0.581026  1
  Nd  Nd5  1  0.000000  0.879773  0.418974  1
  Nd  Nd6  1  0.000000  0.619988  0.918235  1
  Nd  Nd7  1  0.000000  0.380012  0.081765  1
  Si  Si8  1  0.500000  0.500000  0.000000  1
  Ru  Ru9  1  0.500000  0.000000  0.500000  1
  Br  Br10  1  0.500000  0.244244  0.167850  1
  Br  Br11  1  0.500000  0.755756  0.832150  1
  Br  Br12  1  0.500000  0.739270  0.333415  1
  Br  Br13  1  0.500000  0.260730  0.666585  1
  Br  Br14  1  0.000000  0.251540  0.411865  1
  Br  Br15  1  0.000000  0.748460  0.588135  1
  Br  Br16  1  0.000000  0.751346  0.084893  1
  Br  Br17  1  0.000000  0.248654  0.915107  1
  Br  Br18  1  0.000000  0.003813  0.245057  1
  Br  Br19  1  0.000000  0.996187  0.754943  1
  Br  Br20  1  0.000000  0.499504  0.255882  1
  Br  Br21  1  0.000000  0.500496  0.744118  1
