# generated using pymatgen
data_Zr2Ta3NbAl16Ir7
_symmetry_space_group_name_H-M   'P 1'
_cell_length_a   8.64647055
_cell_length_b   8.64647105
_cell_length_c   8.62113301
_cell_angle_alpha   60.09225004
_cell_angle_beta   60.09222873
_cell_angle_gamma   59.81631869
_symmetry_Int_Tables_number   1
_chemical_formula_structural   Zr2Ta3NbAl16Ir7
_chemical_formula_sum   'Zr2 Ta3 Nb1 Al16 Ir7'
_cell_volume   455.74616338
_cell_formula_units_Z   1
loop_
 _symmetry_equiv_pos_site_id
 _symmetry_equiv_pos_as_xyz
  1  'x, y, z'
loop_
 _atom_site_type_symbol
 _atom_site_label
 _atom_site_symmetry_multiplicity
 _atom_site_fract_x
 _atom_site_fract_y
 _atom_site_fract_z
 _atom_site_occupancy
  Zr  Zr0  1  0.688240  0.310532  0.688813  1
  Zr  Zr1  1  0.310532  0.688240  0.688812  1
  Ta  Ta2  1  0.327601  0.670903  0.326257  1
  Ta  Ta3  1  0.670903  0.327601  0.326257  1
  Ta  Ta4  1  0.322404  0.322404  0.674664  1
  Nb  Nb5  1  0.680478  0.680477  0.316807  1
  Al  Al6  1  0.881724  0.881725  0.355777  1
  Al  Al7  1  0.881467  0.358708  0.881919  1
  Al  Al8  1  0.358708  0.881467  0.881919  1
  Al  Al9  1  0.877864  0.877864  0.882215  1
  Al  Al10  1  0.122014  0.122014  0.638023  1
  Al  Al11  1  0.118408  0.641265  0.122243  1
  Al  Al12  1  0.641265  0.118408  0.122243  1
  Al  Al13  1  0.118214  0.118214  0.119353  1
  Al  Al14  1  0.662640  0.662639  0.011042  1
  Al  Al15  1  0.661948  0.012674  0.660518  1
  Al  Al16  1  0.012674  0.661948  0.660519  1
  Al  Al17  1  0.664214  0.664214  0.659157  1
  Al  Al18  1  0.336011  0.336011  0.987437  1
  Al  Al19  1  0.338526  0.987187  0.334899  1
  Al  Al20  1  0.987186  0.338526  0.334899  1
  Al  Al21  1  0.337461  0.337461  0.335746  1
  Ir  Ir22  1  0.999800  0.999800  0.995552  1
  Ir  Ir23  1  0.000029  0.000029  0.496296  1
  Ir  Ir24  1  0.499880  0.003813  0.497453  1
  Ir  Ir25  1  0.003812  0.499879  0.497453  1
  Ir  Ir26  1  0.500044  0.500044  0.003595  1
  Ir  Ir27  1  0.997223  0.498732  0.000067  1
  Ir  Ir28  1  0.498732  0.997223  0.000067  1
