# generated using pymatgen
data_Ta4Mn3AlCr4
_symmetry_space_group_name_H-M   'P 1'
_cell_length_a   4.83840719
_cell_length_b   4.84919110
_cell_length_c   8.13868730
_cell_angle_alpha   90.00000075
_cell_angle_beta   89.62035296
_cell_angle_gamma   120.07374732
_symmetry_Int_Tables_number   1
_chemical_formula_structural   Ta4Mn3AlCr4
_chemical_formula_sum   'Ta4 Mn3 Al1 Cr4'
_cell_volume   165.24212139
_cell_formula_units_Z   1
loop_
 _symmetry_equiv_pos_site_id
 _symmetry_equiv_pos_as_xyz
  1  'x, y, z'
loop_
 _atom_site_type_symbol
 _atom_site_label
 _atom_site_symmetry_multiplicity
 _atom_site_fract_x
 _atom_site_fract_y
 _atom_site_fract_z
 _atom_site_occupancy
  Ta  Ta0  1  0.333198  0.667907  0.068717  1
  Ta  Ta1  1  0.667078  0.330990  0.560751  1
  Ta  Ta2  1  0.666802  0.334708  0.931283  1
  Ta  Ta3  1  0.332922  0.663913  0.439249  1
  Mn  Mn4  1  0.000000  0.002065  0.500000  1
  Mn  Mn5  1  0.825908  0.170558  0.253407  1
  Mn  Mn6  1  0.174092  0.344651  0.746593  1
  Al  Al7  1  0.000000  0.004013  0.000000  1
  Cr  Cr8  1  0.827012  0.655298  0.255038  1
  Cr  Cr9  1  0.172988  0.828287  0.744962  1
  Cr  Cr10  1  0.659464  0.828537  0.744511  1
  Cr  Cr11  1  0.340536  0.169072  0.255489  1
