# generated using pymatgen
data_Sm3Y(Sn5Ir3)2
_symmetry_space_group_name_H-M   'P 1'
_cell_length_a   13.58298499
_cell_length_b   13.58298560
_cell_length_c   7.28906300
_cell_angle_alpha   89.91488087
_cell_angle_beta   90.08511914
_cell_angle_gamma   160.88031670
_symmetry_Int_Tables_number   1
_chemical_formula_structural   Sm3Y(Sn5Ir3)2
_chemical_formula_sum   'Sm3 Y1 Sn10 Ir6'
_cell_volume   440.48318997
_cell_formula_units_Z   1
loop_
 _symmetry_equiv_pos_site_id
 _symmetry_equiv_pos_as_xyz
  1  'x, y, z'
loop_
 _atom_site_type_symbol
 _atom_site_label
 _atom_site_symmetry_multiplicity
 _atom_site_fract_x
 _atom_site_fract_y
 _atom_site_fract_z
 _atom_site_occupancy
  Sm  Sm0  1  0.172097  0.827903  0.753964  1
  Sm  Sm1  1  0.827891  0.172109  0.254302  1
  Sm  Sm2  1  0.477228  0.522772  0.739023  1
  Y  Y3  1  0.523432  0.476568  0.239780  1
  Sn  Sn4  1  0.879916  0.120084  0.730847  1
  Sn  Sn5  1  0.119768  0.880232  0.231591  1
  Sn  Sn6  1  0.704108  0.295892  0.047441  1
  Sn  Sn7  1  0.295417  0.704583  0.547528  1
  Sn  Sn8  1  0.596885  0.403115  0.611554  1
  Sn  Sn9  1  0.403458  0.596542  0.111864  1
  Sn  Sn10  1  0.952849  0.047151  0.399525  1
  Sn  Sn11  1  0.047764  0.952236  0.901250  1
  Sn  Sn12  1  0.290278  0.709722  0.976812  1
  Sn  Sn13  1  0.709550  0.290450  0.476428  1
  Ir  Ir14  1  0.050886  0.949114  0.519376  1
  Ir  Ir15  1  0.949506  0.050494  0.021737  1
  Ir  Ir16  1  0.776677  0.223323  0.763848  1
  Ir  Ir17  1  0.222932  0.777068  0.263506  1
  Ir  Ir18  1  0.394227  0.605773  0.481967  1
  Ir  Ir19  1  0.605130  0.394870  0.983656  1
