# generated using pymatgen
data_Ac3Sn7Rh2
_symmetry_space_group_name_H-M   'P 1'
_cell_length_a   4.78927650
_cell_length_b   4.75091700
_cell_length_c   14.71300455
_cell_angle_alpha   90.00000000
_cell_angle_beta   99.99601197
_cell_angle_gamma   90.00000000
_symmetry_Int_Tables_number   1
_chemical_formula_structural   Ac3Sn7Rh2
_chemical_formula_sum   'Ac3 Sn7 Rh2'
_cell_volume   329.68980032
_cell_formula_units_Z   1
loop_
 _symmetry_equiv_pos_site_id
 _symmetry_equiv_pos_as_xyz
  1  'x, y, z'
loop_
 _atom_site_type_symbol
 _atom_site_label
 _atom_site_symmetry_multiplicity
 _atom_site_fract_x
 _atom_site_fract_y
 _atom_site_fract_z
 _atom_site_occupancy
  Ac  Ac0  1  0.500001  0.500001  0.000000  1
  Ac  Ac1  1  0.175037  0.000000  0.364929  1
  Ac  Ac2  1  0.824963  0.000000  0.635071  1
  Sn  Sn3  1  0.000000  0.000000  0.000000  1
  Sn  Sn4  1  0.580733  0.000000  0.173716  1
  Sn  Sn5  1  0.091540  0.500001  0.175050  1
  Sn  Sn6  1  0.714588  0.500001  0.439844  1
  Sn  Sn7  1  0.285413  0.500001  0.560156  1
  Sn  Sn8  1  0.908461  0.500001  0.824950  1
  Sn  Sn9  1  0.419268  0.000000  0.826284  1
  Rh  Rh10  1  0.638581  0.500001  0.257294  1
  Rh  Rh11  1  0.361419  0.500001  0.742706  1
