# generated using pymatgen
data_Zr3Al2IrN
_symmetry_space_group_name_H-M   'P 1'
_cell_length_a   8.60655178
_cell_length_b   8.60655140
_cell_length_c   8.60655200
_cell_angle_alpha   60.00000537
_cell_angle_beta   60.00000686
_cell_angle_gamma   60.00000087
_symmetry_Int_Tables_number   1
_chemical_formula_structural   Zr3Al2IrN
_chemical_formula_sum   'Zr12 Al8 Ir4 N4'
_cell_volume   450.78825798
_cell_formula_units_Z   4
loop_
 _symmetry_equiv_pos_site_id
 _symmetry_equiv_pos_as_xyz
  1  'x, y, z'
loop_
 _atom_site_type_symbol
 _atom_site_label
 _atom_site_symmetry_multiplicity
 _atom_site_fract_x
 _atom_site_fract_y
 _atom_site_fract_z
 _atom_site_occupancy
  Zr  Zr0  1  0.809248  0.809248  0.190752  1
  Zr  Zr1  1  0.059248  0.440752  0.440752  1
  Zr  Zr2  1  0.440752  0.059248  0.059248  1
  Zr  Zr3  1  0.059248  0.059248  0.440752  1
  Zr  Zr4  1  0.059248  0.440752  0.059248  1
  Zr  Zr5  1  0.440752  0.059248  0.440752  1
  Zr  Zr6  1  0.190752  0.809248  0.190752  1
  Zr  Zr7  1  0.190752  0.809248  0.809248  1
  Zr  Zr8  1  0.809248  0.190752  0.190752  1
  Zr  Zr9  1  0.809248  0.190752  0.809248  1
  Zr  Zr10  1  0.440752  0.440752  0.059248  1
  Zr  Zr11  1  0.190752  0.190752  0.809248  1
  Al  Al12  1  0.419533  0.741400  0.419533  1
  Al  Al13  1  0.830467  0.830467  0.508600  1
  Al  Al14  1  0.508600  0.830467  0.830467  1
  Al  Al15  1  0.830467  0.830467  0.830467  1
  Al  Al16  1  0.741400  0.419533  0.419533  1
  Al  Al17  1  0.419533  0.419533  0.419533  1
  Al  Al18  1  0.419533  0.419533  0.741400  1
  Al  Al19  1  0.830467  0.508600  0.830467  1
  Ir  Ir20  1  0.625000  0.125000  0.625000  1
  Ir  Ir21  1  0.625000  0.625000  0.125000  1
  Ir  Ir22  1  0.125000  0.625000  0.625000  1
  Ir  Ir23  1  0.625000  0.625000  0.625000  1
  N  N24  1  0.125000  0.625000  0.125000  1
  N  N25  1  0.125000  0.125000  0.625000  1
  N  N26  1  0.625000  0.125000  0.125000  1
  N  N27  1  0.125000  0.125000  0.125000  1
