# generated using pymatgen
data_Ba6HoLu(NiO6)2
_symmetry_space_group_name_H-M   'P 1'
_cell_length_a   7.12504266
_cell_length_b   7.12504166
_cell_length_c   7.12504296
_cell_angle_alpha   93.76087079
_cell_angle_beta   93.76087473
_cell_angle_gamma   93.76086677
_symmetry_Int_Tables_number   1
_chemical_formula_structural   Ba6HoLu(NiO6)2
_chemical_formula_sum   'Ba6 Ho1 Lu1 Ni2 O12'
_cell_volume   359.26687701
_cell_formula_units_Z   1
loop_
 _symmetry_equiv_pos_site_id
 _symmetry_equiv_pos_as_xyz
  1  'x, y, z'
loop_
 _atom_site_type_symbol
 _atom_site_label
 _atom_site_symmetry_multiplicity
 _atom_site_fract_x
 _atom_site_fract_y
 _atom_site_fract_z
 _atom_site_occupancy
  Ba  Ba0  1  0.380949  0.119050  0.750000  1
  Ba  Ba1  1  0.750000  0.380950  0.119051  1
  Ba  Ba2  1  0.249999  0.619502  0.880499  1
  Ba  Ba3  1  0.619501  0.880498  0.250001  1
  Ba  Ba4  1  0.119051  0.750000  0.380950  1
  Ba  Ba5  1  0.880498  0.250000  0.619502  1
  Ho  Ho6  1  0.250001  0.250000  0.250000  1
  Lu  Lu7  1  0.750000  0.750001  0.750000  1
  Ni  Ni8  1  0.501351  0.501351  0.501351  1
  Ni  Ni9  1  0.998649  0.998649  0.998649  1
  O  O10  1  0.782857  0.596538  0.470766  1
  O  O11  1  0.596539  0.470765  0.782857  1
  O  O12  1  0.470765  0.782857  0.596539  1
  O  O13  1  0.029234  0.903462  0.717144  1
  O  O14  1  0.903461  0.717143  0.029234  1
  O  O15  1  0.717144  0.029234  0.903461  1
  O  O16  1  0.218192  0.406730  0.533962  1
  O  O17  1  0.406730  0.533961  0.218192  1
  O  O18  1  0.533961  0.218192  0.406729  1
  O  O19  1  0.966039  0.093270  0.281809  1
  O  O20  1  0.281809  0.966038  0.093269  1
  O  O21  1  0.093269  0.281808  0.966038  1
