# generated using pymatgen
data_Nd2B(PdPt)3
_symmetry_space_group_name_H-M   'P 1'
_cell_length_a   6.21922849
_cell_length_b   6.21922864
_cell_length_c   5.92564848
_cell_angle_alpha   58.34710252
_cell_angle_beta   58.34710175
_cell_angle_gamma   59.99999948
_symmetry_Int_Tables_number   1
_chemical_formula_structural   Nd2B(PdPt)3
_chemical_formula_sum   'Nd2 B1 Pd3 Pt3'
_cell_volume   157.89898382
_cell_formula_units_Z   1
loop_
 _symmetry_equiv_pos_site_id
 _symmetry_equiv_pos_as_xyz
  1  'x, y, z'
loop_
 _atom_site_type_symbol
 _atom_site_label
 _atom_site_symmetry_multiplicity
 _atom_site_fract_x
 _atom_site_fract_y
 _atom_site_fract_z
 _atom_site_occupancy
  Nd  Nd0  1  0.248126  0.248126  0.255621  1
  Nd  Nd1  1  0.741407  0.741407  0.775778  1
  B  B2  1  0.518204  0.518204  0.445389  1
  Pd  Pd3  1  0.249022  0.249022  0.753530  1
  Pd  Pd4  1  0.748426  0.249022  0.753530  1
  Pd  Pd5  1  0.249022  0.748426  0.753530  1
  Pt  Pt6  1  0.760553  0.224686  0.254208  1
  Pt  Pt7  1  0.224686  0.760553  0.254208  1
  Pt  Pt8  1  0.760553  0.760553  0.254208  1
