# generated using pymatgen
data_Er2Ga(Co2P)6
_symmetry_space_group_name_H-M   'P 1'
_cell_length_a   9.07701000
_cell_length_b   9.07701015
_cell_length_c   3.57351700
_cell_angle_alpha   90.00000000
_cell_angle_beta   90.00000000
_cell_angle_gamma   119.99998586
_symmetry_Int_Tables_number   1
_chemical_formula_structural   Er2Ga(Co2P)6
_chemical_formula_sum   'Er2 Ga1 Co12 P6'
_cell_volume   254.98356041
_cell_formula_units_Z   1
loop_
 _symmetry_equiv_pos_site_id
 _symmetry_equiv_pos_as_xyz
  1  'x, y, z'
loop_
 _atom_site_type_symbol
 _atom_site_label
 _atom_site_symmetry_multiplicity
 _atom_site_fract_x
 _atom_site_fract_y
 _atom_site_fract_z
 _atom_site_occupancy
  Er  Er0  1  0.666667  0.333333  0.500000  1
  Er  Er1  1  0.333333  0.666667  0.000000  1
  Ga  Ga2  1  0.000000  0.000000  0.000000  1
  Co  Co3  1  0.128826  0.837157  0.000000  1
  Co  Co4  1  0.386388  0.439665  0.500000  1
  Co  Co5  1  0.708332  0.871174  0.000000  1
  Co  Co6  1  0.560335  0.946723  0.500000  1
  Co  Co7  1  0.255950  0.114605  0.500000  1
  Co  Co8  1  0.858655  0.744050  0.500000  1
  Co  Co9  1  0.885395  0.141345  0.500000  1
  Co  Co10  1  0.939064  0.377710  0.000000  1
  Co  Co11  1  0.622290  0.561354  0.000000  1
  Co  Co12  1  0.438646  0.060936  0.000000  1
  Co  Co13  1  0.053277  0.613612  0.500000  1
  Co  Co14  1  0.162843  0.291668  0.000000  1
  P  P15  1  0.597237  0.708502  0.500000  1
  P  P16  1  0.708808  0.113252  0.000000  1
  P  P17  1  0.886748  0.595556  0.000000  1
  P  P18  1  0.404444  0.291192  0.000000  1
  P  P19  1  0.291498  0.888735  0.500000  1
  P  P20  1  0.111265  0.402763  0.500000  1
