# generated using pymatgen
data_ScH2Br
_symmetry_space_group_name_H-M   'P 1'
_cell_length_a   10.66749906
_cell_length_b   10.66749882
_cell_length_c   10.66749863
_cell_angle_alpha   18.99420999
_cell_angle_beta   18.99421559
_cell_angle_gamma   18.99421042
_symmetry_Int_Tables_number   1
_chemical_formula_structural   ScH2Br
_chemical_formula_sum   'Sc2 H4 Br2'
_cell_volume   112.38434815
_cell_formula_units_Z   2
loop_
 _symmetry_equiv_pos_site_id
 _symmetry_equiv_pos_as_xyz
  1  'x, y, z'
loop_
 _atom_site_type_symbol
 _atom_site_label
 _atom_site_symmetry_multiplicity
 _atom_site_fract_x
 _atom_site_fract_y
 _atom_site_fract_z
 _atom_site_occupancy
  Sc  Sc0  1  0.880585  0.880585  0.880585  1
  Sc  Sc1  1  0.119415  0.119415  0.119415  1
  H  H2  1  0.815522  0.815522  0.815522  1
  H  H3  1  0.184478  0.184478  0.184478  1
  H  H4  1  0.542087  0.542087  0.542087  1
  H  H5  1  0.457913  0.457913  0.457913  1
  Br  Br6  1  0.726560  0.726560  0.726560  1
  Br  Br7  1  0.273440  0.273440  0.273440  1
