# generated using pymatgen
data_V4Br7F
_symmetry_space_group_name_H-M   'P 1'
_cell_length_a   7.83331780
_cell_length_b   7.83331696
_cell_length_c   7.83331657
_cell_angle_alpha   57.76217218
_cell_angle_beta   57.76217992
_cell_angle_gamma   57.76217279
_symmetry_Int_Tables_number   1
_chemical_formula_structural   V4Br7F
_chemical_formula_sum   'V4 Br7 F1'
_cell_volume   322.40814976
_cell_formula_units_Z   1
loop_
 _symmetry_equiv_pos_site_id
 _symmetry_equiv_pos_as_xyz
  1  'x, y, z'
loop_
 _atom_site_type_symbol
 _atom_site_label
 _atom_site_symmetry_multiplicity
 _atom_site_fract_x
 _atom_site_fract_y
 _atom_site_fract_z
 _atom_site_occupancy
  V  V0  1  0.613078  0.136372  0.136372  1
  V  V1  1  0.126850  0.126850  0.126850  1
  V  V2  1  0.136372  0.136372  0.613078  1
  V  V3  1  0.136372  0.613078  0.136372  1
  Br  Br4  1  0.374195  0.374195  0.883730  1
  Br  Br5  1  0.890088  0.890088  0.890088  1
  Br  Br6  1  0.879807  0.879807  0.370540  1
  Br  Br7  1  0.370540  0.879807  0.879807  1
  Br  Br8  1  0.374195  0.883730  0.374195  1
  Br  Br9  1  0.879807  0.370540  0.879807  1
  Br  Br10  1  0.883730  0.374195  0.374195  1
  F  F11  1  0.334962  0.334962  0.334962  1
