# generated using pymatgen
data_Dy8ErZn4
_symmetry_space_group_name_H-M   'P 1'
_cell_length_a   8.56674608
_cell_length_b   8.56664971
_cell_length_c   8.56632742
_cell_angle_alpha   94.98861623
_cell_angle_beta   94.98706824
_cell_angle_gamma   145.70109244
_symmetry_Int_Tables_number   1
_chemical_formula_structural   Dy8ErZn4
_chemical_formula_sum   'Dy8 Er1 Zn4'
_cell_volume   338.51063758
_cell_formula_units_Z   1
loop_
 _symmetry_equiv_pos_site_id
 _symmetry_equiv_pos_as_xyz
  1  'x, y, z'
loop_
 _atom_site_type_symbol
 _atom_site_label
 _atom_site_symmetry_multiplicity
 _atom_site_fract_x
 _atom_site_fract_y
 _atom_site_fract_z
 _atom_site_occupancy
  Dy  Dy0  1  0.181862  0.888005  0.069861  1
  Dy  Dy1  1  0.112003  0.181865  0.293860  1
  Dy  Dy2  1  0.881596  0.403087  0.284684  1
  Dy  Dy3  1  0.596910  0.881599  0.478503  1
  Dy  Dy4  1  0.403089  0.118400  0.521496  1
  Dy  Dy5  1  0.118403  0.596912  0.715316  1
  Dy  Dy6  1  0.887996  0.818134  0.706140  1
  Dy  Dy7  1  0.818137  0.111994  0.930139  1
  Er  Er8  1  0.499999  0.499999  0.000000  1
  Zn  Zn9  1  0.391422  0.734635  0.126059  1
  Zn  Zn10  1  0.734637  0.608574  0.343212  1
  Zn  Zn11  1  0.265362  0.391425  0.656788  1
  Zn  Zn12  1  0.608577  0.265364  0.873941  1
