# generated using pymatgen
data_EuDy2(Co3P2)3
_symmetry_space_group_name_H-M   'P 1'
_cell_length_a   3.71734100
_cell_length_b   10.57160300
_cell_length_c   12.21947600
_cell_angle_alpha   90.00000000
_cell_angle_beta   90.00000000
_cell_angle_gamma   90.00000000
_symmetry_Int_Tables_number   1
_chemical_formula_structural   EuDy2(Co3P2)3
_chemical_formula_sum   'Eu2 Dy4 Co18 P12'
_cell_volume   480.20406265
_cell_formula_units_Z   2
loop_
 _symmetry_equiv_pos_site_id
 _symmetry_equiv_pos_as_xyz
  1  'x, y, z'
loop_
 _atom_site_type_symbol
 _atom_site_label
 _atom_site_symmetry_multiplicity
 _atom_site_fract_x
 _atom_site_fract_y
 _atom_site_fract_z
 _atom_site_occupancy
  Eu  Eu0  1  0.000000  0.500000  0.523971  1
  Eu  Eu1  1  0.500000  0.000000  0.476029  1
  Dy  Dy2  1  0.500000  0.817356  0.204142  1
  Dy  Dy3  1  0.500000  0.182644  0.204142  1
  Dy  Dy4  1  0.000000  0.682644  0.795858  1
  Dy  Dy5  1  0.000000  0.317356  0.795858  1
  Co  Co6  1  0.500000  0.500000  0.156825  1
  Co  Co7  1  0.000000  0.000000  0.843175  1
  Co  Co8  1  0.500000  0.500000  0.704223  1
  Co  Co9  1  0.000000  0.000000  0.295777  1
  Co  Co10  1  0.000000  0.500000  0.986173  1
  Co  Co11  1  0.500000  0.000000  0.013827  1
  Co  Co12  1  0.500000  0.333505  0.994171  1
  Co  Co13  1  0.500000  0.666495  0.994171  1
  Co  Co14  1  0.000000  0.166495  0.005829  1
  Co  Co15  1  0.000000  0.833505  0.005829  1
  Co  Co16  1  0.500000  0.296315  0.429360  1
  Co  Co17  1  0.500000  0.703685  0.429360  1
  Co  Co18  1  0.000000  0.203685  0.570640  1
  Co  Co19  1  0.000000  0.796315  0.570640  1
  Co  Co20  1  0.500000  0.879838  0.712320  1
  Co  Co21  1  0.500000  0.120162  0.712320  1
  Co  Co22  1  0.000000  0.620162  0.287680  1
  Co  Co23  1  0.000000  0.379838  0.287680  1
  P  P24  1  0.500000  0.500000  0.883028  1
  P  P25  1  0.000000  0.000000  0.116972  1
  P  P26  1  0.500000  0.500000  0.340187  1
  P  P27  1  0.000000  0.000000  0.659813  1
  P  P28  1  0.500000  0.306862  0.617327  1
  P  P29  1  0.500000  0.693138  0.617327  1
  P  P30  1  0.000000  0.193138  0.382673  1
  P  P31  1  0.000000  0.806862  0.382673  1
  P  P32  1  0.500000  0.847168  0.894564  1
  P  P33  1  0.500000  0.152832  0.894564  1
  P  P34  1  0.000000  0.652832  0.105436  1
  P  P35  1  0.000000  0.347168  0.105436  1
