# generated using pymatgen
data_Cs8Hf9Zr3(BBr17)2
_symmetry_space_group_name_H-M   'P 1'
_cell_length_a   12.83413315
_cell_length_b   12.83413315
_cell_length_c   11.85005400
_cell_angle_alpha   90.00069629
_cell_angle_beta   89.99930371
_cell_angle_gamma   89.98238376
_symmetry_Int_Tables_number   1
_chemical_formula_structural   Cs8Hf9Zr3(BBr17)2
_chemical_formula_sum   'Cs8 Hf9 Zr3 B2 Br34'
_cell_volume   1951.88124120
_cell_formula_units_Z   1
loop_
 _symmetry_equiv_pos_site_id
 _symmetry_equiv_pos_as_xyz
  1  'x, y, z'
loop_
 _atom_site_type_symbol
 _atom_site_label
 _atom_site_symmetry_multiplicity
 _atom_site_fract_x
 _atom_site_fract_y
 _atom_site_fract_z
 _atom_site_occupancy
  Cs  Cs0  1  0.221589  0.014849  0.342562  1
  Cs  Cs1  1  0.485151  0.278411  0.342562  1
  Cs  Cs2  1  0.514896  0.721560  0.342563  1
  Cs  Cs3  1  0.778440  0.985103  0.342563  1
  Cs  Cs4  1  0.985193  0.221840  0.656630  1
  Cs  Cs5  1  0.721921  0.485568  0.656730  1
  Cs  Cs6  1  0.278160  0.514806  0.656630  1
  Cs  Cs7  1  0.014432  0.778079  0.656730  1
  Hf  Hf8  1  0.090575  0.409425  0.020780  1
  Hf  Hf9  1  0.909467  0.590532  0.020349  1
  Hf  Hf10  1  0.873154  0.373152  0.155142  1
  Hf  Hf11  1  0.126849  0.626847  0.155142  1
  Hf  Hf12  1  0.090406  0.409593  0.295285  1
  Hf  Hf13  1  0.909552  0.590448  0.295264  1
  Hf  Hf14  1  0.592177  0.091246  0.703952  1
  Hf  Hf15  1  0.408753  0.907823  0.703952  1
  Hf  Hf16  1  0.371981  0.128020  0.846023  1
  Zr  Zr17  1  0.628262  0.871739  0.846445  1
  Zr  Zr18  1  0.591749  0.090808  0.981760  1
  Zr  Zr19  1  0.409192  0.908250  0.981760  1
  B  B20  1  0.999937  0.500063  0.157661  1
  B  B21  1  0.498752  0.001248  0.839667  1
  Br  Br22  1  0.246237  0.042887  0.000103  1
  Br  Br23  1  0.457113  0.253763  0.000103  1
  Br  Br24  1  0.540740  0.744758  0.002829  1
  Br  Br25  1  0.755241  0.959259  0.002829  1
  Br  Br26  1  0.708219  0.209143  0.158944  1
  Br  Br27  1  0.290857  0.791781  0.158944  1
  Br  Br28  1  0.206862  0.293139  0.158802  1
  Br  Br29  1  0.793238  0.706761  0.158623  1
  Br  Br30  1  0.499784  0.000216  0.168730  1
  Br  Br31  1  0.955790  0.249965  0.314764  1
  Br  Br32  1  0.750039  0.455780  0.314808  1
  Br  Br33  1  0.250035  0.544210  0.314764  1
  Br  Br34  1  0.044220  0.749961  0.314808  1
  Br  Br35  1  0.203859  0.296140  0.463232  1
  Br  Br36  1  0.796193  0.703807  0.463096  1
  Br  Br37  1  0.000030  0.499970  0.479395  1
  Br  Br38  1  0.000315  0.000058  0.500077  1
  Br  Br39  1  0.499942  0.499685  0.500077  1
  Br  Br40  1  0.499785  0.000215  0.521197  1
  Br  Br41  1  0.702955  0.204025  0.535842  1
  Br  Br42  1  0.295974  0.797045  0.535842  1
  Br  Br43  1  0.250355  0.044594  0.685226  1
  Br  Br44  1  0.455406  0.249645  0.685226  1
  Br  Br45  1  0.542659  0.749044  0.683193  1
  Br  Br46  1  0.750956  0.957341  0.683193  1
  Br  Br47  1  0.000421  0.499579  0.836265  1
  Br  Br48  1  0.707984  0.208409  0.838936  1
  Br  Br49  1  0.291592  0.792015  0.838936  1
  Br  Br50  1  0.206976  0.293024  0.842236  1
  Br  Br51  1  0.795415  0.704585  0.842504  1
  Br  Br52  1  0.959611  0.248317  0.999029  1
  Br  Br53  1  0.748346  0.459421  0.999132  1
  Br  Br54  1  0.251683  0.540388  0.999029  1
  Br  Br55  1  0.040579  0.751653  0.999132  1
