# generated using pymatgen
data_Mg4Ge2Pd3Pt7
_symmetry_space_group_name_H-M   'P 1'
_cell_length_a   4.07469600
_cell_length_b   5.59187538
_cell_length_c   10.89119941
_cell_angle_alpha   89.85713906
_cell_angle_beta   90.00000000
_cell_angle_gamma   90.00000000
_symmetry_Int_Tables_number   1
_chemical_formula_structural   Mg4Ge2Pd3Pt7
_chemical_formula_sum   'Mg4 Ge2 Pd3 Pt7'
_cell_volume   248.15730062
_cell_formula_units_Z   1
loop_
 _symmetry_equiv_pos_site_id
 _symmetry_equiv_pos_as_xyz
  1  'x, y, z'
loop_
 _atom_site_type_symbol
 _atom_site_label
 _atom_site_symmetry_multiplicity
 _atom_site_fract_x
 _atom_site_fract_y
 _atom_site_fract_z
 _atom_site_occupancy
  Mg  Mg0  1  0.500000  0.165144  0.141235  1
  Mg  Mg1  1  0.500000  0.833593  0.859019  1
  Mg  Mg2  1  0.500000  0.333707  0.640897  1
  Mg  Mg3  1  0.500000  0.665952  0.358019  1
  Ge  Ge4  1  0.000000  0.003017  0.501131  1
  Ge  Ge5  1  0.000000  0.500525  0.000606  1
  Pd  Pd6  1  0.000000  0.920200  0.260092  1
  Pd  Pd7  1  0.000000  0.000873  0.000217  1
  Pd  Pd8  1  0.000000  0.502838  0.499184  1
  Pt  Pt9  1  0.500000  0.184047  0.392924  1
  Pt  Pt10  1  0.500000  0.815186  0.607431  1
  Pt  Pt11  1  0.500000  0.315096  0.892482  1
  Pt  Pt12  1  0.500000  0.683585  0.106855  1
  Pt  Pt13  1  0.000000  0.420058  0.239980  1
  Pt  Pt14  1  0.000000  0.577945  0.759566  1
  Pt  Pt15  1  0.000000  0.078236  0.740362  1
