# generated using pymatgen
data_Tb10Er2Ni4SnPd
_symmetry_space_group_name_H-M   'P 1'
_cell_length_a   8.34961549
_cell_length_b   8.34961303
_cell_length_c   8.39663767
_cell_angle_alpha   107.01371456
_cell_angle_beta   109.65067079
_cell_angle_gamma   111.56590384
_symmetry_Int_Tables_number   1
_chemical_formula_structural   Tb10Er2Ni4SnPd
_chemical_formula_sum   'Tb10 Er2 Ni4 Sn1 Pd1'
_cell_volume   451.10513239
_cell_formula_units_Z   1
loop_
 _symmetry_equiv_pos_site_id
 _symmetry_equiv_pos_as_xyz
  1  'x, y, z'
loop_
 _atom_site_type_symbol
 _atom_site_label
 _atom_site_symmetry_multiplicity
 _atom_site_fract_x
 _atom_site_fract_y
 _atom_site_fract_z
 _atom_site_occupancy
  Tb  Tb0  1  0.695530  0.712473  0.408002  1
  Tb  Tb1  1  0.304470  0.287527  0.591998  1
  Tb  Tb2  1  0.803590  0.126281  0.318851  1
  Tb  Tb3  1  0.807429  0.484740  0.681149  1
  Tb  Tb4  1  0.196410  0.873719  0.681149  1
  Tb  Tb5  1  0.192571  0.515260  0.318851  1
  Tb  Tb6  1  0.614646  0.798193  0.817991  1
  Tb  Tb7  1  0.980204  0.796655  0.182009  1
  Tb  Tb8  1  0.019796  0.203345  0.817991  1
  Tb  Tb9  1  0.385354  0.201807  0.182009  1
  Er  Er10  1  0.694314  0.286207  0.980525  1
  Er  Er11  1  0.305686  0.713793  0.019475  1
  Ni  Ni12  1  0.865945  0.497576  0.363521  1
  Ni  Ni13  1  0.134055  0.502424  0.636479  1
  Ni  Ni14  1  0.996139  0.125138  0.121276  1
  Ni  Ni15  1  0.003861  0.874862  0.878724  1
  Sn  Sn16  1  0.500000  0.000000  0.500000  1
  Pd  Pd17  1  0.500000  0.500000  0.000000  1
