# generated using pymatgen
data_K6GaAsP2
_symmetry_space_group_name_H-M   'P 1'
_cell_length_a   8.94217747
_cell_length_b   8.85557869
_cell_length_c   10.09346564
_cell_angle_alpha   81.75107509
_cell_angle_beta   107.16085748
_cell_angle_gamma   118.89222806
_symmetry_Int_Tables_number   1
_chemical_formula_structural   K6GaAsP2
_chemical_formula_sum   'K12 Ga2 As2 P4'
_cell_volume   668.64102865
_cell_formula_units_Z   2
loop_
 _symmetry_equiv_pos_site_id
 _symmetry_equiv_pos_as_xyz
  1  'x, y, z'
loop_
 _atom_site_type_symbol
 _atom_site_label
 _atom_site_symmetry_multiplicity
 _atom_site_fract_x
 _atom_site_fract_y
 _atom_site_fract_z
 _atom_site_occupancy
  K  K0  1  0.729692  0.115128  0.618738  1
  K  K1  1  0.253791  0.862867  0.390391  1
  K  K2  1  0.966149  0.818645  0.629076  1
  K  K3  1  0.025868  0.195778  0.394068  1
  K  K4  1  0.624972  0.447236  0.396390  1
  K  K5  1  0.403692  0.563663  0.595266  1
  K  K6  1  0.870321  0.488488  0.140231  1
  K  K7  1  0.108819  0.499096  0.835755  1
  K  K8  1  0.734870  0.090906  0.989724  1
  K  K9  1  0.257705  0.880627  0.004890  1
  K  K10  1  0.565489  0.631994  0.951029  1
  K  K11  1  0.248445  0.208181  0.104456  1
  Ga  Ga12  1  0.596499  0.837675  0.260596  1
  Ga  Ga13  1  0.410006  0.165872  0.746149  1
  As  As14  1  0.303612  0.566545  0.227755  1
  As  As15  1  0.703335  0.426958  0.766668  1
  P  P16  1  0.602134  0.107069  0.266872  1
  P  P17  1  0.381903  0.884371  0.733905  1
  P  P18  1  0.849815  0.822624  0.248712  1
  P  P19  1  0.172262  0.203019  0.760713  1
