# generated using pymatgen
data_Hf3AlGa2NiIr2
_symmetry_space_group_name_H-M   'P 1'
_cell_length_a   7.30871678
_cell_length_b   7.30871604
_cell_length_c   3.23101100
_cell_angle_alpha   90.00000000
_cell_angle_beta   90.00000000
_cell_angle_gamma   120.40112579
_symmetry_Int_Tables_number   1
_chemical_formula_structural   Hf3AlGa2NiIr2
_chemical_formula_sum   'Hf3 Al1 Ga2 Ni1 Ir2'
_cell_volume   148.86124211
_cell_formula_units_Z   1
loop_
 _symmetry_equiv_pos_site_id
 _symmetry_equiv_pos_as_xyz
  1  'x, y, z'
loop_
 _atom_site_type_symbol
 _atom_site_label
 _atom_site_symmetry_multiplicity
 _atom_site_fract_x
 _atom_site_fract_y
 _atom_site_fract_z
 _atom_site_occupancy
  Hf  Hf0  1  0.386551  0.386551  0.500000  1
  Hf  Hf1  1  0.607509  0.001134  0.500000  1
  Hf  Hf2  1  0.001134  0.607509  0.500000  1
  Al  Al3  1  0.741016  0.741016  0.000000  1
  Ga  Ga4  1  0.259468  0.997453  0.000000  1
  Ga  Ga5  1  0.997453  0.259468  0.000000  1
  Ni  Ni6  1  0.998824  0.998824  0.500000  1
  Ir  Ir7  1  0.668142  0.339903  0.000000  1
  Ir  Ir8  1  0.339903  0.668142  0.000000  1
