# generated using pymatgen
data_Sc4B8MoRu9
_symmetry_space_group_name_H-M   'P 1'
_cell_length_a   3.02546900
_cell_length_b   8.55912451
_cell_length_c   10.06789521
_cell_angle_alpha   90.49363568
_cell_angle_beta   90.00000000
_cell_angle_gamma   90.00000000
_symmetry_Int_Tables_number   1
_chemical_formula_structural   Sc4B8MoRu9
_chemical_formula_sum   'Sc4 B8 Mo1 Ru9'
_cell_volume   260.70215408
_cell_formula_units_Z   1
loop_
 _symmetry_equiv_pos_site_id
 _symmetry_equiv_pos_as_xyz
  1  'x, y, z'
loop_
 _atom_site_type_symbol
 _atom_site_label
 _atom_site_symmetry_multiplicity
 _atom_site_fract_x
 _atom_site_fract_y
 _atom_site_fract_z
 _atom_site_occupancy
  Sc  Sc0  1  0.500000  0.841904  0.177850  1
  Sc  Sc1  1  0.500000  0.158239  0.819765  1
  Sc  Sc2  1  0.500000  0.658581  0.684195  1
  Sc  Sc3  1  0.500000  0.343399  0.316701  1
  B  B4  1  0.500000  0.965539  0.589207  1
  B  B5  1  0.500000  0.035214  0.409753  1
  B  B6  1  0.500000  0.850793  0.900059  1
  B  B7  1  0.500000  0.149081  0.099760  1
  B  B8  1  0.500000  0.646140  0.398836  1
  B  B9  1  0.500000  0.351325  0.601634  1
  B  B10  1  0.500000  0.463468  0.913428  1
  B  B11  1  0.500000  0.534368  0.087983  1
  Mo  Mo12  1  0.000000  0.659648  0.953631  1
  Ru  Ru13  1  0.000000  0.336497  0.049415  1
  Ru  Ru14  1  0.000000  0.841844  0.452531  1
  Ru  Ru15  1  0.000000  0.158878  0.545411  1
  Ru  Ru16  1  0.000000  0.002585  0.999559  1
  Ru  Ru17  1  0.000000  0.403245  0.761237  1
  Ru  Ru18  1  0.000000  0.596492  0.239919  1
  Ru  Ru19  1  0.000000  0.499810  0.501055  1
  Ru  Ru20  1  0.000000  0.907473  0.736662  1
  Ru  Ru21  1  0.000000  0.095476  0.261408  1
