# generated using pymatgen
data_Tb4TcOs6W
_symmetry_space_group_name_H-M   'P 1'
_cell_length_a   5.24383387
_cell_length_b   5.24383520
_cell_length_c   9.05543500
_cell_angle_alpha   90.00000000
_cell_angle_beta   90.00000000
_cell_angle_gamma   116.33058189
_symmetry_Int_Tables_number   1
_chemical_formula_structural   Tb4TcOs6W
_chemical_formula_sum   'Tb4 Tc1 Os6 W1'
_cell_volume   223.17027753
_cell_formula_units_Z   1
loop_
 _symmetry_equiv_pos_site_id
 _symmetry_equiv_pos_as_xyz
  1  'x, y, z'
loop_
 _atom_site_type_symbol
 _atom_site_label
 _atom_site_symmetry_multiplicity
 _atom_site_fract_x
 _atom_site_fract_y
 _atom_site_fract_z
 _atom_site_occupancy
  Tb  Tb0  1  0.328586  0.671414  0.437355  1
  Tb  Tb1  1  0.666371  0.333629  0.564478  1
  Tb  Tb2  1  0.666371  0.333629  0.935522  1
  Tb  Tb3  1  0.328586  0.671414  0.062645  1
  Tc  Tc4  1  0.175109  0.824891  0.750000  1
  Os  Os5  1  0.993866  0.006134  0.502647  1
  Os  Os6  1  0.993866  0.006134  0.997353  1
  Os  Os7  1  0.824723  0.650010  0.250000  1
  Os  Os8  1  0.349990  0.175277  0.250000  1
  Os  Os9  1  0.170727  0.338089  0.750000  1
  Os  Os10  1  0.661911  0.829273  0.750000  1
  W  W11  1  0.839896  0.160104  0.250000  1
