# generated using pymatgen
data_Pr2Sm4CoI10
_symmetry_space_group_name_H-M   'P 1'
_cell_length_a   7.88781231
_cell_length_b   9.93038615
_cell_length_c   9.92977461
_cell_angle_alpha   106.73523124
_cell_angle_beta   96.26953698
_cell_angle_gamma   104.85416512
_symmetry_Int_Tables_number   1
_chemical_formula_structural   Pr2Sm4CoI10
_chemical_formula_sum   'Pr2 Sm4 Co1 I10'
_cell_volume   705.74108378
_cell_formula_units_Z   1
loop_
 _symmetry_equiv_pos_site_id
 _symmetry_equiv_pos_as_xyz
  1  'x, y, z'
loop_
 _atom_site_type_symbol
 _atom_site_label
 _atom_site_symmetry_multiplicity
 _atom_site_fract_x
 _atom_site_fract_y
 _atom_site_fract_z
 _atom_site_occupancy
  Pr  Pr0  1  0.884687  0.957087  0.230661  1
  Pr  Pr1  1  0.115313  0.042913  0.769339  1
  Sm  Sm2  1  0.033736  0.717076  0.915817  1
  Sm  Sm3  1  0.966264  0.282924  0.084183  1
  Sm  Sm4  1  0.656386  0.878248  0.836502  1
  Sm  Sm5  1  0.343614  0.121752  0.163498  1
  Co  Co6  1  0.000000  0.000000  0.000000  1
  I  I7  1  0.654445  0.554210  0.732147  1
  I  I8  1  0.345555  0.445790  0.267853  1
  I  I9  1  0.741516  0.914882  0.544200  1
  I  I10  1  0.258484  0.085118  0.455800  1
  I  I11  1  0.083794  0.373649  0.821660  1
  I  I12  1  0.916206  0.626351  0.178340  1
  I  I13  1  0.451299  0.816817  0.090730  1
  I  I14  1  0.548701  0.183183  0.909270  1
  I  I15  1  0.227996  0.743775  0.658741  1
  I  I16  1  0.772004  0.256225  0.341259  1
