# generated using pymatgen
data_Dy9HoAlSb5
_symmetry_space_group_name_H-M   'P 1'
_cell_length_a   6.38559501
_cell_length_b   8.95710976
_cell_length_c   8.94289895
_cell_angle_alpha   120.05317963
_cell_angle_beta   90.00168558
_cell_angle_gamma   90.00458703
_symmetry_Int_Tables_number   1
_chemical_formula_structural   Dy9HoAlSb5
_chemical_formula_sum   'Dy9 Ho1 Al1 Sb5'
_cell_volume   442.73641419
_cell_formula_units_Z   1
loop_
 _symmetry_equiv_pos_site_id
 _symmetry_equiv_pos_as_xyz
  1  'x, y, z'
loop_
 _atom_site_type_symbol
 _atom_site_label
 _atom_site_symmetry_multiplicity
 _atom_site_fract_x
 _atom_site_fract_y
 _atom_site_fract_z
 _atom_site_occupancy
  Dy  Dy0  1  0.500823  0.665183  0.327017  1
  Dy  Dy1  1  0.999137  0.665136  0.326916  1
  Dy  Dy2  1  0.999095  0.338242  0.673101  1
  Dy  Dy3  1  0.749989  0.248277  0.999960  1
  Dy  Dy4  1  0.749974  0.753896  0.762681  1
  Dy  Dy5  1  0.749944  0.991254  0.237312  1
  Dy  Dy6  1  0.250061  0.757120  0.999962  1
  Dy  Dy7  1  0.250035  0.245309  0.244662  1
  Dy  Dy8  1  0.250009  0.000597  0.755299  1
  Ho  Ho9  1  0.500990  0.338322  0.673163  1
  Al  Al10  1  0.749754  0.604188  0.999735  1
  Sb  Sb11  1  0.749782  0.388454  0.390468  1
  Sb  Sb12  1  0.749811  0.998458  0.609728  1
  Sb  Sb13  1  0.250241  0.392041  0.999743  1
  Sb  Sb14  1  0.250161  0.610679  0.608342  1
  Sb  Sb15  1  0.250193  0.002847  0.391909  1
