# generated using pymatgen
data_Ca2TbYbBi3
_symmetry_space_group_name_H-M   'P 1'
_cell_length_a   8.29190500
_cell_length_b   8.29735708
_cell_length_c   8.37828257
_cell_angle_alpha   109.55477273
_cell_angle_beta   109.50804602
_cell_angle_gamma   109.05160026
_symmetry_Int_Tables_number   1
_chemical_formula_structural   Ca2TbYbBi3
_chemical_formula_sum   'Ca4 Tb2 Yb2 Bi6'
_cell_volume   445.36195342
_cell_formula_units_Z   2
loop_
 _symmetry_equiv_pos_site_id
 _symmetry_equiv_pos_as_xyz
  1  'x, y, z'
loop_
 _atom_site_type_symbol
 _atom_site_label
 _atom_site_symmetry_multiplicity
 _atom_site_fract_x
 _atom_site_fract_y
 _atom_site_fract_z
 _atom_site_occupancy
  Ca  Ca0  1  0.500169  0.002930  0.355859  1
  Ca  Ca1  1  0.502906  0.000753  0.856073  1
  Ca  Ca2  1  0.644603  0.643806  0.647177  1
  Ca  Ca3  1  0.997497  0.355302  0.497015  1
  Tb  Tb4  1  0.999421  0.856013  0.499079  1
  Tb  Tb5  1  0.356291  0.499175  0.999768  1
  Yb  Yb6  1  0.144214  0.144724  0.147135  1
  Yb  Yb7  1  0.855541  0.497527  0.997539  1
  Bi  Bi8  1  0.126797  0.749092  0.872175  1
  Bi  Bi9  1  0.882891  0.124808  0.751312  1
  Bi  Bi10  1  0.624047  0.382633  0.250156  1
  Bi  Bi11  1  0.369499  0.247520  0.627974  1
  Bi  Bi12  1  0.747962  0.869324  0.127893  1
  Bi  Bi13  1  0.248161  0.626392  0.370845  1
