# generated using pymatgen
data_CeY3(TcB6)2
_symmetry_space_group_name_H-M   'P 1'
_cell_length_a   3.72030700
_cell_length_b   9.20611725
_cell_length_c   11.59437201
_cell_angle_alpha   89.85803494
_cell_angle_beta   90.00000000
_cell_angle_gamma   90.00000000
_symmetry_Int_Tables_number   1
_chemical_formula_structural   CeY3(TcB6)2
_chemical_formula_sum   'Ce2 Y6 Tc4 B24'
_cell_volume   397.10118124
_cell_formula_units_Z   2
loop_
 _symmetry_equiv_pos_site_id
 _symmetry_equiv_pos_as_xyz
  1  'x, y, z'
loop_
 _atom_site_type_symbol
 _atom_site_label
 _atom_site_symmetry_multiplicity
 _atom_site_fract_x
 _atom_site_fract_y
 _atom_site_fract_z
 _atom_site_occupancy
  Ce  Ce0  1  0.000000  0.822622  0.086249  1
  Ce  Ce1  1  0.000000  0.177378  0.913751  1
  Y  Y2  1  0.000000  0.324169  0.414733  1
  Y  Y3  1  0.000000  0.675831  0.585267  1
  Y  Y4  1  0.000000  0.442982  0.130217  1
  Y  Y5  1  0.000000  0.557018  0.869783  1
  Y  Y6  1  0.000000  0.942439  0.370807  1
  Y  Y7  1  0.000000  0.057561  0.629193  1
  Tc  Tc8  1  0.000000  0.137311  0.177914  1
  Tc  Tc9  1  0.000000  0.862689  0.822086  1
  Tc  Tc10  1  0.000000  0.639105  0.319864  1
  Tc  Tc11  1  0.000000  0.360895  0.680136  1
  B  B12  1  0.500000  0.054009  0.068328  1
  B  B13  1  0.500000  0.945991  0.931673  1
  B  B14  1  0.500000  0.553385  0.432993  1
  B  B15  1  0.500000  0.446615  0.567006  1
  B  B16  1  0.500000  0.248521  0.082495  1
  B  B17  1  0.500000  0.751479  0.917505  1
  B  B18  1  0.500000  0.747980  0.418909  1
  B  B19  1  0.500000  0.252020  0.581091  1
  B  B20  1  0.500000  0.291175  0.235031  1
  B  B21  1  0.500000  0.708825  0.764969  1
  B  B22  1  0.500000  0.790529  0.266088  1
  B  B23  1  0.500000  0.209471  0.733912  1
  B  B24  1  0.500000  0.130914  0.314575  1
  B  B25  1  0.500000  0.869086  0.685425  1
  B  B26  1  0.500000  0.630915  0.186537  1
  B  B27  1  0.500000  0.369085  0.813463  1
  B  B28  1  0.500000  0.482531  0.288702  1
  B  B29  1  0.500000  0.517469  0.711298  1
  B  B30  1  0.500000  0.983394  0.212654  1
  B  B31  1  0.500000  0.016606  0.787346  1
  B  B32  1  0.500000  0.102289  0.471409  1
  B  B33  1  0.500000  0.897711  0.528591  1
  B  B34  1  0.500000  0.603077  0.028733  1
  B  B35  1  0.500000  0.396923  0.971267  1
