# generated using pymatgen
data_Ca10(RhAu)3
_symmetry_space_group_name_H-M   'P 1'
_cell_length_a   8.95439146
_cell_length_b   8.95439131
_cell_length_c   9.01391007
_cell_angle_alpha   128.92836443
_cell_angle_beta   128.92836368
_cell_angle_gamma   74.63009748
_symmetry_Int_Tables_number   1
_chemical_formula_structural   Ca10(RhAu)3
_chemical_formula_sum   'Ca10 Rh3 Au3'
_cell_volume   427.21547298
_cell_formula_units_Z   1
loop_
 _symmetry_equiv_pos_site_id
 _symmetry_equiv_pos_as_xyz
  1  'x, y, z'
loop_
 _atom_site_type_symbol
 _atom_site_label
 _atom_site_symmetry_multiplicity
 _atom_site_fract_x
 _atom_site_fract_y
 _atom_site_fract_z
 _atom_site_occupancy
  Ca  Ca0  1  0.468253  0.968253  0.163404  1
  Ca  Ca1  1  0.195152  0.695152  0.163404  1
  Ca  Ca2  1  0.522961  0.022961  0.821998  1
  Ca  Ca3  1  0.039093  0.194511  0.509004  1
  Ca  Ca4  1  0.694511  0.539093  0.509004  1
  Ca  Ca5  1  0.969910  0.814492  0.509004  1
  Ca  Ca6  1  0.001989  0.993542  0.995532  1
  Ca  Ca7  1  0.493542  0.501989  0.995532  1
  Ca  Ca8  1  0.799037  0.299037  0.821998  1
  Ca  Ca9  1  0.314492  0.469910  0.509004  1
  Rh  Rh10  1  0.127609  0.627609  0.755218  1
  Rh  Rh11  1  0.625458  0.872592  0.498049  1
  Rh  Rh12  1  0.372592  0.125458  0.498049  1
  Au  Au13  1  0.873218  0.373218  0.246438  1
  Au  Au14  1  0.751091  0.751091  0.002182  1
  Au  Au15  1  0.251091  0.251091  0.002182  1
