# generated using pymatgen
data_Tb2Lu3Ru2
_symmetry_space_group_name_H-M   'P 1'
_cell_length_a   6.26711658
_cell_length_b   7.24688213
_cell_length_c   8.36240203
_cell_angle_alpha   97.06023151
_cell_angle_beta   112.00700405
_cell_angle_gamma   89.99999564
_symmetry_Int_Tables_number   1
_chemical_formula_structural   Tb2Lu3Ru2
_chemical_formula_sum   'Tb4 Lu6 Ru4'
_cell_volume   349.01496026
_cell_formula_units_Z   2
loop_
 _symmetry_equiv_pos_site_id
 _symmetry_equiv_pos_as_xyz
  1  'x, y, z'
loop_
 _atom_site_type_symbol
 _atom_site_label
 _atom_site_symmetry_multiplicity
 _atom_site_fract_x
 _atom_site_fract_y
 _atom_site_fract_z
 _atom_site_occupancy
  Tb  Tb0  1  0.522018  0.083010  0.810959  1
  Tb  Tb1  1  0.477982  0.916990  0.189041  1
  Tb  Tb2  1  0.711060  0.416990  0.189041  1
  Tb  Tb3  1  0.288940  0.583010  0.810959  1
  Lu  Lu4  1  0.299828  0.313751  0.433012  1
  Lu  Lu5  1  0.700172  0.686249  0.566988  1
  Lu  Lu6  1  0.866816  0.186249  0.566988  1
  Lu  Lu7  1  0.133184  0.813751  0.433012  1
  Lu  Lu8  1  0.079722  0.250000  0.000000  1
  Lu  Lu9  1  0.920278  0.750000  0.000000  1
  Ru  Ru10  1  0.319667  0.576503  0.222279  1
  Ru  Ru11  1  0.680333  0.423497  0.777721  1
  Ru  Ru12  1  0.097389  0.923497  0.777721  1
  Ru  Ru13  1  0.902611  0.076503  0.222279  1
