# generated using pymatgen
data_Sm10DyPa9Rh16
_symmetry_space_group_name_H-M   'P 1'
_cell_length_a   7.41129136
_cell_length_b   7.51540747
_cell_length_c   14.65325000
_cell_angle_alpha   90.00000000
_cell_angle_beta   90.00000000
_cell_angle_gamma   89.56354824
_symmetry_Int_Tables_number   1
_chemical_formula_structural   Sm10DyPa9Rh16
_chemical_formula_sum   'Sm10 Dy1 Pa9 Rh16'
_cell_volume   816.14585312
_cell_formula_units_Z   1
loop_
 _symmetry_equiv_pos_site_id
 _symmetry_equiv_pos_as_xyz
  1  'x, y, z'
loop_
 _atom_site_type_symbol
 _atom_site_label
 _atom_site_symmetry_multiplicity
 _atom_site_fract_x
 _atom_site_fract_y
 _atom_site_fract_z
 _atom_site_occupancy
  Sm  Sm0  1  0.503238  0.674452  0.592346  1
  Sm  Sm1  1  0.003138  0.825488  0.910444  1
  Sm  Sm2  1  0.494811  0.324952  0.092600  1
  Sm  Sm3  1  0.996113  0.178686  0.406790  1
  Sm  Sm4  1  0.494811  0.324952  0.407400  1
  Sm  Sm5  1  0.996113  0.178686  0.093210  1
  Sm  Sm6  1  0.503238  0.674452  0.907654  1
  Sm  Sm7  1  0.003138  0.825488  0.589556  1
  Sm  Sm8  1  0.309654  0.969129  0.750000  1
  Sm  Sm9  1  0.690945  0.029222  0.250000  1
  Dy  Dy10  1  0.189050  0.474518  0.250000  1
  Pa  Pa11  1  0.655868  0.156475  0.619870  1
  Pa  Pa12  1  0.162371  0.338788  0.880625  1
  Pa  Pa13  1  0.343438  0.842788  0.121040  1
  Pa  Pa14  1  0.841822  0.656169  0.378752  1
  Pa  Pa15  1  0.343438  0.842788  0.378960  1
  Pa  Pa16  1  0.841822  0.656169  0.121248  1
  Pa  Pa17  1  0.655868  0.156475  0.880130  1
  Pa  Pa18  1  0.162371  0.338788  0.619375  1
  Pa  Pa19  1  0.811936  0.529830  0.750000  1
  Rh  Rh20  1  0.680759  0.950015  0.461739  1
  Rh  Rh21  1  0.177847  0.550172  0.040685  1
  Rh  Rh22  1  0.323783  0.051865  0.962506  1
  Rh  Rh23  1  0.826066  0.451183  0.543298  1
  Rh  Rh24  1  0.323783  0.051865  0.537494  1
  Rh  Rh25  1  0.826066  0.451183  0.956702  1
  Rh  Rh26  1  0.680759  0.950015  0.038261  1
  Rh  Rh27  1  0.177847  0.550172  0.459315  1
  Rh  Rh28  1  0.462439  0.360981  0.750000  1
  Rh  Rh29  1  0.940933  0.160448  0.750000  1
  Rh  Rh30  1  0.542945  0.653718  0.250000  1
  Rh  Rh31  1  0.045891  0.844731  0.250000  1
  Rh  Rh32  1  0.704304  0.862708  0.750000  1
  Rh  Rh33  1  0.165126  0.610582  0.750000  1
  Rh  Rh34  1  0.307568  0.109915  0.250000  1
  Rh  Rh35  1  0.810696  0.392155  0.250000  1
