# generated using pymatgen
data_Pu3Pa(TaN2)4
_symmetry_space_group_name_H-M   'P 1'
_cell_length_a   3.29080700
_cell_length_b   5.70501500
_cell_length_c   10.97672100
_cell_angle_alpha   89.99817824
_cell_angle_beta   90.00000000
_cell_angle_gamma   90.00000000
_symmetry_Int_Tables_number   1
_chemical_formula_structural   Pu3Pa(TaN2)4
_chemical_formula_sum   'Pu3 Pa1 Ta4 N8'
_cell_volume   206.07809387
_cell_formula_units_Z   1
loop_
 _symmetry_equiv_pos_site_id
 _symmetry_equiv_pos_as_xyz
  1  'x, y, z'
loop_
 _atom_site_type_symbol
 _atom_site_label
 _atom_site_symmetry_multiplicity
 _atom_site_fract_x
 _atom_site_fract_y
 _atom_site_fract_z
 _atom_site_occupancy
  Pu  Pu0  1  0.750000  0.419731  0.141567  1
  Pu  Pu1  1  0.750000  0.919558  0.360559  1
  Pu  Pu2  1  0.250000  0.081491  0.638797  1
  Pa  Pa3  1  0.250000  0.579634  0.860969  1
  Ta  Ta4  1  0.250000  0.922241  0.105403  1
  Ta  Ta5  1  0.750000  0.078425  0.895280  1
  Ta  Ta6  1  0.750000  0.579746  0.602991  1
  Ta  Ta7  1  0.250000  0.419999  0.393950  1
  N  N8  1  0.250000  0.661109  0.245059  1
  N  N9  1  0.750000  0.342420  0.756525  1
  N  N10  1  0.750000  0.835039  0.747075  1
  N  N11  1  0.250000  0.159687  0.254206  1
  N  N12  1  0.250000  0.747036  0.506124  1
  N  N13  1  0.750000  0.253161  0.493356  1
  N  N14  1  0.750000  0.750373  0.006075  1
  N  N15  1  0.250000  0.250350  0.992063  1
