# generated using pymatgen
data_Pa3Tc3Sn2
_symmetry_space_group_name_H-M   'P 1'
_cell_length_a   7.92491400
_cell_length_b   7.92491277
_cell_length_c   6.22931100
_cell_angle_alpha   90.00000000
_cell_angle_beta   90.00000000
_cell_angle_gamma   119.99999680
_symmetry_Int_Tables_number   1
_chemical_formula_structural   Pa3Tc3Sn2
_chemical_formula_sum   'Pa6 Tc6 Sn4'
_cell_volume   338.81272094
_cell_formula_units_Z   2
loop_
 _symmetry_equiv_pos_site_id
 _symmetry_equiv_pos_as_xyz
  1  'x, y, z'
loop_
 _atom_site_type_symbol
 _atom_site_label
 _atom_site_symmetry_multiplicity
 _atom_site_fract_x
 _atom_site_fract_y
 _atom_site_fract_z
 _atom_site_occupancy
  Pa  Pa0  1  0.249035  0.000000  0.250000  1
  Pa  Pa1  1  0.000000  0.249036  0.250000  1
  Pa  Pa2  1  0.750965  0.750965  0.250000  1
  Pa  Pa3  1  0.750965  0.000000  0.750000  1
  Pa  Pa4  1  0.249035  0.249036  0.750000  1
  Pa  Pa5  1  0.000000  0.750965  0.750000  1
  Tc  Tc6  1  0.623566  0.000000  0.250000  1
  Tc  Tc7  1  0.376433  0.376433  0.250000  1
  Tc  Tc8  1  0.000000  0.623566  0.250000  1
  Tc  Tc9  1  0.376434  0.000000  0.750000  1
  Tc  Tc10  1  0.000000  0.376433  0.750000  1
  Tc  Tc11  1  0.623567  0.623566  0.750000  1
  Sn  Sn12  1  0.666667  0.333333  0.000000  1
  Sn  Sn13  1  0.333333  0.666666  0.000000  1
  Sn  Sn14  1  0.666667  0.333333  0.500001  1
  Sn  Sn15  1  0.333333  0.666666  0.500001  1
