# generated using pymatgen
data_UPa3Tc7Sb6
_symmetry_space_group_name_H-M   'P 1'
_cell_length_a   7.62171840
_cell_length_b   7.59253733
_cell_length_c   7.59253583
_cell_angle_alpha   109.39323509
_cell_angle_beta   109.54909675
_cell_angle_gamma   109.54909396
_symmetry_Int_Tables_number   1
_chemical_formula_structural   UPa3Tc7Sb6
_chemical_formula_sum   'U1 Pa3 Tc7 Sb6'
_cell_volume   337.89867838
_cell_formula_units_Z   1
loop_
 _symmetry_equiv_pos_site_id
 _symmetry_equiv_pos_as_xyz
  1  'x, y, z'
loop_
 _atom_site_type_symbol
 _atom_site_label
 _atom_site_symmetry_multiplicity
 _atom_site_fract_x
 _atom_site_fract_y
 _atom_site_fract_z
 _atom_site_occupancy
  U  U0  1  0.500000  0.000000  0.000000  1
  Pa  Pa1  1  0.500000  0.500000  0.500000  1
  Pa  Pa2  1  0.000000  0.000000  0.500000  1
  Pa  Pa3  1  0.000000  0.500000  0.000000  1
  Tc  Tc4  1  0.748987  0.248987  0.497972  1
  Tc  Tc5  1  0.500000  0.248987  0.751013  1
  Tc  Tc6  1  0.500000  0.751013  0.248987  1
  Tc  Tc7  1  0.251013  0.502028  0.751013  1
  Tc  Tc8  1  0.748987  0.497972  0.248987  1
  Tc  Tc9  1  0.251013  0.751013  0.502028  1
  Tc  Tc10  1  0.000000  0.000000  0.000000  1
  Sb  Sb11  1  0.310039  0.308960  0.000000  1
  Sb  Sb12  1  0.998920  0.308960  0.308960  1
  Sb  Sb13  1  0.001080  0.691040  0.691040  1
  Sb  Sb14  1  0.689961  0.000000  0.691040  1
  Sb  Sb15  1  0.310039  0.000000  0.308960  1
  Sb  Sb16  1  0.689961  0.691040  0.000000  1
