# generated using pymatgen
data_TbYb3Ni2Sn5
_symmetry_space_group_name_H-M   'P 1'
_cell_length_a   4.42526200
_cell_length_b   8.75634700
_cell_length_c   13.86831500
_cell_angle_alpha   90.00000000
_cell_angle_beta   90.00000000
_cell_angle_gamma   90.00000000
_symmetry_Int_Tables_number   1
_chemical_formula_structural   TbYb3Ni2Sn5
_chemical_formula_sum   'Tb2 Yb6 Ni4 Sn10'
_cell_volume   537.38513579
_cell_formula_units_Z   2
loop_
 _symmetry_equiv_pos_site_id
 _symmetry_equiv_pos_as_xyz
  1  'x, y, z'
loop_
 _atom_site_type_symbol
 _atom_site_label
 _atom_site_symmetry_multiplicity
 _atom_site_fract_x
 _atom_site_fract_y
 _atom_site_fract_z
 _atom_site_occupancy
  Tb  Tb0  1  0.500000  0.701205  0.000000  1
  Tb  Tb1  1  0.000000  0.298795  0.500000  1
  Yb  Yb2  1  0.500000  0.789559  0.742249  1
  Yb  Yb3  1  0.000000  0.210441  0.757751  1
  Yb  Yb4  1  0.000000  0.210441  0.242249  1
  Yb  Yb5  1  0.500000  0.136371  0.000000  1
  Yb  Yb6  1  0.000000  0.863629  0.500000  1
  Yb  Yb7  1  0.500000  0.789559  0.257751  1
  Ni  Ni8  1  0.500000  0.381977  0.647206  1
  Ni  Ni9  1  0.000000  0.618023  0.852794  1
  Ni  Ni10  1  0.000000  0.618023  0.147206  1
  Ni  Ni11  1  0.500000  0.381977  0.352794  1
  Sn  Sn12  1  0.500000  0.088842  0.393522  1
  Sn  Sn13  1  0.000000  0.552177  0.665388  1
  Sn  Sn14  1  0.000000  0.411321  0.000000  1
  Sn  Sn15  1  0.500000  0.447823  0.165388  1
  Sn  Sn16  1  0.500000  0.588679  0.500000  1
  Sn  Sn17  1  0.500000  0.447823  0.834612  1
  Sn  Sn18  1  0.000000  0.911158  0.893522  1
  Sn  Sn19  1  0.000000  0.552177  0.334612  1
  Sn  Sn20  1  0.500000  0.088842  0.606478  1
  Sn  Sn21  1  0.000000  0.911158  0.106478  1
