# generated using pymatgen
data_Th4IrPb2Au3
_symmetry_space_group_name_H-M   'P 1'
_cell_length_a   3.93345200
_cell_length_b   8.13256708
_cell_length_c   8.13256696
_cell_angle_alpha   89.94298297
_cell_angle_beta   90.00000000
_cell_angle_gamma   90.00000000
_symmetry_Int_Tables_number   1
_chemical_formula_structural   Th4IrPb2Au3
_chemical_formula_sum   'Th4 Ir1 Pb2 Au3'
_cell_volume   260.15306191
_cell_formula_units_Z   1
loop_
 _symmetry_equiv_pos_site_id
 _symmetry_equiv_pos_as_xyz
  1  'x, y, z'
loop_
 _atom_site_type_symbol
 _atom_site_label
 _atom_site_symmetry_multiplicity
 _atom_site_fract_x
 _atom_site_fract_y
 _atom_site_fract_z
 _atom_site_occupancy
  Th  Th0  1  0.500000  0.170930  0.670930  1
  Th  Th1  1  0.500000  0.810866  0.310866  1
  Th  Th2  1  0.500000  0.346046  0.177579  1
  Th  Th3  1  0.500000  0.677579  0.846046  1
  Ir  Ir4  1  0.000000  0.623220  0.123220  1
  Pb  Pb5  1  0.000000  0.002295  0.002586  1
  Pb  Pb6  1  0.000000  0.502586  0.502295  1
  Au  Au7  1  0.000000  0.372257  0.872257  1
  Au  Au8  1  0.000000  0.871733  0.622488  1
  Au  Au9  1  0.000000  0.122488  0.371733  1
