# generated using pymatgen
data_La4NdIn3
_symmetry_space_group_name_H-M   'P 1'
_cell_length_a   6.20810015
_cell_length_b   9.53871580
_cell_length_c   9.53871500
_cell_angle_alpha   83.90444470
_cell_angle_beta   71.00572676
_cell_angle_gamma   71.00572746
_symmetry_Int_Tables_number   1
_chemical_formula_structural   La4NdIn3
_chemical_formula_sum   'La8 Nd2 In6'
_cell_volume   505.01991018
_cell_formula_units_Z   2
loop_
 _symmetry_equiv_pos_site_id
 _symmetry_equiv_pos_as_xyz
  1  'x, y, z'
loop_
 _atom_site_type_symbol
 _atom_site_label
 _atom_site_symmetry_multiplicity
 _atom_site_fract_x
 _atom_site_fract_y
 _atom_site_fract_z
 _atom_site_occupancy
  La  La0  1  0.721966  0.864682  0.691916  1
  La  La1  1  0.278034  0.135318  0.308084  1
  La  La2  1  0.778034  0.308084  0.135318  1
  La  La3  1  0.221966  0.691916  0.864682  1
  La  La4  1  0.586394  0.691707  0.135411  1
  La  La5  1  0.413606  0.308293  0.864589  1
  La  La6  1  0.086394  0.135411  0.691707  1
  La  La7  1  0.913606  0.864589  0.308293  1
  Nd  Nd8  1  0.750000  0.500126  0.499874  1
  Nd  Nd9  1  0.250000  0.499874  0.500126  1
  In  In10  1  0.160279  0.499880  0.180448  1
  In  In11  1  0.839721  0.500120  0.819552  1
  In  In12  1  0.339721  0.819552  0.500120  1
  In  In13  1  0.660279  0.180448  0.499880  1
  In  In14  1  0.250000  0.000023  0.999977  1
  In  In15  1  0.750000  0.999977  0.000023  1
