# generated using pymatgen
data_Th8Sc12Si15Rh
_symmetry_space_group_name_H-M   'P 1'
_cell_length_a   7.25506222
_cell_length_b   7.44615249
_cell_length_c   14.26885980
_cell_angle_alpha   90.12042539
_cell_angle_beta   90.12020444
_cell_angle_gamma   90.27199946
_symmetry_Int_Tables_number   1
_chemical_formula_structural   Th8Sc12Si15Rh
_chemical_formula_sum   'Th8 Sc12 Si15 Rh1'
_cell_volume   770.82451844
_cell_formula_units_Z   1
loop_
 _symmetry_equiv_pos_site_id
 _symmetry_equiv_pos_as_xyz
  1  'x, y, z'
loop_
 _atom_site_type_symbol
 _atom_site_label
 _atom_site_symmetry_multiplicity
 _atom_site_fract_x
 _atom_site_fract_y
 _atom_site_fract_z
 _atom_site_occupancy
  Th  Th0  1  0.005787  0.172096  0.096512  1
  Th  Th1  1  0.993940  0.828667  0.902533  1
  Th  Th2  1  0.494683  0.672736  0.902932  1
  Th  Th3  1  0.994444  0.821452  0.596167  1
  Th  Th4  1  0.506789  0.326508  0.096777  1
  Th  Th5  1  0.006693  0.179253  0.406018  1
  Th  Th6  1  0.510150  0.324921  0.401585  1
  Th  Th7  1  0.482299  0.668782  0.597321  1
  Sc  Sc8  1  0.162333  0.498369  0.751783  1
  Sc  Sc9  1  0.836861  0.498036  0.249444  1
  Sc  Sc10  1  0.338149  0.999594  0.249087  1
  Sc  Sc11  1  0.662077  0.997266  0.748844  1
  Sc  Sc12  1  0.335033  0.183056  0.621711  1
  Sc  Sc13  1  0.666709  0.827192  0.374590  1
  Sc  Sc14  1  0.167093  0.668270  0.374398  1
  Sc  Sc15  1  0.668170  0.825357  0.125023  1
  Sc  Sc16  1  0.834633  0.327090  0.624700  1
  Sc  Sc17  1  0.334385  0.173104  0.876220  1
  Sc  Sc18  1  0.834539  0.324462  0.875445  1
  Sc  Sc19  1  0.165200  0.673945  0.125530  1
  Si  Si20  1  0.038498  0.123246  0.750484  1
  Si  Si21  1  0.965658  0.880465  0.251295  1
  Si  Si22  1  0.465260  0.621917  0.249789  1
  Si  Si23  1  0.537911  0.376332  0.751715  1
  Si  Si24  1  0.290129  0.879540  0.750136  1
  Si  Si25  1  0.710481  0.124950  0.249792  1
  Si  Si26  1  0.209934  0.374416  0.248824  1
  Si  Si27  1  0.789868  0.621444  0.751217  1
  Si  Si28  1  0.834842  0.541346  0.460681  1
  Si  Si29  1  0.339508  0.962084  0.458444  1
  Si  Si30  1  0.839508  0.537271  0.038965  1
  Si  Si31  1  0.660519  0.035420  0.540302  1
  Si  Si32  1  0.161209  0.463304  0.961724  1
  Si  Si33  1  0.661383  0.036966  0.961161  1
  Si  Si34  1  0.340225  0.961816  0.039960  1
  Rh  Rh35  1  0.155098  0.469329  0.538894  1
