# generated using pymatgen
data_Y2Mn2FeCo9As7
_symmetry_space_group_name_H-M   'P 1'
_cell_length_a   3.74784400
_cell_length_b   9.40472994
_cell_length_c   9.43249791
_cell_angle_alpha   119.87062919
_cell_angle_beta   90.00000000
_cell_angle_gamma   90.00000000
_symmetry_Int_Tables_number   1
_chemical_formula_structural   Y2Mn2FeCo9As7
_chemical_formula_sum   'Y2 Mn2 Fe1 Co9 As7'
_cell_volume   288.30346825
_cell_formula_units_Z   1
loop_
 _symmetry_equiv_pos_site_id
 _symmetry_equiv_pos_as_xyz
  1  'x, y, z'
loop_
 _atom_site_type_symbol
 _atom_site_label
 _atom_site_symmetry_multiplicity
 _atom_site_fract_x
 _atom_site_fract_y
 _atom_site_fract_z
 _atom_site_occupancy
  Y  Y0  1  0.000000  0.669576  0.334909  1
  Y  Y1  1  0.500000  0.332013  0.667312  1
  Mn  Mn2  1  0.500000  0.780618  0.895535  1
  Mn  Mn3  1  0.500000  0.118370  0.219133  1
  Fe  Fe4  1  0.500000  0.097218  0.879046  1
  Co  Co5  1  0.000000  0.568666  0.941672  1
  Co  Co6  1  0.000000  0.370945  0.430425  1
  Co  Co7  1  0.000000  0.058198  0.628652  1
  Co  Co8  1  0.000000  0.882218  0.156406  1
  Co  Co9  1  0.000000  0.280566  0.122097  1
  Co  Co10  1  0.000000  0.840991  0.722710  1
  Co  Co11  1  0.500000  0.948427  0.383274  1
  Co  Co12  1  0.500000  0.432628  0.049307  1
  Co  Co13  1  0.500000  0.616318  0.565644  1
  As  As14  1  0.000000  0.003242  0.998078  1
  As  As15  1  0.500000  0.708475  0.116784  1
  As  As16  1  0.500000  0.410782  0.291855  1
  As  As17  1  0.500000  0.887325  0.597201  1
  As  As18  1  0.000000  0.585069  0.700845  1
  As  As19  1  0.000000  0.113840  0.413904  1
  As  As20  1  0.000000  0.294512  0.885212  1
