# generated using pymatgen
data_K3SrIr2O9
_symmetry_space_group_name_H-M   'P 1'
_cell_length_a   6.16286978
_cell_length_b   6.16286895
_cell_length_c   15.14581921
_cell_angle_alpha   88.50655399
_cell_angle_beta   88.50655521
_cell_angle_gamma   119.90202184
_symmetry_Int_Tables_number   1
_chemical_formula_structural   K3SrIr2O9
_chemical_formula_sum   'K6 Sr2 Ir4 O18'
_cell_volume   497.99869252
_cell_formula_units_Z   2
loop_
 _symmetry_equiv_pos_site_id
 _symmetry_equiv_pos_as_xyz
  1  'x, y, z'
loop_
 _atom_site_type_symbol
 _atom_site_label
 _atom_site_symmetry_multiplicity
 _atom_site_fract_x
 _atom_site_fract_y
 _atom_site_fract_z
 _atom_site_occupancy
  K  K0  1  0.349240  0.678014  0.893124  1
  K  K1  1  0.321986  0.650760  0.606876  1
  K  K2  1  0.650760  0.321986  0.106876  1
  K  K3  1  0.678014  0.349240  0.393124  1
  K  K4  1  0.990400  0.009600  0.750000  1
  K  K5  1  0.009600  0.990400  0.250000  1
  Sr  Sr6  1  0.000000  0.000000  0.500000  1
  Sr  Sr7  1  0.000000  0.000000  0.000000  1
  Ir  Ir8  1  0.694154  0.359022  0.843497  1
  Ir  Ir9  1  0.640978  0.305846  0.656503  1
  Ir  Ir10  1  0.359022  0.694154  0.343497  1
  Ir  Ir11  1  0.305846  0.640978  0.156503  1
  O  O12  1  0.862979  0.675381  0.891639  1
  O  O13  1  0.324619  0.137021  0.608361  1
  O  O14  1  0.137021  0.324619  0.108361  1
  O  O15  1  0.675381  0.862979  0.391639  1
  O  O16  1  0.866052  0.226609  0.903612  1
  O  O17  1  0.773391  0.133948  0.596388  1
  O  O18  1  0.133948  0.773391  0.096388  1
  O  O19  1  0.226609  0.866052  0.403612  1
  O  O20  1  0.417428  0.227443  0.923300  1
  O  O21  1  0.772557  0.582572  0.576700  1
  O  O22  1  0.582572  0.772557  0.076700  1
  O  O23  1  0.227443  0.417428  0.423300  1
  O  O24  1  0.465771  0.534229  0.250000  1
  O  O25  1  0.534229  0.465771  0.750000  1
  O  O26  1  0.464668  0.930864  0.236560  1
  O  O27  1  0.069136  0.535332  0.263440  1
  O  O28  1  0.535332  0.069136  0.763440  1
  O  O29  1  0.930864  0.464668  0.736560  1
