# generated using pymatgen
data_Ce3NbSn5
_symmetry_space_group_name_H-M   'P 1'
_cell_length_a   9.34151100
_cell_length_b   9.34151089
_cell_length_c   6.19628900
_cell_angle_alpha   90.00000000
_cell_angle_beta   90.00000000
_cell_angle_gamma   119.99999684
_symmetry_Int_Tables_number   1
_chemical_formula_structural   Ce3NbSn5
_chemical_formula_sum   'Ce6 Nb2 Sn10'
_cell_volume   468.27024763
_cell_formula_units_Z   2
loop_
 _symmetry_equiv_pos_site_id
 _symmetry_equiv_pos_as_xyz
  1  'x, y, z'
loop_
 _atom_site_type_symbol
 _atom_site_label
 _atom_site_symmetry_multiplicity
 _atom_site_fract_x
 _atom_site_fract_y
 _atom_site_fract_z
 _atom_site_occupancy
  Ce  Ce0  1  0.616342  0.000000  0.250000  1
  Ce  Ce1  1  0.383658  0.000000  0.750000  1
  Ce  Ce2  1  0.000000  0.616342  0.250000  1
  Ce  Ce3  1  0.000000  0.383658  0.750000  1
  Ce  Ce4  1  0.383658  0.383658  0.250000  1
  Ce  Ce5  1  0.616342  0.616342  0.750000  1
  Nb  Nb6  1  0.000000  0.000000  0.000000  1
  Nb  Nb7  1  0.000000  0.000000  0.500000  1
  Sn  Sn8  1  0.263754  0.000000  0.250000  1
  Sn  Sn9  1  0.736246  0.000000  0.750000  1
  Sn  Sn10  1  0.000000  0.263754  0.250000  1
  Sn  Sn11  1  0.000000  0.736246  0.750000  1
  Sn  Sn12  1  0.736246  0.736246  0.250000  1
  Sn  Sn13  1  0.263754  0.263754  0.750000  1
  Sn  Sn14  1  0.333333  0.666667  0.000000  1
  Sn  Sn15  1  0.666667  0.333333  0.000000  1
  Sn  Sn16  1  0.666667  0.333333  0.500000  1
  Sn  Sn17  1  0.333333  0.666667  0.500000  1
