# generated using pymatgen
data_Sc8Nb11Si16W
_symmetry_space_group_name_H-M   'P 1'
_cell_length_a   6.69695638
_cell_length_b   6.89181640
_cell_length_c   13.13902500
_cell_angle_alpha   90.00000000
_cell_angle_beta   90.00000000
_cell_angle_gamma   90.03873031
_symmetry_Int_Tables_number   1
_chemical_formula_structural   Sc8Nb11Si16W
_chemical_formula_sum   'Sc8 Nb11 Si16 W1'
_cell_volume   606.42096744
_cell_formula_units_Z   1
loop_
 _symmetry_equiv_pos_site_id
 _symmetry_equiv_pos_as_xyz
  1  'x, y, z'
loop_
 _atom_site_type_symbol
 _atom_site_label
 _atom_site_symmetry_multiplicity
 _atom_site_fract_x
 _atom_site_fract_y
 _atom_site_fract_z
 _atom_site_occupancy
  Sc  Sc0  1  0.500524  0.674144  0.594881  1
  Sc  Sc1  1  0.999852  0.825267  0.905509  1
  Sc  Sc2  1  0.500654  0.325209  0.094886  1
  Sc  Sc3  1  0.000920  0.174348  0.405124  1
  Sc  Sc4  1  0.500654  0.325209  0.405114  1
  Sc  Sc5  1  0.000920  0.174348  0.094876  1
  Sc  Sc6  1  0.500524  0.674144  0.905119  1
  Sc  Sc7  1  0.999852  0.825267  0.594491  1
  Nb  Nb8  1  0.663146  0.173650  0.624435  1
  Nb  Nb9  1  0.164106  0.325659  0.875108  1
  Nb  Nb10  1  0.335190  0.827811  0.125800  1
  Nb  Nb11  1  0.835974  0.673604  0.374268  1
  Nb  Nb12  1  0.335190  0.827811  0.374200  1
  Nb  Nb13  1  0.835974  0.673604  0.125732  1
  Nb  Nb14  1  0.663146  0.173650  0.875565  1
  Nb  Nb15  1  0.164106  0.325659  0.624892  1
  Nb  Nb16  1  0.837774  0.494931  0.750000  1
  Nb  Nb17  1  0.337918  0.005860  0.750000  1
  Nb  Nb18  1  0.162466  0.505670  0.250000  1
  Si  Si19  1  0.668628  0.966826  0.458631  1
  Si  Si20  1  0.169005  0.533113  0.039506  1
  Si  Si21  1  0.330821  0.033100  0.960963  1
  Si  Si22  1  0.831246  0.466892  0.539420  1
  Si  Si23  1  0.330821  0.033100  0.539037  1
  Si  Si24  1  0.831246  0.466892  0.960580  1
  Si  Si25  1  0.668628  0.966826  0.041369  1
  Si  Si26  1  0.169005  0.533113  0.460494  1
  Si  Si27  1  0.460900  0.387807  0.750000  1
  Si  Si28  1  0.959324  0.113605  0.750000  1
  Si  Si29  1  0.539930  0.613650  0.250000  1
  Si  Si30  1  0.035608  0.889821  0.250000  1
  Si  Si31  1  0.704789  0.861248  0.750000  1
  Si  Si32  1  0.204850  0.639341  0.750000  1
  Si  Si33  1  0.300162  0.139192  0.250000  1
  Si  Si34  1  0.794950  0.355871  0.250000  1
  W  W35  1  0.661199  0.993755  0.250000  1
