# generated using pymatgen
data_Y2TcIrF14
_symmetry_space_group_name_H-M   'P 1'
_cell_length_a   5.62453500
_cell_length_b   8.93953729
_cell_length_c   11.99353551
_cell_angle_alpha   62.71076289
_cell_angle_beta   90.00000000
_cell_angle_gamma   90.00000000
_symmetry_Int_Tables_number   1
_chemical_formula_structural   Y2TcIrF14
_chemical_formula_sum   'Y4 Tc2 Ir2 F28'
_cell_volume   535.92709933
_cell_formula_units_Z   2
loop_
 _symmetry_equiv_pos_site_id
 _symmetry_equiv_pos_as_xyz
  1  'x, y, z'
loop_
 _atom_site_type_symbol
 _atom_site_label
 _atom_site_symmetry_multiplicity
 _atom_site_fract_x
 _atom_site_fract_y
 _atom_site_fract_z
 _atom_site_occupancy
  Y  Y0  1  0.760753  0.811995  0.767753  1
  Y  Y1  1  0.260753  0.188005  0.732247  1
  Y  Y2  1  0.238403  0.185824  0.235957  1
  Y  Y3  1  0.738403  0.814176  0.264043  1
  Tc  Tc4  1  0.756880  0.273252  0.956187  1
  Tc  Tc5  1  0.256880  0.726748  0.543813  1
  Ir  Ir6  1  0.242694  0.725712  0.045492  1
  Ir  Ir7  1  0.742694  0.274288  0.454508  1
  F  F8  1  0.442581  0.705580  0.919630  1
  F  F9  1  0.942581  0.294420  0.580370  1
  F  F10  1  0.549364  0.293023  0.079769  1
  F  F11  1  0.049364  0.706977  0.420231  1
  F  F12  1  0.449251  0.282322  0.545125  1
  F  F13  1  0.949251  0.717678  0.954875  1
  F  F14  1  0.545317  0.717435  0.453371  1
  F  F15  1  0.045317  0.282565  0.046629  1
  F  F16  1  0.766395  0.519559  0.857887  1
  F  F17  1  0.266395  0.480441  0.642113  1
  F  F18  1  0.234238  0.481804  0.142525  1
  F  F19  1  0.734238  0.518196  0.357475  1
  F  F20  1  0.759026  0.027679  0.052208  1
  F  F21  1  0.259026  0.972321  0.447792  1
  F  F22  1  0.245170  0.969448  0.951301  1
  F  F23  1  0.745170  0.030552  0.548699  1
  F  F24  1  0.978381  0.732198  0.640710  1
  F  F25  1  0.478381  0.267802  0.859290  1
  F  F26  1  0.028368  0.272913  0.357720  1
  F  F27  1  0.528368  0.727087  0.142280  1
  F  F28  1  0.046584  0.743872  0.174089  1
  F  F29  1  0.546584  0.256128  0.325911  1
  F  F30  1  0.959739  0.252921  0.829381  1
  F  F31  1  0.459739  0.747079  0.670619  1
  F  F32  1  0.419270  0.972136  0.232418  1
  F  F33  1  0.919270  0.027864  0.267582  1
  F  F34  1  0.577586  0.026594  0.767999  1
  F  F35  1  0.077586  0.973406  0.732001  1
