# generated using pymatgen
data_ScPaCo2Sn
_symmetry_space_group_name_H-M   'P 1'
_cell_length_a   7.39905500
_cell_length_b   7.05707800
_cell_length_c   3.45627800
_cell_angle_alpha   90.00000000
_cell_angle_beta   90.00000000
_cell_angle_gamma   90.00000000
_symmetry_Int_Tables_number   1
_chemical_formula_structural   ScPaCo2Sn
_chemical_formula_sum   'Sc2 Pa2 Co4 Sn2'
_cell_volume   180.47200372
_cell_formula_units_Z   2
loop_
 _symmetry_equiv_pos_site_id
 _symmetry_equiv_pos_as_xyz
  1  'x, y, z'
loop_
 _atom_site_type_symbol
 _atom_site_label
 _atom_site_symmetry_multiplicity
 _atom_site_fract_x
 _atom_site_fract_y
 _atom_site_fract_z
 _atom_site_occupancy
  Sc  Sc0  1  0.329042  0.833131  0.500000  1
  Sc  Sc1  1  0.829042  0.666869  0.500000  1
  Pa  Pa2  1  0.179080  0.339825  0.500000  1
  Pa  Pa3  1  0.679080  0.160175  0.500000  1
  Co  Co4  1  0.358872  0.150319  0.000000  1
  Co  Co5  1  0.858872  0.349681  0.000000  1
  Co  Co6  1  0.123224  0.598133  0.000000  1
  Co  Co7  1  0.623224  0.901867  0.000000  1
  Sn  Sn8  1  0.009783  0.978217  0.000000  1
  Sn  Sn9  1  0.509783  0.521783  0.000000  1
