# generated using pymatgen
data_ScPPd
_symmetry_space_group_name_H-M   'P 1'
_cell_length_a   6.58873600
_cell_length_b   3.85666800
_cell_length_c   7.55561300
_cell_angle_alpha   90.00000000
_cell_angle_beta   90.00000000
_cell_angle_gamma   90.00000000
_symmetry_Int_Tables_number   1
_chemical_formula_structural   ScPPd
_chemical_formula_sum   'Sc4 P4 Pd4'
_cell_volume   191.99241257
_cell_formula_units_Z   4
loop_
 _symmetry_equiv_pos_site_id
 _symmetry_equiv_pos_as_xyz
  1  'x, y, z'
loop_
 _atom_site_type_symbol
 _atom_site_label
 _atom_site_symmetry_multiplicity
 _atom_site_fract_x
 _atom_site_fract_y
 _atom_site_fract_z
 _atom_site_occupancy
  Sc  Sc0  1  0.533420  0.500001  0.182316  1
  Sc  Sc1  1  0.033419  0.500001  0.317685  1
  Sc  Sc2  1  0.966581  0.000000  0.682315  1
  Sc  Sc3  1  0.466581  0.000000  0.817685  1
  P  P4  1  0.255778  0.000000  0.125693  1
  P  P5  1  0.755776  0.000000  0.374309  1
  P  P6  1  0.244224  0.500001  0.625693  1
  P  P7  1  0.744223  0.500001  0.874307  1
  Pd  Pd8  1  0.854240  0.000000  0.060806  1
  Pd  Pd9  1  0.354240  0.000000  0.439196  1
  Pd  Pd10  1  0.645762  0.500001  0.560804  1
  Pd  Pd11  1  0.145760  0.500001  0.939196  1
