# generated using pymatgen
data_Er2Tm2Hf3O12
_symmetry_space_group_name_H-M   'P 1'
_cell_length_a   6.28508946
_cell_length_b   6.31915824
_cell_length_c   6.51384838
_cell_angle_alpha   99.91321738
_cell_angle_beta   98.46716239
_cell_angle_gamma   99.61358042
_symmetry_Int_Tables_number   1
_chemical_formula_structural   Er2Tm2Hf3O12
_chemical_formula_sum   'Er2 Tm2 Hf3 O12'
_cell_volume   247.10596171
_cell_formula_units_Z   1
loop_
 _symmetry_equiv_pos_site_id
 _symmetry_equiv_pos_as_xyz
  1  'x, y, z'
loop_
 _atom_site_type_symbol
 _atom_site_label
 _atom_site_symmetry_multiplicity
 _atom_site_fract_x
 _atom_site_fract_y
 _atom_site_fract_z
 _atom_site_occupancy
  Er  Er0  1  0.387046  0.698842  0.866181  1
  Er  Er1  1  0.695517  0.865145  0.389240  1
  Tm  Tm2  1  0.612829  0.300232  0.133650  1
  Tm  Tm3  1  0.305626  0.135090  0.610830  1
  Hf  Hf4  1  0.000756  0.000907  0.000434  1
  Hf  Hf5  1  0.848839  0.396406  0.669395  1
  Hf  Hf6  1  0.150817  0.602901  0.330688  1
  O  O7  1  0.023812  0.678316  0.882731  1
  O  O8  1  0.685414  0.933007  0.059169  1
  O  O9  1  0.919902  0.085511  0.695774  1
  O  O10  1  0.974353  0.322114  0.116900  1
  O  O11  1  0.315143  0.069481  0.940660  1
  O  O12  1  0.081368  0.915425  0.304628  1
  O  O13  1  0.587499  0.189640  0.433455  1
  O  O14  1  0.171545  0.426827  0.573279  1
  O  O15  1  0.413770  0.580892  0.179898  1
  O  O16  1  0.410357  0.812146  0.566080  1
  O  O17  1  0.829074  0.571269  0.425981  1
  O  O18  1  0.586332  0.415846  0.821026  1
