# generated using pymatgen
data_Yb5CdNi2
_symmetry_space_group_name_H-M   'P 1'
_cell_length_a   8.97879654
_cell_length_b   8.97879688
_cell_length_c   8.97879628
_cell_angle_alpha   130.51421760
_cell_angle_beta   130.51421651
_cell_angle_gamma   72.58603124
_symmetry_Int_Tables_number   1
_chemical_formula_structural   Yb5CdNi2
_chemical_formula_sum   'Yb10 Cd2 Ni4'
_cell_volume   408.82577240
_cell_formula_units_Z   2
loop_
 _symmetry_equiv_pos_site_id
 _symmetry_equiv_pos_as_xyz
  1  'x, y, z'
loop_
 _atom_site_type_symbol
 _atom_site_label
 _atom_site_symmetry_multiplicity
 _atom_site_fract_x
 _atom_site_fract_y
 _atom_site_fract_z
 _atom_site_occupancy
  Yb  Yb0  1  0.500000  0.500000  0.000000  1
  Yb  Yb1  1  0.000000  0.000000  0.000000  1
  Yb  Yb2  1  0.540008  0.040008  0.836481  1
  Yb  Yb3  1  0.203528  0.703528  0.163519  1
  Yb  Yb4  1  0.040008  0.203528  0.500000  1
  Yb  Yb5  1  0.703528  0.540008  0.500000  1
  Yb  Yb6  1  0.459992  0.959992  0.163519  1
  Yb  Yb7  1  0.796472  0.296472  0.836481  1
  Yb  Yb8  1  0.959992  0.796472  0.500000  1
  Yb  Yb9  1  0.296472  0.459992  0.500000  1
  Cd  Cd10  1  0.250000  0.250000  0.000000  1
  Cd  Cd11  1  0.750000  0.750000  0.000000  1
  Ni  Ni12  1  0.116906  0.616906  0.733813  1
  Ni  Ni13  1  0.883094  0.383094  0.266187  1
  Ni  Ni14  1  0.616906  0.883094  0.500000  1
  Ni  Ni15  1  0.383094  0.116906  0.500000  1
