# generated using pymatgen
data_BiIrF7
_symmetry_space_group_name_H-M   'P 1'
_cell_length_a   5.69019600
_cell_length_b   9.22793024
_cell_length_c   12.19659313
_cell_angle_alpha   62.10109301
_cell_angle_beta   90.00000000
_cell_angle_gamma   90.00000000
_symmetry_Int_Tables_number   1
_chemical_formula_structural   BiIrF7
_chemical_formula_sum   'Bi4 Ir4 F28'
_cell_volume   565.99365070
_cell_formula_units_Z   4
loop_
 _symmetry_equiv_pos_site_id
 _symmetry_equiv_pos_as_xyz
  1  'x, y, z'
loop_
 _atom_site_type_symbol
 _atom_site_label
 _atom_site_symmetry_multiplicity
 _atom_site_fract_x
 _atom_site_fract_y
 _atom_site_fract_z
 _atom_site_occupancy
  Bi  Bi0  1  0.773122  0.815113  0.262800  1
  Bi  Bi1  1  0.273122  0.184887  0.237200  1
  Bi  Bi2  1  0.226878  0.184887  0.737200  1
  Bi  Bi3  1  0.726878  0.815113  0.762800  1
  Ir  Ir4  1  0.242946  0.727427  0.542565  1
  Ir  Ir5  1  0.742946  0.272573  0.957435  1
  Ir  Ir6  1  0.757054  0.272573  0.457435  1
  Ir  Ir7  1  0.257054  0.727427  0.042565  1
  F  F8  1  0.949171  0.715883  0.456140  1
  F  F9  1  0.449171  0.284117  0.043860  1
  F  F10  1  0.050829  0.284117  0.543860  1
  F  F11  1  0.550829  0.715883  0.956140  1
  F  F12  1  0.065808  0.709382  0.916805  1
  F  F13  1  0.565808  0.290618  0.583195  1
  F  F14  1  0.934192  0.290618  0.083195  1
  F  F15  1  0.434192  0.709382  0.416805  1
  F  F16  1  0.739234  0.509552  0.859270  1
  F  F17  1  0.239234  0.490448  0.640730  1
  F  F18  1  0.260766  0.490448  0.140730  1
  F  F19  1  0.760766  0.509552  0.359270  1
  F  F20  1  0.742680  0.032050  0.050875  1
  F  F21  1  0.242680  0.967950  0.449125  1
  F  F22  1  0.257320  0.967950  0.949125  1
  F  F23  1  0.757320  0.032050  0.550875  1
  F  F24  1  0.054542  0.745354  0.670069  1
  F  F25  1  0.554542  0.254646  0.829931  1
  F  F26  1  0.945458  0.254646  0.329931  1
  F  F27  1  0.445458  0.745354  0.170069  1
  F  F28  1  0.031275  0.269419  0.865471  1
  F  F29  1  0.531275  0.730581  0.634529  1
  F  F30  1  0.968725  0.730581  0.134529  1
  F  F31  1  0.468725  0.269419  0.365471  1
  F  F32  1  0.095561  0.971508  0.227716  1
  F  F33  1  0.595561  0.028492  0.272284  1
  F  F34  1  0.904439  0.028492  0.772284  1
  F  F35  1  0.404439  0.971508  0.727716  1
