# generated using pymatgen
data_Sr2Cd8Pt3Au
_symmetry_space_group_name_H-M   'P 1'
_cell_length_a   8.47493814
_cell_length_b   8.47493814
_cell_length_c   4.51366300
_cell_angle_alpha   90.00000000
_cell_angle_beta   90.00000000
_cell_angle_gamma   90.76356284
_symmetry_Int_Tables_number   1
_chemical_formula_structural   Sr2Cd8Pt3Au
_chemical_formula_sum   'Sr2 Cd8 Pt3 Au1'
_cell_volume   324.16314570
_cell_formula_units_Z   1
loop_
 _symmetry_equiv_pos_site_id
 _symmetry_equiv_pos_as_xyz
  1  'x, y, z'
loop_
 _atom_site_type_symbol
 _atom_site_label
 _atom_site_symmetry_multiplicity
 _atom_site_fract_x
 _atom_site_fract_y
 _atom_site_fract_z
 _atom_site_occupancy
  Sr  Sr0  1  0.494949  0.505051  0.500000  1
  Sr  Sr1  1  0.007889  0.992111  0.000000  1
  Cd  Cd2  1  0.338458  0.091088  0.500000  1
  Cd  Cd3  1  0.649822  0.902892  0.500000  1
  Cd  Cd4  1  0.844546  0.414967  0.000000  1
  Cd  Cd5  1  0.158645  0.590393  0.000000  1
  Cd  Cd6  1  0.097108  0.350178  0.500000  1
  Cd  Cd7  1  0.908912  0.661542  0.500000  1
  Cd  Cd8  1  0.409607  0.841355  0.000000  1
  Cd  Cd9  1  0.585033  0.155454  0.000000  1
  Pt  Pt10  1  0.218238  0.781762  0.500000  1
  Pt  Pt11  1  0.282113  0.282830  0.000000  1
  Pt  Pt12  1  0.717170  0.717887  0.000000  1
  Au  Au13  1  0.787510  0.212490  0.500000  1
