# generated using pymatgen
data_Ba6TmLu3(WO9)2
_symmetry_space_group_name_H-M   'P 1'
_cell_length_a   6.01984530
_cell_length_b   8.52259558
_cell_length_c   10.42984922
_cell_angle_alpha   65.88479003
_cell_angle_beta   73.22590904
_cell_angle_gamma   89.99990739
_symmetry_Int_Tables_number   1
_chemical_formula_structural   Ba6TmLu3(WO9)2
_chemical_formula_sum   'Ba6 Tm1 Lu3 W2 O18'
_cell_volume   463.34233536
_cell_formula_units_Z   1
loop_
 _symmetry_equiv_pos_site_id
 _symmetry_equiv_pos_as_xyz
  1  'x, y, z'
loop_
 _atom_site_type_symbol
 _atom_site_label
 _atom_site_symmetry_multiplicity
 _atom_site_fract_x
 _atom_site_fract_y
 _atom_site_fract_z
 _atom_site_occupancy
  Ba  Ba0  1  0.499924  0.265885  0.000150  1
  Ba  Ba1  1  0.839568  0.580002  0.320876  1
  Ba  Ba2  1  0.160478  0.901226  0.679044  1
  Ba  Ba3  1  0.499927  0.733969  0.000146  1
  Ba  Ba4  1  0.839568  0.099122  0.320873  1
  Ba  Ba5  1  0.160474  0.419734  0.679043  1
  Tm  Tm6  1  0.670092  0.670102  0.659795  1
  Lu  Lu7  1  0.999989  0.999983  0.000032  1
  Lu  Lu8  1  0.330206  0.330199  0.339600  1
  Lu  Lu9  1  0.999823  0.499827  0.000350  1
  W  W10  1  0.334545  0.834550  0.330873  1
  W  W11  1  0.665738  0.165735  0.668560  1
  O  O12  1  0.999987  0.246443  0.000018  1
  O  O13  1  0.330696  0.598712  0.338611  1
  O  O14  1  0.669295  0.938110  0.661401  1
  O  O15  1  0.162799  0.411386  0.177219  1
  O  O16  1  0.491418  0.758944  0.482106  1
  O  O17  1  0.819417  0.088517  0.822968  1
  O  O18  1  0.337989  0.588068  0.823873  1
  O  O19  1  0.642571  0.911540  0.176908  1
  O  O20  1  0.974972  0.241399  0.517220  1
  O  O21  1  0.999993  0.753539  0.000017  1
  O  O22  1  0.330701  0.062659  0.338608  1
  O  O23  1  0.669298  0.400504  0.661396  1
  O  O24  1  0.838134  0.588069  0.823873  1
  O  O25  1  0.180525  0.911543  0.176910  1
  O  O26  1  0.507805  0.241391  0.517226  1
  O  O27  1  0.659988  0.411386  0.177219  1
  O  O28  1  0.026469  0.758936  0.482112  1
  O  O29  1  0.357611  0.088519  0.822971  1
