# generated using pymatgen
data_Tb6Ni2Sn7
_symmetry_space_group_name_H-M   'P 1'
_cell_length_a   7.42622534
_cell_length_b   7.42622548
_cell_length_c   11.78080852
_cell_angle_alpha   86.57593148
_cell_angle_beta   86.57593166
_cell_angle_gamma   35.08059735
_symmetry_Int_Tables_number   1
_chemical_formula_structural   Tb6Ni2Sn7
_chemical_formula_sum   'Tb6 Ni2 Sn7'
_cell_volume   372.66634241
_cell_formula_units_Z   1
loop_
 _symmetry_equiv_pos_site_id
 _symmetry_equiv_pos_as_xyz
  1  'x, y, z'
loop_
 _atom_site_type_symbol
 _atom_site_label
 _atom_site_symmetry_multiplicity
 _atom_site_fract_x
 _atom_site_fract_y
 _atom_site_fract_z
 _atom_site_occupancy
  Tb  Tb0  1  0.461819  0.461819  0.697746  1
  Tb  Tb1  1  0.800470  0.800470  0.299009  1
  Tb  Tb2  1  0.199530  0.199530  0.700991  1
  Tb  Tb3  1  0.363661  0.363661  0.001238  1
  Tb  Tb4  1  0.538181  0.538181  0.302254  1
  Tb  Tb5  1  0.636339  0.636339  0.998762  1
  Ni  Ni6  1  0.168352  0.168352  0.399957  1
  Ni  Ni7  1  0.831648  0.831648  0.600043  1
  Sn  Sn8  1  0.341027  0.341027  0.477921  1
  Sn  Sn9  1  0.184530  0.184530  0.178176  1
  Sn  Sn10  1  0.979452  0.979452  0.124163  1
  Sn  Sn11  1  0.815470  0.815470  0.821824  1
  Sn  Sn12  1  0.000000  0.000000  0.500000  1
  Sn  Sn13  1  0.020548  0.020548  0.875837  1
  Sn  Sn14  1  0.658973  0.658973  0.522079  1
