# generated using pymatgen
data_Ta12V5ReOs6
_symmetry_space_group_name_H-M   'P 1'
_cell_length_a   4.46355500
_cell_length_b   6.33222900
_cell_length_c   13.54198300
_cell_angle_alpha   90.00000000
_cell_angle_beta   89.99923821
_cell_angle_gamma   90.00000000
_symmetry_Int_Tables_number   1
_chemical_formula_structural   Ta12V5ReOs6
_chemical_formula_sum   'Ta12 V5 Re1 Os6'
_cell_volume   382.75402568
_cell_formula_units_Z   1
loop_
 _symmetry_equiv_pos_site_id
 _symmetry_equiv_pos_as_xyz
  1  'x, y, z'
loop_
 _atom_site_type_symbol
 _atom_site_label
 _atom_site_symmetry_multiplicity
 _atom_site_fract_x
 _atom_site_fract_y
 _atom_site_fract_z
 _atom_site_occupancy
  Ta  Ta0  1  0.499999  0.246889  0.000000  1
  Ta  Ta1  1  0.499999  0.753112  0.000000  1
  Ta  Ta2  1  0.999977  0.249077  0.168087  1
  Ta  Ta3  1  0.999977  0.750924  0.168087  1
  Ta  Ta4  1  0.499977  0.250093  0.333530  1
  Ta  Ta5  1  0.499977  0.749907  0.333530  1
  Ta  Ta6  1  0.000000  0.250466  0.500000  1
  Ta  Ta7  1  0.000000  0.749535  0.500000  1
  Ta  Ta8  1  0.500023  0.250093  0.666470  1
  Ta  Ta9  1  0.500023  0.749907  0.666470  1
  Ta  Ta10  1  0.000023  0.249077  0.831913  1
  Ta  Ta11  1  0.000023  0.750924  0.831913  1
  V  V12  1  0.499979  0.000000  0.166112  1
  V  V13  1  0.999979  0.500000  0.333041  1
  V  V14  1  0.500001  0.000000  0.500000  1
  V  V15  1  0.000021  0.500000  0.666958  1
  V  V16  1  0.500021  0.000000  0.833889  1
  Re  Re17  1  0.000000  0.500000  0.000000  1
  Os  Os18  1  0.000000  0.000000  0.000000  1
  Os  Os19  1  0.499977  0.500000  0.166812  1
  Os  Os20  1  0.999973  0.000000  0.333843  1
  Os  Os21  1  0.500001  0.500000  0.500000  1
  Os  Os22  1  0.000027  0.000000  0.666157  1
  Os  Os23  1  0.500023  0.500000  0.833188  1
