# generated using pymatgen
data_SmTh2Tl5
_symmetry_space_group_name_H-M   'P 1'
_cell_length_a   6.69294856
_cell_length_b   6.69294921
_cell_length_c   10.49683800
_cell_angle_alpha   90.00000000
_cell_angle_beta   90.00000000
_cell_angle_gamma   101.76710267
_symmetry_Int_Tables_number   1
_chemical_formula_structural   SmTh2Tl5
_chemical_formula_sum   'Sm2 Th4 Tl10'
_cell_volume   460.33011751
_cell_formula_units_Z   2
loop_
 _symmetry_equiv_pos_site_id
 _symmetry_equiv_pos_as_xyz
  1  'x, y, z'
loop_
 _atom_site_type_symbol
 _atom_site_label
 _atom_site_symmetry_multiplicity
 _atom_site_fract_x
 _atom_site_fract_y
 _atom_site_fract_z
 _atom_site_occupancy
  Sm  Sm0  1  0.613156  0.613156  0.250000  1
  Sm  Sm1  1  0.386844  0.386844  0.750000  1
  Th  Th2  1  0.209100  0.790900  0.500000  1
  Th  Th3  1  0.209100  0.790900  0.000000  1
  Th  Th4  1  0.790900  0.209100  0.500000  1
  Th  Th5  1  0.790900  0.209100  0.000000  1
  Tl  Tl6  1  0.999083  0.999083  0.250000  1
  Tl  Tl7  1  0.000917  0.000917  0.750000  1
  Tl  Tl8  1  0.301071  0.301071  0.040102  1
  Tl  Tl9  1  0.698929  0.698929  0.959898  1
  Tl  Tl10  1  0.301071  0.301071  0.459898  1
  Tl  Tl11  1  0.698929  0.698929  0.540102  1
  Tl  Tl12  1  0.498470  0.062416  0.250000  1
  Tl  Tl13  1  0.937584  0.501530  0.750000  1
  Tl  Tl14  1  0.501530  0.937584  0.750000  1
  Tl  Tl15  1  0.062416  0.498470  0.250000  1
