# generated using pymatgen
data_Dy13Er3Cd4Co3Os
_symmetry_space_group_name_H-M   'P 1'
_cell_length_a   9.51247838
_cell_length_b   9.48281738
_cell_length_c   9.56077620
_cell_angle_alpha   59.75387241
_cell_angle_beta   60.15469103
_cell_angle_gamma   59.91042722
_symmetry_Int_Tables_number   1
_chemical_formula_structural   Dy13Er3Cd4Co3Os
_chemical_formula_sum   'Dy13 Er3 Cd4 Co3 Os1'
_cell_volume   608.98088457
_cell_formula_units_Z   1
loop_
 _symmetry_equiv_pos_site_id
 _symmetry_equiv_pos_as_xyz
  1  'x, y, z'
loop_
 _atom_site_type_symbol
 _atom_site_label
 _atom_site_symmetry_multiplicity
 _atom_site_fract_x
 _atom_site_fract_y
 _atom_site_fract_z
 _atom_site_occupancy
  Dy  Dy0  1  0.938211  0.561927  0.562735  1
  Dy  Dy1  1  0.541481  0.148865  0.158330  1
  Dy  Dy2  1  0.151044  0.154090  0.537184  1
  Dy  Dy3  1  0.936540  0.937857  0.562027  1
  Dy  Dy4  1  0.312947  0.688877  0.310510  1
  Dy  Dy5  1  0.559360  0.945540  0.935359  1
  Dy  Dy6  1  0.562646  0.939105  0.561517  1
  Dy  Dy7  1  0.690251  0.688208  0.310924  1
  Dy  Dy8  1  0.558989  0.557718  0.938903  1
  Dy  Dy9  1  0.945667  0.558781  0.936204  1
  Dy  Dy10  1  0.314648  0.692558  0.684287  1
  Dy  Dy11  1  0.150425  0.150359  0.159276  1
  Dy  Dy12  1  0.311888  0.311644  0.684642  1
  Er  Er13  1  0.149080  0.539411  0.159818  1
  Er  Er14  1  0.692251  0.313991  0.684179  1
  Er  Er15  1  0.689970  0.312538  0.311058  1
  Cd  Cd16  1  0.919265  0.242666  0.919238  1
  Cd  Cd17  1  0.920042  0.920929  0.918811  1
  Cd  Cd18  1  0.919309  0.919172  0.243150  1
  Cd  Cd19  1  0.243124  0.918494  0.918795  1
  Co  Co20  1  0.357000  0.920510  0.360177  1
  Co  Co21  1  0.919640  0.358061  0.359476  1
  Co  Co22  1  0.358164  0.360369  0.360385  1
  Os  Os23  1  0.358057  0.358326  0.923023  1
