# generated using pymatgen
data_Th5Pb3Se
_symmetry_space_group_name_H-M   'P 1'
_cell_length_a   9.63077600
_cell_length_b   9.63077542
_cell_length_c   6.71107000
_cell_angle_alpha   90.00000000
_cell_angle_beta   90.00000000
_cell_angle_gamma   120.00000201
_symmetry_Int_Tables_number   1
_chemical_formula_structural   Th5Pb3Se
_chemical_formula_sum   'Th10 Pb6 Se2'
_cell_volume   539.06970904
_cell_formula_units_Z   2
loop_
 _symmetry_equiv_pos_site_id
 _symmetry_equiv_pos_as_xyz
  1  'x, y, z'
loop_
 _atom_site_type_symbol
 _atom_site_label
 _atom_site_symmetry_multiplicity
 _atom_site_fract_x
 _atom_site_fract_y
 _atom_site_fract_z
 _atom_site_occupancy
  Th  Th0  1  0.737046  0.737046  0.750000  1
  Th  Th1  1  0.262954  0.000000  0.750000  1
  Th  Th2  1  0.000000  0.262954  0.750000  1
  Th  Th3  1  0.262954  0.262954  0.250000  1
  Th  Th4  1  0.737046  0.000000  0.250000  1
  Th  Th5  1  0.000000  0.737046  0.250000  1
  Th  Th6  1  0.666667  0.333333  0.000000  1
  Th  Th7  1  0.333333  0.666667  0.000000  1
  Th  Th8  1  0.333333  0.666667  0.500000  1
  Th  Th9  1  0.666667  0.333333  0.500000  1
  Pb  Pb10  1  0.388375  0.388375  0.750000  1
  Pb  Pb11  1  0.611625  0.000000  0.750000  1
  Pb  Pb12  1  0.000000  0.611625  0.750000  1
  Pb  Pb13  1  0.611625  0.611625  0.250000  1
  Pb  Pb14  1  0.388375  0.000000  0.250000  1
  Pb  Pb15  1  0.000000  0.388375  0.250000  1
  Se  Se16  1  0.000000  0.000000  0.000000  1
  Se  Se17  1  0.000000  0.000000  0.500000  1
