# generated using pymatgen
data_Li2SmErSi4
_symmetry_space_group_name_H-M   'P 1'
_cell_length_a   3.81176900
_cell_length_b   7.62123758
_cell_length_c   10.22345678
_cell_angle_alpha   89.78978502
_cell_angle_beta   90.00000000
_cell_angle_gamma   90.00000000
_symmetry_Int_Tables_number   1
_chemical_formula_structural   Li2SmErSi4
_chemical_formula_sum   'Li4 Sm2 Er2 Si8'
_cell_volume   296.99348064
_cell_formula_units_Z   2
loop_
 _symmetry_equiv_pos_site_id
 _symmetry_equiv_pos_as_xyz
  1  'x, y, z'
loop_
 _atom_site_type_symbol
 _atom_site_label
 _atom_site_symmetry_multiplicity
 _atom_site_fract_x
 _atom_site_fract_y
 _atom_site_fract_z
 _atom_site_occupancy
  Li  Li0  1  0.250000  0.994454  0.389572  1
  Li  Li1  1  0.750000  0.005546  0.610428  1
  Li  Li2  1  0.250000  0.489438  0.107549  1
  Li  Li3  1  0.750000  0.510562  0.892451  1
  Sm  Sm4  1  0.250000  0.639267  0.636596  1
  Sm  Sm5  1  0.750000  0.360733  0.363404  1
  Er  Er6  1  0.250000  0.133934  0.864219  1
  Er  Er7  1  0.750000  0.866066  0.135781  1
  Si  Si8  1  0.750000  0.264941  0.063225  1
  Si  Si9  1  0.250000  0.735059  0.936775  1
  Si  Si10  1  0.750000  0.774362  0.427611  1
  Si  Si11  1  0.250000  0.225638  0.572389  1
  Si  Si12  1  0.750000  0.843580  0.824469  1
  Si  Si13  1  0.250000  0.156420  0.175531  1
  Si  Si14  1  0.750000  0.336330  0.683196  1
  Si  Si15  1  0.250000  0.663670  0.316804  1
