# generated using pymatgen
data_Tb10Bi3Rh2Pb
_symmetry_space_group_name_H-M   'P 1'
_cell_length_a   8.04232391
_cell_length_b   9.03752955
_cell_length_c   12.47276590
_cell_angle_alpha   90.04172435
_cell_angle_beta   89.98784010
_cell_angle_gamma   89.94709727
_symmetry_Int_Tables_number   1
_chemical_formula_structural   Tb10Bi3Rh2Pb
_chemical_formula_sum   'Tb20 Bi6 Rh4 Pb2'
_cell_volume   906.55415367
_cell_formula_units_Z   2
loop_
 _symmetry_equiv_pos_site_id
 _symmetry_equiv_pos_as_xyz
  1  'x, y, z'
loop_
 _atom_site_type_symbol
 _atom_site_label
 _atom_site_symmetry_multiplicity
 _atom_site_fract_x
 _atom_site_fract_y
 _atom_site_fract_z
 _atom_site_occupancy
  Tb  Tb0  1  0.840544  0.747889  0.793463  1
  Tb  Tb1  1  0.159456  0.252111  0.206537  1
  Tb  Tb2  1  0.344352  0.251511  0.706709  1
  Tb  Tb3  1  0.655648  0.748489  0.293291  1
  Tb  Tb4  1  0.377680  0.748064  0.695224  1
  Tb  Tb5  1  0.622320  0.251936  0.304776  1
  Tb  Tb6  1  0.872407  0.251644  0.805182  1
  Tb  Tb7  1  0.127593  0.748356  0.194818  1
  Tb  Tb8  1  0.954037  0.750505  0.501986  1
  Tb  Tb9  1  0.045963  0.249495  0.498014  1
  Tb  Tb10  1  0.453489  0.254536  0.997876  1
  Tb  Tb11  1  0.546511  0.745464  0.002124  1
  Tb  Tb12  1  0.679219  0.041153  0.565412  1
  Tb  Tb13  1  0.320781  0.958847  0.434588  1
  Tb  Tb14  1  0.178480  0.960422  0.934104  1
  Tb  Tb15  1  0.322615  0.539473  0.431967  1
  Tb  Tb16  1  0.821520  0.039578  0.065896  1
  Tb  Tb17  1  0.677385  0.460527  0.568033  1
  Tb  Tb18  1  0.818239  0.459309  0.065071  1
  Tb  Tb19  1  0.181761  0.540691  0.934929  1
  Bi  Bi20  1  0.071390  0.508061  0.672275  1
  Bi  Bi21  1  0.429063  0.992272  0.172592  1
  Bi  Bi22  1  0.928610  0.491939  0.327725  1
  Bi  Bi23  1  0.570937  0.007728  0.827408  1
  Bi  Bi24  1  0.929595  0.008093  0.326332  1
  Bi  Bi25  1  0.070405  0.991907  0.673668  1
  Rh  Rh26  1  0.570319  0.750413  0.510302  1
  Rh  Rh27  1  0.429681  0.249587  0.489698  1
  Rh  Rh28  1  0.068978  0.249205  0.989412  1
  Rh  Rh29  1  0.931022  0.750795  0.010588  1
  Pb  Pb30  1  0.571069  0.491721  0.826763  1
  Pb  Pb31  1  0.428931  0.508279  0.173237  1
