# generated using pymatgen
data_Pr16ZnIn5Co2
_symmetry_space_group_name_H-M   'P 1'
_cell_length_a   10.81904900
_cell_length_b   10.83414350
_cell_length_c   7.17729400
_cell_angle_alpha   89.94486266
_cell_angle_beta   90.00058784
_cell_angle_gamma   119.95202833
_symmetry_Int_Tables_number   1
_chemical_formula_structural   Pr16ZnIn5Co2
_chemical_formula_sum   'Pr16 Zn1 In5 Co2'
_cell_volume   728.92778876
_cell_formula_units_Z   1
loop_
 _symmetry_equiv_pos_site_id
 _symmetry_equiv_pos_as_xyz
  1  'x, y, z'
loop_
 _atom_site_type_symbol
 _atom_site_label
 _atom_site_symmetry_multiplicity
 _atom_site_fract_x
 _atom_site_fract_y
 _atom_site_fract_z
 _atom_site_occupancy
  Pr  Pr0  1  0.534962  0.070013  0.511162  1
  Pr  Pr1  1  0.922181  0.469515  0.510440  1
  Pr  Pr2  1  0.547314  0.469347  0.510230  1
  Pr  Pr3  1  0.463853  0.927550  0.001485  1
  Pr  Pr4  1  0.076141  0.535354  0.011361  1
  Pr  Pr5  1  0.459230  0.535368  0.011221  1
  Pr  Pr6  1  0.174208  0.348703  0.720907  1
  Pr  Pr7  1  0.657037  0.819376  0.728597  1
  Pr  Pr8  1  0.162326  0.819407  0.729041  1
  Pr  Pr9  1  0.825104  0.650120  0.197689  1
  Pr  Pr10  1  0.353252  0.175439  0.226988  1
  Pr  Pr11  1  0.822299  0.175576  0.227112  1
  Pr  Pr12  1  0.670816  0.341886  0.902127  1
  Pr  Pr13  1  0.334258  0.668541  0.410078  1
  Pr  Pr14  1  0.995577  0.990795  0.507206  1
  Pr  Pr15  1  0.002745  0.005690  0.010719  1
  Zn  Zn16  1  0.835211  0.670395  0.764732  1
  In  In17  1  0.329194  0.162923  0.759541  1
  In  In18  1  0.833385  0.162651  0.760160  1
  In  In19  1  0.163449  0.326641  0.264781  1
  In  In20  1  0.672184  0.835445  0.260766  1
  In  In21  1  0.163319  0.835289  0.261546  1
  Co  Co22  1  0.667166  0.334321  0.283931  1
  Co  Co23  1  0.334790  0.669656  0.786179  1
