# generated using pymatgen
data_BaCaH6Pd
_symmetry_space_group_name_H-M   'P 1'
_cell_length_a   7.37985400
_cell_length_b   7.37985368
_cell_length_c   5.50151700
_cell_angle_alpha   90.00000000
_cell_angle_beta   90.00000000
_cell_angle_gamma   136.18076753
_symmetry_Int_Tables_number   1
_chemical_formula_structural   BaCaH6Pd
_chemical_formula_sum   'Ba2 Ca2 H12 Pd2'
_cell_volume   207.45594602
_cell_formula_units_Z   2
loop_
 _symmetry_equiv_pos_site_id
 _symmetry_equiv_pos_as_xyz
  1  'x, y, z'
loop_
 _atom_site_type_symbol
 _atom_site_label
 _atom_site_symmetry_multiplicity
 _atom_site_fract_x
 _atom_site_fract_y
 _atom_site_fract_z
 _atom_site_occupancy
  Ba  Ba0  1  0.849049  0.150951  0.500000  1
  Ba  Ba1  1  0.349049  0.650951  0.000000  1
  Ca  Ca2  1  0.142323  0.857677  0.500000  1
  Ca  Ca3  1  0.642323  0.357677  0.000000  1
  H  H4  1  0.980412  0.517874  0.748853  1
  H  H5  1  0.482126  0.019588  0.251147  1
  H  H6  1  0.982126  0.519588  0.248853  1
  H  H7  1  0.480412  0.017874  0.751147  1
  H  H8  1  0.383470  0.616530  0.500000  1
  H  H9  1  0.883470  0.116530  0.000000  1
  H  H10  1  0.628641  0.371359  0.500000  1
  H  H11  1  0.128641  0.871359  0.000000  1
  H  H12  1  0.290157  0.265097  0.722673  1
  H  H13  1  0.734903  0.709843  0.277327  1
  H  H14  1  0.234903  0.209843  0.222673  1
  H  H15  1  0.790157  0.765097  0.777327  1
  Pd  Pd16  1  0.508917  0.491083  0.500000  1
  Pd  Pd17  1  0.008917  0.991083  0.000000  1
