# generated using pymatgen
data_Tm5Lu11(HfIr3)4
_symmetry_space_group_name_H-M   'P 1'
_cell_length_a   10.66331917
_cell_length_b   10.67466611
_cell_length_c   6.18482708
_cell_angle_alpha   89.98984665
_cell_angle_beta   89.98455564
_cell_angle_gamma   90.01323176
_symmetry_Int_Tables_number   1
_chemical_formula_structural   Tm5Lu11(HfIr3)4
_chemical_formula_sum   'Tm5 Lu11 Hf4 Ir12'
_cell_volume   704.00255604
_cell_formula_units_Z   1
loop_
 _symmetry_equiv_pos_site_id
 _symmetry_equiv_pos_as_xyz
  1  'x, y, z'
loop_
 _atom_site_type_symbol
 _atom_site_label
 _atom_site_symmetry_multiplicity
 _atom_site_fract_x
 _atom_site_fract_y
 _atom_site_fract_z
 _atom_site_occupancy
  Tm  Tm0  1  0.789521  0.586190  0.626743  1
  Tm  Tm1  1  0.913718  0.710210  0.126780  1
  Tm  Tm2  1  0.913659  0.289705  0.626737  1
  Tm  Tm3  1  0.086711  0.710141  0.626784  1
  Tm  Tm4  1  0.086467  0.289809  0.126782  1
  Lu  Lu5  1  0.290514  0.085692  0.373958  1
  Lu  Lu6  1  0.290495  0.914344  0.873917  1
  Lu  Lu7  1  0.709510  0.085696  0.873975  1
  Lu  Lu8  1  0.709464  0.914384  0.373809  1
  Lu  Lu9  1  0.585569  0.790445  0.873930  1
  Lu  Lu10  1  0.585815  0.209731  0.373728  1
  Lu  Lu11  1  0.414166  0.790285  0.373859  1
  Lu  Lu12  1  0.414169  0.209735  0.873766  1
  Lu  Lu13  1  0.210202  0.414019  0.626298  1
  Lu  Lu14  1  0.210206  0.585963  0.126308  1
  Lu  Lu15  1  0.789871  0.413845  0.126357  1
  Hf  Hf16  1  0.000028  0.000013  0.499350  1
  Hf  Hf17  1  0.000052  0.000034  0.999460  1
  Hf  Hf18  1  0.499922  0.499938  0.999810  1
  Hf  Hf19  1  0.499656  0.499863  0.499656  1
  Ir  Ir20  1  0.853451  0.145387  0.249409  1
  Ir  Ir21  1  0.853557  0.855014  0.749597  1
  Ir  Ir22  1  0.146519  0.145407  0.749385  1
  Ir  Ir23  1  0.146558  0.854632  0.249391  1
  Ir  Ir24  1  0.645266  0.353754  0.750421  1
  Ir  Ir25  1  0.645186  0.646071  0.249416  1
  Ir  Ir26  1  0.354427  0.354114  0.250261  1
  Ir  Ir27  1  0.354494  0.645901  0.750217  1
  Ir  Ir28  1  0.499993  0.999995  0.122087  1
  Ir  Ir29  1  0.500001  0.000056  0.622071  1
  Ir  Ir30  1  0.000417  0.499816  0.878259  1
  Ir  Ir31  1  0.000416  0.499809  0.377479  1
