# generated using pymatgen
data_Tb12Re12Mo3Ru5N48
_symmetry_space_group_name_H-M   'P 1'
_cell_length_a   11.05903798
_cell_length_b   11.05900255
_cell_length_c   11.05900300
_cell_angle_alpha   109.47115657
_cell_angle_beta   109.47128284
_cell_angle_gamma   109.47128297
_symmetry_Int_Tables_number   1
_chemical_formula_structural   Tb12Re12Mo3Ru5N48
_chemical_formula_sum   'Tb12 Re12 Mo3 Ru5 N48'
_cell_volume   1041.18300121
_cell_formula_units_Z   1
loop_
 _symmetry_equiv_pos_site_id
 _symmetry_equiv_pos_as_xyz
  1  'x, y, z'
loop_
 _atom_site_type_symbol
 _atom_site_label
 _atom_site_symmetry_multiplicity
 _atom_site_fract_x
 _atom_site_fract_y
 _atom_site_fract_z
 _atom_site_occupancy
  Tb  Tb0  1  0.248649  0.373783  0.122962  1
  Tb  Tb1  1  0.374866  0.749179  0.126218  1
  Tb  Tb2  1  0.373182  0.122744  0.250027  1
  Tb  Tb3  1  0.874313  0.622962  0.249179  1
  Tb  Tb4  1  0.750438  0.127284  0.377256  1
  Tb  Tb5  1  0.123155  0.249973  0.372717  1
  Tb  Tb6  1  0.876845  0.750027  0.627283  1
  Tb  Tb7  1  0.249562  0.872718  0.622744  1
  Tb  Tb8  1  0.125689  0.377038  0.750821  1
  Tb  Tb9  1  0.626818  0.877256  0.749973  1
  Tb  Tb10  1  0.625134  0.250821  0.873784  1
  Tb  Tb11  1  0.751351  0.626217  0.877038  1
  Re  Re12  1  0.875889  0.250200  0.124539  1
  Re  Re13  1  0.749375  0.874281  0.124025  1
  Re  Re14  1  0.625350  0.375975  0.250256  1
  Re  Re15  1  0.125688  0.874338  0.249798  1
  Re  Re16  1  0.248650  0.624539  0.374338  1
  Re  Re17  1  0.624906  0.750256  0.374281  1
  Re  Re18  1  0.375094  0.249744  0.625719  1
  Re  Re19  1  0.751350  0.375461  0.625662  1
  Re  Re20  1  0.874312  0.125662  0.750201  1
  Re  Re21  1  0.374650  0.624025  0.749744  1
  Re  Re22  1  0.250624  0.125719  0.875975  1
  Re  Re23  1  0.124111  0.749799  0.875461  1
  Mo  Mo24  1  0.500001  0.000000  0.000000  1
  Mo  Mo25  1  0.000000  0.000000  0.500001  1
  Mo  Mo26  1  0.500001  0.500001  0.500001  1
  Ru  Ru27  1  0.000000  0.000000  0.000000  1
  Ru  Ru28  1  0.000000  0.500001  0.000000  1
  Ru  Ru29  1  0.500000  0.500000  0.000000  1
  Ru  Ru30  1  0.500000  0.000000  0.500000  1
  Ru  Ru31  1  0.000000  0.500000  0.500000  1
  N  N32  1  0.317913  0.901100  0.018451  1
  N  N33  1  0.201839  0.117703  0.017637  1
  N  N34  1  0.884130  0.399706  0.084101  1
  N  N35  1  0.702009  0.684355  0.083943  1
  N  N36  1  0.618066  0.416057  0.100412  1
  N  N37  1  0.984423  0.684394  0.100293  1
  N  N38  1  0.598518  0.915877  0.116215  1
  N  N39  1  0.017853  0.201756  0.117462  1
  N  N40  1  0.199970  0.584101  0.184395  1
  N  N41  1  0.482346  0.600413  0.184356  1
  N  N42  1  0.117994  0.017157  0.201484  1
  N  N43  1  0.584082  0.183835  0.200332  1
  N  N44  1  0.482303  0.383785  0.299663  1
  N  N45  1  0.316097  0.915706  0.298245  1
  N  N46  1  0.900247  0.016497  0.316165  1
  N  N47  1  0.916510  0.298517  0.315673  1
  N  N48  1  0.299462  0.481548  0.382649  1
  N  N49  1  0.584136  0.899936  0.382298  1
  N  N50  1  0.815800  0.517637  0.399936  1
  N  N51  1  0.083187  0.882649  0.401100  1
  N  N52  1  0.099608  0.617461  0.415706  1
  N  N53  1  0.817359  0.799663  0.415878  1
  N  N54  1  0.600837  0.184327  0.482843  1
  N  N55  1  0.383750  0.299668  0.483502  1
  N  N56  1  0.616250  0.700332  0.516497  1
  N  N57  1  0.399164  0.815674  0.517157  1
  N  N58  1  0.182641  0.200337  0.584122  1
  N  N59  1  0.900392  0.382539  0.584294  1
  N  N60  1  0.916812  0.117351  0.598899  1
  N  N61  1  0.184201  0.482363  0.600065  1
  N  N62  1  0.415864  0.100064  0.617702  1
  N  N63  1  0.700538  0.518451  0.617351  1
  N  N64  1  0.083490  0.701483  0.684326  1
  N  N65  1  0.099752  0.983502  0.683834  1
  N  N66  1  0.683902  0.084294  0.701755  1
  N  N67  1  0.517696  0.616215  0.700337  1
  N  N68  1  0.415918  0.816165  0.799668  1
  N  N69  1  0.882007  0.982844  0.798517  1
  N  N70  1  0.517654  0.399588  0.815645  1
  N  N71  1  0.800030  0.415899  0.815605  1
  N  N72  1  0.401481  0.084122  0.883785  1
  N  N73  1  0.982148  0.798245  0.882539  1
  N  N74  1  0.015576  0.315605  0.899706  1
  N  N75  1  0.381934  0.583943  0.899588  1
  N  N76  1  0.297991  0.315644  0.916057  1
  N  N77  1  0.115870  0.600293  0.915898  1
  N  N78  1  0.682086  0.098899  0.981548  1
  N  N79  1  0.798162  0.882298  0.982364  1
