# generated using pymatgen
data_EuAlGaBOs2
_symmetry_space_group_name_H-M   'P 1'
_cell_length_a   4.23161200
_cell_length_b   4.23161200
_cell_length_c   5.61833400
_cell_angle_alpha   90.00000000
_cell_angle_beta   90.00000000
_cell_angle_gamma   90.00000000
_symmetry_Int_Tables_number   1
_chemical_formula_structural   EuAlGaBOs2
_chemical_formula_sum   'Eu1 Al1 Ga1 B1 Os2'
_cell_volume   100.60492317
_cell_formula_units_Z   1
loop_
 _symmetry_equiv_pos_site_id
 _symmetry_equiv_pos_as_xyz
  1  'x, y, z'
loop_
 _atom_site_type_symbol
 _atom_site_label
 _atom_site_symmetry_multiplicity
 _atom_site_fract_x
 _atom_site_fract_y
 _atom_site_fract_z
 _atom_site_occupancy
  Eu  Eu0  1  0.000000  0.000000  0.498003  1
  Al  Al1  1  0.500001  0.500001  0.739100  1
  Ga  Ga2  1  0.500001  0.500001  0.271222  1
  B  B3  1  0.000000  0.000000  0.999357  1
  Os  Os4  1  0.500001  0.000000  0.996159  1
  Os  Os5  1  0.000000  0.500001  0.996159  1
