# generated using pymatgen
data_Ho4Lu16AlBi11
_symmetry_space_group_name_H-M   'P 1'
_cell_length_a   8.11244132
_cell_length_b   9.36713400
_cell_length_c   11.83777495
_cell_angle_alpha   90.00000000
_cell_angle_beta   90.24957058
_cell_angle_gamma   90.00000000
_symmetry_Int_Tables_number   1
_chemical_formula_structural   Ho4Lu16AlBi11
_chemical_formula_sum   'Ho4 Lu16 Al1 Bi11'
_cell_volume   899.54783159
_cell_formula_units_Z   1
loop_
 _symmetry_equiv_pos_site_id
 _symmetry_equiv_pos_as_xyz
  1  'x, y, z'
loop_
 _atom_site_type_symbol
 _atom_site_label
 _atom_site_symmetry_multiplicity
 _atom_site_fract_x
 _atom_site_fract_y
 _atom_site_fract_z
 _atom_site_occupancy
  Ho  Ho0  1  0.313518  0.250000  0.218394  1
  Ho  Ho1  1  0.812296  0.250000  0.282741  1
  Ho  Ho2  1  0.678805  0.750000  0.787153  1
  Ho  Ho3  1  0.189188  0.750000  0.721474  1
  Lu  Lu4  1  0.354233  0.750000  0.209158  1
  Lu  Lu5  1  0.853326  0.750000  0.282554  1
  Lu  Lu6  1  0.647877  0.250000  0.781384  1
  Lu  Lu7  1  0.148746  0.250000  0.718293  1
  Lu  Lu8  1  0.684251  0.572535  0.057155  1
  Lu  Lu9  1  0.192295  0.932825  0.438987  1
  Lu  Lu10  1  0.308693  0.055028  0.940540  1
  Lu  Lu11  1  0.807685  0.433115  0.560178  1
  Lu  Lu12  1  0.308693  0.444972  0.940540  1
  Lu  Lu13  1  0.807685  0.066885  0.560178  1
  Lu  Lu14  1  0.684251  0.927465  0.057155  1
  Lu  Lu15  1  0.192295  0.567175  0.438987  1
  Lu  Lu16  1  0.477869  0.250000  0.489882  1
  Lu  Lu17  1  0.979618  0.250000  0.010248  1
  Lu  Lu18  1  0.522736  0.750000  0.510089  1
  Lu  Lu19  1  0.034170  0.750000  0.990047  1
  Al  Al20  1  0.405318  0.750000  0.960303  1
  Bi  Bi21  1  0.903430  0.750000  0.542576  1
  Bi  Bi22  1  0.597528  0.250000  0.040965  1
  Bi  Bi23  1  0.097936  0.250000  0.458950  1
  Bi  Bi24  1  0.564678  0.994967  0.326450  1
  Bi  Bi25  1  0.063679  0.503907  0.174855  1
  Bi  Bi26  1  0.435296  0.495527  0.674319  1
  Bi  Bi27  1  0.935126  0.004577  0.825410  1
  Bi  Bi28  1  0.435296  0.004473  0.674319  1
  Bi  Bi29  1  0.935126  0.495423  0.825410  1
  Bi  Bi30  1  0.564678  0.505033  0.326450  1
  Bi  Bi31  1  0.063679  0.996093  0.174855  1
