# generated using pymatgen
data_Y15Ho5(Ir5Pt)2
_symmetry_space_group_name_H-M   'P 1'
_cell_length_a   10.96552152
_cell_length_b   10.96680931
_cell_length_c   6.35549617
_cell_angle_alpha   90.02620575
_cell_angle_beta   89.95373558
_cell_angle_gamma   89.99300927
_symmetry_Int_Tables_number   1
_chemical_formula_structural   Y15Ho5(Ir5Pt)2
_chemical_formula_sum   'Y15 Ho5 Ir10 Pt2'
_cell_volume   764.29119160
_cell_formula_units_Z   1
loop_
 _symmetry_equiv_pos_site_id
 _symmetry_equiv_pos_as_xyz
  1  'x, y, z'
loop_
 _atom_site_type_symbol
 _atom_site_label
 _atom_site_symmetry_multiplicity
 _atom_site_fract_x
 _atom_site_fract_y
 _atom_site_fract_z
 _atom_site_occupancy
  Y  Y0  1  0.291043  0.088396  0.376111  1
  Y  Y1  1  0.291137  0.911668  0.876129  1
  Y  Y2  1  0.705473  0.090075  0.874150  1
  Y  Y3  1  0.705485  0.909951  0.374073  1
  Y  Y4  1  0.584527  0.790709  0.878494  1
  Y  Y5  1  0.584544  0.209348  0.378414  1
  Y  Y6  1  0.410811  0.791109  0.377613  1
  Y  Y7  1  0.410798  0.208818  0.877607  1
  Y  Y8  1  0.209044  0.411432  0.622201  1
  Y  Y9  1  0.209127  0.588389  0.122155  1
  Y  Y10  1  0.790734  0.414569  0.122523  1
  Y  Y11  1  0.790714  0.585383  0.622552  1
  Y  Y12  1  0.913512  0.707302  0.126576  1
  Y  Y13  1  0.913554  0.292683  0.626634  1
  Y  Y14  1  0.091509  0.706970  0.622420  1
  Ho  Ho15  1  0.091511  0.293512  0.122065  1
  Ho  Ho16  1  0.003103  0.999560  0.499981  1
  Ho  Ho17  1  0.003096  0.000565  0.000010  1
  Ho  Ho18  1  0.499812  0.499578  0.999915  1
  Ho  Ho19  1  0.499797  0.500402  0.499889  1
  Ir  Ir20  1  0.152140  0.153460  0.750871  1
  Ir  Ir21  1  0.152273  0.846886  0.250030  1
  Ir  Ir22  1  0.654268  0.346531  0.749492  1
  Ir  Ir23  1  0.654260  0.653497  0.249527  1
  Ir  Ir24  1  0.346799  0.346785  0.250096  1
  Ir  Ir25  1  0.347304  0.653106  0.750387  1
  Ir  Ir26  1  0.500621  0.999833  0.123899  1
  Ir  Ir27  1  0.500661  0.000162  0.623917  1
  Ir  Ir28  1  0.999807  0.499739  0.876874  1
  Ir  Ir29  1  0.999770  0.499413  0.375888  1
  Pt  Pt30  1  0.846500  0.152912  0.249721  1
  Pt  Pt31  1  0.846267  0.847260  0.749783  1
