# generated using pymatgen
data_Y3Tm3Lu4Cd3Ru
_symmetry_space_group_name_H-M   'P 1'
_cell_length_a   9.51289100
_cell_length_b   9.51289188
_cell_length_c   9.71153100
_cell_angle_alpha   90.00000000
_cell_angle_beta   90.00000000
_cell_angle_gamma   120.00000041
_symmetry_Int_Tables_number   1
_chemical_formula_structural   Y3Tm3Lu4Cd3Ru
_chemical_formula_sum   'Y6 Tm6 Lu8 Cd6 Ru2'
_cell_volume   761.10296210
_cell_formula_units_Z   2
loop_
 _symmetry_equiv_pos_site_id
 _symmetry_equiv_pos_as_xyz
  1  'x, y, z'
loop_
 _atom_site_type_symbol
 _atom_site_label
 _atom_site_symmetry_multiplicity
 _atom_site_fract_x
 _atom_site_fract_y
 _atom_site_fract_z
 _atom_site_occupancy
  Y  Y0  1  0.540105  0.459895  0.249226  1
  Y  Y1  1  0.540105  0.080210  0.249226  1
  Y  Y2  1  0.919790  0.459895  0.249226  1
  Y  Y3  1  0.459895  0.540105  0.750774  1
  Y  Y4  1  0.459895  0.919790  0.750774  1
  Y  Y5  1  0.080210  0.540105  0.750774  1
  Tm  Tm6  1  0.209835  0.790165  0.439652  1
  Tm  Tm7  1  0.209835  0.419671  0.439652  1
  Tm  Tm8  1  0.580329  0.790165  0.439652  1
  Tm  Tm9  1  0.790165  0.209835  0.560348  1
  Tm  Tm10  1  0.790165  0.580329  0.560348  1
  Tm  Tm11  1  0.419671  0.209835  0.560348  1
  Lu  Lu12  1  0.000000  0.000000  0.500000  1
  Lu  Lu13  1  0.000000  0.000000  0.000000  1
  Lu  Lu14  1  0.789835  0.210165  0.940265  1
  Lu  Lu15  1  0.789835  0.579669  0.940265  1
  Lu  Lu16  1  0.420331  0.210165  0.940265  1
  Lu  Lu17  1  0.210165  0.789835  0.059735  1
  Lu  Lu18  1  0.210165  0.420331  0.059735  1
  Lu  Lu19  1  0.579669  0.789835  0.059735  1
  Cd  Cd20  1  0.886647  0.113353  0.249608  1
  Cd  Cd21  1  0.886647  0.773294  0.249608  1
  Cd  Cd22  1  0.226706  0.113353  0.249608  1
  Cd  Cd23  1  0.113353  0.886647  0.750392  1
  Cd  Cd24  1  0.113353  0.226706  0.750392  1
  Cd  Cd25  1  0.773294  0.886647  0.750392  1
  Ru  Ru26  1  0.333333  0.666667  0.249215  1
  Ru  Ru27  1  0.666667  0.333333  0.750785  1
