# generated using pymatgen
data_Er3Sc13(In3Os)2
_symmetry_space_group_name_H-M   'P 1'
_cell_length_a   9.89576800
_cell_length_b   9.89576845
_cell_length_c   6.66582900
_cell_angle_alpha   90.00000000
_cell_angle_beta   90.00000000
_cell_angle_gamma   119.99999849
_symmetry_Int_Tables_number   1
_chemical_formula_structural   Er3Sc13(In3Os)2
_chemical_formula_sum   'Er3 Sc13 In6 Os2'
_cell_volume   565.30631444
_cell_formula_units_Z   1
loop_
 _symmetry_equiv_pos_site_id
 _symmetry_equiv_pos_as_xyz
  1  'x, y, z'
loop_
 _atom_site_type_symbol
 _atom_site_label
 _atom_site_symmetry_multiplicity
 _atom_site_fract_x
 _atom_site_fract_y
 _atom_site_fract_z
 _atom_site_occupancy
  Er  Er0  1  0.333333  0.666667  0.664785  1
  Er  Er1  1  0.000000  0.000000  0.778442  1
  Er  Er2  1  0.000000  0.000000  0.278208  1
  Sc  Sc3  1  0.531314  0.062628  0.791474  1
  Sc  Sc4  1  0.937372  0.468686  0.791474  1
  Sc  Sc5  1  0.531314  0.468686  0.791474  1
  Sc  Sc6  1  0.472789  0.945579  0.288551  1
  Sc  Sc7  1  0.054421  0.527211  0.288551  1
  Sc  Sc8  1  0.472789  0.527211  0.288551  1
  Sc  Sc9  1  0.819775  0.639549  0.501737  1
  Sc  Sc10  1  0.360451  0.180225  0.501737  1
  Sc  Sc11  1  0.819775  0.180225  0.501737  1
  Sc  Sc12  1  0.179968  0.359936  0.005506  1
  Sc  Sc13  1  0.640064  0.820032  0.005506  1
  Sc  Sc14  1  0.179968  0.820032  0.005506  1
  Sc  Sc15  1  0.666667  0.333333  0.172361  1
  In  In16  1  0.834712  0.669426  0.038085  1
  In  In17  1  0.330574  0.165288  0.038085  1
  In  In18  1  0.834712  0.165288  0.038085  1
  In  In19  1  0.162067  0.324133  0.534804  1
  In  In20  1  0.675867  0.837933  0.534804  1
  In  In21  1  0.162067  0.837933  0.534804  1
  Os  Os22  1  0.666667  0.333333  0.575338  1
  Os  Os23  1  0.333333  0.666667  0.086297  1
