# generated using pymatgen
data_Cs5(OsO3)18
_symmetry_space_group_name_H-M   'P 1'
_cell_length_a   7.34261900
_cell_length_b   7.34261911
_cell_length_c   22.70602900
_cell_angle_alpha   90.00000000
_cell_angle_beta   90.00000000
_cell_angle_gamma   119.99999500
_symmetry_Int_Tables_number   1
_chemical_formula_structural   Cs5(OsO3)18
_chemical_formula_sum   'Cs5 Os18 O54'
_cell_volume   1060.16591138
_cell_formula_units_Z   1
loop_
 _symmetry_equiv_pos_site_id
 _symmetry_equiv_pos_as_xyz
  1  'x, y, z'
loop_
 _atom_site_type_symbol
 _atom_site_label
 _atom_site_symmetry_multiplicity
 _atom_site_fract_x
 _atom_site_fract_y
 _atom_site_fract_z
 _atom_site_occupancy
  Cs  Cs0  1  0.000000  0.000000  0.500000  1
  Cs  Cs1  1  0.000000  0.000000  0.153815  1
  Cs  Cs2  1  0.000000  0.000000  0.330724  1
  Cs  Cs3  1  0.000000  0.000000  0.669276  1
  Cs  Cs4  1  0.000000  0.000000  0.846185  1
  Os  Os5  1  0.000000  0.500000  0.917139  1
  Os  Os6  1  0.000000  0.500000  0.583374  1
  Os  Os7  1  0.000000  0.500000  0.249841  1
  Os  Os8  1  0.000000  0.500000  0.750159  1
  Os  Os9  1  0.000000  0.500000  0.082861  1
  Os  Os10  1  0.000000  0.500000  0.416626  1
  Os  Os11  1  0.500000  0.500000  0.249839  1
  Os  Os12  1  0.500000  0.500000  0.917127  1
  Os  Os13  1  0.500000  0.500000  0.583375  1
  Os  Os14  1  0.500000  0.500000  0.416625  1
  Os  Os15  1  0.500000  0.500000  0.082873  1
  Os  Os16  1  0.500000  0.500000  0.750161  1
  Os  Os17  1  0.500000  0.000000  0.082859  1
  Os  Os18  1  0.500000  0.000000  0.416633  1
  Os  Os19  1  0.500000  0.000000  0.750149  1
  Os  Os20  1  0.500000  0.000000  0.249851  1
  Os  Os21  1  0.500000  0.000000  0.583367  1
  Os  Os22  1  0.500000  0.000000  0.917141  1
  O  O23  1  0.000000  0.500000  0.666582  1
  O  O24  1  0.000000  0.500000  0.333418  1
  O  O25  1  0.000000  0.500000  0.000000  1
  O  O26  1  0.000000  0.500000  0.166750  1
  O  O27  1  0.000000  0.500000  0.833250  1
  O  O28  1  0.000000  0.500000  0.500000  1
  O  O29  1  0.207559  0.792444  0.083596  1
  O  O30  1  0.206653  0.793215  0.749871  1
  O  O31  1  0.206428  0.793530  0.416684  1
  O  O32  1  0.207559  0.792444  0.916404  1
  O  O33  1  0.206428  0.793530  0.583316  1
  O  O34  1  0.206653  0.793215  0.250129  1
  O  O35  1  0.206658  0.413337  0.250132  1
  O  O36  1  0.206523  0.413090  0.583314  1
  O  O37  1  0.207562  0.415131  0.916400  1
  O  O38  1  0.206523  0.413090  0.416686  1
  O  O39  1  0.207562  0.415131  0.083600  1
  O  O40  1  0.206658  0.413337  0.749868  1
  O  O41  1  0.587005  0.793497  0.416684  1
  O  O42  1  0.586656  0.793265  0.749868  1
  O  O43  1  0.584907  0.792460  0.083603  1
  O  O44  1  0.587005  0.793497  0.583316  1
  O  O45  1  0.586656  0.793265  0.250132  1
  O  O46  1  0.584907  0.792460  0.916397  1
  O  O47  1  0.500000  0.500000  0.666597  1
  O  O48  1  0.500000  0.500000  0.833252  1
  O  O49  1  0.500000  0.500000  0.166748  1
  O  O50  1  0.500000  0.500000  0.333403  1
  O  O51  1  0.500000  0.500000  0.000000  1
  O  O52  1  0.500000  0.500000  0.500000  1
  O  O53  1  0.415093  0.207540  0.083603  1
  O  O54  1  0.412995  0.206503  0.416684  1
  O  O55  1  0.413344  0.206735  0.749868  1
  O  O56  1  0.412995  0.206503  0.583316  1
  O  O57  1  0.413344  0.206735  0.250132  1
  O  O58  1  0.415093  0.207540  0.916397  1
  O  O59  1  0.792438  0.584869  0.916400  1
  O  O60  1  0.793342  0.586663  0.250132  1
  O  O61  1  0.793477  0.586910  0.583314  1
  O  O62  1  0.500000  0.000000  0.666571  1
  O  O63  1  0.500000  0.000000  0.000000  1
  O  O64  1  0.500000  0.000000  0.833279  1
  O  O65  1  0.500000  0.000000  0.166721  1
  O  O66  1  0.500000  0.000000  0.333429  1
  O  O67  1  0.500000  0.000000  0.500000  1
  O  O68  1  0.793342  0.586663  0.749868  1
  O  O69  1  0.793477  0.586910  0.416686  1
  O  O70  1  0.792438  0.584869  0.083600  1
  O  O71  1  0.793347  0.206785  0.749871  1
  O  O72  1  0.792441  0.207556  0.083596  1
  O  O73  1  0.793572  0.206470  0.416684  1
  O  O74  1  0.793347  0.206785  0.250129  1
  O  O75  1  0.792441  0.207556  0.916404  1
  O  O76  1  0.793572  0.206470  0.583316  1
