# generated using pymatgen
data_MnFe6Si16Ir
_symmetry_space_group_name_H-M   'P 1'
_cell_length_a   6.33191558
_cell_length_b   6.33191540
_cell_length_c   7.90212613
_cell_angle_alpha   89.80686699
_cell_angle_beta   89.80686626
_cell_angle_gamma   103.43292791
_symmetry_Int_Tables_number   1
_chemical_formula_structural   MnFe6Si16Ir
_chemical_formula_sum   'Mn1 Fe6 Si16 Ir1'
_cell_volume   308.14917255
_cell_formula_units_Z   1
loop_
 _symmetry_equiv_pos_site_id
 _symmetry_equiv_pos_as_xyz
  1  'x, y, z'
loop_
 _atom_site_type_symbol
 _atom_site_label
 _atom_site_symmetry_multiplicity
 _atom_site_fract_x
 _atom_site_fract_y
 _atom_site_fract_z
 _atom_site_occupancy
  Mn  Mn0  1  0.308155  0.308155  0.312020  1
  Fe  Fe1  1  0.693658  0.693658  0.686403  1
  Fe  Fe2  1  0.808043  0.808043  0.187855  1
  Fe  Fe3  1  0.282618  0.715309  0.499756  1
  Fe  Fe4  1  0.216760  0.783693  0.999210  1
  Fe  Fe5  1  0.715309  0.282618  0.499756  1
  Fe  Fe6  1  0.783693  0.216760  0.999210  1
  Si  Si7  1  0.419271  0.671825  0.227317  1
  Si  Si8  1  0.075843  0.815760  0.723578  1
  Si  Si9  1  0.170943  0.918965  0.272280  1
  Si  Si10  1  0.334146  0.592267  0.772381  1
  Si  Si11  1  0.592267  0.334146  0.772381  1
  Si  Si12  1  0.918965  0.170943  0.272280  1
  Si  Si13  1  0.815760  0.075843  0.723578  1
  Si  Si14  1  0.671825  0.419271  0.227317  1
  Si  Si15  1  0.143982  0.408768  0.060995  1
  Si  Si16  1  0.355890  0.094476  0.541800  1
  Si  Si17  1  0.900505  0.645064  0.448029  1
  Si  Si18  1  0.598632  0.854998  0.953331  1
  Si  Si19  1  0.854998  0.598632  0.953331  1
  Si  Si20  1  0.645064  0.900505  0.448029  1
  Si  Si21  1  0.094476  0.355890  0.541800  1
  Si  Si22  1  0.408768  0.143982  0.060995  1
  Ir  Ir23  1  0.190430  0.190430  0.816365  1
