# generated using pymatgen
data_Li4Y3LuPt4
_symmetry_space_group_name_H-M   'P 1'
_cell_length_a   4.02207300
_cell_length_b   7.01018771
_cell_length_c   8.37724968
_cell_angle_alpha   89.60747706
_cell_angle_beta   90.00000000
_cell_angle_gamma   90.00000000
_symmetry_Int_Tables_number   1
_chemical_formula_structural   Li4Y3LuPt4
_chemical_formula_sum   'Li4 Y3 Lu1 Pt4'
_cell_volume   236.19508904
_cell_formula_units_Z   1
loop_
 _symmetry_equiv_pos_site_id
 _symmetry_equiv_pos_as_xyz
  1  'x, y, z'
loop_
 _atom_site_type_symbol
 _atom_site_label
 _atom_site_symmetry_multiplicity
 _atom_site_fract_x
 _atom_site_fract_y
 _atom_site_fract_z
 _atom_site_occupancy
  Li  Li0  1  0.250000  0.633336  0.558988  1
  Li  Li1  1  0.750000  0.368924  0.439240  1
  Li  Li2  1  0.750000  0.870204  0.061160  1
  Li  Li3  1  0.250000  0.129107  0.941596  1
  Y  Y4  1  0.250000  0.541050  0.183804  1
  Y  Y5  1  0.750000  0.456424  0.818782  1
  Y  Y6  1  0.750000  0.958246  0.679611  1
  Lu  Lu7  1  0.250000  0.042632  0.319844  1
  Pt  Pt8  1  0.250000  0.747527  0.878118  1
  Pt  Pt9  1  0.750000  0.245708  0.126478  1
  Pt  Pt10  1  0.750000  0.758258  0.375509  1
  Pt  Pt11  1  0.250000  0.248583  0.616872  1
