# generated using pymatgen
data_CaTh7(Si4Mo3)4
_symmetry_space_group_name_H-M   'P 1'
_cell_length_a   7.01836455
_cell_length_b   7.07399816
_cell_length_c   13.11475258
_cell_angle_alpha   90.01437808
_cell_angle_beta   89.87690340
_cell_angle_gamma   89.79375417
_symmetry_Int_Tables_number   1
_chemical_formula_structural   CaTh7(Si4Mo3)4
_chemical_formula_sum   'Ca1 Th7 Si16 Mo12'
_cell_volume   651.11415341
_cell_formula_units_Z   1
loop_
 _symmetry_equiv_pos_site_id
 _symmetry_equiv_pos_as_xyz
  1  'x, y, z'
loop_
 _atom_site_type_symbol
 _atom_site_label
 _atom_site_symmetry_multiplicity
 _atom_site_fract_x
 _atom_site_fract_y
 _atom_site_fract_z
 _atom_site_occupancy
  Ca  Ca0  1  0.993154  0.165130  0.093610  1
  Th  Th1  1  0.493185  0.337906  0.097002  1
  Th  Th2  1  0.992799  0.162163  0.404690  1
  Th  Th3  1  0.509229  0.662254  0.594743  1
  Th  Th4  1  0.008274  0.837608  0.907239  1
  Th  Th5  1  0.508758  0.662739  0.906210  1
  Th  Th6  1  0.009074  0.837825  0.594796  1
  Th  Th7  1  0.489243  0.336089  0.403105  1
  Si  Si8  1  0.655603  0.049495  0.549351  1
  Si  Si9  1  0.152908  0.448115  0.950804  1
  Si  Si10  1  0.341513  0.953839  0.050339  1
  Si  Si11  1  0.842108  0.547694  0.452008  1
  Si  Si12  1  0.349495  0.947215  0.448733  1
  Si  Si13  1  0.846973  0.542278  0.050664  1
  Si  Si14  1  0.654197  0.049346  0.953100  1
  Si  Si15  1  0.155972  0.449770  0.548548  1
  Si  Si16  1  0.538245  0.349956  0.749479  1
  Si  Si17  1  0.038206  0.149013  0.751267  1
  Si  Si18  1  0.460010  0.652535  0.253872  1
  Si  Si19  1  0.963171  0.857792  0.245914  1
  Si  Si20  1  0.816396  0.616716  0.750639  1
  Si  Si21  1  0.314651  0.883346  0.750469  1
  Si  Si22  1  0.179523  0.381515  0.246993  1
  Si  Si23  1  0.691605  0.116636  0.246573  1
  Mo  Mo24  1  0.830887  0.339527  0.626339  1
  Mo  Mo25  1  0.332384  0.161892  0.874059  1
  Mo  Mo26  1  0.166179  0.663655  0.124739  1
  Mo  Mo27  1  0.681341  0.838943  0.374267  1
  Mo  Mo28  1  0.160795  0.660824  0.372225  1
  Mo  Mo29  1  0.663224  0.833374  0.125478  1
  Mo  Mo30  1  0.827732  0.338910  0.873466  1
  Mo  Mo31  1  0.331132  0.160290  0.625060  1
  Mo  Mo32  1  0.670720  0.997198  0.751536  1
  Mo  Mo33  1  0.171913  0.502071  0.750596  1
  Mo  Mo34  1  0.331521  0.003340  0.250690  1
  Mo  Mo35  1  0.827875  0.502999  0.251398  1
