# generated using pymatgen
data_PrAs12OsRu3
_symmetry_space_group_name_H-M   'P 1'
_cell_length_a   7.46597814
_cell_length_b   7.46357125
_cell_length_c   7.46597805
_cell_angle_alpha   109.46469100
_cell_angle_beta   109.47774249
_cell_angle_gamma   109.46469806
_symmetry_Int_Tables_number   1
_chemical_formula_structural   PrAs12OsRu3
_chemical_formula_sum   'Pr1 As12 Os1 Ru3'
_cell_volume   320.28249705
_cell_formula_units_Z   1
loop_
 _symmetry_equiv_pos_site_id
 _symmetry_equiv_pos_as_xyz
  1  'x, y, z'
loop_
 _atom_site_type_symbol
 _atom_site_label
 _atom_site_symmetry_multiplicity
 _atom_site_fract_x
 _atom_site_fract_y
 _atom_site_fract_z
 _atom_site_occupancy
  Pr  Pr0  1  0.000000  0.000000  0.000000  1
  As  As1  1  0.149986  0.800756  0.650807  1
  As  As2  1  0.850014  0.199244  0.349193  1
  As  As3  1  0.150151  0.499066  0.349681  1
  As  As4  1  0.849849  0.500934  0.650319  1
  As  As5  1  0.650319  0.149385  0.800469  1
  As  As6  1  0.349681  0.850615  0.199531  1
  As  As7  1  0.349193  0.149950  0.499179  1
  As  As8  1  0.650807  0.850050  0.500821  1
  As  As9  1  0.800469  0.651085  0.150151  1
  As  As10  1  0.199531  0.348915  0.849849  1
  As  As11  1  0.499179  0.349228  0.149986  1
  As  As12  1  0.500821  0.650772  0.850014  1
  Os  Os13  1  0.000000  0.500000  0.000000  1
  Ru  Ru14  1  0.500000  0.000000  0.000000  1
  Ru  Ru15  1  0.000000  0.000000  0.500000  1
  Ru  Ru16  1  0.500000  0.500000  0.500000  1
