# generated using pymatgen
data_GaSb(SeO3)4
_symmetry_space_group_name_H-M   'P 1'
_cell_length_a   8.17713700
_cell_length_b   8.16853254
_cell_length_c   8.16584454
_cell_angle_alpha   89.30086889
_cell_angle_beta   90.00000000
_cell_angle_gamma   90.00000000
_symmetry_Int_Tables_number   1
_chemical_formula_structural   GaSb(SeO3)4
_chemical_formula_sum   'Ga2 Sb2 Se8 O24'
_cell_volume   545.39869306
_cell_formula_units_Z   2
loop_
 _symmetry_equiv_pos_site_id
 _symmetry_equiv_pos_as_xyz
  1  'x, y, z'
loop_
 _atom_site_type_symbol
 _atom_site_label
 _atom_site_symmetry_multiplicity
 _atom_site_fract_x
 _atom_site_fract_y
 _atom_site_fract_z
 _atom_site_occupancy
  Ga  Ga0  1  0.000000  0.500000  0.000000  1
  Ga  Ga1  1  0.500000  0.500000  0.500000  1
  Sb  Sb2  1  0.000000  0.000000  0.500000  1
  Sb  Sb3  1  0.500000  0.000000  0.000000  1
  Se  Se4  1  0.328025  0.658777  0.171387  1
  Se  Se5  1  0.828025  0.341223  0.328613  1
  Se  Se6  1  0.664849  0.823938  0.665853  1
  Se  Se7  1  0.164849  0.176062  0.834147  1
  Se  Se8  1  0.671975  0.341223  0.828613  1
  Se  Se9  1  0.171975  0.658777  0.671387  1
  Se  Se10  1  0.335151  0.176062  0.334147  1
  Se  Se11  1  0.835151  0.823938  0.165853  1
  O  O12  1  0.240438  0.531327  0.032161  1
  O  O13  1  0.740438  0.468673  0.467839  1
  O  O14  1  0.756867  0.970999  0.532561  1
  O  O15  1  0.256867  0.029001  0.967439  1
  O  O16  1  0.531019  0.968252  0.756552  1
  O  O17  1  0.468120  0.529892  0.260081  1
  O  O18  1  0.968120  0.470108  0.239919  1
  O  O19  1  0.031019  0.031748  0.743448  1
  O  O20  1  0.970672  0.241046  0.468640  1
  O  O21  1  0.533210  0.743242  0.529931  1
  O  O22  1  0.470672  0.758954  0.031360  1
  O  O23  1  0.033210  0.256758  0.970069  1
  O  O24  1  0.759562  0.468673  0.967839  1
  O  O25  1  0.259562  0.531327  0.532161  1
  O  O26  1  0.243133  0.029001  0.467439  1
  O  O27  1  0.743133  0.970999  0.032561  1
  O  O28  1  0.468981  0.031748  0.243448  1
  O  O29  1  0.531880  0.470108  0.739919  1
  O  O30  1  0.031880  0.529892  0.760081  1
  O  O31  1  0.968981  0.968252  0.256552  1
  O  O32  1  0.029328  0.758954  0.531360  1
  O  O33  1  0.466790  0.256758  0.470069  1
  O  O34  1  0.529328  0.241046  0.968640  1
  O  O35  1  0.966790  0.743242  0.029931  1
