# generated using pymatgen
data_Nd(TaSe2)3
_symmetry_space_group_name_H-M   'P 1'
_cell_length_a   6.06276700
_cell_length_b   6.06276618
_cell_length_c   15.01286100
_cell_angle_alpha   90.00000000
_cell_angle_beta   90.00000000
_cell_angle_gamma   120.00000995
_symmetry_Int_Tables_number   1
_chemical_formula_structural   Nd(TaSe2)3
_chemical_formula_sum   'Nd2 Ta6 Se12'
_cell_volume   477.89858971
_cell_formula_units_Z   2
loop_
 _symmetry_equiv_pos_site_id
 _symmetry_equiv_pos_as_xyz
  1  'x, y, z'
loop_
 _atom_site_type_symbol
 _atom_site_label
 _atom_site_symmetry_multiplicity
 _atom_site_fract_x
 _atom_site_fract_y
 _atom_site_fract_z
 _atom_site_occupancy
  Nd  Nd0  1  0.000000  0.000000  0.500000  1
  Nd  Nd1  1  0.000000  0.000000  0.000000  1
  Ta  Ta2  1  0.333333  0.666667  0.250000  1
  Ta  Ta3  1  0.666667  0.333333  0.750000  1
  Ta  Ta4  1  0.666667  0.333333  0.250000  1
  Ta  Ta5  1  0.333333  0.666667  0.750000  1
  Ta  Ta6  1  0.000000  0.000000  0.250000  1
  Ta  Ta7  1  0.000000  0.000000  0.750000  1
  Se  Se8  1  0.340149  0.000000  0.138319  1
  Se  Se9  1  0.000000  0.340149  0.138319  1
  Se  Se10  1  0.659851  0.659851  0.138319  1
  Se  Se11  1  0.340149  0.340149  0.638319  1
  Se  Se12  1  0.659851  0.659851  0.361681  1
  Se  Se13  1  0.659851  0.000000  0.638319  1
  Se  Se14  1  0.000000  0.659851  0.638319  1
  Se  Se15  1  0.000000  0.659851  0.861681  1
  Se  Se16  1  0.340149  0.340149  0.861681  1
  Se  Se17  1  0.000000  0.340149  0.361681  1
  Se  Se18  1  0.340149  0.000000  0.361681  1
  Se  Se19  1  0.659851  0.000000  0.861681  1
