# generated using pymatgen
data_Ce2MnAl20Os3
_symmetry_space_group_name_H-M   'P 1'
_cell_length_a   6.86617422
_cell_length_b   6.86975080
_cell_length_c   9.14738651
_cell_angle_alpha   89.91351986
_cell_angle_beta   90.11559771
_cell_angle_gamma   97.12710984
_symmetry_Int_Tables_number   1
_chemical_formula_structural   Ce2MnAl20Os3
_chemical_formula_sum   'Ce2 Mn1 Al20 Os3'
_cell_volume   428.13715973
_cell_formula_units_Z   1
loop_
 _symmetry_equiv_pos_site_id
 _symmetry_equiv_pos_as_xyz
  1  'x, y, z'
loop_
 _atom_site_type_symbol
 _atom_site_label
 _atom_site_symmetry_multiplicity
 _atom_site_fract_x
 _atom_site_fract_y
 _atom_site_fract_z
 _atom_site_occupancy
  Ce  Ce0  1  0.871094  0.125135  0.753158  1
  Ce  Ce1  1  0.128906  0.874865  0.246842  1
  Mn  Mn2  1  0.500000  0.000000  0.000000  1
  Al  Al3  1  0.518110  0.781945  0.753406  1
  Al  Al4  1  0.781511  0.520152  0.249590  1
  Al  Al5  1  0.481890  0.218055  0.246594  1
  Al  Al6  1  0.218489  0.479848  0.750410  1
  Al  Al7  1  0.621500  0.372756  0.953028  1
  Al  Al8  1  0.378500  0.627244  0.046972  1
  Al  Al9  1  0.623075  0.376346  0.548791  1
  Al  Al10  1  0.376925  0.623654  0.451209  1
  Al  Al11  1  0.414167  0.140538  0.753973  1
  Al  Al12  1  0.142931  0.411660  0.250010  1
  Al  Al13  1  0.585833  0.859462  0.246027  1
  Al  Al14  1  0.857069  0.588340  0.749990  1
  Al  Al15  1  0.842676  0.158154  0.398174  1
  Al  Al16  1  0.157324  0.841846  0.601826  1
  Al  Al17  1  0.837301  0.155347  0.100390  1
  Al  Al18  1  0.162699  0.844653  0.899610  1
  Al  Al19  1  0.769387  0.775848  0.997827  1
  Al  Al20  1  0.774713  0.774984  0.497954  1
  Al  Al21  1  0.230613  0.224152  0.002173  1
  Al  Al22  1  0.225287  0.225016  0.502046  1
  Os  Os23  1  0.000000  0.500000  0.000000  1
  Os  Os24  1  0.500000  0.000000  0.500000  1
  Os  Os25  1  0.000000  0.500000  0.500000  1
