# generated using pymatgen
data_Zr3Zn5Cu
_symmetry_space_group_name_H-M   'P 1'
_cell_length_a   6.55098700
_cell_length_b   6.55098574
_cell_length_c   4.09417200
_cell_angle_alpha   90.00000000
_cell_angle_beta   90.00000000
_cell_angle_gamma   120.00000129
_symmetry_Int_Tables_number   1
_chemical_formula_structural   Zr3Zn5Cu
_chemical_formula_sum   'Zr3 Zn5 Cu1'
_cell_volume   152.16336428
_cell_formula_units_Z   1
loop_
 _symmetry_equiv_pos_site_id
 _symmetry_equiv_pos_as_xyz
  1  'x, y, z'
loop_
 _atom_site_type_symbol
 _atom_site_label
 _atom_site_symmetry_multiplicity
 _atom_site_fract_x
 _atom_site_fract_y
 _atom_site_fract_z
 _atom_site_occupancy
  Zr  Zr0  1  0.000000  0.410276  0.500000  1
  Zr  Zr1  1  0.589724  0.589724  0.500000  1
  Zr  Zr2  1  0.410276  0.000000  0.500000  1
  Zn  Zn3  1  0.000000  0.761683  0.000000  1
  Zn  Zn4  1  0.238317  0.238317  0.000000  1
  Zn  Zn5  1  0.761683  0.000000  0.000000  1
  Zn  Zn6  1  0.333333  0.666667  0.000000  1
  Zn  Zn7  1  0.666667  0.333333  0.000000  1
  Cu  Cu8  1  0.000000  0.000000  0.500000  1
