# generated using pymatgen
data_Tb6ErFeBr12
_symmetry_space_group_name_H-M   'P 1'
_cell_length_a   9.27065013
_cell_length_b   9.27065095
_cell_length_c   9.27065011
_cell_angle_alpha   107.10060709
_cell_angle_beta   107.10061364
_cell_angle_gamma   107.10061505
_symmetry_Int_Tables_number   1
_chemical_formula_structural   Tb6ErFeBr12
_chemical_formula_sum   'Tb6 Er1 Fe1 Br12'
_cell_volume   661.72444912
_cell_formula_units_Z   1
loop_
 _symmetry_equiv_pos_site_id
 _symmetry_equiv_pos_as_xyz
  1  'x, y, z'
loop_
 _atom_site_type_symbol
 _atom_site_label
 _atom_site_symmetry_multiplicity
 _atom_site_fract_x
 _atom_site_fract_y
 _atom_site_fract_z
 _atom_site_occupancy
  Tb  Tb0  1  0.903984  0.979268  0.698444  1
  Tb  Tb1  1  0.698444  0.903984  0.979268  1
  Tb  Tb2  1  0.979268  0.698444  0.903984  1
  Tb  Tb3  1  0.096016  0.020732  0.301556  1
  Tb  Tb4  1  0.301556  0.096016  0.020732  1
  Tb  Tb5  1  0.020732  0.301556  0.096016  1
  Er  Er6  1  0.500000  0.500000  0.500000  1
  Fe  Fe7  1  0.000000  0.000000  0.000000  1
  Br  Br8  1  0.829296  0.613304  0.538243  1
  Br  Br9  1  0.538243  0.829296  0.613304  1
  Br  Br10  1  0.613304  0.538243  0.829296  1
  Br  Br11  1  0.170704  0.386696  0.461757  1
  Br  Br12  1  0.461757  0.170704  0.386696  1
  Br  Br13  1  0.386696  0.461757  0.170704  1
  Br  Br14  1  0.929638  0.319628  0.777708  1
  Br  Br15  1  0.777708  0.929638  0.319628  1
  Br  Br16  1  0.319628  0.777708  0.929638  1
  Br  Br17  1  0.070362  0.680372  0.222292  1
  Br  Br18  1  0.222292  0.070362  0.680372  1
  Br  Br19  1  0.680372  0.222292  0.070362  1
