# generated using pymatgen
data_Zr2AlGa5
_symmetry_space_group_name_H-M   'P 1'
_cell_length_a   9.23769822
_cell_length_b   9.23769824
_cell_length_c   9.23769774
_cell_angle_alpha   155.05467133
_cell_angle_beta   155.05467058
_cell_angle_gamma   35.56843941
_symmetry_Int_Tables_number   1
_chemical_formula_structural   Zr2AlGa5
_chemical_formula_sum   'Zr2 Al1 Ga5'
_cell_volume   140.05150990
_cell_formula_units_Z   1
loop_
 _symmetry_equiv_pos_site_id
 _symmetry_equiv_pos_as_xyz
  1  'x, y, z'
loop_
 _atom_site_type_symbol
 _atom_site_label
 _atom_site_symmetry_multiplicity
 _atom_site_fract_x
 _atom_site_fract_y
 _atom_site_fract_z
 _atom_site_occupancy
  Zr  Zr0  1  0.881448  0.881448  0.000000  1
  Zr  Zr1  1  0.118552  0.118552  0.000000  1
  Al  Al2  1  0.750000  0.250000  0.500000  1
  Ga  Ga3  1  0.000042  0.500042  0.500000  1
  Ga  Ga4  1  0.499958  0.999958  0.500000  1
  Ga  Ga5  1  0.250000  0.750000  0.500000  1
  Ga  Ga6  1  0.625018  0.625018  0.000000  1
  Ga  Ga7  1  0.374982  0.374982  0.000000  1
