# generated using pymatgen
data_Ba2Na2SrSb4
_symmetry_space_group_name_H-M   'P 1'
_cell_length_a   8.23300500
_cell_length_b   9.08012070
_cell_length_c   19.31142193
_cell_angle_alpha   62.12715627
_cell_angle_beta   90.00000000
_cell_angle_gamma   90.00000000
_symmetry_Int_Tables_number   1
_chemical_formula_structural   Ba2Na2SrSb4
_chemical_formula_sum   'Ba8 Na8 Sr4 Sb16'
_cell_volume   1276.17515725
_cell_formula_units_Z   4
loop_
 _symmetry_equiv_pos_site_id
 _symmetry_equiv_pos_as_xyz
  1  'x, y, z'
loop_
 _atom_site_type_symbol
 _atom_site_label
 _atom_site_symmetry_multiplicity
 _atom_site_fract_x
 _atom_site_fract_y
 _atom_site_fract_z
 _atom_site_occupancy
  Ba  Ba0  1  0.989353  0.783489  0.404289  1
  Ba  Ba1  1  0.489353  0.216511  0.095711  1
  Ba  Ba2  1  0.009807  0.913851  0.902936  1
  Ba  Ba3  1  0.509807  0.086149  0.597064  1
  Ba  Ba4  1  0.010647  0.216511  0.595711  1
  Ba  Ba5  1  0.510647  0.783489  0.904289  1
  Ba  Ba6  1  0.990193  0.086149  0.097064  1
  Ba  Ba7  1  0.490193  0.913851  0.402936  1
  Na  Na8  1  0.651326  0.764970  0.248013  1
  Na  Na9  1  0.151326  0.235030  0.251987  1
  Na  Na10  1  0.348674  0.235030  0.751987  1
  Na  Na11  1  0.848674  0.764970  0.748013  1
  Na  Na12  1  0.823809  0.293719  0.374745  1
  Na  Na13  1  0.323809  0.706281  0.125255  1
  Na  Na14  1  0.176191  0.706281  0.625255  1
  Na  Na15  1  0.676191  0.293719  0.874745  1
  Sr  Sr16  1  0.173897  0.453010  0.871180  1
  Sr  Sr17  1  0.673897  0.546990  0.628820  1
  Sr  Sr18  1  0.826103  0.546990  0.128820  1
  Sr  Sr19  1  0.326103  0.453010  0.371180  1
  Sb  Sb20  1  0.521119  0.347832  0.248433  1
  Sb  Sb21  1  0.021119  0.652168  0.251567  1
  Sb  Sb22  1  0.478881  0.652168  0.751567  1
  Sb  Sb23  1  0.978881  0.347832  0.748433  1
  Sb  Sb24  1  0.775710  0.125121  0.248961  1
  Sb  Sb25  1  0.275710  0.874879  0.251039  1
  Sb  Sb26  1  0.224290  0.874879  0.751039  1
  Sb  Sb27  1  0.724290  0.125121  0.748961  1
  Sb  Sb28  1  0.655881  0.500802  0.461749  1
  Sb  Sb29  1  0.155881  0.499198  0.038251  1
  Sb  Sb30  1  0.345289  0.074331  0.961445  1
  Sb  Sb31  1  0.845289  0.925669  0.538555  1
  Sb  Sb32  1  0.344119  0.499198  0.538251  1
  Sb  Sb33  1  0.844119  0.500802  0.961749  1
  Sb  Sb34  1  0.654711  0.925669  0.038555  1
  Sb  Sb35  1  0.154711  0.074331  0.461445  1
