# generated using pymatgen
data_LiTm3In(SiAg)2
_symmetry_space_group_name_H-M   'P 1'
_cell_length_a   7.19793962
_cell_length_b   7.19793926
_cell_length_c   4.16421100
_cell_angle_alpha   90.00000000
_cell_angle_beta   90.00000000
_cell_angle_gamma   120.76075125
_symmetry_Int_Tables_number   1
_chemical_formula_structural   LiTm3In(SiAg)2
_chemical_formula_sum   'Li1 Tm3 In1 Si2 Ag2'
_cell_volume   185.39550452
_cell_formula_units_Z   1
loop_
 _symmetry_equiv_pos_site_id
 _symmetry_equiv_pos_as_xyz
  1  'x, y, z'
loop_
 _atom_site_type_symbol
 _atom_site_label
 _atom_site_symmetry_multiplicity
 _atom_site_fract_x
 _atom_site_fract_y
 _atom_site_fract_z
 _atom_site_occupancy
  Li  Li0  1  0.746065  0.746065  0.000000  1
  Tm  Tm1  1  0.435144  0.435144  0.500000  1
  Tm  Tm2  1  0.564948  0.999941  0.500000  1
  Tm  Tm3  1  0.999941  0.564948  0.500000  1
  In  In4  1  0.987667  0.987667  0.500000  1
  Si  Si5  1  0.665888  0.338861  0.000000  1
  Si  Si6  1  0.338861  0.665888  0.000000  1
  Ag  Ag7  1  0.262926  0.998559  0.000000  1
  Ag  Ag8  1  0.998559  0.262926  0.000000  1
