# generated using pymatgen
data_Ho4Ga6Ir3Pt4
_symmetry_space_group_name_H-M   'P 1'
_cell_length_a   7.33951318
_cell_length_b   7.33951372
_cell_length_c   7.33830600
_cell_angle_alpha   109.46787908
_cell_angle_beta   109.46788055
_cell_angle_gamma   109.47456685
_symmetry_Int_Tables_number   1
_chemical_formula_structural   Ho4Ga6Ir3Pt4
_chemical_formula_sum   'Ho4 Ga6 Ir3 Pt4'
_cell_volume   304.31709020
_cell_formula_units_Z   1
loop_
 _symmetry_equiv_pos_site_id
 _symmetry_equiv_pos_as_xyz
  1  'x, y, z'
loop_
 _atom_site_type_symbol
 _atom_site_label
 _atom_site_symmetry_multiplicity
 _atom_site_fract_x
 _atom_site_fract_y
 _atom_site_fract_z
 _atom_site_occupancy
  Ho  Ho0  1  0.000000  0.000000  0.500000  1
  Ho  Ho1  1  0.007530  0.503765  0.003765  1
  Ho  Ho2  1  0.496235  0.992470  0.996235  1
  Ho  Ho3  1  0.496235  0.503765  0.500000  1
  Ga  Ga4  1  0.680266  0.684047  0.999794  1
  Ga  Ga5  1  0.315953  0.996219  0.315748  1
  Ga  Ga6  1  0.003781  0.319734  0.319529  1
  Ga  Ga7  1  0.315953  0.319734  0.000206  1
  Ga  Ga8  1  0.680266  0.996219  0.680471  1
  Ga  Ga9  1  0.003781  0.684047  0.684252  1
  Ir  Ir10  1  0.249824  0.499648  0.749824  1
  Ir  Ir11  1  0.249824  0.750176  0.500000  1
  Ir  Ir12  1  0.500352  0.750176  0.250176  1
  Pt  Pt13  1  0.749878  0.250122  0.500000  1
  Pt  Pt14  1  0.749878  0.499756  0.249878  1
  Pt  Pt15  1  0.500244  0.250122  0.750122  1
  Pt  Pt16  1  0.000000  0.000000  0.000000  1
