# generated using pymatgen
data_Sc6CoRu
_symmetry_space_group_name_H-M   'P 1'
_cell_length_a   5.83237900
_cell_length_b   8.55917200
_cell_length_c   13.31126600
_cell_angle_alpha   90.00000000
_cell_angle_beta   90.00000000
_cell_angle_gamma   90.00000000
_symmetry_Int_Tables_number   1
_chemical_formula_structural   Sc6CoRu
_chemical_formula_sum   'Sc24 Co4 Ru4'
_cell_volume   664.50285840
_cell_formula_units_Z   4
loop_
 _symmetry_equiv_pos_site_id
 _symmetry_equiv_pos_as_xyz
  1  'x, y, z'
loop_
 _atom_site_type_symbol
 _atom_site_label
 _atom_site_symmetry_multiplicity
 _atom_site_fract_x
 _atom_site_fract_y
 _atom_site_fract_z
 _atom_site_occupancy
  Sc  Sc0  1  0.540234  0.750000  0.351159  1
  Sc  Sc1  1  0.040234  0.250000  0.148841  1
  Sc  Sc2  1  0.459766  0.250000  0.648841  1
  Sc  Sc3  1  0.959766  0.750000  0.851159  1
  Sc  Sc4  1  0.785266  0.750000  0.111455  1
  Sc  Sc5  1  0.285266  0.250000  0.388545  1
  Sc  Sc6  1  0.214734  0.250000  0.888545  1
  Sc  Sc7  1  0.714734  0.750000  0.611455  1
  Sc  Sc8  1  0.406355  0.933946  0.785454  1
  Sc  Sc9  1  0.906355  0.066054  0.714546  1
  Sc  Sc10  1  0.593645  0.433946  0.214546  1
  Sc  Sc11  1  0.093645  0.566054  0.285454  1
  Sc  Sc12  1  0.593645  0.066054  0.214546  1
  Sc  Sc13  1  0.093645  0.933946  0.285454  1
  Sc  Sc14  1  0.406355  0.566054  0.785454  1
  Sc  Sc15  1  0.906355  0.433946  0.714546  1
  Sc  Sc16  1  0.248581  0.937585  0.537771  1
  Sc  Sc17  1  0.748581  0.062415  0.962229  1
  Sc  Sc18  1  0.751419  0.437585  0.462229  1
  Sc  Sc19  1  0.251419  0.562415  0.037771  1
  Sc  Sc20  1  0.751419  0.062415  0.462229  1
  Sc  Sc21  1  0.251419  0.937585  0.037771  1
  Sc  Sc22  1  0.248581  0.562415  0.537771  1
  Sc  Sc23  1  0.748581  0.437585  0.962229  1
  Co  Co24  1  0.373023  0.750000  0.180397  1
  Co  Co25  1  0.873023  0.250000  0.319603  1
  Co  Co26  1  0.626977  0.250000  0.819603  1
  Co  Co27  1  0.126977  0.750000  0.680397  1
  Ru  Ru28  1  0.941701  0.750000  0.440711  1
  Ru  Ru29  1  0.441701  0.250000  0.059289  1
  Ru  Ru30  1  0.058299  0.250000  0.559289  1
  Ru  Ru31  1  0.558299  0.750000  0.940711  1
