# generated using pymatgen
data_CeEu5(Ni7B2)2
_symmetry_space_group_name_H-M   'P 1'
_cell_length_a   5.15512600
_cell_length_b   5.15512730
_cell_length_c   14.43860800
_cell_angle_alpha   90.00000000
_cell_angle_beta   90.00000000
_cell_angle_gamma   120.00000449
_symmetry_Int_Tables_number   1
_chemical_formula_structural   CeEu5(Ni7B2)2
_chemical_formula_sum   'Ce1 Eu5 Ni14 B4'
_cell_volume   332.30327127
_cell_formula_units_Z   1
loop_
 _symmetry_equiv_pos_site_id
 _symmetry_equiv_pos_as_xyz
  1  'x, y, z'
loop_
 _atom_site_type_symbol
 _atom_site_label
 _atom_site_symmetry_multiplicity
 _atom_site_fract_x
 _atom_site_fract_y
 _atom_site_fract_z
 _atom_site_occupancy
  Ce  Ce0  1  0.666667  0.333333  0.250000  1
  Eu  Eu1  1  0.333333  0.666667  0.967477  1
  Eu  Eu2  1  0.666667  0.333333  0.032055  1
  Eu  Eu3  1  0.666667  0.333333  0.467945  1
  Eu  Eu4  1  0.333333  0.666667  0.532523  1
  Eu  Eu5  1  0.333333  0.666667  0.750000  1
  Ni  Ni6  1  0.164598  0.835402  0.346715  1
  Ni  Ni7  1  0.164598  0.329197  0.346715  1
  Ni  Ni8  1  0.670803  0.835402  0.346715  1
  Ni  Ni9  1  0.835430  0.164570  0.653056  1
  Ni  Ni10  1  0.835430  0.670861  0.653056  1
  Ni  Ni11  1  0.329139  0.164570  0.653056  1
  Ni  Ni12  1  0.835430  0.164570  0.846944  1
  Ni  Ni13  1  0.835430  0.670861  0.846944  1
  Ni  Ni14  1  0.329139  0.164570  0.846944  1
  Ni  Ni15  1  0.164598  0.835402  0.153285  1
  Ni  Ni16  1  0.164598  0.329197  0.153285  1
  Ni  Ni17  1  0.670803  0.835402  0.153285  1
  Ni  Ni18  1  0.000000  0.000000  0.499672  1
  Ni  Ni19  1  0.000000  0.000000  0.000328  1
  B  B20  1  0.333333  0.666667  0.250000  1
  B  B21  1  0.666667  0.333333  0.750000  1
  B  B22  1  0.000000  0.000000  0.250000  1
  B  B23  1  0.000000  0.000000  0.750000  1
