# generated using pymatgen
data_Y4Zn(Ga2Pd)10
_symmetry_space_group_name_H-M   'P 1'
_cell_length_a   4.25956663
_cell_length_b   10.99216212
_cell_length_c   13.61207293
_cell_angle_alpha   80.45924240
_cell_angle_beta   80.99834919
_cell_angle_gamma   78.82801343
_symmetry_Int_Tables_number   1
_chemical_formula_structural   Y4Zn(Ga2Pd)10
_chemical_formula_sum   'Y4 Zn1 Ga20 Pd10'
_cell_volume   611.50177843
_cell_formula_units_Z   1
loop_
 _symmetry_equiv_pos_site_id
 _symmetry_equiv_pos_as_xyz
  1  'x, y, z'
loop_
 _atom_site_type_symbol
 _atom_site_label
 _atom_site_symmetry_multiplicity
 _atom_site_fract_x
 _atom_site_fract_y
 _atom_site_fract_z
 _atom_site_occupancy
  Y  Y0  1  0.877962  0.908152  0.335924  1
  Y  Y1  1  0.122038  0.091848  0.664076  1
  Y  Y2  1  0.227692  0.366148  0.178465  1
  Y  Y3  1  0.772308  0.633852  0.821535  1
  Zn  Zn4  1  0.500000  0.500000  0.500000  1
  Ga  Ga5  1  0.993265  0.924683  0.088785  1
  Ga  Ga6  1  0.006735  0.075317  0.911215  1
  Ga  Ga7  1  0.936309  0.327907  0.799476  1
  Ga  Ga8  1  0.063691  0.672093  0.200524  1
  Ga  Ga9  1  0.888880  0.675545  0.546694  1
  Ga  Ga10  1  0.111120  0.324455  0.453306  1
  Ga  Ga11  1  0.798035  0.397834  0.006097  1
  Ga  Ga12  1  0.201965  0.602166  0.993903  1
  Ga  Ga13  1  0.744888  0.212019  0.298206  1
  Ga  Ga14  1  0.255112  0.787981  0.701794  1
  Ga  Ga15  1  0.697534  0.104114  0.500816  1
  Ga  Ga16  1  0.302466  0.895886  0.499184  1
  Ga  Ga17  1  0.614743  0.471790  0.298724  1
  Ga  Ga18  1  0.385257  0.528210  0.701276  1
  Ga  Ga19  1  0.602500  0.796420  0.998580  1
  Ga  Ga20  1  0.397500  0.203580  0.001420  1
  Ga  Ga21  1  0.457687  0.714102  0.370525  1
  Ga  Ga22  1  0.542313  0.285898  0.629475  1
  Ga  Ga23  1  0.366613  0.062892  0.203881  1
  Ga  Ga24  1  0.633387  0.937108  0.796119  1
  Pd  Pd25  1  0.973580  0.438057  0.614784  1
  Pd  Pd26  1  0.026420  0.561943  0.385216  1
  Pd  Pd27  1  0.862433  0.164770  0.110365  1
  Pd  Pd28  1  0.137567  0.835230  0.889635  1
  Pd  Pd29  1  0.754323  0.880858  0.610497  1
  Pd  Pd30  1  0.245677  0.119142  0.389503  1
  Pd  Pd31  1  0.654263  0.580278  0.111198  1
  Pd  Pd32  1  0.345737  0.419722  0.888802  1
  Pd  Pd33  1  0.494843  0.826584  0.183732  1
  Pd  Pd34  1  0.505157  0.173416  0.816268  1
