# generated using pymatgen
data_Tm3Nb(TcB6)2
_symmetry_space_group_name_H-M   'P 1'
_cell_length_a   3.54549800
_cell_length_b   8.85556900
_cell_length_c   11.15603400
_cell_angle_alpha   90.00108049
_cell_angle_beta   90.00000000
_cell_angle_gamma   90.00000000
_symmetry_Int_Tables_number   1
_chemical_formula_structural   Tm3Nb(TcB6)2
_chemical_formula_sum   'Tm6 Nb2 Tc4 B24'
_cell_volume   350.27048621
_cell_formula_units_Z   2
loop_
 _symmetry_equiv_pos_site_id
 _symmetry_equiv_pos_as_xyz
  1  'x, y, z'
loop_
 _atom_site_type_symbol
 _atom_site_label
 _atom_site_symmetry_multiplicity
 _atom_site_fract_x
 _atom_site_fract_y
 _atom_site_fract_z
 _atom_site_occupancy
  Tm  Tm0  1  0.000000  0.822052  0.086663  1
  Tm  Tm1  1  0.000000  0.177948  0.913337  1
  Tm  Tm2  1  0.000000  0.321061  0.413797  1
  Tm  Tm3  1  0.000000  0.678939  0.586203  1
  Tm  Tm4  1  0.000000  0.443946  0.129045  1
  Tm  Tm5  1  0.000000  0.556054  0.870955  1
  Nb  Nb6  1  0.000000  0.944280  0.375177  1
  Nb  Nb7  1  0.000000  0.055720  0.624823  1
  Tc  Tc8  1  0.000000  0.134632  0.186315  1
  Tc  Tc9  1  0.000000  0.865368  0.813685  1
  Tc  Tc10  1  0.000000  0.646003  0.323846  1
  Tc  Tc11  1  0.000000  0.353997  0.676154  1
  B  B12  1  0.500000  0.052066  0.066512  1
  B  B13  1  0.500000  0.947934  0.933488  1
  B  B14  1  0.500000  0.553998  0.435125  1
  B  B15  1  0.500000  0.446002  0.564875  1
  B  B16  1  0.500000  0.248480  0.081924  1
  B  B17  1  0.500000  0.751520  0.918076  1
  B  B18  1  0.500000  0.754517  0.420910  1
  B  B19  1  0.500000  0.245483  0.579090  1
  B  B20  1  0.500000  0.293008  0.237572  1
  B  B21  1  0.500000  0.706992  0.762428  1
  B  B22  1  0.500000  0.796439  0.265936  1
  B  B23  1  0.500000  0.203561  0.734064  1
  B  B24  1  0.500000  0.127814  0.318802  1
  B  B25  1  0.500000  0.872186  0.681198  1
  B  B26  1  0.500000  0.633208  0.184024  1
  B  B27  1  0.500000  0.366792  0.815976  1
  B  B28  1  0.500000  0.482975  0.288933  1
  B  B29  1  0.500000  0.517025  0.711067  1
  B  B30  1  0.500000  0.978782  0.213954  1
  B  B31  1  0.500000  0.021218  0.786046  1
  B  B32  1  0.500000  0.099023  0.473276  1
  B  B33  1  0.500000  0.900977  0.526724  1
  B  B34  1  0.500000  0.605075  0.028007  1
  B  B35  1  0.500000  0.394925  0.971993  1
