# generated using pymatgen
data_Y12Ga8Ru3Rh5
_symmetry_space_group_name_H-M   'P 1'
_cell_length_a   5.60202618
_cell_length_b   7.82624828
_cell_length_c   13.61559078
_cell_angle_alpha   89.87550759
_cell_angle_beta   90.12862962
_cell_angle_gamma   90.53567236
_symmetry_Int_Tables_number   1
_chemical_formula_structural   Y12Ga8Ru3Rh5
_chemical_formula_sum   'Y12 Ga8 Ru3 Rh5'
_cell_volume   596.91729885
_cell_formula_units_Z   1
loop_
 _symmetry_equiv_pos_site_id
 _symmetry_equiv_pos_as_xyz
  1  'x, y, z'
loop_
 _atom_site_type_symbol
 _atom_site_label
 _atom_site_symmetry_multiplicity
 _atom_site_fract_x
 _atom_site_fract_y
 _atom_site_fract_z
 _atom_site_occupancy
  Y  Y0  1  0.621925  0.262114  0.249836  1
  Y  Y1  1  0.379615  0.740547  0.749799  1
  Y  Y2  1  0.374406  0.768193  0.247767  1
  Y  Y3  1  0.623487  0.229494  0.750097  1
  Y  Y4  1  0.151223  0.398126  0.096871  1
  Y  Y5  1  0.849215  0.600491  0.902606  1
  Y  Y6  1  0.849916  0.602531  0.597062  1
  Y  Y7  1  0.850221  0.901281  0.402958  1
  Y  Y8  1  0.149436  0.401264  0.403336  1
  Y  Y9  1  0.147584  0.095455  0.597961  1
  Y  Y10  1  0.149188  0.095340  0.903019  1
  Y  Y11  1  0.850623  0.905700  0.097102  1
  Ga  Ga12  1  0.119058  0.110326  0.250591  1
  Ga  Ga13  1  0.879078  0.890092  0.750035  1
  Ga  Ga14  1  0.876277  0.609487  0.249838  1
  Ga  Ga15  1  0.122306  0.391433  0.750128  1
  Ga  Ga16  1  0.634332  0.248451  0.997274  1
  Ga  Ga17  1  0.365107  0.750770  0.002607  1
  Ga  Ga18  1  0.363646  0.750101  0.498979  1
  Ga  Ga19  1  0.640341  0.250507  0.502551  1
  Ru  Ru20  1  0.351749  0.037246  0.094110  1
  Ru  Ru21  1  0.649304  0.960665  0.907394  1
  Ru  Ru22  1  0.650722  0.962352  0.591284  1
  Rh  Rh23  1  0.644889  0.533344  0.405893  1
  Rh  Rh24  1  0.353484  0.040527  0.406835  1
  Rh  Rh25  1  0.353416  0.464007  0.593959  1
  Rh  Rh26  1  0.354285  0.469767  0.905430  1
  Rh  Rh27  1  0.645166  0.530391  0.094678  1
