# generated using pymatgen
data_Ca2La2Ta3GaO14
_symmetry_space_group_name_H-M   'P 1'
_cell_length_a   7.41131800
_cell_length_b   7.48494394
_cell_length_c   12.90551819
_cell_angle_alpha   54.96817215
_cell_angle_beta   90.00000000
_cell_angle_gamma   90.00000000
_symmetry_Int_Tables_number   1
_chemical_formula_structural   Ca2La2Ta3GaO14
_chemical_formula_sum   'Ca4 La4 Ta6 Ga2 O28'
_cell_volume   586.21231987
_cell_formula_units_Z   2
loop_
 _symmetry_equiv_pos_site_id
 _symmetry_equiv_pos_as_xyz
  1  'x, y, z'
loop_
 _atom_site_type_symbol
 _atom_site_label
 _atom_site_symmetry_multiplicity
 _atom_site_fract_x
 _atom_site_fract_y
 _atom_site_fract_z
 _atom_site_occupancy
  Ca  Ca0  1  0.500000  0.500000  0.500000  1
  Ca  Ca1  1  0.739883  0.500000  0.250000  1
  Ca  Ca2  1  0.260117  0.500000  0.750000  1
  Ca  Ca3  1  0.500000  0.500000  0.000000  1
  La  La4  1  0.258070  0.000000  0.750000  1
  La  La5  1  0.741930  0.000000  0.250000  1
  La  La6  1  0.000000  0.500000  0.500000  1
  La  La7  1  0.000000  0.500000  0.000000  1
  Ta  Ta8  1  0.500000  0.000000  0.000000  1
  Ta  Ta9  1  0.500000  0.000000  0.500000  1
  Ta  Ta10  1  0.762186  0.500000  0.750000  1
  Ta  Ta11  1  0.762481  0.000000  0.750000  1
  Ta  Ta12  1  0.237814  0.500000  0.250000  1
  Ta  Ta13  1  0.237519  0.000000  0.250000  1
  Ga  Ga14  1  0.000000  0.000000  0.000000  1
  Ga  Ga15  1  0.000000  0.000000  0.500000  1
  O  O16  1  0.441425  0.318280  0.374710  1
  O  O17  1  0.752006  0.318522  0.680203  1
  O  O18  1  0.745059  0.622669  0.375795  1
  O  O19  1  0.748399  0.931509  0.071192  1
  O  O20  1  0.950057  0.925556  0.874284  1
  O  O21  1  0.946640  0.322804  0.875593  1
  O  O22  1  0.950057  0.074444  0.625716  1
  O  O23  1  0.053360  0.322804  0.375593  1
  O  O24  1  0.247994  0.318522  0.180203  1
  O  O25  1  0.251601  0.068491  0.928808  1
  O  O26  1  0.254941  0.622669  0.875795  1
  O  O27  1  0.247994  0.681478  0.319797  1
  O  O28  1  0.251601  0.931509  0.571192  1
  O  O29  1  0.442138  0.931278  0.373679  1
  O  O30  1  0.441425  0.681720  0.125290  1
  O  O31  1  0.442138  0.068722  0.126321  1
  O  O32  1  0.557862  0.068722  0.626321  1
  O  O33  1  0.557862  0.931278  0.873679  1
  O  O34  1  0.558575  0.318280  0.874710  1
  O  O35  1  0.748399  0.068491  0.428808  1
  O  O36  1  0.752006  0.681478  0.819797  1
  O  O37  1  0.745059  0.377331  0.124205  1
  O  O38  1  0.946640  0.677196  0.624407  1
  O  O39  1  0.049943  0.925556  0.374284  1
  O  O40  1  0.053360  0.677196  0.124407  1
  O  O41  1  0.049943  0.074444  0.125716  1
  O  O42  1  0.254941  0.377331  0.624205  1
  O  O43  1  0.558575  0.681720  0.625290  1
