# generated using pymatgen
data_GaAs(SeO3)4
_symmetry_space_group_name_H-M   'P 1'
_cell_length_a   7.96480000
_cell_length_b   8.02707562
_cell_length_c   7.97285745
_cell_angle_alpha   89.32133523
_cell_angle_beta   90.00000000
_cell_angle_gamma   90.00000000
_symmetry_Int_Tables_number   1
_chemical_formula_structural   GaAs(SeO3)4
_chemical_formula_sum   'Ga2 As2 Se8 O24'
_cell_volume   509.70132367
_cell_formula_units_Z   2
loop_
 _symmetry_equiv_pos_site_id
 _symmetry_equiv_pos_as_xyz
  1  'x, y, z'
loop_
 _atom_site_type_symbol
 _atom_site_label
 _atom_site_symmetry_multiplicity
 _atom_site_fract_x
 _atom_site_fract_y
 _atom_site_fract_z
 _atom_site_occupancy
  Ga  Ga0  1  0.000000  0.500000  0.000000  1
  Ga  Ga1  1  0.500000  0.500000  0.500000  1
  As  As2  1  0.000000  0.000000  0.500000  1
  As  As3  1  0.500000  0.000000  0.000000  1
  Se  Se4  1  0.333556  0.672343  0.166629  1
  Se  Se5  1  0.833556  0.327657  0.333371  1
  Se  Se6  1  0.678386  0.832894  0.677814  1
  Se  Se7  1  0.178386  0.167106  0.822186  1
  Se  Se8  1  0.666444  0.327657  0.833371  1
  Se  Se9  1  0.166444  0.672343  0.666629  1
  Se  Se10  1  0.321614  0.167106  0.322186  1
  Se  Se11  1  0.821614  0.832894  0.177814  1
  O  O12  1  0.244094  0.542522  0.024137  1
  O  O13  1  0.744094  0.457478  0.475863  1
  O  O14  1  0.767457  0.986495  0.539499  1
  O  O15  1  0.267457  0.013505  0.960501  1
  O  O16  1  0.538753  0.982308  0.767547  1
  O  O17  1  0.478695  0.542582  0.256568  1
  O  O18  1  0.978695  0.457418  0.243432  1
  O  O19  1  0.038753  0.017692  0.732453  1
  O  O20  1  0.983633  0.229337  0.479471  1
  O  O21  1  0.544548  0.746850  0.540466  1
  O  O22  1  0.483633  0.770663  0.020529  1
  O  O23  1  0.044548  0.253150  0.959534  1
  O  O24  1  0.755906  0.457478  0.975863  1
  O  O25  1  0.255906  0.542522  0.524137  1
  O  O26  1  0.232543  0.013505  0.460501  1
  O  O27  1  0.732543  0.986495  0.039499  1
  O  O28  1  0.461247  0.017692  0.232453  1
  O  O29  1  0.521305  0.457418  0.743432  1
  O  O30  1  0.021305  0.542582  0.756568  1
  O  O31  1  0.961247  0.982308  0.267547  1
  O  O32  1  0.016367  0.770663  0.520529  1
  O  O33  1  0.455452  0.253150  0.459534  1
  O  O34  1  0.516367  0.229337  0.979471  1
  O  O35  1  0.955452  0.746850  0.040466  1
