# generated using pymatgen
data_TbY2In3Hg2Pd
_symmetry_space_group_name_H-M   'P 1'
_cell_length_a   7.78040915
_cell_length_b   7.78041056
_cell_length_c   4.14002800
_cell_angle_alpha   90.00000000
_cell_angle_beta   90.00000000
_cell_angle_gamma   120.02268244
_symmetry_Int_Tables_number   1
_chemical_formula_structural   TbY2In3Hg2Pd
_chemical_formula_sum   'Tb1 Y2 In3 Hg2 Pd1'
_cell_volume   216.98991602
_cell_formula_units_Z   1
loop_
 _symmetry_equiv_pos_site_id
 _symmetry_equiv_pos_as_xyz
  1  'x, y, z'
loop_
 _atom_site_type_symbol
 _atom_site_label
 _atom_site_symmetry_multiplicity
 _atom_site_fract_x
 _atom_site_fract_y
 _atom_site_fract_z
 _atom_site_occupancy
  Tb  Tb0  1  0.398892  0.398892  0.500000  1
  Y  Y1  1  0.601178  0.000028  0.500000  1
  Y  Y2  1  0.000028  0.601178  0.500000  1
  In  In3  1  0.753940  0.753940  0.000000  1
  In  In4  1  0.246044  0.999948  0.000000  1
  In  In5  1  0.999948  0.246044  0.000000  1
  Hg  Hg6  1  0.666681  0.333291  0.000000  1
  Hg  Hg7  1  0.333291  0.666681  0.000000  1
  Pd  Pd8  1  0.999996  0.999996  0.500000  1
