# generated using pymatgen
data_Tb2Dy2CoB14
_symmetry_space_group_name_H-M   'P 1'
_cell_length_a   7.22919703
_cell_length_b   7.22901303
_cell_length_c   7.52441400
_cell_angle_alpha   90.00000000
_cell_angle_beta   90.00000000
_cell_angle_gamma   90.08593054
_symmetry_Int_Tables_number   1
_chemical_formula_structural   Tb2Dy2CoB14
_chemical_formula_sum   'Tb4 Dy4 Co2 B28'
_cell_volume   393.22512913
_cell_formula_units_Z   2
loop_
 _symmetry_equiv_pos_site_id
 _symmetry_equiv_pos_as_xyz
  1  'x, y, z'
loop_
 _atom_site_type_symbol
 _atom_site_label
 _atom_site_symmetry_multiplicity
 _atom_site_fract_x
 _atom_site_fract_y
 _atom_site_fract_z
 _atom_site_occupancy
  Tb  Tb0  1  0.193101  0.329960  0.000000  1
  Tb  Tb1  1  0.670149  0.193231  0.000000  1
  Tb  Tb2  1  0.329935  0.806796  0.000000  1
  Tb  Tb3  1  0.693194  0.170080  0.500000  1
  Dy  Dy4  1  0.306804  0.829869  0.500000  1
  Dy  Dy5  1  0.806896  0.670091  0.000000  1
  Dy  Dy6  1  0.829979  0.693071  0.500000  1
  Dy  Dy7  1  0.170097  0.306903  0.500000  1
  Co  Co8  1  0.999841  0.999629  0.000000  1
  Co  Co9  1  0.499838  0.500368  0.500000  1
  B  B10  1  0.173932  0.038811  0.231445  1
  B  B11  1  0.961314  0.173854  0.231403  1
  B  B12  1  0.038657  0.825843  0.231268  1
  B  B13  1  0.674058  0.461512  0.269013  1
  B  B14  1  0.325982  0.538898  0.269297  1
  B  B15  1  0.826101  0.960779  0.231158  1
  B  B16  1  0.539027  0.674112  0.269241  1
  B  B17  1  0.460943  0.326196  0.269109  1
  B  B18  1  0.826101  0.960779  0.768842  1
  B  B19  1  0.038657  0.825843  0.768732  1
  B  B20  1  0.961314  0.173854  0.768597  1
  B  B21  1  0.325982  0.538898  0.730703  1
  B  B22  1  0.674058  0.461512  0.730987  1
  B  B23  1  0.173932  0.038811  0.768555  1
  B  B24  1  0.460943  0.326196  0.730891  1
  B  B25  1  0.539027  0.674112  0.730759  1
  B  B26  1  0.088293  0.588541  0.250255  1
  B  B27  1  0.411438  0.088319  0.250259  1
  B  B28  1  0.588422  0.911417  0.250154  1
  B  B29  1  0.911566  0.411721  0.250156  1
  B  B30  1  0.911566  0.411721  0.749844  1
  B  B31  1  0.588422  0.911417  0.749846  1
  B  B32  1  0.411438  0.088319  0.749741  1
  B  B33  1  0.088293  0.588541  0.749745  1
  B  B34  1  0.000173  0.999825  0.388232  1
  B  B35  1  0.500174  0.500175  0.112102  1
  B  B36  1  0.000173  0.999825  0.611768  1
  B  B37  1  0.500174  0.500175  0.887898  1
