# generated using pymatgen
data_K2YPuO6
_symmetry_space_group_name_H-M   'P 1'
_cell_length_a   6.07487575
_cell_length_b   6.07488286
_cell_length_c   6.07486300
_cell_angle_alpha   60.00002924
_cell_angle_beta   60.00015615
_cell_angle_gamma   59.99982494
_symmetry_Int_Tables_number   1
_chemical_formula_structural   K2YPuO6
_chemical_formula_sum   'K2 Y1 Pu1 O6'
_cell_volume   158.52466047
_cell_formula_units_Z   1
loop_
 _symmetry_equiv_pos_site_id
 _symmetry_equiv_pos_as_xyz
  1  'x, y, z'
loop_
 _atom_site_type_symbol
 _atom_site_label
 _atom_site_symmetry_multiplicity
 _atom_site_fract_x
 _atom_site_fract_y
 _atom_site_fract_z
 _atom_site_occupancy
  K  K0  1  0.750000  0.750000  0.750000  1
  K  K1  1  0.250000  0.250000  0.250000  1
  Y  Y2  1  0.000000  0.000000  0.000000  1
  Pu  Pu3  1  0.500000  0.500000  0.500000  1
  O  O4  1  0.735552  0.264448  0.264448  1
  O  O5  1  0.264447  0.264447  0.735553  1
  O  O6  1  0.264448  0.735552  0.735552  1
  O  O7  1  0.264449  0.735551  0.264449  1
  O  O8  1  0.735551  0.264449  0.735551  1
  O  O9  1  0.735553  0.735553  0.264447  1
