# generated using pymatgen
data_Tm3Lu3Ir2
_symmetry_space_group_name_H-M   'P 1'
_cell_length_a   6.30188677
_cell_length_b   7.14799200
_cell_length_c   8.98054630
_cell_angle_alpha   90.00000000
_cell_angle_beta   90.24158017
_cell_angle_gamma   90.00000000
_symmetry_Int_Tables_number   1
_chemical_formula_structural   Tm3Lu3Ir2
_chemical_formula_sum   'Tm6 Lu6 Ir4'
_cell_volume   404.53262160
_cell_formula_units_Z   2
loop_
 _symmetry_equiv_pos_site_id
 _symmetry_equiv_pos_as_xyz
  1  'x, y, z'
loop_
 _atom_site_type_symbol
 _atom_site_label
 _atom_site_symmetry_multiplicity
 _atom_site_fract_x
 _atom_site_fract_y
 _atom_site_fract_z
 _atom_site_occupancy
  Tm  Tm0  1  0.325755  0.678723  0.060818  1
  Tm  Tm1  1  0.174245  0.178723  0.439182  1
  Tm  Tm2  1  0.875882  0.532341  0.250296  1
  Tm  Tm3  1  0.624118  0.032341  0.249704  1
  Tm  Tm4  1  0.123117  0.467558  0.749856  1
  Tm  Tm5  1  0.376883  0.967558  0.750144  1
  Lu  Lu6  1  0.673740  0.321967  0.561342  1
  Lu  Lu7  1  0.826260  0.821967  0.938658  1
  Lu  Lu8  1  0.674012  0.321552  0.938392  1
  Lu  Lu9  1  0.825988  0.821552  0.561608  1
  Lu  Lu10  1  0.326442  0.677977  0.439135  1
  Lu  Lu11  1  0.173558  0.177977  0.060865  1
  Ir  Ir12  1  0.041541  0.885558  0.249697  1
  Ir  Ir13  1  0.458459  0.385558  0.250303  1
  Ir  Ir14  1  0.957375  0.114325  0.750820  1
  Ir  Ir15  1  0.542625  0.614325  0.749180  1
