# generated using pymatgen
data_BaAl4(PtO6)2
_symmetry_space_group_name_H-M   'P 1'
_cell_length_a   8.30919777
_cell_length_b   8.30919779
_cell_length_c   8.30919750
_cell_angle_alpha   106.56777404
_cell_angle_beta   106.56777804
_cell_angle_gamma   115.44861450
_symmetry_Int_Tables_number   1
_chemical_formula_structural   BaAl4(PtO6)2
_chemical_formula_sum   'Ba2 Al8 Pt4 O24'
_cell_volume   437.98448475
_cell_formula_units_Z   2
loop_
 _symmetry_equiv_pos_site_id
 _symmetry_equiv_pos_as_xyz
  1  'x, y, z'
loop_
 _atom_site_type_symbol
 _atom_site_label
 _atom_site_symmetry_multiplicity
 _atom_site_fract_x
 _atom_site_fract_y
 _atom_site_fract_z
 _atom_site_occupancy
  Ba  Ba0  1  0.217494  0.217494  0.000000  1
  Ba  Ba1  1  0.782506  0.782506  0.000000  1
  Al  Al2  1  0.983706  0.499091  0.815016  1
  Al  Al3  1  0.684076  0.168691  0.184984  1
  Al  Al4  1  0.168691  0.983706  0.484615  1
  Al  Al5  1  0.499091  0.684076  0.515385  1
  Al  Al6  1  0.016294  0.500909  0.184984  1
  Al  Al7  1  0.315924  0.831309  0.815016  1
  Al  Al8  1  0.831309  0.016294  0.515385  1
  Al  Al9  1  0.500909  0.315924  0.484615  1
  Pt  Pt10  1  0.651122  0.165398  0.816521  1
  Pt  Pt11  1  0.348878  0.834602  0.183479  1
  Pt  Pt12  1  0.834602  0.651122  0.485724  1
  Pt  Pt13  1  0.165398  0.348878  0.514276  1
  O  O14  1  0.851167  0.201294  0.052461  1
  O  O15  1  0.148833  0.798706  0.947539  1
  O  O16  1  0.798706  0.851167  0.649872  1
  O  O17  1  0.201294  0.148833  0.350128  1
  O  O18  1  0.172925  0.530527  0.046012  1
  O  O19  1  0.484516  0.126914  0.953988  1
  O  O20  1  0.126914  0.172925  0.642398  1
  O  O21  1  0.530527  0.484516  0.357602  1
  O  O22  1  0.827075  0.469473  0.953988  1
  O  O23  1  0.515484  0.873086  0.046012  1
  O  O24  1  0.873086  0.827075  0.357602  1
  O  O25  1  0.469473  0.515484  0.642398  1
  O  O26  1  0.452229  0.159245  0.611474  1
  O  O27  1  0.547771  0.840755  0.388526  1
  O  O28  1  0.840755  0.452229  0.292984  1
  O  O29  1  0.159245  0.547771  0.707016  1
  O  O30  1  0.785034  0.490828  0.628230  1
  O  O31  1  0.862598  0.156803  0.371770  1
  O  O32  1  0.156803  0.785034  0.294205  1
  O  O33  1  0.490828  0.862598  0.705795  1
  O  O34  1  0.214966  0.509172  0.371770  1
  O  O35  1  0.137402  0.843197  0.628230  1
  O  O36  1  0.843197  0.214966  0.705795  1
  O  O37  1  0.509172  0.137402  0.294205  1
