# generated using pymatgen
data_SmHo4(In2Pt)2
_symmetry_space_group_name_H-M   'P 1'
_cell_length_a   3.62899500
_cell_length_b   8.15627600
_cell_length_c   18.29074900
_cell_angle_alpha   90.00000000
_cell_angle_beta   90.00000000
_cell_angle_gamma   90.00000000
_symmetry_Int_Tables_number   1
_chemical_formula_structural   SmHo4(In2Pt)2
_chemical_formula_sum   'Sm2 Ho8 In8 Pt4'
_cell_volume   541.38943112
_cell_formula_units_Z   2
loop_
 _symmetry_equiv_pos_site_id
 _symmetry_equiv_pos_as_xyz
  1  'x, y, z'
loop_
 _atom_site_type_symbol
 _atom_site_label
 _atom_site_symmetry_multiplicity
 _atom_site_fract_x
 _atom_site_fract_y
 _atom_site_fract_z
 _atom_site_occupancy
  Sm  Sm0  1  0.000000  0.000000  0.000000  1
  Sm  Sm1  1  0.000000  0.500000  0.500000  1
  Ho  Ho2  1  0.000000  0.117399  0.414334  1
  Ho  Ho3  1  0.000000  0.882601  0.585666  1
  Ho  Ho4  1  0.000000  0.382601  0.914334  1
  Ho  Ho5  1  0.000000  0.617399  0.085666  1
  Ho  Ho6  1  0.000000  0.243313  0.220190  1
  Ho  Ho7  1  0.000000  0.756687  0.779810  1
  Ho  Ho8  1  0.000000  0.256687  0.720190  1
  Ho  Ho9  1  0.000000  0.743313  0.279810  1
  In  In10  1  0.500000  0.423594  0.350301  1
  In  In11  1  0.500000  0.576406  0.649699  1
  In  In12  1  0.500000  0.076406  0.850301  1
  In  In13  1  0.500000  0.923594  0.149699  1
  In  In14  1  0.500000  0.295120  0.067330  1
  In  In15  1  0.500000  0.704880  0.932670  1
  In  In16  1  0.500000  0.204880  0.567330  1
  In  In17  1  0.500000  0.795120  0.432670  1
  Pt  Pt18  1  0.500000  0.024401  0.303568  1
  Pt  Pt19  1  0.500000  0.975599  0.696432  1
  Pt  Pt20  1  0.500000  0.475599  0.803568  1
  Pt  Pt21  1  0.500000  0.524401  0.196432  1
