# generated using pymatgen
data_YHo2Hg5
_symmetry_space_group_name_H-M   'P 1'
_cell_length_a   6.38491896
_cell_length_b   6.38491862
_cell_length_c   10.15525400
_cell_angle_alpha   90.00000000
_cell_angle_beta   90.00000000
_cell_angle_gamma   105.13771692
_symmetry_Int_Tables_number   1
_chemical_formula_structural   YHo2Hg5
_chemical_formula_sum   'Y2 Ho4 Hg10'
_cell_volume   399.63569588
_cell_formula_units_Z   2
loop_
 _symmetry_equiv_pos_site_id
 _symmetry_equiv_pos_as_xyz
  1  'x, y, z'
loop_
 _atom_site_type_symbol
 _atom_site_label
 _atom_site_symmetry_multiplicity
 _atom_site_fract_x
 _atom_site_fract_y
 _atom_site_fract_z
 _atom_site_occupancy
  Y  Y0  1  0.213055  0.786945  0.500000  1
  Y  Y1  1  0.213055  0.786945  0.000000  1
  Ho  Ho2  1  0.570467  0.569338  0.250000  1
  Ho  Ho3  1  0.430662  0.429533  0.750000  1
  Ho  Ho4  1  0.786991  0.213009  0.500000  1
  Ho  Ho5  1  0.786991  0.213009  0.000000  1
  Hg  Hg6  1  0.971249  0.971737  0.250000  1
  Hg  Hg7  1  0.028263  0.028751  0.750000  1
  Hg  Hg8  1  0.292911  0.293574  0.029453  1
  Hg  Hg9  1  0.706426  0.707089  0.970547  1
  Hg  Hg10  1  0.292911  0.293574  0.470547  1
  Hg  Hg11  1  0.706426  0.707089  0.529453  1
  Hg  Hg12  1  0.480462  0.039304  0.250000  1
  Hg  Hg13  1  0.960696  0.519538  0.750000  1
  Hg  Hg14  1  0.522733  0.963297  0.750000  1
  Hg  Hg15  1  0.036703  0.477267  0.250000  1
