# generated using pymatgen
data_La4SmUSe10
_symmetry_space_group_name_H-M   'P 1'
_cell_length_a   7.96960300
_cell_length_b   8.57561500
_cell_length_c   12.54806600
_cell_angle_alpha   90.00000000
_cell_angle_beta   90.00000000
_cell_angle_gamma   90.00000000
_symmetry_Int_Tables_number   1
_chemical_formula_structural   La4SmUSe10
_chemical_formula_sum   'La8 Sm2 U2 Se20'
_cell_volume   857.58812246
_cell_formula_units_Z   2
loop_
 _symmetry_equiv_pos_site_id
 _symmetry_equiv_pos_as_xyz
  1  'x, y, z'
loop_
 _atom_site_type_symbol
 _atom_site_label
 _atom_site_symmetry_multiplicity
 _atom_site_fract_x
 _atom_site_fract_y
 _atom_site_fract_z
 _atom_site_occupancy
  La  La0  1  0.530602  0.502105  0.323176  1
  La  La1  1  0.969398  0.997895  0.823176  1
  La  La2  1  0.473368  0.998171  0.677352  1
  La  La3  1  0.026632  0.501829  0.177352  1
  La  La4  1  0.473368  0.501829  0.677352  1
  La  La5  1  0.026632  0.998171  0.177352  1
  La  La6  1  0.530602  0.997895  0.323176  1
  La  La7  1  0.969398  0.502105  0.823176  1
  Sm  Sm8  1  0.075770  0.750000  0.491406  1
  Sm  Sm9  1  0.424230  0.750000  0.991406  1
  U  U10  1  0.938447  0.250000  0.506779  1
  U  U11  1  0.561553  0.250000  0.006779  1
  Se  Se12  1  0.832517  0.968078  0.592753  1
  Se  Se13  1  0.667483  0.531922  0.092753  1
  Se  Se14  1  0.165015  0.449384  0.407650  1
  Se  Se15  1  0.334985  0.050616  0.907650  1
  Se  Se16  1  0.165015  0.050616  0.407650  1
  Se  Se17  1  0.334985  0.449384  0.907650  1
  Se  Se18  1  0.832517  0.531922  0.592753  1
  Se  Se19  1  0.667483  0.968078  0.092753  1
  Se  Se20  1  0.831595  0.750000  0.309639  1
  Se  Se21  1  0.668405  0.750000  0.809639  1
  Se  Se22  1  0.161688  0.250000  0.684325  1
  Se  Se23  1  0.338312  0.250000  0.184325  1
  Se  Se24  1  0.458554  0.750000  0.498260  1
  Se  Se25  1  0.041446  0.750000  0.998260  1
  Se  Se26  1  0.548258  0.250000  0.500655  1
  Se  Se27  1  0.951742  0.250000  0.000655  1
  Se  Se28  1  0.192362  0.750000  0.717290  1
  Se  Se29  1  0.307638  0.750000  0.217290  1
  Se  Se30  1  0.810982  0.250000  0.289786  1
  Se  Se31  1  0.689018  0.250000  0.789786  1
