# generated using pymatgen
data_Ca2Nd3Ir2
_symmetry_space_group_name_H-M   'P 1'
_cell_length_a   8.79201880
_cell_length_b   8.79201863
_cell_length_c   7.45193370
_cell_angle_alpha   83.19126216
_cell_angle_beta   83.19126472
_cell_angle_gamma   45.10237699
_symmetry_Int_Tables_number   1
_chemical_formula_structural   Ca2Nd3Ir2
_chemical_formula_sum   'Ca4 Nd6 Ir4'
_cell_volume   404.66682945
_cell_formula_units_Z   2
loop_
 _symmetry_equiv_pos_site_id
 _symmetry_equiv_pos_as_xyz
  1  'x, y, z'
loop_
 _atom_site_type_symbol
 _atom_site_label
 _atom_site_symmetry_multiplicity
 _atom_site_fract_x
 _atom_site_fract_y
 _atom_site_fract_z
 _atom_site_occupancy
  Ca  Ca0  1  0.016350  0.800042  0.917478  1
  Ca  Ca1  1  0.199958  0.983650  0.582522  1
  Ca  Ca2  1  0.983650  0.199958  0.082522  1
  Ca  Ca3  1  0.800042  0.016350  0.417478  1
  Nd  Nd4  1  0.347810  0.211697  0.816340  1
  Nd  Nd5  1  0.788303  0.652190  0.683660  1
  Nd  Nd6  1  0.652190  0.788303  0.183660  1
  Nd  Nd7  1  0.211697  0.347810  0.316340  1
  Nd  Nd8  1  0.566014  0.433986  0.750000  1
  Nd  Nd9  1  0.433986  0.566014  0.250000  1
  Ir  Ir10  1  0.184960  0.585731  0.572410  1
  Ir  Ir11  1  0.414269  0.815040  0.927590  1
  Ir  Ir12  1  0.815040  0.414269  0.427590  1
  Ir  Ir13  1  0.585731  0.184960  0.072410  1
