# generated using pymatgen
data_Ba4Fe3Ni(RhN3)2
_symmetry_space_group_name_H-M   'P 1'
_cell_length_a   6.82576280
_cell_length_b   6.77735920
_cell_length_c   6.73210715
_cell_angle_alpha   88.84147876
_cell_angle_beta   89.72196582
_cell_angle_gamma   117.68395578
_symmetry_Int_Tables_number   1
_chemical_formula_structural   Ba4Fe3Ni(RhN3)2
_chemical_formula_sum   'Ba4 Fe3 Ni1 Rh2 N6'
_cell_volume   275.68803366
_cell_formula_units_Z   1
loop_
 _symmetry_equiv_pos_site_id
 _symmetry_equiv_pos_as_xyz
  1  'x, y, z'
loop_
 _atom_site_type_symbol
 _atom_site_label
 _atom_site_symmetry_multiplicity
 _atom_site_fract_x
 _atom_site_fract_y
 _atom_site_fract_z
 _atom_site_occupancy
  Ba  Ba0  1  0.832781  0.666396  0.900554  1
  Ba  Ba1  1  0.321408  0.159013  0.598377  1
  Ba  Ba2  1  0.166150  0.321718  0.099616  1
  Ba  Ba3  1  0.670294  0.832775  0.398924  1
  Fe  Fe4  1  0.448705  0.853344  0.903555  1
  Fe  Fe5  1  0.844253  0.445198  0.387678  1
  Fe  Fe6  1  0.152247  0.555443  0.604593  1
  Ni  Ni7  1  0.569207  0.162327  0.114108  1
  Rh  Rh8  1  0.806720  0.194589  0.743457  1
  Rh  Rh9  1  0.188727  0.798180  0.247691  1
  N  N10  1  0.385195  0.618522  0.754733  1
  N  N11  1  0.607307  0.403504  0.261993  1
  N  N12  1  0.013752  0.713950  0.506894  1
  N  N13  1  0.722995  0.011715  0.994965  1
  N  N14  1  0.989220  0.287720  0.489430  1
  N  N15  1  0.281040  0.975608  0.993430  1
