# generated using pymatgen
data_Dy11Th5MgHg3Ru4
_symmetry_space_group_name_H-M   'P 1'
_cell_length_a   9.65163993
_cell_length_b   9.75389417
_cell_length_c   9.75389303
_cell_angle_alpha   59.79972673
_cell_angle_beta   60.05966831
_cell_angle_gamma   60.05966938
_symmetry_Int_Tables_number   1
_chemical_formula_structural   Dy11Th5MgHg3Ru4
_chemical_formula_sum   'Dy11 Th5 Mg1 Hg3 Ru4'
_cell_volume   648.88900522
_cell_formula_units_Z   1
loop_
 _symmetry_equiv_pos_site_id
 _symmetry_equiv_pos_as_xyz
  1  'x, y, z'
loop_
 _atom_site_type_symbol
 _atom_site_label
 _atom_site_symmetry_multiplicity
 _atom_site_fract_x
 _atom_site_fract_y
 _atom_site_fract_z
 _atom_site_occupancy
  Dy  Dy0  1  0.184240  0.813401  0.813401  1
  Dy  Dy1  1  0.190322  0.808716  0.187327  1
  Dy  Dy2  1  0.809592  0.186519  0.807554  1
  Dy  Dy3  1  0.190322  0.187327  0.808716  1
  Dy  Dy4  1  0.809592  0.807554  0.186519  1
  Dy  Dy5  1  0.933191  0.567578  0.567578  1
  Dy  Dy6  1  0.562524  0.935981  0.935981  1
  Dy  Dy7  1  0.561181  0.938179  0.563963  1
  Dy  Dy8  1  0.937465  0.563111  0.936837  1
  Dy  Dy9  1  0.561181  0.563963  0.938179  1
  Dy  Dy10  1  0.937465  0.936837  0.563111  1
  Th  Th11  1  0.342140  0.349247  0.349247  1
  Th  Th12  1  0.348636  0.347632  0.956981  1
  Th  Th13  1  0.348636  0.956981  0.347632  1
  Th  Th14  1  0.949216  0.353310  0.353310  1
  Th  Th15  1  0.814657  0.185765  0.185765  1
  Mg  Mg16  1  0.281590  0.571516  0.571516  1
  Hg  Hg17  1  0.582982  0.588617  0.588617  1
  Hg  Hg18  1  0.581194  0.590479  0.239675  1
  Hg  Hg19  1  0.581194  0.239675  0.590479  1
  Ru  Ru20  1  0.128613  0.147814  0.147814  1
  Ru  Ru21  1  0.143801  0.143008  0.568642  1
  Ru  Ru22  1  0.143801  0.568642  0.143008  1
  Ru  Ru23  1  0.576467  0.148146  0.148146  1
