# generated using pymatgen
data_Pr8Sm7Ho5Sn16
_symmetry_space_group_name_H-M   'P 1'
_cell_length_a   8.06402873
_cell_length_b   8.47384320
_cell_length_c   16.01236900
_cell_angle_alpha   89.99530753
_cell_angle_beta   89.87985967
_cell_angle_gamma   90.05686767
_symmetry_Int_Tables_number   1
_chemical_formula_structural   Pr8Sm7Ho5Sn16
_chemical_formula_sum   'Pr8 Sm7 Ho5 Sn16'
_cell_volume   1094.17530703
_cell_formula_units_Z   1
loop_
 _symmetry_equiv_pos_site_id
 _symmetry_equiv_pos_as_xyz
  1  'x, y, z'
loop_
 _atom_site_type_symbol
 _atom_site_label
 _atom_site_symmetry_multiplicity
 _atom_site_fract_x
 _atom_site_fract_y
 _atom_site_fract_z
 _atom_site_occupancy
  Pr  Pr0  1  0.497391  0.320229  0.902839  1
  Pr  Pr1  1  0.996777  0.180097  0.597985  1
  Pr  Pr2  1  0.503242  0.680078  0.402704  1
  Pr  Pr3  1  0.002885  0.820328  0.096201  1
  Pr  Pr4  1  0.503071  0.680548  0.097035  1
  Pr  Pr5  1  0.003072  0.819919  0.403192  1
  Pr  Pr6  1  0.497536  0.320407  0.597371  1
  Pr  Pr7  1  0.996912  0.180157  0.902485  1
  Sm  Sm8  1  0.334778  0.832381  0.875490  1
  Sm  Sm9  1  0.835102  0.667883  0.625013  1
  Sm  Sm10  1  0.665872  0.168294  0.375254  1
  Sm  Sm11  1  0.166220  0.332198  0.124074  1
  Sm  Sm12  1  0.666142  0.168022  0.123517  1
  Sm  Sm13  1  0.165076  0.331749  0.375580  1
  Sm  Sm14  1  0.333908  0.831783  0.625621  1
  Ho  Ho15  1  0.833131  0.667347  0.874546  1
  Ho  Ho16  1  0.166294  0.497953  0.750274  1
  Ho  Ho17  1  0.666533  0.001212  0.750311  1
  Ho  Ho18  1  0.833463  0.502096  0.250169  1
  Ho  Ho19  1  0.333450  0.997859  0.250156  1
  Sn  Sn20  1  0.323756  0.037225  0.041117  1
  Sn  Sn21  1  0.821926  0.462528  0.458853  1
  Sn  Sn22  1  0.677252  0.961904  0.541145  1
  Sn  Sn23  1  0.172493  0.538418  0.958134  1
  Sn  Sn24  1  0.678181  0.960407  0.957825  1
  Sn  Sn25  1  0.178036  0.537381  0.541422  1
  Sn  Sn26  1  0.322797  0.037682  0.459259  1
  Sn  Sn27  1  0.824236  0.464643  0.039912  1
  Sn  Sn28  1  0.530534  0.615797  0.751269  1
  Sn  Sn29  1  0.027712  0.882375  0.751524  1
  Sn  Sn30  1  0.470834  0.383757  0.249550  1
  Sn  Sn31  1  0.970896  0.115741  0.249730  1
  Sn  Sn32  1  0.299373  0.146184  0.750098  1
  Sn  Sn33  1  0.799224  0.354888  0.750648  1
  Sn  Sn34  1  0.701006  0.854479  0.249718  1
  Sn  Sn35  1  0.200887  0.646051  0.249979  1
