# generated using pymatgen
data_TbEr7TaTi11Si16
_symmetry_space_group_name_H-M   'P 1'
_cell_length_a   7.02784314
_cell_length_b   7.02845879
_cell_length_c   12.92423420
_cell_angle_alpha   89.96815449
_cell_angle_beta   90.02116576
_cell_angle_gamma   90.02638672
_symmetry_Int_Tables_number   1
_chemical_formula_structural   TbEr7TaTi11Si16
_chemical_formula_sum   'Tb1 Er7 Ta1 Ti11 Si16'
_cell_volume   638.39112163
_cell_formula_units_Z   1
loop_
 _symmetry_equiv_pos_site_id
 _symmetry_equiv_pos_as_xyz
  1  'x, y, z'
loop_
 _atom_site_type_symbol
 _atom_site_label
 _atom_site_symmetry_multiplicity
 _atom_site_fract_x
 _atom_site_fract_y
 _atom_site_fract_z
 _atom_site_occupancy
  Tb  Tb0  1  0.997066  0.659724  0.033252  1
  Er  Er1  1  0.340101  0.002257  0.466936  1
  Er  Er2  1  0.497725  0.839839  0.716725  1
  Er  Er3  1  0.501468  0.159308  0.216832  1
  Er  Er4  1  0.839739  0.497670  0.283311  1
  Er  Er5  1  0.159402  0.501614  0.783394  1
  Er  Er6  1  0.658992  0.998275  0.966729  1
  Er  Er7  1  0.002365  0.340189  0.533097  1
  Ta  Ta8  1  0.327497  0.326776  0.000037  1
  Ti  Ti9  1  0.173320  0.827145  0.250225  1
  Ti  Ti10  1  0.826836  0.173444  0.749653  1
  Ti  Ti11  1  0.672626  0.672820  0.499915  1
  Ti  Ti12  1  0.153892  0.008557  0.875869  1
  Ti  Ti13  1  0.491734  0.651014  0.125295  1
  Ti  Ti14  1  0.507938  0.348950  0.625853  1
  Ti  Ti15  1  0.651241  0.490914  0.874585  1
  Ti  Ti16  1  0.348976  0.507850  0.374385  1
  Ti  Ti17  1  0.847636  0.992442  0.376191  1
  Ti  Ti18  1  0.009005  0.154037  0.123739  1
  Ti  Ti19  1  0.992286  0.848031  0.623794  1
  Si  Si20  1  0.203094  0.130807  0.683353  1
  Si  Si21  1  0.370116  0.702976  0.933437  1
  Si  Si22  1  0.630816  0.297256  0.434042  1
  Si  Si23  1  0.702044  0.367879  0.066355  1
  Si  Si24  1  0.297221  0.630842  0.565950  1
  Si  Si25  1  0.796316  0.870353  0.184822  1
  Si  Si26  1  0.130676  0.202773  0.316633  1
  Si  Si27  1  0.869090  0.797418  0.815464  1
  Si  Si28  1  0.292487  0.953832  0.065055  1
  Si  Si29  1  0.546173  0.792165  0.314998  1
  Si  Si30  1  0.454288  0.206998  0.813626  1
  Si  Si31  1  0.792210  0.546629  0.684993  1
  Si  Si32  1  0.207782  0.453799  0.186774  1
  Si  Si33  1  0.708362  0.046543  0.564615  1
  Si  Si34  1  0.953005  0.290408  0.934821  1
  Si  Si35  1  0.046474  0.708464  0.435244  1
