# generated using pymatgen
data_Li3Ag3(AsS4)2
_symmetry_space_group_name_H-M   'P 1'
_cell_length_a   6.52315015
_cell_length_b   6.88289249
_cell_length_c   7.90304981
_cell_angle_alpha   90.01942948
_cell_angle_beta   90.04724489
_cell_angle_gamma   90.31304387
_symmetry_Int_Tables_number   1
_chemical_formula_structural   Li3Ag3(AsS4)2
_chemical_formula_sum   'Li3 Ag3 As2 S8'
_cell_volume   354.82680881
_cell_formula_units_Z   1
loop_
 _symmetry_equiv_pos_site_id
 _symmetry_equiv_pos_as_xyz
  1  'x, y, z'
loop_
 _atom_site_type_symbol
 _atom_site_label
 _atom_site_symmetry_multiplicity
 _atom_site_fract_x
 _atom_site_fract_y
 _atom_site_fract_z
 _atom_site_occupancy
  Li  Li0  1  0.988645  0.146754  0.498793  1
  Li  Li1  1  0.004454  0.680787  0.244226  1
  Li  Li2  1  0.508165  0.317093  0.258445  1
  Ag  Ag3  1  0.488722  0.851007  0.005845  1
  Ag  Ag4  1  0.511494  0.306882  0.736512  1
  Ag  Ag5  1  0.006540  0.688234  0.755266  1
  As  As6  1  0.498648  0.819211  0.493558  1
  As  As7  1  0.998966  0.184179  0.007773  1
  S  S8  1  0.395443  0.667921  0.727787  1
  S  S9  1  0.896433  0.328520  0.770711  1
  S  S10  1  0.884019  0.338592  0.233089  1
  S  S11  1  0.382124  0.656480  0.271279  1
  S  S12  1  0.338493  0.194680  0.008127  1
  S  S13  1  0.883404  0.881239  0.009982  1
  S  S14  1  0.837938  0.821985  0.490604  1
  S  S15  1  0.372311  0.116436  0.488001  1
