# generated using pymatgen
data_La8Nd2TcRu3
_symmetry_space_group_name_H-M   'P 1'
_cell_length_a   9.11688907
_cell_length_b   9.09335954
_cell_length_c   7.34975038
_cell_angle_alpha   85.87271280
_cell_angle_beta   85.74444401
_cell_angle_gamma   43.42972275
_symmetry_Int_Tables_number   1
_chemical_formula_structural   La8Nd2TcRu3
_chemical_formula_sum   'La8 Nd2 Tc1 Ru3'
_cell_volume   417.58381401
_cell_formula_units_Z   1
loop_
 _symmetry_equiv_pos_site_id
 _symmetry_equiv_pos_as_xyz
  1  'x, y, z'
loop_
 _atom_site_type_symbol
 _atom_site_label
 _atom_site_symmetry_multiplicity
 _atom_site_fract_x
 _atom_site_fract_y
 _atom_site_fract_z
 _atom_site_occupancy
  La  La0  1  0.016939  0.797191  0.903929  1
  La  La1  1  0.200124  0.982381  0.594868  1
  La  La2  1  0.984151  0.200035  0.095177  1
  La  La3  1  0.797769  0.016644  0.404623  1
  La  La4  1  0.364022  0.210027  0.818957  1
  La  La5  1  0.792386  0.635139  0.681136  1
  La  La6  1  0.634762  0.790373  0.180646  1
  La  La7  1  0.210029  0.363861  0.318308  1
  Nd  Nd8  1  0.575046  0.425854  0.750440  1
  Nd  Nd9  1  0.425765  0.573531  0.249966  1
  Tc  Tc10  1  0.168147  0.610724  0.583568  1
  Ru  Ru11  1  0.395122  0.831259  0.918577  1
  Ru  Ru12  1  0.829918  0.394739  0.415823  1
  Ru  Ru13  1  0.605820  0.168241  0.083982  1
