# generated using pymatgen
data_Ho4InPd10Pt
_symmetry_space_group_name_H-M   'P 1'
_cell_length_a   4.18321700
_cell_length_b   5.86077542
_cell_length_c   11.66864962
_cell_angle_alpha   86.80634811
_cell_angle_beta   90.00000000
_cell_angle_gamma   90.00000000
_symmetry_Int_Tables_number   1
_chemical_formula_structural   Ho4InPd10Pt
_chemical_formula_sum   'Ho4 In1 Pd10 Pt1'
_cell_volume   285.63476474
_cell_formula_units_Z   1
loop_
 _symmetry_equiv_pos_site_id
 _symmetry_equiv_pos_as_xyz
  1  'x, y, z'
loop_
 _atom_site_type_symbol
 _atom_site_label
 _atom_site_symmetry_multiplicity
 _atom_site_fract_x
 _atom_site_fract_y
 _atom_site_fract_z
 _atom_site_occupancy
  Ho  Ho0  1  0.500000  0.755386  0.377003  1
  Ho  Ho1  1  0.500000  0.714130  0.860341  1
  Ho  Ho2  1  0.500000  0.285870  0.139659  1
  Ho  Ho3  1  0.500000  0.244614  0.622997  1
  In  In4  1  0.000000  0.000000  0.000000  1
  Pd  Pd5  1  0.000000  0.011866  0.249982  1
  Pd  Pd6  1  0.000000  0.988134  0.750018  1
  Pd  Pd7  1  0.000000  0.500000  0.500000  1
  Pd  Pd8  1  0.000000  0.517507  0.250774  1
  Pd  Pd9  1  0.000000  0.482493  0.749226  1
  Pd  Pd10  1  0.500000  0.253660  0.377675  1
  Pd  Pd11  1  0.500000  0.224802  0.882319  1
  Pd  Pd12  1  0.500000  0.775198  0.117681  1
  Pd  Pd13  1  0.500000  0.746340  0.622325  1
  Pd  Pd14  1  0.000000  0.000000  0.500000  1
  Pt  Pt15  1  0.000000  0.500000  0.000000  1
