# generated using pymatgen
data_Hf6Mo2As3P3Ru4
_symmetry_space_group_name_H-M   'P 1'
_cell_length_a   7.64922605
_cell_length_b   7.64477763
_cell_length_c   7.64626480
_cell_angle_alpha   126.72706336
_cell_angle_beta   123.74612956
_cell_angle_gamma   81.20256953
_symmetry_Int_Tables_number   1
_chemical_formula_structural   Hf6Mo2As3P3Ru4
_chemical_formula_sum   'Hf6 Mo2 As3 P3 Ru4'
_cell_volume   287.00544591
_cell_formula_units_Z   1
loop_
 _symmetry_equiv_pos_site_id
 _symmetry_equiv_pos_as_xyz
  1  'x, y, z'
loop_
 _atom_site_type_symbol
 _atom_site_label
 _atom_site_symmetry_multiplicity
 _atom_site_fract_x
 _atom_site_fract_y
 _atom_site_fract_z
 _atom_site_occupancy
  Hf  Hf0  1  0.450436  0.668498  0.704034  1
  Hf  Hf1  1  0.539236  0.264774  0.215147  1
  Hf  Hf2  1  0.739994  0.840390  0.589480  1
  Hf  Hf3  1  0.253927  0.842366  0.098635  1
  Hf  Hf4  1  0.058848  0.268710  0.716585  1
  Hf  Hf5  1  0.950815  0.653152  0.209315  1
  Mo  Mo6  1  0.499238  0.492292  0.996597  1
  Mo  Mo7  1  0.999735  0.493878  0.493893  1
  As  As8  1  0.672503  0.926623  0.257511  1
  As  As9  1  0.162721  0.926021  0.756296  1
  As  As10  1  0.832948  0.589106  0.759814  1
  P  P11  1  0.270496  0.255971  0.487735  1
  P  P12  1  0.731137  0.216436  0.987584  1
  P  P13  1  0.328412  0.588747  0.252772  1
  Ru  Ru14  1  0.103398  0.262406  0.115340  1
  Ru  Ru15  1  0.905924  0.013749  0.155627  1
  Ru  Ru16  1  0.357328  0.004348  0.606291  1
  Ru  Ru17  1  0.642905  0.252132  0.656943  1
