# generated using pymatgen
data_Ca3U5(TcB6)4
_symmetry_space_group_name_H-M   'P 1'
_cell_length_a   3.65059200
_cell_length_b   9.28058601
_cell_length_c   11.40240501
_cell_angle_alpha   89.99631466
_cell_angle_beta   90.00000000
_cell_angle_gamma   90.00000000
_symmetry_Int_Tables_number   1
_chemical_formula_structural   Ca3U5(TcB6)4
_chemical_formula_sum   'Ca3 U5 Tc4 B24'
_cell_volume   386.30929640
_cell_formula_units_Z   1
loop_
 _symmetry_equiv_pos_site_id
 _symmetry_equiv_pos_as_xyz
  1  'x, y, z'
loop_
 _atom_site_type_symbol
 _atom_site_label
 _atom_site_symmetry_multiplicity
 _atom_site_fract_x
 _atom_site_fract_y
 _atom_site_fract_z
 _atom_site_occupancy
  Ca  Ca0  1  0.000000  0.338872  0.408181  1
  Ca  Ca1  1  0.000000  0.660857  0.590083  1
  Ca  Ca2  1  0.000000  0.836533  0.092967  1
  U  U3  1  0.000000  0.162706  0.908329  1
  U  U4  1  0.000000  0.954856  0.395254  1
  U  U5  1  0.000000  0.043302  0.603223  1
  U  U6  1  0.000000  0.458488  0.105394  1
  U  U7  1  0.000000  0.544293  0.896239  1
  Tc  Tc8  1  0.000000  0.647260  0.317183  1
  Tc  Tc9  1  0.000000  0.349417  0.687153  1
  Tc  Tc10  1  0.000000  0.146813  0.176643  1
  Tc  Tc11  1  0.000000  0.858953  0.819450  1
  B  B12  1  0.500000  0.552544  0.431208  1
  B  B13  1  0.500000  0.446142  0.570739  1
  B  B14  1  0.500000  0.053732  0.067728  1
  B  B15  1  0.500000  0.950283  0.930209  1
  B  B16  1  0.500000  0.743478  0.421976  1
  B  B17  1  0.500000  0.255724  0.578550  1
  B  B18  1  0.500000  0.242955  0.076123  1
  B  B19  1  0.500000  0.756497  0.921550  1
  B  B20  1  0.500000  0.802097  0.274589  1
  B  B21  1  0.500000  0.196045  0.727493  1
  B  B22  1  0.500000  0.302281  0.225120  1
  B  B23  1  0.500000  0.698978  0.774888  1
  B  B24  1  0.500000  0.643063  0.188936  1
  B  B25  1  0.500000  0.354157  0.812815  1
  B  B26  1  0.500000  0.143428  0.310088  1
  B  B27  1  0.500000  0.857241  0.688831  1
  B  B28  1  0.500000  0.990475  0.218952  1
  B  B29  1  0.500000  0.013340  0.781836  1
  B  B30  1  0.500000  0.489961  0.280885  1
  B  B31  1  0.500000  0.509641  0.719620  1
  B  B32  1  0.500000  0.638639  0.037893  1
  B  B33  1  0.500000  0.357044  0.960739  1
  B  B34  1  0.500000  0.137160  0.461072  1
  B  B35  1  0.500000  0.862747  0.538061  1
