# generated using pymatgen
data_TbSm12Pa7Rh16
_symmetry_space_group_name_H-M   'P 1'
_cell_length_a   7.58396237
_cell_length_b   7.58861869
_cell_length_c   14.40507185
_cell_angle_alpha   90.05750717
_cell_angle_beta   89.47417619
_cell_angle_gamma   90.23016515
_symmetry_Int_Tables_number   1
_chemical_formula_structural   TbSm12Pa7Rh16
_chemical_formula_sum   'Tb1 Sm12 Pa7 Rh16'
_cell_volume   828.99580495
_cell_formula_units_Z   1
loop_
 _symmetry_equiv_pos_site_id
 _symmetry_equiv_pos_as_xyz
  1  'x, y, z'
loop_
 _atom_site_type_symbol
 _atom_site_label
 _atom_site_symmetry_multiplicity
 _atom_site_fract_x
 _atom_site_fract_y
 _atom_site_fract_z
 _atom_site_occupancy
  Tb  Tb0  1  0.162958  0.338598  0.620149  1
  Sm  Sm1  1  0.509039  0.677715  0.594199  1
  Sm  Sm2  1  0.008294  0.823517  0.907128  1
  Sm  Sm3  1  0.493775  0.323579  0.092339  1
  Sm  Sm4  1  0.989782  0.180492  0.407559  1
  Sm  Sm5  1  0.488122  0.322857  0.408510  1
  Sm  Sm6  1  0.992144  0.178088  0.092950  1
  Sm  Sm7  1  0.509173  0.678277  0.905783  1
  Sm  Sm8  1  0.011661  0.820137  0.589974  1
  Sm  Sm9  1  0.820973  0.518964  0.748017  1
  Sm  Sm10  1  0.310070  0.980608  0.749901  1
  Sm  Sm11  1  0.187466  0.477833  0.248862  1
  Sm  Sm12  1  0.686428  0.023416  0.249572  1
  Pa  Pa13  1  0.662531  0.153139  0.622096  1
  Pa  Pa14  1  0.159903  0.346962  0.879171  1
  Pa  Pa15  1  0.339850  0.844256  0.119736  1
  Pa  Pa16  1  0.837923  0.656735  0.377299  1
  Pa  Pa17  1  0.338317  0.843978  0.377341  1
  Pa  Pa18  1  0.841151  0.656121  0.120260  1
  Pa  Pa19  1  0.658473  0.156321  0.879743  1
  Rh  Rh20  1  0.690194  0.948019  0.464213  1
  Rh  Rh21  1  0.181124  0.549479  0.038800  1
  Rh  Rh22  1  0.320454  0.050192  0.963591  1
  Rh  Rh23  1  0.802234  0.448279  0.534167  1
  Rh  Rh24  1  0.329087  0.029103  0.533678  1
  Rh  Rh25  1  0.820053  0.456085  0.965176  1
  Rh  Rh26  1  0.679631  0.952288  0.036267  1
  Rh  Rh27  1  0.167406  0.560829  0.452854  1
  Rh  Rh28  1  0.466549  0.350435  0.755188  1
  Rh  Rh29  1  0.953632  0.146177  0.763705  1
  Rh  Rh30  1  0.540676  0.653099  0.249726  1
  Rh  Rh31  1  0.038148  0.851875  0.245519  1
  Rh  Rh32  1  0.689105  0.890188  0.747590  1
  Rh  Rh33  1  0.201746  0.611114  0.759165  1
  Rh  Rh34  1  0.307705  0.107153  0.249240  1
  Rh  Rh35  1  0.804226  0.394090  0.250536  1
