# generated using pymatgen
data_Tb2Mg2RuRh
_symmetry_space_group_name_H-M   'P 1'
_cell_length_a   4.13266900
_cell_length_b   7.07716053
_cell_length_c   8.55244779
_cell_angle_alpha   90.79556937
_cell_angle_beta   90.00000000
_cell_angle_gamma   90.00000000
_symmetry_Int_Tables_number   1
_chemical_formula_structural   Tb2Mg2RuRh
_chemical_formula_sum   'Tb4 Mg4 Ru2 Rh2'
_cell_volume   250.11413334
_cell_formula_units_Z   2
loop_
 _symmetry_equiv_pos_site_id
 _symmetry_equiv_pos_as_xyz
  1  'x, y, z'
loop_
 _atom_site_type_symbol
 _atom_site_label
 _atom_site_symmetry_multiplicity
 _atom_site_fract_x
 _atom_site_fract_y
 _atom_site_fract_z
 _atom_site_occupancy
  Tb  Tb0  1  0.250000  0.539397  0.178752  1
  Tb  Tb1  1  0.750000  0.460603  0.821248  1
  Tb  Tb2  1  0.250000  0.032276  0.328337  1
  Tb  Tb3  1  0.750000  0.967724  0.671663  1
  Mg  Mg4  1  0.250000  0.136491  0.940990  1
  Mg  Mg5  1  0.750000  0.863509  0.059010  1
  Mg  Mg6  1  0.250000  0.637495  0.557433  1
  Mg  Mg7  1  0.750000  0.362505  0.442567  1
  Ru  Ru8  1  0.750000  0.748615  0.366079  1
  Ru  Ru9  1  0.250000  0.251385  0.633921  1
  Rh  Rh10  1  0.750000  0.249969  0.129209  1
  Rh  Rh11  1  0.250000  0.750031  0.870791  1
