# generated using pymatgen
data_Ho2Co9Tc3As7
_symmetry_space_group_name_H-M   'P 1'
_cell_length_a   3.82542200
_cell_length_b   9.36131646
_cell_length_c   9.36131800
_cell_angle_alpha   119.99999837
_cell_angle_beta   90.00000000
_cell_angle_gamma   90.00000000
_symmetry_Int_Tables_number   1
_chemical_formula_structural   Ho2Co9Tc3As7
_chemical_formula_sum   'Ho2 Co9 Tc3 As7'
_cell_volume   290.32465265
_cell_formula_units_Z   1
loop_
 _symmetry_equiv_pos_site_id
 _symmetry_equiv_pos_as_xyz
  1  'x, y, z'
loop_
 _atom_site_type_symbol
 _atom_site_label
 _atom_site_symmetry_multiplicity
 _atom_site_fract_x
 _atom_site_fract_y
 _atom_site_fract_z
 _atom_site_occupancy
  Ho  Ho0  1  0.000000  0.666667  0.333333  1
  Ho  Ho1  1  0.500000  0.333333  0.666667  1
  Co  Co2  1  0.000000  0.568976  0.940805  1
  Co  Co3  1  0.000000  0.371830  0.431024  1
  Co  Co4  1  0.000000  0.059195  0.628170  1
  Co  Co5  1  0.000000  0.875364  0.157276  1
  Co  Co6  1  0.000000  0.281911  0.124636  1
  Co  Co7  1  0.000000  0.842724  0.718089  1
  Co  Co8  1  0.500000  0.946737  0.380783  1
  Co  Co9  1  0.500000  0.434045  0.053263  1
  Co  Co10  1  0.500000  0.619217  0.565955  1
  Tc  Tc11  1  0.500000  0.782852  0.900335  1
  Tc  Tc12  1  0.500000  0.117483  0.217148  1
  Tc  Tc13  1  0.500000  0.099665  0.882517  1
  As  As14  1  0.000000  0.000000  0.000000  1
  As  As15  1  0.500000  0.706560  0.116725  1
  As  As16  1  0.500000  0.410166  0.293440  1
  As  As17  1  0.500000  0.883275  0.589834  1
  As  As18  1  0.000000  0.587515  0.701670  1
  As  As19  1  0.000000  0.114154  0.412485  1
  As  As20  1  0.000000  0.298330  0.885846  1
