# generated using pymatgen
data_TbZr8(In2Rh)7
_symmetry_space_group_name_H-M   'P 1'
_cell_length_a   9.65895562
_cell_length_b   9.65871838
_cell_length_c   9.65880747
_cell_angle_alpha   60.38310076
_cell_angle_beta   60.38206962
_cell_angle_gamma   60.38257876
_symmetry_Int_Tables_number   1
_chemical_formula_structural   TbZr8(In2Rh)7
_chemical_formula_sum   'Tb1 Zr8 In14 Rh7'
_cell_volume   642.68763542
_cell_formula_units_Z   1
loop_
 _symmetry_equiv_pos_site_id
 _symmetry_equiv_pos_as_xyz
  1  'x, y, z'
loop_
 _atom_site_type_symbol
 _atom_site_label
 _atom_site_symmetry_multiplicity
 _atom_site_fract_x
 _atom_site_fract_y
 _atom_site_fract_z
 _atom_site_occupancy
  Tb  Tb0  1  0.500000  0.500000  0.500000  1
  Zr  Zr1  1  0.123379  0.628090  0.123389  1
  Zr  Zr2  1  0.371915  0.876621  0.876620  1
  Zr  Zr3  1  0.876041  0.876046  0.876058  1
  Zr  Zr4  1  0.628085  0.123379  0.123380  1
  Zr  Zr5  1  0.876621  0.876615  0.371889  1
  Zr  Zr6  1  0.123959  0.123954  0.123942  1
  Zr  Zr7  1  0.876621  0.371910  0.876611  1
  Zr  Zr8  1  0.123379  0.123385  0.628111  1
  In  In9  1  0.499985  0.847719  0.152289  1
  In  In10  1  0.500571  0.846507  0.500576  1
  In  In11  1  0.499429  0.153493  0.499424  1
  In  In12  1  0.500578  0.500568  0.846505  1
  In  In13  1  0.153506  0.499427  0.499421  1
  In  In14  1  0.847723  0.152276  0.499996  1
  In  In15  1  0.152277  0.847724  0.500004  1
  In  In16  1  0.500015  0.152281  0.847711  1
  In  In17  1  0.152273  0.500016  0.847727  1
  In  In18  1  0.499422  0.499432  0.153495  1
  In  In19  1  0.846494  0.500573  0.500579  1
  In  In20  1  0.847727  0.499984  0.152273  1
  In  In21  1  0.251011  0.251018  0.251025  1
  In  In22  1  0.748989  0.748982  0.748975  1
  Rh  Rh23  1  0.778174  0.778176  0.222291  1
  Rh  Rh24  1  0.000000  0.000000  0.000000  1
  Rh  Rh25  1  0.221816  0.777712  0.221807  1
  Rh  Rh26  1  0.222292  0.778182  0.778200  1
  Rh  Rh27  1  0.221826  0.221824  0.777709  1
  Rh  Rh28  1  0.778184  0.222288  0.778193  1
  Rh  Rh29  1  0.777708  0.221818  0.221800  1
