# generated using pymatgen
data_Tb16MgCd(InRh2)2
_symmetry_space_group_name_H-M   'P 1'
_cell_length_a   9.70920989
_cell_length_b   9.70321353
_cell_length_c   9.70317368
_cell_angle_alpha   59.95308058
_cell_angle_beta   60.03847723
_cell_angle_gamma   60.03876084
_symmetry_Int_Tables_number   1
_chemical_formula_structural   Tb16MgCd(InRh2)2
_chemical_formula_sum   'Tb16 Mg1 Cd1 In2 Rh4'
_cell_volume   646.54258326
_cell_formula_units_Z   1
loop_
 _symmetry_equiv_pos_site_id
 _symmetry_equiv_pos_as_xyz
  1  'x, y, z'
loop_
 _atom_site_type_symbol
 _atom_site_label
 _atom_site_symmetry_multiplicity
 _atom_site_fract_x
 _atom_site_fract_y
 _atom_site_fract_z
 _atom_site_occupancy
  Tb  Tb0  1  0.300061  0.898879  0.898881  1
  Tb  Tb1  1  0.685372  0.315162  0.686202  1
  Tb  Tb2  1  0.312142  0.687956  0.312560  1
  Tb  Tb3  1  0.065582  0.437137  0.437142  1
  Tb  Tb4  1  0.687357  0.312493  0.312495  1
  Tb  Tb5  1  0.440815  0.061312  0.440208  1
  Tb  Tb6  1  0.442564  0.058326  0.058325  1
  Tb  Tb7  1  0.901035  0.902791  0.902788  1
  Tb  Tb8  1  0.061012  0.439458  0.061063  1
  Tb  Tb9  1  0.899442  0.296313  0.900753  1
  Tb  Tb10  1  0.314322  0.685292  0.685290  1
  Tb  Tb11  1  0.899444  0.900759  0.296306  1
  Tb  Tb12  1  0.440813  0.440206  0.061315  1
  Tb  Tb13  1  0.312144  0.312558  0.687956  1
  Tb  Tb14  1  0.685374  0.686202  0.315162  1
  Tb  Tb15  1  0.061014  0.061062  0.439460  1
  Mg  Mg16  1  0.980584  0.673651  0.673650  1
  Cd  Cd17  1  0.669422  0.668306  0.668312  1
  In  In18  1  0.669516  0.996426  0.667594  1
  In  In19  1  0.669498  0.667606  0.996436  1
  Rh  Rh20  1  0.109147  0.107149  0.676059  1
  Rh  Rh21  1  0.109145  0.676051  0.107162  1
  Rh  Rh22  1  0.109024  0.106625  0.106617  1
  Rh  Rh23  1  0.675172  0.108280  0.108263  1
