# generated using pymatgen
data_Cs6Rb2CaPbBr12
_symmetry_space_group_name_H-M   'P 1'
_cell_length_a   9.87370264
_cell_length_b   9.87370300
_cell_length_c   9.87370207
_cell_angle_alpha   90.54245012
_cell_angle_beta   90.54244826
_cell_angle_gamma   90.54245747
_symmetry_Int_Tables_number   1
_chemical_formula_structural   Cs6Rb2CaPbBr12
_chemical_formula_sum   'Cs6 Rb2 Ca1 Pb1 Br12'
_cell_volume   962.45704409
_cell_formula_units_Z   1
loop_
 _symmetry_equiv_pos_site_id
 _symmetry_equiv_pos_as_xyz
  1  'x, y, z'
loop_
 _atom_site_type_symbol
 _atom_site_label
 _atom_site_symmetry_multiplicity
 _atom_site_fract_x
 _atom_site_fract_y
 _atom_site_fract_z
 _atom_site_occupancy
  Cs  Cs0  1  0.750659  0.128219  0.371739  1
  Cs  Cs1  1  0.371739  0.750659  0.128219  1
  Cs  Cs2  1  0.128219  0.371739  0.750659  1
  Cs  Cs3  1  0.249341  0.871781  0.628261  1
  Cs  Cs4  1  0.628261  0.249341  0.871781  1
  Cs  Cs5  1  0.871781  0.628261  0.249341  1
  Rb  Rb6  1  0.249852  0.249852  0.249852  1
  Rb  Rb7  1  0.750148  0.750148  0.750148  1
  Ca  Ca8  1  0.000000  0.000000  0.000000  1
  Pb  Pb9  1  0.500000  0.500000  0.500000  1
  Br  Br10  1  0.446745  0.576480  0.795904  1
  Br  Br11  1  0.795904  0.446745  0.576480  1
  Br  Br12  1  0.576480  0.795904  0.446745  1
  Br  Br13  1  0.051263  0.716080  0.926756  1
  Br  Br14  1  0.926756  0.051263  0.716080  1
  Br  Br15  1  0.716080  0.926756  0.051263  1
  Br  Br16  1  0.553255  0.423520  0.204096  1
  Br  Br17  1  0.204096  0.553255  0.423520  1
  Br  Br18  1  0.423520  0.204096  0.553255  1
  Br  Br19  1  0.948737  0.283920  0.073244  1
  Br  Br20  1  0.283920  0.073244  0.948737  1
  Br  Br21  1  0.073244  0.948737  0.283920  1
