# generated using pymatgen
data_Pr3Sn2PtRh2Pb
_symmetry_space_group_name_H-M   'P 1'
_cell_length_a   7.82443191
_cell_length_b   7.79107472
_cell_length_c   4.04507800
_cell_angle_alpha   90.00000000
_cell_angle_beta   90.00000000
_cell_angle_gamma   120.24010757
_symmetry_Int_Tables_number   1
_chemical_formula_structural   Pr3Sn2PtRh2Pb
_chemical_formula_sum   'Pr3 Sn2 Pt1 Rh2 Pb1'
_cell_volume   213.03543937
_cell_formula_units_Z   1
loop_
 _symmetry_equiv_pos_site_id
 _symmetry_equiv_pos_as_xyz
  1  'x, y, z'
loop_
 _atom_site_type_symbol
 _atom_site_label
 _atom_site_symmetry_multiplicity
 _atom_site_fract_x
 _atom_site_fract_y
 _atom_site_fract_z
 _atom_site_occupancy
  Pr  Pr0  1  0.593120  0.003636  0.500000  1
  Pr  Pr1  1  0.413539  0.411276  0.500000  1
  Pr  Pr2  1  0.993969  0.584958  0.500000  1
  Sn  Sn3  1  0.749301  0.745436  0.000000  1
  Sn  Sn4  1  0.994952  0.250559  0.000000  1
  Pt  Pt5  1  0.335536  0.658500  0.000000  1
  Rh  Rh6  1  0.986761  0.000236  0.500000  1
  Rh  Rh7  1  0.677719  0.341645  0.000000  1
  Pb  Pb8  1  0.255103  0.003756  0.000000  1
