# generated using pymatgen
data_CaLa7Nd4(GaRh)8
_symmetry_space_group_name_H-M   'P 1'
_cell_length_a   5.73445027
_cell_length_b   8.28009952
_cell_length_c   13.74301798
_cell_angle_alpha   90.06677213
_cell_angle_beta   90.09264961
_cell_angle_gamma   90.08178874
_symmetry_Int_Tables_number   1
_chemical_formula_structural   CaLa7Nd4(GaRh)8
_chemical_formula_sum   'Ca1 La7 Nd4 Ga8 Rh8'
_cell_volume   652.54152877
_cell_formula_units_Z   1
loop_
 _symmetry_equiv_pos_site_id
 _symmetry_equiv_pos_as_xyz
  1  'x, y, z'
loop_
 _atom_site_type_symbol
 _atom_site_label
 _atom_site_symmetry_multiplicity
 _atom_site_fract_x
 _atom_site_fract_y
 _atom_site_fract_z
 _atom_site_occupancy
  Ca  Ca0  1  0.149486  0.398900  0.101656  1
  La  La1  1  0.847975  0.594666  0.907363  1
  La  La2  1  0.843060  0.599745  0.595807  1
  La  La3  1  0.845099  0.900399  0.403258  1
  La  La4  1  0.154494  0.401354  0.405021  1
  La  La5  1  0.156369  0.098233  0.595932  1
  La  La6  1  0.155865  0.101242  0.906188  1
  La  La7  1  0.842201  0.900445  0.096075  1
  Nd  Nd8  1  0.638648  0.260211  0.247340  1
  Nd  Nd9  1  0.359353  0.741961  0.749390  1
  Nd  Nd10  1  0.358292  0.754874  0.248108  1
  Nd  Nd11  1  0.639639  0.243359  0.749438  1
  Ga  Ga12  1  0.142531  0.107708  0.248851  1
  Ga  Ga13  1  0.857330  0.891893  0.751237  1
  Ga  Ga14  1  0.858282  0.606832  0.248631  1
  Ga  Ga15  1  0.145067  0.392808  0.749901  1
  Ga  Ga16  1  0.626697  0.252934  0.002345  1
  Ga  Ga17  1  0.364371  0.748050  0.999933  1
  Ga  Ga18  1  0.362072  0.750985  0.499262  1
  Ga  Ga19  1  0.638499  0.249195  0.499693  1
  Rh  Rh20  1  0.364605  0.028002  0.092808  1
  Rh  Rh21  1  0.637738  0.972053  0.908358  1
  Rh  Rh22  1  0.635217  0.968261  0.592143  1
  Rh  Rh23  1  0.634406  0.529575  0.406801  1
  Rh  Rh24  1  0.366019  0.032426  0.406588  1
  Rh  Rh25  1  0.366415  0.469191  0.591157  1
  Rh  Rh26  1  0.370544  0.469380  0.906931  1
  Rh  Rh27  1  0.639728  0.535318  0.089784  1
