# generated using pymatgen
data_Tb2Y2LuInAu4
_symmetry_space_group_name_H-M   'P 1'
_cell_length_a   8.09338844
_cell_length_b   8.08856844
_cell_length_c   3.76261900
_cell_angle_alpha   90.00000000
_cell_angle_beta   90.00000000
_cell_angle_gamma   90.08902788
_symmetry_Int_Tables_number   1
_chemical_formula_structural   Tb2Y2LuInAu4
_chemical_formula_sum   'Tb2 Y2 Lu1 In1 Au4'
_cell_volume   246.31551570
_cell_formula_units_Z   1
loop_
 _symmetry_equiv_pos_site_id
 _symmetry_equiv_pos_as_xyz
  1  'x, y, z'
loop_
 _atom_site_type_symbol
 _atom_site_label
 _atom_site_symmetry_multiplicity
 _atom_site_fract_x
 _atom_site_fract_y
 _atom_site_fract_z
 _atom_site_occupancy
  Tb  Tb0  1  0.685464  0.142160  0.500000  1
  Tb  Tb1  1  0.314536  0.857840  0.500000  1
  Y  Y2  1  0.141901  0.314613  0.500000  1
  Y  Y3  1  0.858099  0.685387  0.500000  1
  Lu  Lu4  1  0.500000  0.500000  0.000000  1
  In  In5  1  0.000000  0.000000  0.000000  1
  Au  Au6  1  0.148442  0.616567  0.000000  1
  Au  Au7  1  0.851558  0.383433  0.000000  1
  Au  Au8  1  0.616628  0.851535  0.000000  1
  Au  Au9  1  0.383372  0.148465  0.000000  1
