# generated using pymatgen
data_Ho7LuPd4
_symmetry_space_group_name_H-M   'P 1'
_cell_length_a   7.07408706
_cell_length_b   4.86222000
_cell_length_c   8.71891600
_cell_angle_alpha   90.00000000
_cell_angle_beta   89.99252426
_cell_angle_gamma   90.00000000
_symmetry_Int_Tables_number   1
_chemical_formula_structural   Ho7LuPd4
_chemical_formula_sum   'Ho7 Lu1 Pd4'
_cell_volume   299.89380578
_cell_formula_units_Z   1
loop_
 _symmetry_equiv_pos_site_id
 _symmetry_equiv_pos_as_xyz
  1  'x, y, z'
loop_
 _atom_site_type_symbol
 _atom_site_label
 _atom_site_symmetry_multiplicity
 _atom_site_fract_x
 _atom_site_fract_y
 _atom_site_fract_z
 _atom_site_occupancy
  Ho  Ho0  1  0.855660  0.250000  0.079339  1
  Ho  Ho1  1  0.515374  0.750000  0.171294  1
  Ho  Ho2  1  0.016317  0.750000  0.327870  1
  Ho  Ho3  1  0.354993  0.250000  0.420141  1
  Ho  Ho4  1  0.644636  0.750000  0.579880  1
  Ho  Ho5  1  0.984339  0.250000  0.672534  1
  Ho  Ho6  1  0.482905  0.250000  0.828072  1
  Lu  Lu7  1  0.144282  0.750000  0.920770  1
  Pd  Pd8  1  0.257913  0.250000  0.090921  1
  Pd  Pd9  1  0.759666  0.250000  0.406740  1
  Pd  Pd10  1  0.240209  0.750000  0.596091  1
  Pd  Pd11  1  0.743703  0.750000  0.906350  1
