# generated using pymatgen
data_MgZn3As(PN2)6
_symmetry_space_group_name_H-M   'P 1'
_cell_length_a   7.23382966
_cell_length_b   7.19921639
_cell_length_c   7.23383035
_cell_angle_alpha   109.37432220
_cell_angle_beta   109.56795254
_cell_angle_gamma   109.37432358
_symmetry_Int_Tables_number   1
_chemical_formula_structural   MgZn3As(PN2)6
_chemical_formula_sum   'Mg1 Zn3 As1 P6 N12'
_cell_volume   290.34733467
_cell_formula_units_Z   1
loop_
 _symmetry_equiv_pos_site_id
 _symmetry_equiv_pos_as_xyz
  1  'x, y, z'
loop_
 _atom_site_type_symbol
 _atom_site_label
 _atom_site_symmetry_multiplicity
 _atom_site_fract_x
 _atom_site_fract_y
 _atom_site_fract_z
 _atom_site_occupancy
  Mg  Mg0  1  0.000000  0.358849  0.000000  1
  Zn  Zn1  1  0.653157  0.657989  0.653157  1
  Zn  Zn2  1  0.346843  0.004831  0.000000  1
  Zn  Zn3  1  0.000000  0.004831  0.346843  1
  As  As4  1  0.000000  0.965910  0.000000  1
  P  P5  1  0.748635  0.250077  0.498818  1
  P  P6  1  0.249818  0.751259  0.501182  1
  P  P7  1  0.501182  0.751259  0.249818  1
  P  P8  1  0.498818  0.250077  0.748635  1
  P  P9  1  0.750182  0.501442  0.251365  1
  P  P10  1  0.251365  0.501442  0.750182  1
  N  N11  1  0.562112  0.274686  0.000000  1
  N  N12  1  0.441208  0.442124  0.714140  1
  N  N13  1  0.000000  0.274686  0.562112  1
  N  N14  1  0.272931  0.000916  0.558792  1
  N  N15  1  0.714140  0.442124  0.441208  1
  N  N16  1  0.000000  0.558450  0.277314  1
  N  N17  1  0.558792  0.000916  0.272931  1
  N  N18  1  0.437888  0.712574  0.437888  1
  N  N19  1  0.277314  0.558450  0.000000  1
  N  N20  1  0.722686  0.281136  0.722686  1
  N  N21  1  0.727069  0.727985  0.285860  1
  N  N22  1  0.285860  0.727985  0.727069  1
