# generated using pymatgen
data_Ca6PdPt
_symmetry_space_group_name_H-M   'P 1'
_cell_length_a   6.60629100
_cell_length_b   7.71812400
_cell_length_c   9.72514600
_cell_angle_alpha   90.00000000
_cell_angle_beta   90.00000000
_cell_angle_gamma   90.00000000
_symmetry_Int_Tables_number   1
_chemical_formula_structural   Ca6PdPt
_chemical_formula_sum   'Ca12 Pd2 Pt2'
_cell_volume   495.86742785
_cell_formula_units_Z   2
loop_
 _symmetry_equiv_pos_site_id
 _symmetry_equiv_pos_as_xyz
  1  'x, y, z'
loop_
 _atom_site_type_symbol
 _atom_site_label
 _atom_site_symmetry_multiplicity
 _atom_site_fract_x
 _atom_site_fract_y
 _atom_site_fract_z
 _atom_site_occupancy
  Ca  Ca0  1  0.335991  0.671058  0.068340  1
  Ca  Ca1  1  0.164009  0.171058  0.431660  1
  Ca  Ca2  1  0.659634  0.329123  0.562219  1
  Ca  Ca3  1  0.840366  0.829123  0.937781  1
  Ca  Ca4  1  0.659634  0.329123  0.937781  1
  Ca  Ca5  1  0.840366  0.829123  0.562219  1
  Ca  Ca6  1  0.335991  0.671058  0.431660  1
  Ca  Ca7  1  0.164009  0.171058  0.068340  1
  Ca  Ca8  1  0.859360  0.540033  0.250000  1
  Ca  Ca9  1  0.640640  0.040033  0.250000  1
  Ca  Ca10  1  0.137618  0.461233  0.750000  1
  Ca  Ca11  1  0.362382  0.961233  0.750000  1
  Pd  Pd12  1  0.948308  0.121451  0.750000  1
  Pd  Pd13  1  0.551692  0.621451  0.750000  1
  Pt  Pt14  1  0.048133  0.876922  0.250000  1
  Pt  Pt15  1  0.451867  0.376922  0.250000  1
