# generated using pymatgen
data_LaY3Lu4(ReB6)4
_symmetry_space_group_name_H-M   'P 1'
_cell_length_a   3.66958000
_cell_length_b   9.14664254
_cell_length_c   11.56332569
_cell_angle_alpha   90.03951295
_cell_angle_beta   90.00000000
_cell_angle_gamma   90.00000000
_symmetry_Int_Tables_number   1
_chemical_formula_structural   LaY3Lu4(ReB6)4
_chemical_formula_sum   'La1 Y3 Lu4 Re4 B24'
_cell_volume   388.11526267
_cell_formula_units_Z   1
loop_
 _symmetry_equiv_pos_site_id
 _symmetry_equiv_pos_as_xyz
  1  'x, y, z'
loop_
 _atom_site_type_symbol
 _atom_site_label
 _atom_site_symmetry_multiplicity
 _atom_site_fract_x
 _atom_site_fract_y
 _atom_site_fract_z
 _atom_site_occupancy
  La  La0  1  0.000000  0.178213  0.914489  1
  Y  Y1  1  0.000000  0.323478  0.414473  1
  Y  Y2  1  0.000000  0.676845  0.584844  1
  Y  Y3  1  0.000000  0.822802  0.086535  1
  Lu  Lu4  1  0.000000  0.943159  0.370813  1
  Lu  Lu5  1  0.000000  0.056331  0.629118  1
  Lu  Lu6  1  0.000000  0.443584  0.131471  1
  Lu  Lu7  1  0.000000  0.557275  0.868841  1
  Re  Re8  1  0.000000  0.639850  0.319343  1
  Re  Re9  1  0.000000  0.361740  0.678125  1
  Re  Re10  1  0.000000  0.139594  0.183569  1
  Re  Re11  1  0.000000  0.858167  0.818501  1
  B  B12  1  0.500000  0.554489  0.431947  1
  B  B13  1  0.500000  0.446763  0.566335  1
  B  B14  1  0.500000  0.053090  0.071326  1
  B  B15  1  0.500000  0.942943  0.931461  1
  B  B16  1  0.500000  0.751079  0.417565  1
  B  B17  1  0.500000  0.249324  0.580712  1
  B  B18  1  0.500000  0.250748  0.086926  1
  B  B19  1  0.500000  0.747719  0.917341  1
  B  B20  1  0.500000  0.793073  0.265554  1
  B  B21  1  0.500000  0.208493  0.731786  1
  B  B22  1  0.500000  0.293227  0.237225  1
  B  B23  1  0.500000  0.706189  0.764201  1
  B  B24  1  0.500000  0.630183  0.184973  1
  B  B25  1  0.500000  0.372361  0.812082  1
  B  B26  1  0.500000  0.129471  0.317055  1
  B  B27  1  0.500000  0.868712  0.683564  1
  B  B28  1  0.500000  0.981436  0.214684  1
  B  B29  1  0.500000  0.014823  0.785275  1
  B  B30  1  0.500000  0.482561  0.287689  1
  B  B31  1  0.500000  0.518796  0.711079  1
  B  B32  1  0.500000  0.597302  0.026879  1
  B  B33  1  0.500000  0.407070  0.974387  1
  B  B34  1  0.500000  0.097178  0.473246  1
  B  B35  1  0.500000  0.901930  0.526587  1
