# generated using pymatgen
data_AcZnSiOsPt
_symmetry_space_group_name_H-M   'P 1'
_cell_length_a   4.32296600
_cell_length_b   4.32296600
_cell_length_c   10.44665600
_cell_angle_alpha   90.00000000
_cell_angle_beta   90.00000000
_cell_angle_gamma   90.00000000
_symmetry_Int_Tables_number   1
_chemical_formula_structural   AcZnSiOsPt
_chemical_formula_sum   'Ac2 Zn2 Si2 Os2 Pt2'
_cell_volume   195.22747335
_cell_formula_units_Z   2
loop_
 _symmetry_equiv_pos_site_id
 _symmetry_equiv_pos_as_xyz
  1  'x, y, z'
loop_
 _atom_site_type_symbol
 _atom_site_label
 _atom_site_symmetry_multiplicity
 _atom_site_fract_x
 _atom_site_fract_y
 _atom_site_fract_z
 _atom_site_occupancy
  Ac  Ac0  1  0.000000  0.500000  0.241126  1
  Ac  Ac1  1  0.500000  0.000000  0.758874  1
  Zn  Zn2  1  0.000000  0.000000  0.500000  1
  Zn  Zn3  1  0.500000  0.500000  0.500000  1
  Si  Si4  1  0.000000  0.500000  0.892663  1
  Si  Si5  1  0.500000  0.000000  0.107337  1
  Os  Os6  1  0.000000  0.000000  0.000000  1
  Os  Os7  1  0.500000  0.500000  0.000000  1
  Pt  Pt8  1  0.000000  0.500000  0.651789  1
  Pt  Pt9  1  0.500000  0.000000  0.348211  1
