# generated using pymatgen
data_SrLa6SI12
_symmetry_space_group_name_H-M   'P 1'
_cell_length_a   9.96851620
_cell_length_b   9.96851609
_cell_length_c   9.96851800
_cell_angle_alpha   106.43911992
_cell_angle_beta   106.43911974
_cell_angle_gamma   106.43912083
_symmetry_Int_Tables_number   1
_chemical_formula_structural   SrLa6SI12
_chemical_formula_sum   'Sr1 La6 S1 I12'
_cell_volume   837.27002663
_cell_formula_units_Z   1
loop_
 _symmetry_equiv_pos_site_id
 _symmetry_equiv_pos_as_xyz
  1  'x, y, z'
loop_
 _atom_site_type_symbol
 _atom_site_label
 _atom_site_symmetry_multiplicity
 _atom_site_fract_x
 _atom_site_fract_y
 _atom_site_fract_z
 _atom_site_occupancy
  Sr  Sr0  1  0.500000  0.500000  0.500000  1
  La  La1  1  0.097996  0.023233  0.302621  1
  La  La2  1  0.302621  0.097996  0.023233  1
  La  La3  1  0.023233  0.302621  0.097996  1
  La  La4  1  0.902004  0.976767  0.697379  1
  La  La5  1  0.697379  0.902004  0.976767  1
  La  La6  1  0.976767  0.697379  0.902004  1
  S  S7  1  0.000000  0.000000  0.000000  1
  I  I8  1  0.075543  0.678451  0.229282  1
  I  I9  1  0.229282  0.075543  0.678451  1
  I  I10  1  0.678451  0.229282  0.075543  1
  I  I11  1  0.924457  0.321549  0.770718  1
  I  I12  1  0.770718  0.924457  0.321549  1
  I  I13  1  0.321549  0.770718  0.924457  1
  I  I14  1  0.458387  0.143797  0.375442  1
  I  I15  1  0.375442  0.458387  0.143797  1
  I  I16  1  0.143797  0.375442  0.458387  1
  I  I17  1  0.541613  0.856203  0.624558  1
  I  I18  1  0.624558  0.541613  0.856203  1
  I  I19  1  0.856203  0.624558  0.541613  1
