# generated using pymatgen
data_LiTb3Dy13Cd3Ir4
_symmetry_space_group_name_H-M   'P 1'
_cell_length_a   9.67044806
_cell_length_b   9.66983007
_cell_length_c   9.66892855
_cell_angle_alpha   59.76121294
_cell_angle_beta   59.74632148
_cell_angle_gamma   59.74756955
_symmetry_Int_Tables_number   1
_chemical_formula_structural   LiTb3Dy13Cd3Ir4
_chemical_formula_sum   'Li1 Tb3 Dy13 Cd3 Ir4'
_cell_volume   635.73067995
_cell_formula_units_Z   1
loop_
 _symmetry_equiv_pos_site_id
 _symmetry_equiv_pos_as_xyz
  1  'x, y, z'
loop_
 _atom_site_type_symbol
 _atom_site_label
 _atom_site_symmetry_multiplicity
 _atom_site_fract_x
 _atom_site_fract_y
 _atom_site_fract_z
 _atom_site_occupancy
  Li  Li0  1  0.821437  0.821418  0.821298  1
  Tb  Tb1  1  0.186769  0.812206  0.186712  1
  Tb  Tb2  1  0.811480  0.811842  0.188547  1
  Tb  Tb3  1  0.186498  0.186759  0.812199  1
  Dy  Dy4  1  0.599826  0.599727  0.599731  1
  Dy  Dy5  1  0.597991  0.597774  0.207305  1
  Dy  Dy6  1  0.597974  0.207170  0.597958  1
  Dy  Dy7  1  0.207201  0.597889  0.598073  1
  Dy  Dy8  1  0.060736  0.439572  0.439868  1
  Dy  Dy9  1  0.435480  0.062731  0.062679  1
  Dy  Dy10  1  0.439787  0.060794  0.439720  1
  Dy  Dy11  1  0.062657  0.435334  0.062715  1
  Dy  Dy12  1  0.440031  0.439638  0.060637  1
  Dy  Dy13  1  0.062543  0.062678  0.435598  1
  Dy  Dy14  1  0.188992  0.811504  0.811211  1
  Dy  Dy15  1  0.811963  0.187060  0.186763  1
  Dy  Dy16  1  0.811461  0.188975  0.811520  1
  Cd  Cd17  1  0.832328  0.832619  0.506825  1
  Cd  Cd18  1  0.832280  0.506748  0.832565  1
  Cd  Cd19  1  0.506991  0.832305  0.832295  1
  Ir  Ir20  1  0.392058  0.391769  0.391738  1
  Ir  Ir21  1  0.393930  0.393917  0.826015  1
  Ir  Ir22  1  0.393584  0.826087  0.394054  1
  Ir  Ir23  1  0.826008  0.393487  0.393979  1
