# generated using pymatgen
data_HoU7O16
_symmetry_space_group_name_H-M   'P 1'
_cell_length_a   10.80732239
_cell_length_b   5.40675410
_cell_length_c   5.40542412
_cell_angle_alpha   89.98880997
_cell_angle_beta   89.97821518
_cell_angle_gamma   90.02062179
_symmetry_Int_Tables_number   1
_chemical_formula_structural   HoU7O16
_chemical_formula_sum   'Ho1 U7 O16'
_cell_volume   315.85258327
_cell_formula_units_Z   1
loop_
 _symmetry_equiv_pos_site_id
 _symmetry_equiv_pos_as_xyz
  1  'x, y, z'
loop_
 _atom_site_type_symbol
 _atom_site_label
 _atom_site_symmetry_multiplicity
 _atom_site_fract_x
 _atom_site_fract_y
 _atom_site_fract_z
 _atom_site_occupancy
  Ho  Ho0  1  0.124940  0.500021  0.250567  1
  U  U1  1  0.371950  0.999956  0.250688  1
  U  U2  1  0.877987  0.000020  0.249287  1
  U  U3  1  0.625025  0.499975  0.249464  1
  U  U4  1  0.372473  0.500009  0.750993  1
  U  U5  1  0.124946  0.000024  0.750498  1
  U  U6  1  0.625020  0.999989  0.749458  1
  U  U7  1  0.877545  0.500010  0.749167  1
  O  O8  1  0.999035  0.248327  0.997854  1
  O  O9  1  0.499705  0.750193  0.999859  1
  O  O10  1  0.749949  0.749926  0.998519  1
  O  O11  1  0.750080  0.249815  0.998563  1
  O  O12  1  0.251089  0.248056  0.503077  1
  O  O13  1  0.250990  0.751665  0.503112  1
  O  O14  1  0.999123  0.751965  0.501698  1
  O  O15  1  0.499994  0.249960  0.500323  1
  O  O16  1  0.499894  0.750022  0.500176  1
  O  O17  1  0.999190  0.248046  0.501542  1
  O  O18  1  0.750276  0.249991  0.498994  1
  O  O19  1  0.750235  0.750243  0.498949  1
  O  O20  1  0.250889  0.752084  0.999542  1
  O  O21  1  0.250934  0.248232  0.999596  1
  O  O22  1  0.499770  0.249739  0.999996  1
  O  O23  1  0.998961  0.751727  0.998080  1
