# generated using pymatgen
data_Er8Ti8Nb3Si16Os
_symmetry_space_group_name_H-M   'P 1'
_cell_length_a   7.00871830
_cell_length_b   7.00871794
_cell_length_c   12.87667992
_cell_angle_alpha   90.11846553
_cell_angle_beta   89.88153374
_cell_angle_gamma   89.85567626
_symmetry_Int_Tables_number   1
_chemical_formula_structural   Er8Ti8Nb3Si16Os
_chemical_formula_sum   'Er8 Ti8 Nb3 Si16 Os1'
_cell_volume   632.52522296
_cell_formula_units_Z   1
loop_
 _symmetry_equiv_pos_site_id
 _symmetry_equiv_pos_as_xyz
  1  'x, y, z'
loop_
 _atom_site_type_symbol
 _atom_site_label
 _atom_site_symmetry_multiplicity
 _atom_site_fract_x
 _atom_site_fract_y
 _atom_site_fract_z
 _atom_site_occupancy
  Er  Er0  1  0.340812  0.001896  0.467661  1
  Er  Er1  1  0.498201  0.840895  0.718181  1
  Er  Er2  1  0.499915  0.159396  0.215603  1
  Er  Er3  1  0.840895  0.498201  0.281819  1
  Er  Er4  1  0.159396  0.499915  0.784397  1
  Er  Er5  1  0.659398  0.000110  0.968570  1
  Er  Er6  1  0.001896  0.340812  0.532339  1
  Er  Er7  1  0.000110  0.659398  0.031430  1
  Ti  Ti8  1  0.149120  0.003422  0.874068  1
  Ti  Ti9  1  0.490566  0.656697  0.124843  1
  Ti  Ti10  1  0.508866  0.348725  0.628116  1
  Ti  Ti11  1  0.656697  0.490566  0.875157  1
  Ti  Ti12  1  0.348725  0.508866  0.371884  1
  Ti  Ti13  1  0.847886  0.992395  0.374734  1
  Ti  Ti14  1  0.003422  0.149120  0.125932  1
  Ti  Ti15  1  0.992395  0.847886  0.625266  1
  Nb  Nb16  1  0.174084  0.827838  0.247577  1
  Nb  Nb17  1  0.827838  0.174084  0.752423  1
  Nb  Nb18  1  0.673764  0.673764  0.500000  1
  Si  Si19  1  0.204337  0.131346  0.683791  1
  Si  Si20  1  0.372431  0.699662  0.932911  1
  Si  Si21  1  0.630580  0.296076  0.434104  1
  Si  Si22  1  0.699662  0.372431  0.067089  1
  Si  Si23  1  0.296076  0.630580  0.565896  1
  Si  Si24  1  0.795030  0.867731  0.183377  1
  Si  Si25  1  0.131346  0.204337  0.316209  1
  Si  Si26  1  0.867731  0.795030  0.816623  1
  Si  Si27  1  0.289523  0.957392  0.061755  1
  Si  Si28  1  0.547309  0.794318  0.314343  1
  Si  Si29  1  0.449383  0.207961  0.818187  1
  Si  Si30  1  0.794318  0.547309  0.685657  1
  Si  Si31  1  0.207961  0.449383  0.181813  1
  Si  Si32  1  0.706873  0.048297  0.564629  1
  Si  Si33  1  0.957392  0.289523  0.938245  1
  Si  Si34  1  0.048297  0.706873  0.435371  1
  Os  Os35  1  0.327768  0.327768  0.000000  1
