# generated using pymatgen
data_DyTm7(Si4Ru3)4
_symmetry_space_group_name_H-M   'P 1'
_cell_length_a   10.19118961
_cell_length_b   10.19153262
_cell_length_c   13.71566600
_cell_angle_alpha   53.07213663
_cell_angle_beta   53.07327539
_cell_angle_gamma   30.80271690
_symmetry_Int_Tables_number   1
_chemical_formula_structural   DyTm7(Si4Ru3)4
_chemical_formula_sum   'Dy1 Tm7 Si16 Ru12'
_cell_volume   570.52205025
_cell_formula_units_Z   1
loop_
 _symmetry_equiv_pos_site_id
 _symmetry_equiv_pos_as_xyz
  1  'x, y, z'
loop_
 _atom_site_type_symbol
 _atom_site_label
 _atom_site_symmetry_multiplicity
 _atom_site_fract_x
 _atom_site_fract_y
 _atom_site_fract_z
 _atom_site_occupancy
  Dy  Dy0  1  0.556562  0.300637  0.143444  1
  Tm  Tm1  1  0.037901  0.289868  0.640288  1
  Tm  Tm2  1  0.710960  0.961672  0.859688  1
  Tm  Tm3  1  0.961025  0.710707  0.360077  1
  Tm  Tm4  1  0.289650  0.038097  0.140096  1
  Tm  Tm5  1  0.300025  0.557021  0.643804  1
  Tm  Tm6  1  0.442658  0.701297  0.855633  1
  Tm  Tm7  1  0.700404  0.442380  0.356263  1
  Si  Si8  1  0.979942  0.248228  0.894281  1
  Si  Si9  1  0.752127  0.020144  0.605555  1
  Si  Si10  1  0.019545  0.752211  0.105501  1
  Si  Si11  1  0.247659  0.979720  0.394331  1
  Si  Si12  1  0.138625  0.384423  0.900192  1
  Si  Si13  1  0.615709  0.861918  0.599708  1
  Si  Si14  1  0.861291  0.615686  0.100057  1
  Si  Si15  1  0.383114  0.138391  0.400643  1
  Si  Si16  1  0.081479  0.574565  0.568862  1
  Si  Si17  1  0.425787  0.918879  0.930824  1
  Si  Si18  1  0.917907  0.425436  0.431392  1
  Si  Si19  1  0.574677  0.080397  0.068855  1
  Si  Si20  1  0.620372  0.379634  0.750183  1
  Si  Si21  1  0.379597  0.620642  0.250214  1
  Si  Si22  1  0.131911  0.868178  0.749992  1
  Si  Si23  1  0.869534  0.130893  0.250056  1
  Ru  Ru24  1  0.898656  0.138179  0.587803  1
  Ru  Ru25  1  0.862719  0.100609  0.911715  1
  Ru  Ru26  1  0.101412  0.861269  0.412439  1
  Ru  Ru27  1  0.139456  0.898777  0.087224  1
  Ru  Ru28  1  0.836388  0.641296  0.783129  1
  Ru  Ru29  1  0.358968  0.164070  0.716601  1
  Ru  Ru30  1  0.162823  0.358551  0.217099  1
  Ru  Ru31  1  0.640592  0.835712  0.283519  1
  Ru  Ru32  1  0.253617  0.500949  0.932587  1
  Ru  Ru33  1  0.499083  0.746659  0.567865  1
  Ru  Ru34  1  0.746968  0.499540  0.067579  1
  Ru  Ru35  1  0.500857  0.253365  0.432502  1
