# generated using pymatgen
data_Tm12Co2Ni3Sn
_symmetry_space_group_name_H-M   'P 1'
_cell_length_a   8.16337051
_cell_length_b   8.16337018
_cell_length_c   8.16336926
_cell_angle_alpha   109.44876043
_cell_angle_beta   111.37014892
_cell_angle_gamma   107.61651632
_symmetry_Int_Tables_number   1
_chemical_formula_structural   Tm12Co2Ni3Sn
_chemical_formula_sum   'Tm12 Co2 Ni3 Sn1'
_cell_volume   418.33098150
_cell_formula_units_Z   1
loop_
 _symmetry_equiv_pos_site_id
 _symmetry_equiv_pos_as_xyz
  1  'x, y, z'
loop_
 _atom_site_type_symbol
 _atom_site_label
 _atom_site_symmetry_multiplicity
 _atom_site_fract_x
 _atom_site_fract_y
 _atom_site_fract_z
 _atom_site_occupancy
  Tm  Tm0  1  0.289958  0.183284  0.473242  1
  Tm  Tm1  1  0.710042  0.816716  0.526758  1
  Tm  Tm2  1  0.289958  0.816716  0.106672  1
  Tm  Tm3  1  0.710042  0.183284  0.893328  1
  Tm  Tm4  1  0.623713  0.317384  0.306328  1
  Tm  Tm5  1  0.376287  0.682616  0.693672  1
  Tm  Tm6  1  0.011056  0.317384  0.693672  1
  Tm  Tm7  1  0.988944  0.682616  0.306328  1
  Tm  Tm8  1  0.214548  0.407670  0.193123  1
  Tm  Tm9  1  0.785452  0.592330  0.806877  1
  Tm  Tm10  1  0.214548  0.021425  0.806877  1
  Tm  Tm11  1  0.785452  0.978575  0.193123  1
  Co  Co12  1  0.384117  0.884117  0.500000  1
  Co  Co13  1  0.615883  0.115883  0.500000  1
  Ni  Ni14  1  0.000000  0.364454  0.364454  1
  Ni  Ni15  1  0.000000  0.635546  0.635546  1
  Ni  Ni16  1  0.000000  0.000000  0.000000  1
  Sn  Sn17  1  0.500000  0.500000  0.000000  1
