# generated using pymatgen
data_Sc3CoNi2Sn3
_symmetry_space_group_name_H-M   'P 1'
_cell_length_a   7.29102600
_cell_length_b   7.29102623
_cell_length_c   3.46751500
_cell_angle_alpha   90.00000000
_cell_angle_beta   90.00000000
_cell_angle_gamma   119.99999896
_symmetry_Int_Tables_number   1
_chemical_formula_structural   Sc3CoNi2Sn3
_chemical_formula_sum   'Sc3 Co1 Ni2 Sn3'
_cell_volume   159.63432941
_cell_formula_units_Z   1
loop_
 _symmetry_equiv_pos_site_id
 _symmetry_equiv_pos_as_xyz
  1  'x, y, z'
loop_
 _atom_site_type_symbol
 _atom_site_label
 _atom_site_symmetry_multiplicity
 _atom_site_fract_x
 _atom_site_fract_y
 _atom_site_fract_z
 _atom_site_occupancy
  Sc  Sc0  1  0.604465  0.000000  0.000000  1
  Sc  Sc1  1  0.000000  0.604465  0.000000  1
  Sc  Sc2  1  0.395535  0.395535  0.000000  1
  Co  Co3  1  0.000000  0.000000  0.000000  1
  Ni  Ni4  1  0.333333  0.666667  0.500000  1
  Ni  Ni5  1  0.666667  0.333333  0.500000  1
  Sn  Sn6  1  0.270443  0.000000  0.500000  1
  Sn  Sn7  1  0.000000  0.270443  0.500000  1
  Sn  Sn8  1  0.729557  0.729557  0.500000  1
