# generated using pymatgen
data_CePr2Mg3Ir2Au
_symmetry_space_group_name_H-M   'P 1'
_cell_length_a   7.77362600
_cell_length_b   7.53162322
_cell_length_c   4.08013000
_cell_angle_alpha   90.00000000
_cell_angle_beta   90.00000000
_cell_angle_gamma   121.06871973
_symmetry_Int_Tables_number   1
_chemical_formula_structural   CePr2Mg3Ir2Au
_chemical_formula_sum   'Ce1 Pr2 Mg3 Ir2 Au1'
_cell_volume   204.61544776
_cell_formula_units_Z   1
loop_
 _symmetry_equiv_pos_site_id
 _symmetry_equiv_pos_as_xyz
  1  'x, y, z'
loop_
 _atom_site_type_symbol
 _atom_site_label
 _atom_site_symmetry_multiplicity
 _atom_site_fract_x
 _atom_site_fract_y
 _atom_site_fract_z
 _atom_site_occupancy
  Ce  Ce0  1  0.569821  0.000000  0.000000  1
  Pr  Pr1  1  0.998766  0.580219  0.000000  1
  Pr  Pr2  1  0.418547  0.419781  0.000000  1
  Mg  Mg3  1  0.997839  0.248624  0.500000  1
  Mg  Mg4  1  0.245226  0.000000  0.500000  1
  Mg  Mg5  1  0.749215  0.751376  0.500000  1
  Ir  Ir6  1  0.356634  0.690572  0.500000  1
  Ir  Ir7  1  0.666064  0.309428  0.500000  1
  Au  Au8  1  0.997888  0.000000  0.000000  1
