# generated using pymatgen
data_GdHoCSe
_symmetry_space_group_name_H-M   'P 1'
_cell_length_a   6.95941178
_cell_length_b   6.95941114
_cell_length_c   6.95941178
_cell_angle_alpha   31.47191774
_cell_angle_beta   31.47192418
_cell_angle_gamma   31.47192359
_symmetry_Int_Tables_number   1
_chemical_formula_structural   GdHoCSe
_chemical_formula_sum   'Gd1 Ho1 C1 Se1'
_cell_volume   81.56219884
_cell_formula_units_Z   1
loop_
 _symmetry_equiv_pos_site_id
 _symmetry_equiv_pos_as_xyz
  1  'x, y, z'
loop_
 _atom_site_type_symbol
 _atom_site_label
 _atom_site_symmetry_multiplicity
 _atom_site_fract_x
 _atom_site_fract_y
 _atom_site_fract_z
 _atom_site_occupancy
  Gd  Gd0  1  0.234104  0.234104  0.234104  1
  Ho  Ho1  1  0.765314  0.765314  0.765314  1
  C  C2  1  0.498899  0.498899  0.498899  1
  Se  Se3  1  0.001683  0.001683  0.001683  1
