# generated using pymatgen
data_Lu5In(Ni7B2)2
_symmetry_space_group_name_H-M   'P 1'
_cell_length_a   4.95985750
_cell_length_b   4.95477409
_cell_length_c   14.28095001
_cell_angle_alpha   90.00315761
_cell_angle_beta   89.99669582
_cell_angle_gamma   119.94494805
_symmetry_Int_Tables_number   1
_chemical_formula_structural   Lu5In(Ni7B2)2
_chemical_formula_sum   'Lu5 In1 Ni14 B4'
_cell_volume   304.10351484
_cell_formula_units_Z   1
loop_
 _symmetry_equiv_pos_site_id
 _symmetry_equiv_pos_as_xyz
  1  'x, y, z'
loop_
 _atom_site_type_symbol
 _atom_site_label
 _atom_site_symmetry_multiplicity
 _atom_site_fract_x
 _atom_site_fract_y
 _atom_site_fract_z
 _atom_site_occupancy
  Lu  Lu0  1  0.666594  0.333292  0.034748  1
  Lu  Lu1  1  0.666513  0.333316  0.470879  1
  Lu  Lu2  1  0.333499  0.666684  0.963840  1
  Lu  Lu3  1  0.333348  0.666642  0.744626  1
  Lu  Lu4  1  0.666662  0.333352  0.251731  1
  In  In5  1  0.333460  0.666734  0.532022  1
  Ni  Ni6  1  0.999933  0.000001  0.000276  1
  Ni  Ni7  1  0.999881  0.000040  0.500136  1
  Ni  Ni8  1  0.165891  0.331641  0.147022  1
  Ni  Ni9  1  0.834070  0.668037  0.647413  1
  Ni  Ni10  1  0.668383  0.834030  0.146912  1
  Ni  Ni11  1  0.165950  0.834189  0.147000  1
  Ni  Ni12  1  0.834020  0.165997  0.647449  1
  Ni  Ni13  1  0.332058  0.166096  0.647172  1
  Ni  Ni14  1  0.833809  0.667434  0.852687  1
  Ni  Ni15  1  0.833832  0.166188  0.852679  1
  Ni  Ni16  1  0.332667  0.166132  0.852807  1
  Ni  Ni17  1  0.667740  0.834111  0.352931  1
  Ni  Ni18  1  0.165840  0.833989  0.352838  1
  Ni  Ni19  1  0.165889  0.332098  0.352766  1
  B  B20  1  0.333323  0.666784  0.249915  1
  B  B21  1  0.666527  0.333227  0.749897  1
  B  B22  1  0.999828  0.999881  0.251717  1
  B  B23  1  0.000285  0.000103  0.750534  1
