# generated using pymatgen
data_Cs2KCu3F12
_symmetry_space_group_name_H-M   'P 1'
_cell_length_a   7.85658557
_cell_length_b   7.85658451
_cell_length_c   12.42089113
_cell_angle_alpha   73.77328960
_cell_angle_beta   73.77329178
_cell_angle_gamma   59.92685832
_symmetry_Int_Tables_number   1
_chemical_formula_structural   Cs2KCu3F12
_chemical_formula_sum   'Cs4 K2 Cu6 F24'
_cell_volume   628.02256792
_cell_formula_units_Z   2
loop_
 _symmetry_equiv_pos_site_id
 _symmetry_equiv_pos_as_xyz
  1  'x, y, z'
loop_
 _atom_site_type_symbol
 _atom_site_label
 _atom_site_symmetry_multiplicity
 _atom_site_fract_x
 _atom_site_fract_y
 _atom_site_fract_z
 _atom_site_occupancy
  Cs  Cs0  1  0.902720  0.477502  0.675173  1
  Cs  Cs1  1  0.097280  0.522498  0.324827  1
  Cs  Cs2  1  0.522498  0.097280  0.824827  1
  Cs  Cs3  1  0.477502  0.902720  0.175173  1
  K  K4  1  0.227738  0.772262  0.750000  1
  K  K5  1  0.772262  0.227738  0.250000  1
  Cu  Cu6  1  0.500000  0.000000  0.500000  1
  Cu  Cu7  1  0.000000  0.500000  0.000000  1
  Cu  Cu8  1  0.000000  0.000000  0.500000  1
  Cu  Cu9  1  0.000000  0.000000  0.000000  1
  Cu  Cu10  1  0.500000  0.500000  0.500000  1
  Cu  Cu11  1  0.500000  0.500000  0.000000  1
  F  F12  1  0.898140  0.955188  0.647680  1
  F  F13  1  0.511199  0.894033  0.648203  1
  F  F14  1  0.244429  0.404075  0.032647  1
  F  F15  1  0.658423  0.234620  0.032055  1
  F  F16  1  0.894033  0.511199  0.148203  1
  F  F17  1  0.105967  0.488801  0.851797  1
  F  F18  1  0.488801  0.105967  0.351797  1
  F  F19  1  0.765380  0.341577  0.467945  1
  F  F20  1  0.101860  0.044812  0.352320  1
  F  F21  1  0.595925  0.755571  0.467353  1
  F  F22  1  0.451492  0.516181  0.147585  1
  F  F23  1  0.404075  0.244429  0.532647  1
  F  F24  1  0.516181  0.451492  0.647585  1
  F  F25  1  0.846060  0.924087  0.461004  1
  F  F26  1  0.153940  0.075913  0.538996  1
  F  F27  1  0.548508  0.483819  0.852415  1
  F  F28  1  0.924087  0.846060  0.961004  1
  F  F29  1  0.483819  0.548508  0.352415  1
  F  F30  1  0.755571  0.595925  0.967353  1
  F  F31  1  0.955188  0.898140  0.147680  1
  F  F32  1  0.075913  0.153940  0.038996  1
  F  F33  1  0.341577  0.765380  0.967945  1
  F  F34  1  0.044812  0.101860  0.852320  1
  F  F35  1  0.234620  0.658423  0.532055  1
