# generated using pymatgen
data_KAl(CO3)2
_symmetry_space_group_name_H-M   'P 1'
_cell_length_a   6.30842289
_cell_length_b   6.30842300
_cell_length_c   6.30842246
_cell_angle_alpha   45.60732346
_cell_angle_beta   45.60732307
_cell_angle_gamma   45.60731932
_symmetry_Int_Tables_number   1
_chemical_formula_structural   KAl(CO3)2
_chemical_formula_sum   'K1 Al1 C2 O6'
_cell_volume   116.82368469
_cell_formula_units_Z   1
loop_
 _symmetry_equiv_pos_site_id
 _symmetry_equiv_pos_as_xyz
  1  'x, y, z'
loop_
 _atom_site_type_symbol
 _atom_site_label
 _atom_site_symmetry_multiplicity
 _atom_site_fract_x
 _atom_site_fract_y
 _atom_site_fract_z
 _atom_site_occupancy
  K  K0  1  0.000000  0.000000  0.000000  1
  Al  Al1  1  0.500000  0.500000  0.500000  1
  C  C2  1  0.230934  0.230934  0.230934  1
  C  C3  1  0.769066  0.769066  0.769066  1
  O  O4  1  0.613489  0.613489  0.071320  1
  O  O5  1  0.928680  0.386511  0.386511  1
  O  O6  1  0.386511  0.928680  0.386511  1
  O  O7  1  0.613489  0.071320  0.613489  1
  O  O8  1  0.071320  0.613489  0.613489  1
  O  O9  1  0.386511  0.386511  0.928680  1
