# generated using pymatgen
data_Yb2ScSbO6
_symmetry_space_group_name_H-M   'P 1'
_cell_length_a   5.66980500
_cell_length_b   5.49333543
_cell_length_c   9.60007827
_cell_angle_alpha   55.09693926
_cell_angle_beta   89.99943051
_cell_angle_gamma   89.99977284
_symmetry_Int_Tables_number   1
_chemical_formula_structural   Yb2ScSbO6
_chemical_formula_sum   'Yb4 Sc2 Sb2 O12'
_cell_volume   245.22069104
_cell_formula_units_Z   2
loop_
 _symmetry_equiv_pos_site_id
 _symmetry_equiv_pos_as_xyz
  1  'x, y, z'
loop_
 _atom_site_type_symbol
 _atom_site_label
 _atom_site_symmetry_multiplicity
 _atom_site_fract_x
 _atom_site_fract_y
 _atom_site_fract_z
 _atom_site_occupancy
  Yb  Yb0  1  0.553157  0.765133  0.750378  1
  Yb  Yb1  1  0.946841  0.765136  0.250377  1
  Yb  Yb2  1  0.446843  0.234867  0.249622  1
  Yb  Yb3  1  0.053159  0.234864  0.749623  1
  Sc  Sc4  1  0.500000  0.500000  0.500000  1
  Sc  Sc5  1  0.000000  0.500000  0.000000  1
  Sb  Sb6  1  0.000000  0.000000  0.500000  1
  Sb  Sb7  1  0.500000  0.000000  0.000000  1
  O  O8  1  0.802614  0.239397  0.553369  1
  O  O9  1  0.697382  0.239395  0.053370  1
  O  O10  1  0.197386  0.760603  0.446631  1
  O  O11  1  0.302618  0.760605  0.946630  1
  O  O12  1  0.790896  0.862655  0.943761  1
  O  O13  1  0.709105  0.862661  0.443760  1
  O  O14  1  0.209104  0.137345  0.056239  1
  O  O15  1  0.290895  0.137339  0.556240  1
  O  O16  1  0.963130  0.653175  0.743259  1
  O  O17  1  0.536872  0.653170  0.243260  1
  O  O18  1  0.036870  0.346825  0.256741  1
  O  O19  1  0.463128  0.346830  0.756740  1
