# generated using pymatgen
data_La4TbDy5Ir4
_symmetry_space_group_name_H-M   'P 1'
_cell_length_a   6.59274679
_cell_length_b   7.24529408
_cell_length_c   8.86249094
_cell_angle_alpha   96.87333687
_cell_angle_beta   111.66874572
_cell_angle_gamma   90.05685100
_symmetry_Int_Tables_number   1
_chemical_formula_structural   La4TbDy5Ir4
_chemical_formula_sum   'La4 Tb1 Dy5 Ir4'
_cell_volume   390.11827558
_cell_formula_units_Z   1
loop_
 _symmetry_equiv_pos_site_id
 _symmetry_equiv_pos_as_xyz
  1  'x, y, z'
loop_
 _atom_site_type_symbol
 _atom_site_label
 _atom_site_symmetry_multiplicity
 _atom_site_fract_x
 _atom_site_fract_y
 _atom_site_fract_z
 _atom_site_occupancy
  La  La0  1  0.784528  0.082301  0.807033  1
  La  La1  1  0.977687  0.417439  0.192776  1
  La  La2  1  0.215481  0.917494  0.192844  1
  La  La3  1  0.022136  0.582733  0.807200  1
  Tb  Tb4  1  0.208414  0.183288  0.565573  1
  Dy  Dy5  1  0.641483  0.316169  0.432925  1
  Dy  Dy6  1  0.791270  0.816670  0.434020  1
  Dy  Dy7  1  0.358515  0.683916  0.566999  1
  Dy  Dy8  1  0.430233  0.250633  0.000249  1
  Dy  Dy9  1  0.569984  0.749364  0.999973  1
  Ir  Ir10  1  0.590135  0.424365  0.773905  1
  Ir  Ir11  1  0.815904  0.076133  0.226567  1
  Ir  Ir12  1  0.410478  0.576007  0.226567  1
  Ir  Ir13  1  0.183750  0.923488  0.773369  1
