# generated using pymatgen
data_Tb8Er8MgAg3Rh4
_symmetry_space_group_name_H-M   'P 1'
_cell_length_a   9.54596656
_cell_length_b   9.56261703
_cell_length_c   9.56846800
_cell_angle_alpha   59.97975781
_cell_angle_beta   59.92199484
_cell_angle_gamma   60.01652298
_symmetry_Int_Tables_number   1
_chemical_formula_structural   Tb8Er8MgAg3Rh4
_chemical_formula_sum   'Tb8 Er8 Mg1 Ag3 Rh4'
_cell_volume   617.24150064
_cell_formula_units_Z   1
loop_
 _symmetry_equiv_pos_site_id
 _symmetry_equiv_pos_as_xyz
  1  'x, y, z'
loop_
 _atom_site_type_symbol
 _atom_site_label
 _atom_site_symmetry_multiplicity
 _atom_site_fract_x
 _atom_site_fract_y
 _atom_site_fract_z
 _atom_site_occupancy
  Tb  Tb0  1  0.185416  0.186504  0.814040  1
  Tb  Tb1  1  0.811844  0.812775  0.187690  1
  Tb  Tb2  1  0.934372  0.563964  0.564007  1
  Tb  Tb3  1  0.563170  0.936365  0.936329  1
  Tb  Tb4  1  0.563170  0.936365  0.564137  1
  Tb  Tb5  1  0.934372  0.563964  0.937658  1
  Tb  Tb6  1  0.563009  0.563939  0.936526  1
  Tb  Tb7  1  0.934642  0.937582  0.563888  1
  Er  Er8  1  0.351235  0.349364  0.348791  1
  Er  Er9  1  0.351235  0.349364  0.950608  1
  Er  Er10  1  0.350647  0.950630  0.349361  1
  Er  Er11  1  0.937309  0.353792  0.354449  1
  Er  Er12  1  0.811552  0.188004  0.187953  1
  Er  Er13  1  0.185707  0.813730  0.813752  1
  Er  Er14  1  0.185707  0.813730  0.186810  1
  Er  Er15  1  0.811552  0.188004  0.812490  1
  Mg  Mg16  1  0.285052  0.571931  0.571509  1
  Ag  Ag17  1  0.582064  0.583844  0.584097  1
  Ag  Ag18  1  0.582064  0.583844  0.249998  1
  Ag  Ag19  1  0.582244  0.250025  0.583866  1
  Rh  Rh20  1  0.140875  0.144596  0.145222  1
  Rh  Rh21  1  0.140875  0.144596  0.569304  1
  Rh  Rh22  1  0.141623  0.569182  0.144597  1
  Rh  Rh23  1  0.570261  0.143903  0.142918  1
