# generated using pymatgen
data_Sc6Ti7Al9Ir8
_symmetry_space_group_name_H-M   'P 1'
_cell_length_a   8.88846641
_cell_length_b   8.88846531
_cell_length_c   8.88846654
_cell_angle_alpha   59.95207855
_cell_angle_beta   59.95207877
_cell_angle_gamma   59.95208903
_symmetry_Int_Tables_number   1
_chemical_formula_structural   Sc6Ti7Al9Ir8
_chemical_formula_sum   'Sc6 Ti7 Al9 Ir8'
_cell_volume   496.01320315
_cell_formula_units_Z   1
loop_
 _symmetry_equiv_pos_site_id
 _symmetry_equiv_pos_as_xyz
  1  'x, y, z'
loop_
 _atom_site_type_symbol
 _atom_site_label
 _atom_site_symmetry_multiplicity
 _atom_site_fract_x
 _atom_site_fract_y
 _atom_site_fract_z
 _atom_site_occupancy
  Sc  Sc0  1  0.212953  0.212953  0.787858  1
  Sc  Sc1  1  0.787858  0.212953  0.212953  1
  Sc  Sc2  1  0.212953  0.787858  0.212953  1
  Sc  Sc3  1  0.795850  0.795850  0.192710  1
  Sc  Sc4  1  0.192710  0.795850  0.795850  1
  Sc  Sc5  1  0.795850  0.192710  0.795850  1
  Ti  Ti6  1  0.378797  0.378797  0.378797  1
  Ti  Ti7  1  0.380944  0.863452  0.380944  1
  Ti  Ti8  1  0.863452  0.380944  0.380944  1
  Ti  Ti9  1  0.380944  0.380944  0.863452  1
  Ti  Ti10  1  0.837514  0.487058  0.837514  1
  Ti  Ti11  1  0.487058  0.837514  0.837514  1
  Ti  Ti12  1  0.837514  0.837514  0.487058  1
  Al  Al13  1  0.162256  0.162256  0.162256  1
  Al  Al14  1  0.163410  0.511714  0.163410  1
  Al  Al15  1  0.511714  0.163410  0.163410  1
  Al  Al16  1  0.163410  0.163410  0.511714  1
  Al  Al17  1  0.618982  0.618982  0.618982  1
  Al  Al18  1  0.618988  0.144224  0.618988  1
  Al  Al19  1  0.144224  0.618988  0.618988  1
  Al  Al20  1  0.618988  0.618988  0.144224  1
  Al  Al21  1  0.825117  0.825117  0.825117  1
  Ir  Ir22  1  0.001432  0.001432  0.497784  1
  Ir  Ir23  1  0.497784  0.001432  0.001432  1
  Ir  Ir24  1  0.001432  0.497784  0.001432  1
  Ir  Ir25  1  0.500906  0.500906  0.001072  1
  Ir  Ir26  1  0.001072  0.500906  0.500906  1
  Ir  Ir27  1  0.500906  0.001072  0.500906  1
  Ir  Ir28  1  0.500358  0.500358  0.500358  1
  Ir  Ir29  1  0.004623  0.004623  0.004623  1
