# generated using pymatgen
data_Ca8DyHo(Sn3H)2
_symmetry_space_group_name_H-M   'P 1'
_cell_length_a   9.41489123
_cell_length_b   9.43069118
_cell_length_c   9.42705290
_cell_angle_alpha   129.05438758
_cell_angle_beta   129.09169180
_cell_angle_gamma   74.80564538
_symmetry_Int_Tables_number   1
_chemical_formula_structural   Ca8DyHo(Sn3H)2
_chemical_formula_sum   'Ca8 Dy1 Ho1 Sn6 H2'
_cell_volume   491.62192501
_cell_formula_units_Z   1
loop_
 _symmetry_equiv_pos_site_id
 _symmetry_equiv_pos_as_xyz
  1  'x, y, z'
loop_
 _atom_site_type_symbol
 _atom_site_label
 _atom_site_symmetry_multiplicity
 _atom_site_fract_x
 _atom_site_fract_y
 _atom_site_fract_z
 _atom_site_occupancy
  Ca  Ca0  1  0.498307  0.501587  0.000792  1
  Ca  Ca1  1  0.185844  0.684637  0.173870  1
  Ca  Ca2  1  0.009015  0.187073  0.500650  1
  Ca  Ca3  1  0.684968  0.507294  0.497336  1
  Ca  Ca4  1  0.490638  0.989578  0.178438  1
  Ca  Ca5  1  0.811916  0.312617  0.822083  1
  Ca  Ca6  1  0.988518  0.812403  0.498409  1
  Ca  Ca7  1  0.312644  0.489222  0.499851  1
  Dy  Dy8  1  0.514905  0.013959  0.825644  1
  Ho  Ho9  1  0.002517  0.997946  0.000396  1
  Sn  Sn10  1  0.251378  0.240474  0.995058  1
  Sn  Sn11  1  0.747685  0.760208  0.994820  1
  Sn  Sn12  1  0.870834  0.362896  0.234869  1
  Sn  Sn13  1  0.121895  0.630848  0.754562  1
  Sn  Sn14  1  0.365802  0.124265  0.496785  1
  Sn  Sn15  1  0.632291  0.873840  0.511617  1
  H  H16  1  0.260830  0.760968  0.512435  1
  H  H17  1  0.750013  0.250186  0.502382  1
