# generated using pymatgen
data_LaEu3MnW3O14
_symmetry_space_group_name_H-M   'P 1'
_cell_length_a   7.60247339
_cell_length_b   7.44995478
_cell_length_c   7.58117800
_cell_angle_alpha   59.41561296
_cell_angle_beta   60.09262561
_cell_angle_gamma   59.42180093
_symmetry_Int_Tables_number   1
_chemical_formula_structural   LaEu3MnW3O14
_chemical_formula_sum   'La1 Eu3 Mn1 W3 O14'
_cell_volume   301.13110989
_cell_formula_units_Z   1
loop_
 _symmetry_equiv_pos_site_id
 _symmetry_equiv_pos_as_xyz
  1  'x, y, z'
loop_
 _atom_site_type_symbol
 _atom_site_label
 _atom_site_symmetry_multiplicity
 _atom_site_fract_x
 _atom_site_fract_y
 _atom_site_fract_z
 _atom_site_occupancy
  La  La0  1  0.625000  0.125000  0.125000  1
  Eu  Eu1  1  0.125000  0.625000  0.125000  1
  Eu  Eu2  1  0.125000  0.125000  0.625000  1
  Eu  Eu3  1  0.125000  0.125000  0.125000  1
  Mn  Mn4  1  0.625000  0.125000  0.625000  1
  W  W5  1  0.625000  0.625000  0.625000  1
  W  W6  1  0.125000  0.625000  0.625000  1
  W  W7  1  0.625000  0.625000  0.125000  1
  O  O8  1  0.301664  0.686761  0.711074  1
  O  O9  1  0.541054  0.943733  0.973340  1
  O  O10  1  0.711161  0.689008  0.299916  1
  O  O11  1  0.277921  0.306800  0.707639  1
  O  O12  1  0.002014  0.001972  0.998008  1
  O  O13  1  0.301664  0.686761  0.300502  1
  O  O14  1  0.708946  0.306267  0.708126  1
  O  O15  1  0.948336  0.563239  0.949498  1
  O  O16  1  0.538839  0.560992  0.950084  1
  O  O17  1  0.972079  0.943200  0.542361  1
  O  O18  1  0.247986  0.248028  0.251992  1
  O  O19  1  0.541054  0.943733  0.541874  1
  O  O20  1  0.708946  0.306267  0.276660  1
  O  O21  1  0.948336  0.563239  0.538926  1
