# generated using pymatgen
data_Y6Ho4Si6O
_symmetry_space_group_name_H-M   'P 1'
_cell_length_a   8.40819700
_cell_length_b   8.40819658
_cell_length_c   6.28805500
_cell_angle_alpha   90.00000000
_cell_angle_beta   90.00000000
_cell_angle_gamma   119.99999774
_symmetry_Int_Tables_number   1
_chemical_formula_structural   Y6Ho4Si6O
_chemical_formula_sum   'Y6 Ho4 Si6 O1'
_cell_volume   384.99288926
_cell_formula_units_Z   1
loop_
 _symmetry_equiv_pos_site_id
 _symmetry_equiv_pos_as_xyz
  1  'x, y, z'
loop_
 _atom_site_type_symbol
 _atom_site_label
 _atom_site_symmetry_multiplicity
 _atom_site_fract_x
 _atom_site_fract_y
 _atom_site_fract_z
 _atom_site_occupancy
  Y  Y0  1  0.000000  0.763372  0.259608  1
  Y  Y1  1  0.236628  0.236628  0.259608  1
  Y  Y2  1  0.763372  0.000000  0.259608  1
  Y  Y3  1  0.000000  0.236628  0.740392  1
  Y  Y4  1  0.763372  0.763372  0.740392  1
  Y  Y5  1  0.236628  0.000000  0.740392  1
  Ho  Ho6  1  0.333333  0.666667  0.500000  1
  Ho  Ho7  1  0.666667  0.333333  0.500000  1
  Ho  Ho8  1  0.666667  0.333333  0.000000  1
  Ho  Ho9  1  0.333333  0.666667  0.000000  1
  Si  Si10  1  0.000000  0.397197  0.249734  1
  Si  Si11  1  0.602803  0.602803  0.249734  1
  Si  Si12  1  0.397197  0.000000  0.249734  1
  Si  Si13  1  0.000000  0.602803  0.750266  1
  Si  Si14  1  0.397197  0.397197  0.750266  1
  Si  Si15  1  0.602803  0.000000  0.750266  1
  O  O16  1  0.000000  0.000000  0.500000  1
