# generated using pymatgen
data_Sc4Mn7Fe13P12
_symmetry_space_group_name_H-M   'P 1'
_cell_length_a   3.56940200
_cell_length_b   10.10563124
_cell_length_c   11.97422788
_cell_angle_alpha   90.10860057
_cell_angle_beta   90.00000000
_cell_angle_gamma   90.00000000
_symmetry_Int_Tables_number   1
_chemical_formula_structural   Sc4Mn7Fe13P12
_chemical_formula_sum   'Sc4 Mn7 Fe13 P12'
_cell_volume   431.92232053
_cell_formula_units_Z   1
loop_
 _symmetry_equiv_pos_site_id
 _symmetry_equiv_pos_as_xyz
  1  'x, y, z'
loop_
 _atom_site_type_symbol
 _atom_site_label
 _atom_site_symmetry_multiplicity
 _atom_site_fract_x
 _atom_site_fract_y
 _atom_site_fract_z
 _atom_site_occupancy
  Sc  Sc0  1  0.250000  0.578382  0.711476  1
  Sc  Sc1  1  0.250000  0.920210  0.211816  1
  Sc  Sc2  1  0.750000  0.420914  0.288415  1
  Sc  Sc3  1  0.750000  0.079637  0.788268  1
  Mn  Mn4  1  0.250000  0.707211  0.991813  1
  Mn  Mn5  1  0.250000  0.793131  0.491334  1
  Mn  Mn6  1  0.750000  0.291529  0.007310  1
  Mn  Mn7  1  0.750000  0.207346  0.507937  1
  Mn  Mn8  1  0.250000  0.408844  0.489537  1
  Mn  Mn9  1  0.250000  0.091837  0.990446  1
  Mn  Mn10  1  0.750000  0.591290  0.510182  1
  Fe  Fe11  1  0.750000  0.910241  0.011895  1
  Fe  Fe12  1  0.250000  0.219860  0.172575  1
  Fe  Fe13  1  0.250000  0.279176  0.672951  1
  Fe  Fe14  1  0.750000  0.778591  0.827364  1
  Fe  Fe15  1  0.750000  0.721395  0.326293  1
  Fe  Fe16  1  0.250000  0.877305  0.697002  1
  Fe  Fe17  1  0.250000  0.623487  0.195877  1
  Fe  Fe18  1  0.750000  0.122864  0.303244  1
  Fe  Fe19  1  0.750000  0.377302  0.803091  1
  Fe  Fe20  1  0.250000  0.462087  0.935526  1
  Fe  Fe21  1  0.250000  0.037946  0.435395  1
  Fe  Fe22  1  0.750000  0.537676  0.064960  1
  Fe  Fe23  1  0.750000  0.962059  0.565147  1
  P  P24  1  0.250000  0.422509  0.116017  1
  P  P25  1  0.250000  0.077211  0.615789  1
  P  P26  1  0.750000  0.576599  0.884223  1
  P  P27  1  0.750000  0.923220  0.384200  1
  P  P28  1  0.250000  0.263811  0.860088  1
  P  P29  1  0.250000  0.236703  0.360801  1
  P  P30  1  0.750000  0.737672  0.138619  1
  P  P31  1  0.750000  0.762933  0.639622  1
  P  P32  1  0.250000  0.599246  0.379480  1
  P  P33  1  0.250000  0.900459  0.880962  1
  P  P34  1  0.750000  0.400819  0.619831  1
  P  P35  1  0.750000  0.098494  0.120517  1
