# generated using pymatgen
data_Th2In2BRh6
_symmetry_space_group_name_H-M   'P 1'
_cell_length_a   5.87187500
_cell_length_b   5.87187396
_cell_length_c   13.88441400
_cell_angle_alpha   90.00000000
_cell_angle_beta   90.00000000
_cell_angle_gamma   120.00000025
_symmetry_Int_Tables_number   1
_chemical_formula_structural   Th2In2BRh6
_chemical_formula_sum   'Th4 In4 B2 Rh12'
_cell_volume   414.58321176
_cell_formula_units_Z   2
loop_
 _symmetry_equiv_pos_site_id
 _symmetry_equiv_pos_as_xyz
  1  'x, y, z'
loop_
 _atom_site_type_symbol
 _atom_site_label
 _atom_site_symmetry_multiplicity
 _atom_site_fract_x
 _atom_site_fract_y
 _atom_site_fract_z
 _atom_site_occupancy
  Th  Th0  1  0.333333  0.666667  0.410922  1
  Th  Th1  1  0.666667  0.333333  0.910922  1
  Th  Th2  1  0.666667  0.333333  0.589078  1
  Th  Th3  1  0.333333  0.666667  0.089078  1
  In  In4  1  0.000000  0.000000  0.750000  1
  In  In5  1  0.000000  0.000000  0.250000  1
  In  In6  1  0.333333  0.666667  0.750000  1
  In  In7  1  0.666667  0.333333  0.250000  1
  B  B8  1  0.000000  0.000000  0.500000  1
  B  B9  1  0.000000  0.000000  0.000000  1
  Rh  Rh10  1  0.338463  0.169232  0.411327  1
  Rh  Rh11  1  0.830768  0.169232  0.411327  1
  Rh  Rh12  1  0.830768  0.661537  0.411327  1
  Rh  Rh13  1  0.169232  0.338463  0.911327  1
  Rh  Rh14  1  0.661537  0.830768  0.588673  1
  Rh  Rh15  1  0.661537  0.830768  0.911327  1
  Rh  Rh16  1  0.338463  0.169232  0.088673  1
  Rh  Rh17  1  0.169232  0.338463  0.588673  1
  Rh  Rh18  1  0.169232  0.830768  0.588673  1
  Rh  Rh19  1  0.830768  0.169232  0.088673  1
  Rh  Rh20  1  0.830768  0.661537  0.088673  1
  Rh  Rh21  1  0.169232  0.830768  0.911327  1
