# generated using pymatgen
data_TmLu3(B4Ir)4
_symmetry_space_group_name_H-M   'P 1'
_cell_length_a   3.54431700
_cell_length_b   5.93173408
_cell_length_c   11.50956715
_cell_angle_alpha   89.98155105
_cell_angle_beta   90.00000000
_cell_angle_gamma   90.00000000
_symmetry_Int_Tables_number   1
_chemical_formula_structural   TmLu3(B4Ir)4
_chemical_formula_sum   'Tm1 Lu3 B16 Ir4'
_cell_volume   241.97650486
_cell_formula_units_Z   1
loop_
 _symmetry_equiv_pos_site_id
 _symmetry_equiv_pos_as_xyz
  1  'x, y, z'
loop_
 _atom_site_type_symbol
 _atom_site_label
 _atom_site_symmetry_multiplicity
 _atom_site_fract_x
 _atom_site_fract_y
 _atom_site_fract_z
 _atom_site_occupancy
  Tm  Tm0  1  0.000000  0.632141  0.351482  1
  Lu  Lu1  1  0.000000  0.367893  0.648537  1
  Lu  Lu2  1  0.000000  0.132099  0.148513  1
  Lu  Lu3  1  0.000000  0.867884  0.851481  1
  B  B4  1  0.500000  0.793352  0.188172  1
  B  B5  1  0.500000  0.206686  0.811700  1
  B  B6  1  0.500000  0.292966  0.311694  1
  B  B7  1  0.500000  0.706680  0.688312  1
  B  B8  1  0.500000  0.864729  0.029363  1
  B  B9  1  0.500000  0.135277  0.970630  1
  B  B10  1  0.500000  0.364487  0.470692  1
  B  B11  1  0.500000  0.635353  0.529540  1
  B  B12  1  0.500000  0.887256  0.452863  1
  B  B13  1  0.500000  0.113198  0.547337  1
  B  B14  1  0.500000  0.386795  0.047310  1
  B  B15  1  0.500000  0.613191  0.952685  1
  B  B16  1  0.500000  0.976809  0.306423  1
  B  B17  1  0.500000  0.023455  0.693574  1
  B  B18  1  0.500000  0.476454  0.193393  1
  B  B19  1  0.500000  0.523463  0.806419  1
  Ir  Ir20  1  0.000000  0.645107  0.097182  1
  Ir  Ir21  1  0.000000  0.354899  0.902526  1
  Ir  Ir22  1  0.000000  0.144829  0.402602  1
  Ir  Ir23  1  0.000000  0.854995  0.597570  1
