# generated using pymatgen
data_Ac4Ru6O19
_symmetry_space_group_name_H-M   'P 1'
_cell_length_a   7.98208509
_cell_length_b   7.98208493
_cell_length_c   7.98208500
_cell_angle_alpha   109.47122081
_cell_angle_beta   109.47122042
_cell_angle_gamma   109.47122125
_symmetry_Int_Tables_number   1
_chemical_formula_structural   Ac4Ru6O19
_chemical_formula_sum   'Ac4 Ru6 O19'
_cell_volume   391.49584008
_cell_formula_units_Z   1
loop_
 _symmetry_equiv_pos_site_id
 _symmetry_equiv_pos_as_xyz
  1  'x, y, z'
loop_
 _atom_site_type_symbol
 _atom_site_label
 _atom_site_symmetry_multiplicity
 _atom_site_fract_x
 _atom_site_fract_y
 _atom_site_fract_z
 _atom_site_occupancy
  Ac  Ac0  1  0.000000  0.000000  0.326093  1
  Ac  Ac1  1  0.000000  0.326093  0.000000  1
  Ac  Ac2  1  0.673907  0.673907  0.673907  1
  Ac  Ac3  1  0.326093  0.000000  0.000000  1
  Ru  Ru4  1  0.362570  0.500000  0.862570  1
  Ru  Ru5  1  0.862570  0.362570  0.500000  1
  Ru  Ru6  1  0.500000  0.137430  0.637430  1
  Ru  Ru7  1  0.137430  0.637430  0.500000  1
  Ru  Ru8  1  0.500000  0.862570  0.362570  1
  Ru  Ru9  1  0.637430  0.500000  0.137430  1
  O  O10  1  0.330492  0.000000  0.330492  1
  O  O11  1  0.330492  0.330492  0.000000  1
  O  O12  1  0.000000  0.669508  0.669508  1
  O  O13  1  0.669508  0.669508  0.000000  1
  O  O14  1  0.000000  0.330492  0.330492  1
  O  O15  1  0.669508  0.000000  0.669508  1
  O  O16  1  0.000000  0.000000  0.000000  1
  O  O17  1  0.363699  0.302545  0.632630  1
  O  O18  1  0.061155  0.330085  0.697455  1
  O  O19  1  0.731069  0.367370  0.669915  1
  O  O20  1  0.367370  0.669915  0.731069  1
  O  O21  1  0.268931  0.938845  0.636301  1
  O  O22  1  0.632630  0.363699  0.302545  1
  O  O23  1  0.302545  0.632630  0.363699  1
  O  O24  1  0.697455  0.061155  0.330085  1
  O  O25  1  0.938845  0.636301  0.268931  1
  O  O26  1  0.669915  0.731069  0.367370  1
  O  O27  1  0.636301  0.268931  0.938845  1
  O  O28  1  0.330085  0.697455  0.061155  1
