# generated using pymatgen
data_SrY6NiBr12
_symmetry_space_group_name_H-M   'P 1'
_cell_length_a   9.18974178
_cell_length_b   9.18974021
_cell_length_c   9.18974013
_cell_angle_alpha   105.84462331
_cell_angle_beta   105.84462994
_cell_angle_gamma   105.84461837
_symmetry_Int_Tables_number   1
_chemical_formula_structural   SrY6NiBr12
_chemical_formula_sum   'Sr1 Y6 Ni1 Br12'
_cell_volume   665.65301280
_cell_formula_units_Z   1
loop_
 _symmetry_equiv_pos_site_id
 _symmetry_equiv_pos_as_xyz
  1  'x, y, z'
loop_
 _atom_site_type_symbol
 _atom_site_label
 _atom_site_symmetry_multiplicity
 _atom_site_fract_x
 _atom_site_fract_y
 _atom_site_fract_z
 _atom_site_occupancy
  Sr  Sr0  1  0.500000  0.500000  0.500000  1
  Y  Y1  1  0.097942  0.018448  0.304854  1
  Y  Y2  1  0.018448  0.304854  0.097942  1
  Y  Y3  1  0.304854  0.097942  0.018448  1
  Y  Y4  1  0.902057  0.981552  0.695146  1
  Y  Y5  1  0.981552  0.695146  0.902057  1
  Y  Y6  1  0.695146  0.902057  0.981552  1
  Ni  Ni7  1  0.000000  0.000000  0.000000  1
  Br  Br8  1  0.074108  0.673492  0.220076  1
  Br  Br9  1  0.673492  0.220076  0.074108  1
  Br  Br10  1  0.220076  0.074108  0.673492  1
  Br  Br11  1  0.925892  0.326508  0.779924  1
  Br  Br12  1  0.326508  0.779924  0.925892  1
  Br  Br13  1  0.779924  0.925892  0.326508  1
  Br  Br14  1  0.445365  0.138160  0.364672  1
  Br  Br15  1  0.138160  0.364672  0.445365  1
  Br  Br16  1  0.364672  0.445365  0.138160  1
  Br  Br17  1  0.554635  0.861840  0.635328  1
  Br  Br18  1  0.861840  0.635328  0.554635  1
  Br  Br19  1  0.635328  0.554635  0.861840  1
