# generated using pymatgen
data_Pa8TiSe17
_symmetry_space_group_name_H-M   'P 1'
_cell_length_a   8.26808170
_cell_length_b   8.26808126
_cell_length_c   10.93784767
_cell_angle_alpha   80.63139269
_cell_angle_beta   80.63139370
_cell_angle_gamma   64.97857707
_symmetry_Int_Tables_number   1
_chemical_formula_structural   Pa8TiSe17
_chemical_formula_sum   'Pa8 Ti1 Se17'
_cell_volume   664.81252415
_cell_formula_units_Z   1
loop_
 _symmetry_equiv_pos_site_id
 _symmetry_equiv_pos_as_xyz
  1  'x, y, z'
loop_
 _atom_site_type_symbol
 _atom_site_label
 _atom_site_symmetry_multiplicity
 _atom_site_fract_x
 _atom_site_fract_y
 _atom_site_fract_z
 _atom_site_occupancy
  Pa  Pa0  1  0.818653  0.300449  0.298460  1
  Pa  Pa1  1  0.300449  0.818653  0.298460  1
  Pa  Pa2  1  0.181347  0.699551  0.701540  1
  Pa  Pa3  1  0.699551  0.181347  0.701540  1
  Pa  Pa4  1  0.201653  0.201653  0.539788  1
  Pa  Pa5  1  0.798347  0.798347  0.460212  1
  Pa  Pa6  1  0.683500  0.683500  0.986245  1
  Pa  Pa7  1  0.316500  0.316500  0.013755  1
  Ti  Ti8  1  0.000000  0.000000  0.000000  1
  Se  Se9  1  0.819468  0.434758  0.535600  1
  Se  Se10  1  0.434758  0.819468  0.535600  1
  Se  Se11  1  0.180532  0.565242  0.464400  1
  Se  Se12  1  0.565242  0.180532  0.464400  1
  Se  Se13  1  0.940661  0.325587  0.027333  1
  Se  Se14  1  0.325587  0.940661  0.027333  1
  Se  Se15  1  0.059339  0.674413  0.972667  1
  Se  Se16  1  0.674413  0.059339  0.972667  1
  Se  Se17  1  0.213907  0.213907  0.274414  1
  Se  Se18  1  0.786093  0.786093  0.725586  1
  Se  Se19  1  0.062040  0.062040  0.770314  1
  Se  Se20  1  0.937960  0.937960  0.229686  1
  Se  Se21  1  0.302183  0.302183  0.752318  1
  Se  Se22  1  0.697817  0.697817  0.247682  1
  Se  Se23  1  0.520413  0.520413  0.832402  1
  Se  Se24  1  0.479587  0.479587  0.167598  1
  Se  Se25  1  0.000000  0.000000  0.500000  1
