# generated using pymatgen
data_Tb2ErMgIr8
_symmetry_space_group_name_H-M   'P 1'
_cell_length_a   5.33085400
_cell_length_b   5.33085351
_cell_length_c   8.66312900
_cell_angle_alpha   90.00000000
_cell_angle_beta   90.00000000
_cell_angle_gamma   119.99999063
_symmetry_Int_Tables_number   1
_chemical_formula_structural   Tb2ErMgIr8
_chemical_formula_sum   'Tb2 Er1 Mg1 Ir8'
_cell_volume   213.20578820
_cell_formula_units_Z   1
loop_
 _symmetry_equiv_pos_site_id
 _symmetry_equiv_pos_as_xyz
  1  'x, y, z'
loop_
 _atom_site_type_symbol
 _atom_site_label
 _atom_site_symmetry_multiplicity
 _atom_site_fract_x
 _atom_site_fract_y
 _atom_site_fract_z
 _atom_site_occupancy
  Tb  Tb0  1  0.333333  0.666667  0.078829  1
  Tb  Tb1  1  0.666667  0.333333  0.558901  1
  Er  Er2  1  0.666667  0.333333  0.929975  1
  Mg  Mg3  1  0.333333  0.666667  0.440698  1
  Ir  Ir4  1  0.000000  0.000000  0.997084  1
  Ir  Ir5  1  0.000000  0.000000  0.497442  1
  Ir  Ir6  1  0.830451  0.660903  0.250505  1
  Ir  Ir7  1  0.170487  0.829513  0.748519  1
  Ir  Ir8  1  0.659025  0.829513  0.748519  1
  Ir  Ir9  1  0.339097  0.169549  0.250505  1
  Ir  Ir10  1  0.830451  0.169549  0.250505  1
  Ir  Ir11  1  0.170487  0.340975  0.748519  1
