# generated using pymatgen
data_Th2SnIrAu
_symmetry_space_group_name_H-M   'P 1'
_cell_length_a   8.02687437
_cell_length_b   8.02687437
_cell_length_c   3.85574300
_cell_angle_alpha   90.00000000
_cell_angle_beta   90.00000000
_cell_angle_gamma   90.11953287
_symmetry_Int_Tables_number   1
_chemical_formula_structural   Th2SnIrAu
_chemical_formula_sum   'Th4 Sn2 Ir2 Au2'
_cell_volume   248.42772655
_cell_formula_units_Z   2
loop_
 _symmetry_equiv_pos_site_id
 _symmetry_equiv_pos_as_xyz
  1  'x, y, z'
loop_
 _atom_site_type_symbol
 _atom_site_label
 _atom_site_symmetry_multiplicity
 _atom_site_fract_x
 _atom_site_fract_y
 _atom_site_fract_z
 _atom_site_occupancy
  Th  Th0  1  0.161800  0.338200  0.000000  1
  Th  Th1  1  0.838200  0.661800  0.000000  1
  Th  Th2  1  0.686108  0.186108  0.000000  1
  Th  Th3  1  0.313892  0.813892  0.000000  1
  Sn  Sn4  1  0.000000  0.000000  0.500000  1
  Sn  Sn5  1  0.500000  0.500000  0.500000  1
  Ir  Ir6  1  0.869648  0.369648  0.500000  1
  Ir  Ir7  1  0.130352  0.630352  0.500000  1
  Au  Au8  1  0.373444  0.126556  0.500000  1
  Au  Au9  1  0.626556  0.873444  0.500000  1
