# generated using pymatgen
data_Yb2Sm2RuPt3O14
_symmetry_space_group_name_H-M   'P 1'
_cell_length_a   7.31858296
_cell_length_b   7.30407909
_cell_length_c   7.30408072
_cell_angle_alpha   59.77431661
_cell_angle_beta   59.82478018
_cell_angle_gamma   59.82485821
_symmetry_Int_Tables_number   1
_chemical_formula_structural   Yb2Sm2RuPt3O14
_chemical_formula_sum   'Yb2 Sm2 Ru1 Pt3 O14'
_cell_volume   274.88162881
_cell_formula_units_Z   1
loop_
 _symmetry_equiv_pos_site_id
 _symmetry_equiv_pos_as_xyz
  1  'x, y, z'
loop_
 _atom_site_type_symbol
 _atom_site_label
 _atom_site_symmetry_multiplicity
 _atom_site_fract_x
 _atom_site_fract_y
 _atom_site_fract_z
 _atom_site_occupancy
  Yb  Yb0  1  0.625000  0.625000  0.125000  1
  Yb  Yb1  1  0.625000  0.125000  0.625000  1
  Sm  Sm2  1  0.625000  0.625000  0.625000  1
  Sm  Sm3  1  0.125000  0.625000  0.625000  1
  Ru  Ru4  1  0.125000  0.125000  0.125000  1
  Pt  Pt5  1  0.625000  0.125000  0.125000  1
  Pt  Pt6  1  0.125000  0.125000  0.625000  1
  Pt  Pt7  1  0.125000  0.625000  0.125000  1
  O  O8  1  0.499031  0.498939  0.498939  1
  O  O9  1  0.750969  0.751061  0.751061  1
  O  O10  1  0.050390  0.045415  0.448962  1
  O  O11  1  0.787671  0.787113  0.208890  1
  O  O12  1  0.462331  0.041108  0.462888  1
  O  O13  1  0.443661  0.051522  0.051521  1
  O  O14  1  0.040075  0.462334  0.462334  1
  O  O15  1  0.050391  0.448960  0.045416  1
  O  O16  1  0.462329  0.462887  0.041110  1
  O  O17  1  0.209925  0.787666  0.787666  1
  O  O18  1  0.806339  0.198478  0.198479  1
  O  O19  1  0.199610  0.204585  0.801038  1
  O  O20  1  0.199609  0.801040  0.204584  1
  O  O21  1  0.787669  0.208892  0.787112  1
