# generated using pymatgen
data_PrHo3V4F28
_symmetry_space_group_name_H-M   'P 1'
_cell_length_a   5.52196946
_cell_length_b   8.87061069
_cell_length_c   11.88691145
_cell_angle_alpha   63.43947432
_cell_angle_beta   89.96218038
_cell_angle_gamma   89.95888467
_symmetry_Int_Tables_number   1
_chemical_formula_structural   PrHo3V4F28
_chemical_formula_sum   'Pr1 Ho3 V4 F28'
_cell_volume   520.80907984
_cell_formula_units_Z   1
loop_
 _symmetry_equiv_pos_site_id
 _symmetry_equiv_pos_as_xyz
  1  'x, y, z'
loop_
 _atom_site_type_symbol
 _atom_site_label
 _atom_site_symmetry_multiplicity
 _atom_site_fract_x
 _atom_site_fract_y
 _atom_site_fract_z
 _atom_site_occupancy
  Pr  Pr0  1  0.757704  0.810778  0.769250  1
  Ho  Ho1  1  0.259833  0.201301  0.727299  1
  Ho  Ho2  1  0.241524  0.192529  0.229736  1
  Ho  Ho3  1  0.741733  0.810551  0.269124  1
  V  V4  1  0.754674  0.268344  0.957360  1
  V  V5  1  0.252333  0.726867  0.538964  1
  V  V6  1  0.244434  0.725386  0.050523  1
  V  V7  1  0.743986  0.276577  0.452593  1
  F  F8  1  0.439166  0.703964  0.927451  1
  F  F9  1  0.946860  0.294491  0.574809  1
  F  F10  1  0.551821  0.290665  0.077713  1
  F  F11  1  0.053311  0.705957  0.417495  1
  F  F12  1  0.459973  0.283212  0.543367  1
  F  F13  1  0.959503  0.714155  0.964407  1
  F  F14  1  0.541461  0.719197  0.451790  1
  F  F15  1  0.039210  0.278097  0.047441  1
  F  F16  1  0.774184  0.498818  0.866141  1
  F  F17  1  0.269709  0.493943  0.631566  1
  F  F18  1  0.233669  0.492291  0.140681  1
  F  F19  1  0.730339  0.507206  0.362231  1
  F  F20  1  0.756482  0.039366  0.047500  1
  F  F21  1  0.255933  0.955975  0.451416  1
  F  F22  1  0.243512  0.953094  0.959609  1
  F  F23  1  0.742846  0.046516  0.542849  1
  F  F24  1  0.973817  0.727061  0.630985  1
  F  F25  1  0.477653  0.269858  0.861604  1
  F  F26  1  0.018316  0.268165  0.358299  1
  F  F27  1  0.522866  0.730704  0.143613  1
  F  F28  1  0.044678  0.746678  0.174247  1
  F  F29  1  0.540800  0.252790  0.330352  1
  F  F30  1  0.958181  0.248209  0.833118  1
  F  F31  1  0.442619  0.742915  0.666634  1
  F  F32  1  0.424734  0.976082  0.231836  1
  F  F33  1  0.924908  0.026087  0.268172  1
  F  F34  1  0.578862  0.042142  0.770313  1
  F  F35  1  0.098366  0.980030  0.729509  1
