# generated using pymatgen
data_Pa4SnPtRh4
_symmetry_space_group_name_H-M   'P 1'
_cell_length_a   7.60357800
_cell_length_b   7.60357800
_cell_length_c   3.59138200
_cell_angle_alpha   90.00000000
_cell_angle_beta   90.00000000
_cell_angle_gamma   90.00000000
_symmetry_Int_Tables_number   1
_chemical_formula_structural   Pa4SnPtRh4
_chemical_formula_sum   'Pa4 Sn1 Pt1 Rh4'
_cell_volume   207.63358976
_cell_formula_units_Z   1
loop_
 _symmetry_equiv_pos_site_id
 _symmetry_equiv_pos_as_xyz
  1  'x, y, z'
loop_
 _atom_site_type_symbol
 _atom_site_label
 _atom_site_symmetry_multiplicity
 _atom_site_fract_x
 _atom_site_fract_y
 _atom_site_fract_z
 _atom_site_occupancy
  Pa  Pa0  1  0.314238  0.164381  0.500000  1
  Pa  Pa1  1  0.685762  0.835619  0.500000  1
  Pa  Pa2  1  0.164381  0.685762  0.500000  1
  Pa  Pa3  1  0.835619  0.314238  0.500000  1
  Sn  Sn4  1  0.500000  0.500000  0.000000  1
  Pt  Pt5  1  0.000000  0.000000  0.000000  1
  Rh  Rh6  1  0.632729  0.132620  0.000000  1
  Rh  Rh7  1  0.867380  0.632729  0.000000  1
  Rh  Rh8  1  0.367271  0.867380  0.000000  1
  Rh  Rh9  1  0.132620  0.367271  0.000000  1
