# generated using pymatgen
data_Nb4GaCo4Si2P
_symmetry_space_group_name_H-M   'P 1'
_cell_length_a   3.65529100
_cell_length_b   6.26629018
_cell_length_c   7.10177709
_cell_angle_alpha   89.85649381
_cell_angle_beta   90.00000000
_cell_angle_gamma   90.00000000
_symmetry_Int_Tables_number   1
_chemical_formula_structural   Nb4GaCo4Si2P
_chemical_formula_sum   'Nb4 Ga1 Co4 Si2 P1'
_cell_volume   162.66650445
_cell_formula_units_Z   1
loop_
 _symmetry_equiv_pos_site_id
 _symmetry_equiv_pos_as_xyz
  1  'x, y, z'
loop_
 _atom_site_type_symbol
 _atom_site_label
 _atom_site_symmetry_multiplicity
 _atom_site_fract_x
 _atom_site_fract_y
 _atom_site_fract_z
 _atom_site_occupancy
  Nb  Nb0  1  0.250000  0.019092  0.821702  1
  Nb  Nb1  1  0.250000  0.520537  0.682022  1
  Nb  Nb2  1  0.750000  0.980433  0.174664  1
  Nb  Nb3  1  0.750000  0.472507  0.320329  1
  Ga  Ga4  1  0.250000  0.771677  0.378540  1
  Co  Co5  1  0.250000  0.148580  0.438649  1
  Co  Co6  1  0.250000  0.639910  0.049051  1
  Co  Co7  1  0.750000  0.860069  0.579279  1
  Co  Co8  1  0.750000  0.362412  0.935764  1
  Si  Si9  1  0.250000  0.275301  0.117953  1
  Si  Si10  1  0.750000  0.224768  0.619133  1
  P  P11  1  0.750000  0.724715  0.882913  1
