# generated using pymatgen
data_YbDy(CoC2)2
_symmetry_space_group_name_H-M   'P 1'
_cell_length_a   3.67503631
_cell_length_b   3.68978206
_cell_length_c   7.30313191
_cell_angle_alpha   82.23312825
_cell_angle_beta   82.47702709
_cell_angle_gamma   90.03983308
_symmetry_Int_Tables_number   1
_chemical_formula_structural   YbDy(CoC2)2
_chemical_formula_sum   'Yb1 Dy1 Co2 C4'
_cell_volume   97.26093673
_cell_formula_units_Z   1
loop_
 _symmetry_equiv_pos_site_id
 _symmetry_equiv_pos_as_xyz
  1  'x, y, z'
loop_
 _atom_site_type_symbol
 _atom_site_label
 _atom_site_symmetry_multiplicity
 _atom_site_fract_x
 _atom_site_fract_y
 _atom_site_fract_z
 _atom_site_occupancy
  Yb  Yb0  1  0.069527  0.929909  0.999313  1
  Dy  Dy1  1  0.930981  0.070264  0.500141  1
  Co  Co2  1  0.374736  0.510371  0.692907  1
  Co  Co3  1  0.509745  0.373137  0.193012  1
  C  C4  1  0.443759  0.592195  0.428331  1
  C  C5  1  0.593245  0.444672  0.929373  1
  C  C6  1  0.488843  0.858274  0.274167  1
  C  C7  1  0.856163  0.488176  0.776558  1
