# generated using pymatgen
data_HfTh5PCl15
_symmetry_space_group_name_H-M   'P 1'
_cell_length_a   9.51694708
_cell_length_b   9.51694706
_cell_length_c   9.51694700
_cell_angle_alpha   109.03427301
_cell_angle_beta   110.34869496
_cell_angle_gamma   109.03427334
_symmetry_Int_Tables_number   1
_chemical_formula_structural   HfTh5PCl15
_chemical_formula_sum   'Hf1 Th5 P1 Cl15'
_cell_volume   663.42912096
_cell_formula_units_Z   1
loop_
 _symmetry_equiv_pos_site_id
 _symmetry_equiv_pos_as_xyz
  1  'x, y, z'
loop_
 _atom_site_type_symbol
 _atom_site_label
 _atom_site_symmetry_multiplicity
 _atom_site_fract_x
 _atom_site_fract_y
 _atom_site_fract_z
 _atom_site_occupancy
  Hf  Hf0  1  0.221978  0.000000  0.221978  1
  Th  Th1  1  0.250201  0.245370  0.004831  1
  Th  Th2  1  0.742393  0.000000  0.742393  1
  Th  Th3  1  0.004831  0.245370  0.250201  1
  Th  Th4  1  0.004831  0.754630  0.759460  1
  Th  Th5  1  0.759460  0.754630  0.004831  1
  P  P6  1  0.994551  0.000000  0.994551  1
  Cl  Cl7  1  0.030076  0.772522  0.257554  1
  Cl  Cl8  1  0.257554  0.772522  0.030076  1
  Cl  Cl9  1  0.495560  0.747535  0.748026  1
  Cl  Cl10  1  0.000491  0.252465  0.748026  1
  Cl  Cl11  1  0.750833  0.000000  0.252779  1
  Cl  Cl12  1  0.252779  0.501947  0.252779  1
  Cl  Cl13  1  0.748026  0.252465  0.000491  1
  Cl  Cl14  1  0.501560  0.500000  0.001560  1
  Cl  Cl15  1  0.257554  0.227478  0.485032  1
  Cl  Cl16  1  0.750833  0.498053  0.750833  1
  Cl  Cl17  1  0.748026  0.747535  0.495560  1
  Cl  Cl18  1  0.485032  0.227478  0.257554  1
  Cl  Cl19  1  0.252779  0.000000  0.750833  1
  Cl  Cl20  1  0.001560  0.500000  0.501560  1
  Cl  Cl21  1  0.489091  0.000000  0.489091  1
