# generated using pymatgen
data_MnNb4(NiP)4
_symmetry_space_group_name_H-M   'P 1'
_cell_length_a   7.15674672
_cell_length_b   7.15674662
_cell_length_c   7.15674718
_cell_angle_alpha   93.54334177
_cell_angle_beta   93.54333729
_cell_angle_gamma   151.21027803
_symmetry_Int_Tables_number   1
_chemical_formula_structural   MnNb4(NiP)4
_chemical_formula_sum   'Mn1 Nb4 Ni4 P4'
_cell_volume   170.99253083
_cell_formula_units_Z   1
loop_
 _symmetry_equiv_pos_site_id
 _symmetry_equiv_pos_as_xyz
  1  'x, y, z'
loop_
 _atom_site_type_symbol
 _atom_site_label
 _atom_site_symmetry_multiplicity
 _atom_site_fract_x
 _atom_site_fract_y
 _atom_site_fract_z
 _atom_site_occupancy
  Mn  Mn0  1  0.500000  0.500000  0.000000  1
  Nb  Nb1  1  0.807947  0.126663  0.934610  1
  Nb  Nb2  1  0.126663  0.192053  0.318716  1
  Nb  Nb3  1  0.873337  0.807947  0.681284  1
  Nb  Nb4  1  0.192053  0.873337  0.065390  1
  Ni  Ni5  1  0.914933  0.390512  0.305444  1
  Ni  Ni6  1  0.085067  0.609488  0.694556  1
  Ni  Ni7  1  0.609488  0.914933  0.524420  1
  Ni  Ni8  1  0.390512  0.085067  0.475580  1
  P  P9  1  0.556377  0.244973  0.801351  1
  P  P10  1  0.244973  0.443623  0.688595  1
  P  P11  1  0.755027  0.556377  0.311405  1
  P  P12  1  0.443623  0.755027  0.198649  1
