# generated using pymatgen
data_Nd10AlSi4Ge
_symmetry_space_group_name_H-M   'P 1'
_cell_length_a   7.80188000
_cell_length_b   9.07927237
_cell_length_c   7.80188000
_cell_angle_alpha   115.44556435
_cell_angle_beta   90.00000000
_cell_angle_gamma   115.44556435
_symmetry_Int_Tables_number   1
_chemical_formula_structural   Nd10AlSi4Ge
_chemical_formula_sum   'Nd10 Al1 Si4 Ge1'
_cell_volume   438.92874969
_cell_formula_units_Z   1
loop_
 _symmetry_equiv_pos_site_id
 _symmetry_equiv_pos_as_xyz
  1  'x, y, z'
loop_
 _atom_site_type_symbol
 _atom_site_label
 _atom_site_symmetry_multiplicity
 _atom_site_fract_x
 _atom_site_fract_y
 _atom_site_fract_z
 _atom_site_occupancy
  Nd  Nd0  1  0.977113  0.954225  0.977113  1
  Nd  Nd1  1  0.522887  0.045775  0.522887  1
  Nd  Nd2  1  0.525981  0.717633  0.674051  1
  Nd  Nd3  1  0.191653  0.717633  0.043583  1
  Nd  Nd4  1  0.674051  0.717633  0.191653  1
  Nd  Nd5  1  0.043583  0.717633  0.525981  1
  Nd  Nd6  1  0.456417  0.282367  0.308347  1
  Nd  Nd7  1  0.825949  0.282367  0.974019  1
  Nd  Nd8  1  0.308347  0.282367  0.825949  1
  Nd  Nd9  1  0.974019  0.282367  0.456417  1
  Al  Al10  1  0.750000  0.500000  0.750000  1
  Si  Si11  1  0.884611  0.000000  0.615389  1
  Si  Si12  1  0.115389  0.000000  0.384611  1
  Si  Si13  1  0.615389  0.000000  0.115389  1
  Si  Si14  1  0.384611  0.000000  0.884611  1
  Ge  Ge15  1  0.250000  0.500000  0.250000  1
