# generated using pymatgen
data_Pr17Nd3Si15Pd
_symmetry_space_group_name_H-M   'P 1'
_cell_length_a   7.95182023
_cell_length_b   7.94182851
_cell_length_c   15.33932941
_cell_angle_alpha   89.96358548
_cell_angle_beta   89.69891520
_cell_angle_gamma   90.19480370
_symmetry_Int_Tables_number   1
_chemical_formula_structural   Pr17Nd3Si15Pd
_chemical_formula_sum   'Pr17 Nd3 Si15 Pd1'
_cell_volume   968.69003763
_cell_formula_units_Z   1
loop_
 _symmetry_equiv_pos_site_id
 _symmetry_equiv_pos_as_xyz
  1  'x, y, z'
loop_
 _atom_site_type_symbol
 _atom_site_label
 _atom_site_symmetry_multiplicity
 _atom_site_fract_x
 _atom_site_fract_y
 _atom_site_fract_z
 _atom_site_occupancy
  Pr  Pr0  1  0.692033  0.688257  0.499260  1
  Pr  Pr1  1  0.375033  0.010291  0.447779  1
  Pr  Pr2  1  0.492043  0.872235  0.698534  1
  Pr  Pr3  1  0.509775  0.123719  0.197432  1
  Pr  Pr4  1  0.876240  0.488512  0.300423  1
  Pr  Pr5  1  0.121906  0.513094  0.801469  1
  Pr  Pr6  1  0.626316  0.988419  0.949122  1
  Pr  Pr7  1  0.002310  0.378015  0.550521  1
  Pr  Pr8  1  0.988933  0.625042  0.051939  1
  Pr  Pr9  1  0.133716  0.986785  0.875954  1
  Pr  Pr10  1  0.517053  0.630578  0.125902  1
  Pr  Pr11  1  0.478397  0.366504  0.627799  1
  Pr  Pr12  1  0.628360  0.517657  0.874306  1
  Pr  Pr13  1  0.372037  0.482760  0.373313  1
  Pr  Pr14  1  0.872246  0.019670  0.376304  1
  Pr  Pr15  1  0.982432  0.126977  0.124278  1
  Pr  Pr16  1  0.019745  0.873975  0.623465  1
  Nd  Nd17  1  0.307031  0.306988  0.998909  1
  Nd  Nd18  1  0.190091  0.808611  0.249867  1
  Nd  Nd19  1  0.808329  0.186438  0.751376  1
  Si  Si20  1  0.332415  0.695339  0.951107  1
  Si  Si21  1  0.664381  0.303949  0.451880  1
  Si  Si22  1  0.697460  0.334629  0.049274  1
  Si  Si23  1  0.305001  0.668595  0.548208  1
  Si  Si24  1  0.804973  0.832416  0.202577  1
  Si  Si25  1  0.168014  0.196637  0.298214  1
  Si  Si26  1  0.835275  0.804358  0.798266  1
  Si  Si27  1  0.288208  0.922339  0.059476  1
  Si  Si28  1  0.578281  0.787353  0.309563  1
  Si  Si29  1  0.430574  0.208615  0.813315  1
  Si  Si30  1  0.787050  0.578582  0.690336  1
  Si  Si31  1  0.212534  0.422620  0.190146  1
  Si  Si32  1  0.706957  0.076202  0.559281  1
  Si  Si33  1  0.921364  0.288828  0.941000  1
  Si  Si34  1  0.079458  0.714238  0.440900  1
  Pd  Pd35  1  0.194029  0.170772  0.698500  1
