# generated using pymatgen
data_CaErNi12As7
_symmetry_space_group_name_H-M   'P 1'
_cell_length_a   9.38076700
_cell_length_b   9.38076729
_cell_length_c   3.81323300
_cell_angle_alpha   90.00000000
_cell_angle_beta   90.00000000
_cell_angle_gamma   120.00000955
_symmetry_Int_Tables_number   1
_chemical_formula_structural   CaErNi12As7
_chemical_formula_sum   'Ca1 Er1 Ni12 As7'
_cell_volume   290.60336867
_cell_formula_units_Z   1
loop_
 _symmetry_equiv_pos_site_id
 _symmetry_equiv_pos_as_xyz
  1  'x, y, z'
loop_
 _atom_site_type_symbol
 _atom_site_label
 _atom_site_symmetry_multiplicity
 _atom_site_fract_x
 _atom_site_fract_y
 _atom_site_fract_z
 _atom_site_occupancy
  Ca  Ca0  1  0.666667  0.333333  0.500000  1
  Er  Er1  1  0.000000  0.000000  0.000000  1
  Ni  Ni2  1  0.385956  0.282463  0.000000  1
  Ni  Ni3  1  0.896506  0.614044  0.000000  1
  Ni  Ni4  1  0.717537  0.103494  0.000000  1
  Ni  Ni5  1  0.614485  0.795658  0.000000  1
  Ni  Ni6  1  0.181173  0.385515  0.000000  1
  Ni  Ni7  1  0.204342  0.818827  0.000000  1
  Ni  Ni8  1  0.758618  0.718393  0.500000  1
  Ni  Ni9  1  0.959774  0.241382  0.500000  1
  Ni  Ni10  1  0.281607  0.040226  0.500000  1
  Ni  Ni11  1  0.428955  0.553743  0.500000  1
  Ni  Ni12  1  0.124788  0.571045  0.500000  1
  Ni  Ni13  1  0.446257  0.875212  0.500000  1
  As  As14  1  0.619273  0.549505  0.000000  1
  As  As15  1  0.930232  0.380727  0.000000  1
  As  As16  1  0.450495  0.069768  0.000000  1
  As  As17  1  0.740496  0.965714  0.500000  1
  As  As18  1  0.225218  0.259504  0.500000  1
  As  As19  1  0.034286  0.774782  0.500000  1
  As  As20  1  0.333333  0.666667  0.000000  1
