# generated using pymatgen
data_Tb16Cd3InIr4
_symmetry_space_group_name_H-M   'P 1'
_cell_length_a   9.67953793
_cell_length_b   9.67953874
_cell_length_c   9.67953833
_cell_angle_alpha   59.92241109
_cell_angle_beta   59.92241017
_cell_angle_gamma   59.92241450
_symmetry_Int_Tables_number   1
_chemical_formula_structural   Tb16Cd3InIr4
_chemical_formula_sum   'Tb16 Cd3 In1 Ir4'
_cell_volume   640.15319091
_cell_formula_units_Z   1
loop_
 _symmetry_equiv_pos_site_id
 _symmetry_equiv_pos_as_xyz
  1  'x, y, z'
loop_
 _atom_site_type_symbol
 _atom_site_label
 _atom_site_symmetry_multiplicity
 _atom_site_fract_x
 _atom_site_fract_y
 _atom_site_fract_z
 _atom_site_occupancy
  Tb  Tb0  1  0.597949  0.597949  0.597949  1
  Tb  Tb1  1  0.600583  0.600583  0.201751  1
  Tb  Tb2  1  0.600583  0.201751  0.600583  1
  Tb  Tb3  1  0.201751  0.600583  0.600583  1
  Tb  Tb4  1  0.059842  0.439600  0.439600  1
  Tb  Tb5  1  0.439050  0.058970  0.058970  1
  Tb  Tb6  1  0.439600  0.059842  0.439600  1
  Tb  Tb7  1  0.058970  0.439050  0.058970  1
  Tb  Tb8  1  0.439600  0.439600  0.059842  1
  Tb  Tb9  1  0.058970  0.058970  0.439050  1
  Tb  Tb10  1  0.190009  0.812179  0.812179  1
  Tb  Tb11  1  0.810961  0.188657  0.188657  1
  Tb  Tb12  1  0.812179  0.190009  0.812179  1
  Tb  Tb13  1  0.188657  0.810961  0.188657  1
  Tb  Tb14  1  0.812179  0.812179  0.190009  1
  Tb  Tb15  1  0.188657  0.188657  0.810961  1
  Cd  Cd16  1  0.830661  0.830661  0.505595  1
  Cd  Cd17  1  0.830661  0.505595  0.830661  1
  Cd  Cd18  1  0.505595  0.830661  0.830661  1
  In  In19  1  0.830886  0.830886  0.830886  1
  Ir  Ir20  1  0.392140  0.392140  0.392140  1
  Ir  Ir21  1  0.392463  0.392463  0.825593  1
  Ir  Ir22  1  0.392463  0.825593  0.392463  1
  Ir  Ir23  1  0.825593  0.392463  0.392463  1
