# generated using pymatgen
data_Tb2Er18Ir7Au5
_symmetry_space_group_name_H-M   'P 1'
_cell_length_a   11.07904593
_cell_length_b   11.08289452
_cell_length_c   6.33715155
_cell_angle_alpha   89.87072888
_cell_angle_beta   89.93759279
_cell_angle_gamma   89.55582174
_symmetry_Int_Tables_number   1
_chemical_formula_structural   Tb2Er18Ir7Au5
_chemical_formula_sum   'Tb2 Er18 Ir7 Au5'
_cell_volume   778.09970516
_cell_formula_units_Z   1
loop_
 _symmetry_equiv_pos_site_id
 _symmetry_equiv_pos_as_xyz
  1  'x, y, z'
loop_
 _atom_site_type_symbol
 _atom_site_label
 _atom_site_symmetry_multiplicity
 _atom_site_fract_x
 _atom_site_fract_y
 _atom_site_fract_z
 _atom_site_occupancy
  Tb  Tb0  1  0.299394  0.090907  0.363349  1
  Tb  Tb1  1  0.301182  0.907378  0.861076  1
  Er  Er2  1  0.696524  0.079944  0.859751  1
  Er  Er3  1  0.697074  0.906214  0.360957  1
  Er  Er4  1  0.581433  0.785945  0.875738  1
  Er  Er5  1  0.575883  0.205862  0.362962  1
  Er  Er6  1  0.419278  0.789055  0.375224  1
  Er  Er7  1  0.412520  0.207663  0.878023  1
  Er  Er8  1  0.213962  0.419552  0.624227  1
  Er  Er9  1  0.210255  0.581396  0.124746  1
  Er  Er10  1  0.794461  0.425056  0.137039  1
  Er  Er11  1  0.793030  0.588245  0.621437  1
  Er  Er12  1  0.909689  0.699307  0.135520  1
  Er  Er13  1  0.920244  0.303825  0.639802  1
  Er  Er14  1  0.091330  0.697108  0.637805  1
  Er  Er15  1  0.092960  0.303672  0.138815  1
  Er  Er16  1  0.997702  0.000427  0.499682  1
  Er  Er17  1  0.998937  0.001471  0.001443  1
  Er  Er18  1  0.496542  0.502032  0.001978  1
  Er  Er19  1  0.498423  0.503653  0.498510  1
  Ir  Ir20  1  0.653403  0.651159  0.250527  1
  Ir  Ir21  1  0.348916  0.348166  0.248512  1
  Ir  Ir22  1  0.345872  0.652670  0.748910  1
  Ir  Ir23  1  0.500780  0.999460  0.110757  1
  Ir  Ir24  1  0.500590  0.999854  0.612832  1
  Ir  Ir25  1  0.999948  0.500822  0.886665  1
  Ir  Ir26  1  0.000423  0.500778  0.388957  1
  Au  Au27  1  0.841401  0.159023  0.249934  1
  Au  Au28  1  0.843436  0.845137  0.750760  1
  Au  Au29  1  0.153099  0.157940  0.751676  1
  Au  Au30  1  0.154647  0.842540  0.252187  1
  Au  Au31  1  0.656661  0.343737  0.750201  1
