# generated using pymatgen
data_Li4Nd2ErTmSi6
_symmetry_space_group_name_H-M   'P 1'
_cell_length_a   9.30850918
_cell_length_b   9.30850894
_cell_length_c   6.81030400
_cell_angle_alpha   90.00000000
_cell_angle_beta   90.00000000
_cell_angle_gamma   153.30878472
_symmetry_Int_Tables_number   1
_chemical_formula_structural   Li4Nd2ErTmSi6
_chemical_formula_sum   'Li4 Nd2 Er1 Tm1 Si6'
_cell_volume   265.06300265
_cell_formula_units_Z   1
loop_
 _symmetry_equiv_pos_site_id
 _symmetry_equiv_pos_as_xyz
  1  'x, y, z'
loop_
 _atom_site_type_symbol
 _atom_site_label
 _atom_site_symmetry_multiplicity
 _atom_site_fract_x
 _atom_site_fract_y
 _atom_site_fract_z
 _atom_site_occupancy
  Li  Li0  1  0.191004  0.808996  0.059879  1
  Li  Li1  1  0.191004  0.808996  0.440121  1
  Li  Li2  1  0.808950  0.191050  0.940016  1
  Li  Li3  1  0.808950  0.191050  0.559984  1
  Nd  Nd4  1  0.554235  0.445765  0.250000  1
  Nd  Nd5  1  0.445841  0.554159  0.750000  1
  Er  Er6  1  0.344512  0.655488  0.250000  1
  Tm  Tm7  1  0.655449  0.344551  0.750000  1
  Si  Si8  1  0.724227  0.275773  0.250000  1
  Si  Si9  1  0.275669  0.724331  0.750000  1
  Si  Si10  1  0.059886  0.940114  0.924994  1
  Si  Si11  1  0.940195  0.059805  0.074900  1
  Si  Si12  1  0.940195  0.059805  0.425100  1
  Si  Si13  1  0.059886  0.940114  0.575006  1
