# generated using pymatgen
data_Ca2BeH6
_symmetry_space_group_name_H-M   'P 1'
_cell_length_a   4.02304611
_cell_length_b   4.04157950
_cell_length_c   6.94297548
_cell_angle_alpha   90.09119524
_cell_angle_beta   87.82526482
_cell_angle_gamma   120.19269687
_symmetry_Int_Tables_number   1
_chemical_formula_structural   Ca2BeH6
_chemical_formula_sum   'Ca2 Be1 H6'
_cell_volume   97.48411089
_cell_formula_units_Z   1
loop_
 _symmetry_equiv_pos_site_id
 _symmetry_equiv_pos_as_xyz
  1  'x, y, z'
loop_
 _atom_site_type_symbol
 _atom_site_label
 _atom_site_symmetry_multiplicity
 _atom_site_fract_x
 _atom_site_fract_y
 _atom_site_fract_z
 _atom_site_occupancy
  Ca  Ca0  1  0.704157  0.025689  0.200002  1
  Ca  Ca1  1  0.420855  0.384169  0.754193  1
  Be  Be2  1  0.062612  0.601160  0.477428  1
  H  H3  1  0.046965  0.753297  0.294615  1
  H  H4  1  0.740030  0.230396  0.507488  1
  H  H5  1  0.389206  0.382925  0.086031  1
  H  H6  1  0.078001  0.765894  0.661765  1
  H  H7  1  0.735342  0.055940  0.867593  1
  H  H8  1  0.383434  0.550629  0.446856  1
