# generated using pymatgen
data_Pr8Hf12Si15Ge
_symmetry_space_group_name_H-M   'P 1'
_cell_length_a   7.24523311
_cell_length_b   7.44379792
_cell_length_c   13.98893461
_cell_angle_alpha   90.01205196
_cell_angle_beta   89.89280502
_cell_angle_gamma   90.03021776
_symmetry_Int_Tables_number   1
_chemical_formula_structural   Pr8Hf12Si15Ge
_chemical_formula_sum   'Pr8 Hf12 Si15 Ge1'
_cell_volume   754.45049597
_cell_formula_units_Z   1
loop_
 _symmetry_equiv_pos_site_id
 _symmetry_equiv_pos_as_xyz
  1  'x, y, z'
loop_
 _atom_site_type_symbol
 _atom_site_label
 _atom_site_symmetry_multiplicity
 _atom_site_fract_x
 _atom_site_fract_y
 _atom_site_fract_z
 _atom_site_occupancy
  Pr  Pr0  1  0.009874  0.170794  0.402962  1
  Pr  Pr1  1  0.510647  0.327977  0.402868  1
  Pr  Pr2  1  0.489344  0.671421  0.903783  1
  Pr  Pr3  1  0.491798  0.673156  0.597136  1
  Pr  Pr4  1  0.988848  0.829482  0.596677  1
  Pr  Pr5  1  0.988750  0.828820  0.903727  1
  Pr  Pr6  1  0.510924  0.328470  0.096636  1
  Pr  Pr7  1  0.011276  0.171557  0.096499  1
  Hf  Hf8  1  0.332835  0.171652  0.626533  1
  Hf  Hf9  1  0.669400  0.825492  0.374207  1
  Hf  Hf10  1  0.657338  0.005995  0.750390  1
  Hf  Hf11  1  0.168964  0.676113  0.373501  1
  Hf  Hf12  1  0.829574  0.325675  0.874741  1
  Hf  Hf13  1  0.827502  0.324856  0.625463  1
  Hf  Hf14  1  0.842585  0.506451  0.249863  1
  Hf  Hf15  1  0.342688  0.993739  0.249715  1
  Hf  Hf16  1  0.330112  0.174673  0.874626  1
  Hf  Hf17  1  0.170149  0.674670  0.125417  1
  Hf  Hf18  1  0.669633  0.825377  0.125252  1
  Hf  Hf19  1  0.157257  0.493737  0.752129  1
  Si  Si20  1  0.288875  0.880159  0.750506  1
  Si  Si21  1  0.465404  0.627858  0.249719  1
  Si  Si22  1  0.034034  0.128036  0.749895  1
  Si  Si23  1  0.534005  0.372424  0.750308  1
  Si  Si24  1  0.965114  0.872654  0.249364  1
  Si  Si25  1  0.710748  0.118721  0.249604  1
  Si  Si26  1  0.845993  0.535866  0.043217  1
  Si  Si27  1  0.346393  0.964031  0.043257  1
  Si  Si28  1  0.154010  0.464340  0.957093  1
  Si  Si29  1  0.654527  0.036509  0.542635  1
  Si  Si30  1  0.345515  0.963486  0.456845  1
  Si  Si31  1  0.841743  0.536945  0.455708  1
  Si  Si32  1  0.790123  0.618717  0.750120  1
  Si  Si33  1  0.210652  0.381348  0.249872  1
  Si  Si34  1  0.653432  0.035906  0.956793  1
  Ge  Ge35  1  0.159930  0.462895  0.542939  1
