# generated using pymatgen
data_Mn4SbPd9Au2
_symmetry_space_group_name_H-M   'P 1'
_cell_length_a   6.94305930
_cell_length_b   6.94305906
_cell_length_c   6.94305964
_cell_angle_alpha   106.71386190
_cell_angle_beta   106.71385737
_cell_angle_gamma   115.13899572
_symmetry_Int_Tables_number   1
_chemical_formula_structural   Mn4SbPd9Au2
_chemical_formula_sum   'Mn4 Sb1 Pd9 Au2'
_cell_volume   255.74068150
_cell_formula_units_Z   1
loop_
 _symmetry_equiv_pos_site_id
 _symmetry_equiv_pos_as_xyz
  1  'x, y, z'
loop_
 _atom_site_type_symbol
 _atom_site_label
 _atom_site_symmetry_multiplicity
 _atom_site_fract_x
 _atom_site_fract_y
 _atom_site_fract_z
 _atom_site_occupancy
  Mn  Mn0  1  0.234431  0.234431  0.468861  1
  Mn  Mn1  1  0.765569  0.765569  0.531139  1
  Mn  Mn2  1  0.234431  0.765569  0.000000  1
  Mn  Mn3  1  0.765569  0.234431  0.000000  1
  Sb  Sb4  1  0.500000  0.500000  0.000000  1
  Pd  Pd5  1  0.506965  0.259023  0.247941  1
  Pd  Pd6  1  0.493035  0.740977  0.752059  1
  Pd  Pd7  1  0.011081  0.259023  0.752059  1
  Pd  Pd8  1  0.259023  0.011081  0.752059  1
  Pd  Pd9  1  0.988919  0.740977  0.247941  1
  Pd  Pd10  1  0.740977  0.988919  0.247941  1
  Pd  Pd11  1  0.259023  0.506965  0.247941  1
  Pd  Pd12  1  0.740977  0.493035  0.752059  1
  Pd  Pd13  1  0.000000  0.000000  0.000000  1
  Au  Au14  1  0.500000  0.000000  0.500000  1
  Au  Au15  1  0.000000  0.500000  0.500000  1
