# generated using pymatgen
data_Al5Zn(CuPt2)6
_symmetry_space_group_name_H-M   'P 1'
_cell_length_a   4.02909700
_cell_length_b   6.95656600
_cell_length_c   12.08652500
_cell_angle_alpha   90.00004942
_cell_angle_beta   89.99974403
_cell_angle_gamma   89.99995058
_symmetry_Int_Tables_number   1
_chemical_formula_structural   Al5Zn(CuPt2)6
_chemical_formula_sum   'Al5 Zn1 Cu6 Pt12'
_cell_volume   338.76933188
_cell_formula_units_Z   1
loop_
 _symmetry_equiv_pos_site_id
 _symmetry_equiv_pos_as_xyz
  1  'x, y, z'
loop_
 _atom_site_type_symbol
 _atom_site_label
 _atom_site_symmetry_multiplicity
 _atom_site_fract_x
 _atom_site_fract_y
 _atom_site_fract_z
 _atom_site_occupancy
  Al  Al0  1  0.000023  0.000000  0.000938  1
  Al  Al1  1  0.500136  0.500000  0.165572  1
  Al  Al2  1  0.000129  0.000000  0.333330  1
  Al  Al3  1  0.500051  0.500000  0.501093  1
  Al  Al4  1  0.999967  0.000000  0.665723  1
  Zn  Zn5  1  0.499922  0.500000  0.833337  1
  Cu  Cu6  1  0.999512  0.500000  0.996333  1
  Cu  Cu7  1  0.499837  0.000000  0.167065  1
  Cu  Cu8  1  0.000506  0.500000  0.333285  1
  Cu  Cu9  1  0.500367  0.000000  0.499563  1
  Cu  Cu10  1  0.999512  0.500000  0.670423  1
  Cu  Cu11  1  0.499556  0.000000  0.833343  1
  Pt  Pt12  1  0.499983  0.247628  0.001350  1
  Pt  Pt13  1  0.499983  0.752372  0.001350  1
  Pt  Pt14  1  0.000130  0.251794  0.166860  1
  Pt  Pt15  1  0.000131  0.748206  0.166860  1
  Pt  Pt16  1  0.500173  0.249909  0.333333  1
  Pt  Pt17  1  0.500172  0.750092  0.333333  1
  Pt  Pt18  1  0.000061  0.251803  0.499808  1
  Pt  Pt19  1  0.000061  0.748197  0.499808  1
  Pt  Pt20  1  0.499929  0.247637  0.665310  1
  Pt  Pt21  1  0.499928  0.752363  0.665310  1
  Pt  Pt22  1  0.999965  0.241287  0.833337  1
  Pt  Pt23  1  0.999965  0.758713  0.833337  1
