# generated using pymatgen
data_Er4Zn5Ru3
_symmetry_space_group_name_H-M   'P 1'
_cell_length_a   5.29177288
_cell_length_b   5.29177242
_cell_length_c   8.98357500
_cell_angle_alpha   90.00000000
_cell_angle_beta   90.00000000
_cell_angle_gamma   120.46663445
_symmetry_Int_Tables_number   1
_chemical_formula_structural   Er4Zn5Ru3
_chemical_formula_sum   'Er4 Zn5 Ru3'
_cell_volume   216.83072161
_cell_formula_units_Z   1
loop_
 _symmetry_equiv_pos_site_id
 _symmetry_equiv_pos_as_xyz
  1  'x, y, z'
loop_
 _atom_site_type_symbol
 _atom_site_label
 _atom_site_symmetry_multiplicity
 _atom_site_fract_x
 _atom_site_fract_y
 _atom_site_fract_z
 _atom_site_occupancy
  Er  Er0  1  0.329619  0.670381  0.440089  1
  Er  Er1  1  0.666697  0.333303  0.555647  1
  Er  Er2  1  0.666697  0.333303  0.944353  1
  Er  Er3  1  0.329619  0.670381  0.059911  1
  Zn  Zn4  1  0.166228  0.327005  0.750000  1
  Zn  Zn5  1  0.165964  0.834036  0.750000  1
  Zn  Zn6  1  0.337116  0.165665  0.250000  1
  Zn  Zn7  1  0.834335  0.662884  0.250000  1
  Zn  Zn8  1  0.672995  0.833772  0.750000  1
  Ru  Ru9  1  0.998677  0.001323  0.003537  1
  Ru  Ru10  1  0.833377  0.166623  0.250000  1
  Ru  Ru11  1  0.998677  0.001323  0.496463  1
