# generated using pymatgen
data_Ca(AlC)2
_symmetry_space_group_name_H-M   'P 1'
_cell_length_a   3.47663357
_cell_length_b   3.47628092
_cell_length_c   7.17540817
_cell_angle_alpha   104.02514814
_cell_angle_beta   60.98275813
_cell_angle_gamma   119.97328378
_symmetry_Int_Tables_number   1
_chemical_formula_structural   Ca(AlC)2
_chemical_formula_sum   'Ca1 Al2 C2'
_cell_volume   65.69233059
_cell_formula_units_Z   1
loop_
 _symmetry_equiv_pos_site_id
 _symmetry_equiv_pos_as_xyz
  1  'x, y, z'
loop_
 _atom_site_type_symbol
 _atom_site_label
 _atom_site_symmetry_multiplicity
 _atom_site_fract_x
 _atom_site_fract_y
 _atom_site_fract_z
 _atom_site_occupancy
  Ca  Ca0  1  0.346317  0.727507  0.059508  1
  Al  Al1  1  0.315066  0.393624  0.424092  1
  Al  Al2  1  0.377398  0.059211  0.695590  1
  C  C3  1  0.723968  0.060128  0.348871  1
  C  C4  1  0.967881  0.392760  0.771579  1
