# generated using pymatgen
data_Lu3Mg2TiIr3
_symmetry_space_group_name_H-M   'P 1'
_cell_length_a   7.11549712
_cell_length_b   6.94839671
_cell_length_c   4.15159900
_cell_angle_alpha   90.00000000
_cell_angle_beta   90.00000000
_cell_angle_gamma   119.22615145
_symmetry_Int_Tables_number   1
_chemical_formula_structural   Lu3Mg2TiIr3
_chemical_formula_sum   'Lu3 Mg2 Ti1 Ir3'
_cell_volume   179.13064342
_cell_formula_units_Z   1
loop_
 _symmetry_equiv_pos_site_id
 _symmetry_equiv_pos_as_xyz
  1  'x, y, z'
loop_
 _atom_site_type_symbol
 _atom_site_label
 _atom_site_symmetry_multiplicity
 _atom_site_fract_x
 _atom_site_fract_y
 _atom_site_fract_z
 _atom_site_occupancy
  Lu  Lu0  1  0.000000  0.406260  0.500000  1
  Lu  Lu1  1  0.589549  0.586410  0.500000  1
  Lu  Lu2  1  0.410451  0.996861  0.500000  1
  Mg  Mg3  1  0.250231  0.248215  0.000000  1
  Mg  Mg4  1  0.749769  0.997984  0.000000  1
  Ti  Ti5  1  0.000000  0.756537  0.000000  1
  Ir  Ir6  1  0.314118  0.675272  0.000000  1
  Ir  Ir7  1  0.685882  0.361152  0.000000  1
  Ir  Ir8  1  0.000000  0.971308  0.500000  1
