# generated using pymatgen
data_Gd6Er4Si6H
_symmetry_space_group_name_H-M   'P 1'
_cell_length_a   8.43895800
_cell_length_b   8.43895886
_cell_length_c   6.26139500
_cell_angle_alpha   90.00000000
_cell_angle_beta   90.00000000
_cell_angle_gamma   119.99999664
_symmetry_Int_Tables_number   1
_chemical_formula_structural   Gd6Er4Si6H
_chemical_formula_sum   'Gd6 Er4 Si6 H1'
_cell_volume   386.17081040
_cell_formula_units_Z   1
loop_
 _symmetry_equiv_pos_site_id
 _symmetry_equiv_pos_as_xyz
  1  'x, y, z'
loop_
 _atom_site_type_symbol
 _atom_site_label
 _atom_site_symmetry_multiplicity
 _atom_site_fract_x
 _atom_site_fract_y
 _atom_site_fract_z
 _atom_site_occupancy
  Gd  Gd0  1  0.000000  0.750216  0.249190  1
  Gd  Gd1  1  0.249784  0.249784  0.249190  1
  Gd  Gd2  1  0.750216  0.000000  0.249190  1
  Gd  Gd3  1  0.000000  0.249784  0.750810  1
  Gd  Gd4  1  0.750216  0.750216  0.750810  1
  Gd  Gd5  1  0.249784  0.000000  0.750810  1
  Er  Er6  1  0.333333  0.666667  0.500000  1
  Er  Er7  1  0.666667  0.333333  0.500000  1
  Er  Er8  1  0.666667  0.333333  0.000000  1
  Er  Er9  1  0.333333  0.666667  0.000000  1
  Si  Si10  1  0.000000  0.393342  0.250626  1
  Si  Si11  1  0.606658  0.606658  0.250626  1
  Si  Si12  1  0.393342  0.000000  0.250626  1
  Si  Si13  1  0.000000  0.606658  0.749374  1
  Si  Si14  1  0.393342  0.393342  0.749374  1
  Si  Si15  1  0.606658  0.000000  0.749374  1
  H  H16  1  0.000000  0.000000  0.500000  1
