# generated using pymatgen
data_Tm8Sc11Si16W
_symmetry_space_group_name_H-M   'P 1'
_cell_length_a   7.03184504
_cell_length_b   7.28193529
_cell_length_c   13.81635358
_cell_angle_alpha   90.16512606
_cell_angle_beta   89.60249478
_cell_angle_gamma   89.68457495
_symmetry_Int_Tables_number   1
_chemical_formula_structural   Tm8Sc11Si16W
_chemical_formula_sum   'Tm8 Sc11 Si16 W1'
_cell_volume   707.44170927
_cell_formula_units_Z   1
loop_
 _symmetry_equiv_pos_site_id
 _symmetry_equiv_pos_as_xyz
  1  'x, y, z'
loop_
 _atom_site_type_symbol
 _atom_site_label
 _atom_site_symmetry_multiplicity
 _atom_site_fract_x
 _atom_site_fract_y
 _atom_site_fract_z
 _atom_site_occupancy
  Tm  Tm0  1  0.011745  0.175235  0.096675  1
  Tm  Tm1  1  0.989146  0.825127  0.899268  1
  Tm  Tm2  1  0.487150  0.678561  0.900137  1
  Tm  Tm3  1  0.993347  0.829302  0.595591  1
  Tm  Tm4  1  0.513024  0.322609  0.096374  1
  Tm  Tm5  1  0.010256  0.175497  0.404161  1
  Tm  Tm6  1  0.507168  0.323217  0.410017  1
  Tm  Tm7  1  0.487709  0.676663  0.595520  1
  Sc  Sc8  1  0.162233  0.496724  0.745474  1
  Sc  Sc9  1  0.838546  0.496823  0.251571  1
  Sc  Sc10  1  0.337935  0.003573  0.252122  1
  Sc  Sc11  1  0.658193  0.001231  0.747157  1
  Sc  Sc12  1  0.666605  0.825242  0.378884  1
  Sc  Sc13  1  0.168076  0.678589  0.378221  1
  Sc  Sc14  1  0.669538  0.824202  0.124638  1
  Sc  Sc15  1  0.831841  0.323238  0.623737  1
  Sc  Sc16  1  0.332645  0.176212  0.874831  1
  Sc  Sc17  1  0.829524  0.322717  0.872053  1
  Sc  Sc18  1  0.170355  0.676900  0.125690  1
  Si  Si19  1  0.041513  0.119153  0.744893  1
  Si  Si20  1  0.965084  0.888035  0.251227  1
  Si  Si21  1  0.467749  0.614453  0.250664  1
  Si  Si22  1  0.529967  0.377016  0.745880  1
  Si  Si23  1  0.286706  0.877332  0.745665  1
  Si  Si24  1  0.712181  0.129257  0.250793  1
  Si  Si25  1  0.215919  0.370887  0.250569  1
  Si  Si26  1  0.783210  0.626798  0.746888  1
  Si  Si27  1  0.176874  0.451617  0.540591  1
  Si  Si28  1  0.841482  0.531081  0.460914  1
  Si  Si29  1  0.332237  0.970389  0.470962  1
  Si  Si30  1  0.844001  0.534076  0.039131  1
  Si  Si31  1  0.647760  0.034738  0.544766  1
  Si  Si32  1  0.155640  0.466741  0.959241  1
  Si  Si33  1  0.661959  0.034967  0.958955  1
  Si  Si34  1  0.340064  0.964069  0.038617  1
  W  W35  1  0.332617  0.177729  0.628125  1
