# generated using pymatgen
data_Hf9Zr7(Si4Mo)4
_symmetry_space_group_name_H-M   'P 1'
_cell_length_a   6.97871201
_cell_length_b   6.97930628
_cell_length_c   12.76189634
_cell_angle_alpha   90.06929644
_cell_angle_beta   90.00363190
_cell_angle_gamma   90.00268348
_symmetry_Int_Tables_number   1
_chemical_formula_structural   Hf9Zr7(Si4Mo)4
_chemical_formula_sum   'Hf9 Zr7 Si16 Mo4'
_cell_volume   621.58772187
_cell_formula_units_Z   1
loop_
 _symmetry_equiv_pos_site_id
 _symmetry_equiv_pos_as_xyz
  1  'x, y, z'
loop_
 _atom_site_type_symbol
 _atom_site_label
 _atom_site_symmetry_multiplicity
 _atom_site_fract_x
 _atom_site_fract_y
 _atom_site_fract_z
 _atom_site_occupancy
  Hf  Hf0  1  0.996974  0.345480  0.219190  1
  Hf  Hf1  1  0.497569  0.355492  0.124557  1
  Hf  Hf2  1  0.503189  0.644266  0.624514  1
  Hf  Hf3  1  0.855580  0.003233  0.874698  1
  Hf  Hf4  1  0.144105  0.997058  0.374282  1
  Hf  Hf5  1  0.644736  0.502447  0.375130  1
  Hf  Hf6  1  0.355714  0.496767  0.875651  1
  Hf  Hf7  1  0.003178  0.856041  0.125510  1
  Hf  Hf8  1  0.996800  0.144600  0.625481  1
  Zr  Zr9  1  0.496684  0.154371  0.530917  1
  Zr  Zr10  1  0.504187  0.846552  0.030980  1
  Zr  Zr11  1  0.654555  0.004404  0.280801  1
  Zr  Zr12  1  0.346085  0.996633  0.780878  1
  Zr  Zr13  1  0.845963  0.503261  0.969284  1
  Zr  Zr14  1  0.153312  0.495646  0.468819  1
  Zr  Zr15  1  0.003809  0.653658  0.719276  1
  Si  Si16  1  0.796919  0.145905  0.071806  1
  Si  Si17  1  0.203581  0.854854  0.571219  1
  Si  Si18  1  0.645026  0.703827  0.821358  1
  Si  Si19  1  0.354053  0.296728  0.321048  1
  Si  Si20  1  0.855312  0.204191  0.428373  1
  Si  Si21  1  0.145046  0.796228  0.928649  1
  Si  Si22  1  0.704378  0.644642  0.178623  1
  Si  Si23  1  0.296078  0.355070  0.678743  1
  Si  Si24  1  0.548095  0.199316  0.933337  1
  Si  Si25  1  0.452288  0.800840  0.433107  1
  Si  Si26  1  0.699044  0.951930  0.683220  1
  Si  Si27  1  0.300369  0.048504  0.183346  1
  Si  Si28  1  0.800740  0.452047  0.566590  1
  Si  Si29  1  0.198220  0.546876  0.067308  1
  Si  Si30  1  0.952430  0.698139  0.316486  1
  Si  Si31  1  0.048092  0.300775  0.816702  1
  Mo  Mo32  1  0.671989  0.327791  0.749864  1
  Mo  Mo33  1  0.326725  0.671746  0.249878  1
  Mo  Mo34  1  0.827596  0.827942  0.499651  1
  Mo  Mo35  1  0.171580  0.172742  0.000724  1
