# generated using pymatgen
data_Sm3Y9(SiI3)4
_symmetry_space_group_name_H-M   'P 1'
_cell_length_a   10.56838368
_cell_length_b   10.56884799
_cell_length_c   10.57623000
_cell_angle_alpha   109.48503284
_cell_angle_beta   109.48642775
_cell_angle_gamma   109.45812482
_symmetry_Int_Tables_number   1
_chemical_formula_structural   Sm3Y9(SiI3)4
_chemical_formula_sum   'Sm3 Y9 Si4 I12'
_cell_volume   909.20081924
_cell_formula_units_Z   1
loop_
 _symmetry_equiv_pos_site_id
 _symmetry_equiv_pos_as_xyz
  1  'x, y, z'
loop_
 _atom_site_type_symbol
 _atom_site_label
 _atom_site_symmetry_multiplicity
 _atom_site_fract_x
 _atom_site_fract_y
 _atom_site_fract_z
 _atom_site_occupancy
  Sm  Sm0  1  0.463684  0.481841  0.231841  1
  Sm  Sm1  1  0.749576  0.231773  0.268028  1
  Sm  Sm2  1  0.749576  0.017803  0.481549  1
  Y  Y3  1  0.230797  0.460344  0.479609  1
  Y  Y4  1  0.269289  0.749111  0.229618  1
  Y  Y5  1  0.040154  0.270078  0.020078  1
  Y  Y6  1  0.018752  0.039429  0.270551  1
  Y  Y7  1  0.479780  0.750568  0.020474  1
  Y  Y8  1  0.479780  0.229212  0.459308  1
  Y  Y9  1  0.018752  0.479322  0.748201  1
  Y  Y10  1  0.269289  0.020178  0.039670  1
  Y  Y11  1  0.230797  0.270454  0.751188  1
  Si  Si12  1  0.248065  0.248147  0.249775  1
  Si  Si13  1  0.496764  0.998382  0.248382  1
  Si  Si14  1  0.003045  0.251523  0.501523  1
  Si  Si15  1  0.248065  0.499918  0.998290  1
  I  I16  1  0.249904  0.755483  0.744447  1
  I  I17  1  0.511089  0.505544  0.755544  1
  I  I18  1  0.988942  0.744472  0.994472  1
  I  I19  1  0.744505  0.253938  0.759201  1
  I  I20  1  0.997240  0.988503  0.747032  1
  I  I21  1  0.249904  0.994421  0.505457  1
  I  I22  1  0.758189  0.514986  0.512604  1
  I  I23  1  0.502062  0.245696  0.987280  1
  I  I24  1  0.758189  0.743204  0.245585  1
  I  I25  1  0.744505  0.990567  0.985303  1
  I  I26  1  0.997240  0.508736  0.250208  1
  I  I27  1  0.502062  0.756366  0.514783  1
