# generated using pymatgen
data_CeSmY2(ReB6)2
_symmetry_space_group_name_H-M   'P 1'
_cell_length_a   3.72272200
_cell_length_b   9.23067970
_cell_length_c   11.63520221
_cell_angle_alpha   89.84143317
_cell_angle_beta   90.00000000
_cell_angle_gamma   90.00000000
_symmetry_Int_Tables_number   1
_chemical_formula_structural   CeSmY2(ReB6)2
_chemical_formula_sum   'Ce2 Sm2 Y4 Re4 B24'
_cell_volume   399.82188222
_cell_formula_units_Z   2
loop_
 _symmetry_equiv_pos_site_id
 _symmetry_equiv_pos_as_xyz
  1  'x, y, z'
loop_
 _atom_site_type_symbol
 _atom_site_label
 _atom_site_symmetry_multiplicity
 _atom_site_fract_x
 _atom_site_fract_y
 _atom_site_fract_z
 _atom_site_occupancy
  Ce  Ce0  1  0.000000  0.822482  0.086062  1
  Ce  Ce1  1  0.000000  0.177518  0.913938  1
  Sm  Sm2  1  0.000000  0.323831  0.414246  1
  Sm  Sm3  1  0.000000  0.676169  0.585754  1
  Y  Y4  1  0.000000  0.443251  0.129002  1
  Y  Y5  1  0.000000  0.556749  0.870998  1
  Y  Y6  1  0.000000  0.942748  0.370755  1
  Y  Y7  1  0.000000  0.057252  0.629245  1
  Re  Re8  1  0.000000  0.136699  0.177403  1
  Re  Re9  1  0.000000  0.863301  0.822597  1
  Re  Re10  1  0.000000  0.639808  0.318812  1
  Re  Re11  1  0.000000  0.360192  0.681188  1
  B  B12  1  0.500000  0.053920  0.068329  1
  B  B13  1  0.500000  0.946080  0.931672  1
  B  B14  1  0.500000  0.554262  0.431620  1
  B  B15  1  0.500000  0.445738  0.568379  1
  B  B16  1  0.500000  0.248241  0.082257  1
  B  B17  1  0.500000  0.751759  0.917743  1
  B  B18  1  0.500000  0.748505  0.417257  1
  B  B19  1  0.500000  0.251495  0.582743  1
  B  B20  1  0.500000  0.290539  0.233602  1
  B  B21  1  0.500000  0.709461  0.766398  1
  B  B22  1  0.500000  0.790951  0.265533  1
  B  B23  1  0.500000  0.209049  0.734467  1
  B  B24  1  0.500000  0.130055  0.313488  1
  B  B25  1  0.500000  0.869945  0.686512  1
  B  B26  1  0.500000  0.631352  0.185964  1
  B  B27  1  0.500000  0.368648  0.814036  1
  B  B28  1  0.500000  0.483824  0.287304  1
  B  B29  1  0.500000  0.516176  0.712696  1
  B  B30  1  0.500000  0.983197  0.212377  1
  B  B31  1  0.500000  0.016803  0.787623  1
  B  B32  1  0.500000  0.099578  0.472039  1
  B  B33  1  0.500000  0.900422  0.527961  1
  B  B34  1  0.500000  0.603958  0.028879  1
  B  B35  1  0.500000  0.396042  0.971121  1
