# generated using pymatgen
data_Li12Gd12FeW7O48
_symmetry_space_group_name_H-M   'P 1'
_cell_length_a   10.76855997
_cell_length_b   10.76855944
_cell_length_c   10.74464900
_cell_angle_alpha   109.42624998
_cell_angle_beta   109.42624899
_cell_angle_gamma   109.51615581
_symmetry_Int_Tables_number   1
_chemical_formula_structural   Li12Gd12FeW7O48
_chemical_formula_sum   'Li12 Gd12 Fe1 W7 O48'
_cell_volume   959.67970093
_cell_formula_units_Z   1
loop_
 _symmetry_equiv_pos_site_id
 _symmetry_equiv_pos_as_xyz
  1  'x, y, z'
loop_
 _atom_site_type_symbol
 _atom_site_label
 _atom_site_symmetry_multiplicity
 _atom_site_fract_x
 _atom_site_fract_y
 _atom_site_fract_z
 _atom_site_occupancy
  Li  Li0  1  0.749890  0.375391  0.124927  1
  Li  Li1  1  0.874499  0.749890  0.124963  1
  Li  Li2  1  0.128819  0.376302  0.253865  1
  Li  Li3  1  0.624609  0.874499  0.249536  1
  Li  Li4  1  0.252517  0.128819  0.374954  1
  Li  Li5  1  0.623699  0.252517  0.377563  1
  Li  Li6  1  0.376302  0.747483  0.622437  1
  Li  Li7  1  0.747483  0.871181  0.625047  1
  Li  Li8  1  0.375391  0.125501  0.750464  1
  Li  Li9  1  0.871181  0.623699  0.746135  1
  Li  Li10  1  0.125501  0.250109  0.875037  1
  Li  Li11  1  0.250110  0.624609  0.875073  1
  Gd  Gd12  1  0.374817  0.251866  0.129821  1
  Gd  Gd13  1  0.249857  0.873839  0.124939  1
  Gd  Gd14  1  0.873839  0.123981  0.248899  1
  Gd  Gd15  1  0.377049  0.625184  0.255004  1
  Gd  Gd16  1  0.123981  0.750142  0.375080  1
  Gd  Gd17  1  0.748134  0.622951  0.377955  1
  Gd  Gd18  1  0.876019  0.249858  0.624920  1
  Gd  Gd19  1  0.251866  0.377049  0.622046  1
  Gd  Gd20  1  0.622951  0.374817  0.744996  1
  Gd  Gd21  1  0.126161  0.876019  0.751100  1
  Gd  Gd22  1  0.750142  0.126161  0.875061  1
  Gd  Gd23  1  0.625184  0.748134  0.870179  1
  Fe  Fe24  1  0.500000  0.500000  0.500000  1
  W  W25  1  0.000000  0.000000  0.000000  1
  W  W26  1  0.500000  0.000000  0.000000  1
  W  W27  1  0.000000  0.500000  0.000000  1
  W  W28  1  0.500000  0.500000  0.000000  1
  W  W29  1  0.500000  0.000000  0.500000  1
  W  W30  1  0.000000  0.500000  0.500000  1
  W  W31  1  0.000000  0.000000  0.500000  1
  O  O32  1  0.198302  0.617358  0.025152  1
  O  O33  1  0.326982  0.408250  0.026458  1
  O  O34  1  0.699033  0.173138  0.080858  1
  O  O35  1  0.881910  0.907845  0.081078  1
  O  O36  1  0.976039  0.174110  0.092911  1
  O  O37  1  0.617359  0.919057  0.092207  1
  O  O38  1  0.025895  0.699033  0.118174  1
  O  O39  1  0.591751  0.418733  0.118209  1
  O  O40  1  0.198520  0.080425  0.172810  1
  O  O41  1  0.474881  0.093002  0.174127  1
  O  O42  1  0.118121  0.525118  0.199246  1
  O  O43  1  0.581268  0.673018  0.199476  1
  O  O44  1  0.333058  0.420649  0.304301  1
  O  O45  1  0.474065  0.881911  0.300832  1
  O  O46  1  0.919057  0.801698  0.326849  1
  O  O47  1  0.907845  0.525935  0.326767  1
  O  O48  1  0.579350  0.412410  0.383651  1
  O  O49  1  0.301929  0.976039  0.383128  1
  O  O50  1  0.826862  0.025895  0.407722  1
  O  O51  1  0.080425  0.381905  0.407615  1
  O  O52  1  0.825890  0.301928  0.418800  1
  O  O53  1  0.093002  0.118121  0.418874  1
  O  O54  1  0.381905  0.801480  0.474292  1
  O  O55  1  0.587590  0.666941  0.471241  1
  O  O56  1  0.412410  0.333058  0.528758  1
  O  O57  1  0.618094  0.198520  0.525708  1
  O  O58  1  0.174109  0.698072  0.581199  1
  O  O59  1  0.906998  0.881880  0.581125  1
  O  O60  1  0.919575  0.618094  0.592386  1
  O  O61  1  0.173138  0.974106  0.592279  1
  O  O62  1  0.420649  0.587590  0.616348  1
  O  O63  1  0.698072  0.023962  0.616873  1
  O  O64  1  0.080943  0.198302  0.673150  1
  O  O65  1  0.092154  0.474065  0.673233  1
  O  O66  1  0.666941  0.579350  0.695699  1
  O  O67  1  0.525935  0.118090  0.699168  1
  O  O68  1  0.418733  0.326982  0.800524  1
  O  O69  1  0.881880  0.474881  0.800754  1
  O  O70  1  0.525118  0.906998  0.825873  1
  O  O71  1  0.801480  0.919575  0.827189  1
  O  O72  1  0.974105  0.300967  0.881826  1
  O  O73  1  0.408250  0.581268  0.881792  1
  O  O74  1  0.023962  0.825890  0.907089  1
  O  O75  1  0.382642  0.080943  0.907793  1
  O  O76  1  0.118090  0.092155  0.918922  1
  O  O77  1  0.300967  0.826862  0.919142  1
  O  O78  1  0.801698  0.382641  0.974849  1
  O  O79  1  0.673018  0.591751  0.973543  1
