# generated using pymatgen
data_Yb6Mn2N6Cl
_symmetry_space_group_name_H-M   'P 1'
_cell_length_a   5.93371591
_cell_length_b   5.93371662
_cell_length_c   5.93371600
_cell_angle_alpha   96.35056418
_cell_angle_beta   96.35056494
_cell_angle_gamma   96.35056456
_symmetry_Int_Tables_number   1
_chemical_formula_structural   Yb6Mn2N6Cl
_chemical_formula_sum   'Yb6 Mn2 N6 Cl1'
_cell_volume   204.76184752
_cell_formula_units_Z   1
loop_
 _symmetry_equiv_pos_site_id
 _symmetry_equiv_pos_as_xyz
  1  'x, y, z'
loop_
 _atom_site_type_symbol
 _atom_site_label
 _atom_site_symmetry_multiplicity
 _atom_site_fract_x
 _atom_site_fract_y
 _atom_site_fract_z
 _atom_site_occupancy
  Yb  Yb0  1  0.612322  0.111910  0.780205  1
  Yb  Yb1  1  0.111910  0.780205  0.612322  1
  Yb  Yb2  1  0.780205  0.612322  0.111910  1
  Yb  Yb3  1  0.387678  0.888090  0.219795  1
  Yb  Yb4  1  0.888090  0.219795  0.387678  1
  Yb  Yb5  1  0.219795  0.387678  0.888090  1
  Mn  Mn6  1  0.617453  0.617453  0.617453  1
  Mn  Mn7  1  0.382547  0.382547  0.382547  1
  N  N8  1  0.725277  0.847829  0.470257  1
  N  N9  1  0.847829  0.470257  0.725277  1
  N  N10  1  0.470257  0.725277  0.847829  1
  N  N11  1  0.274723  0.152171  0.529743  1
  N  N12  1  0.152171  0.529743  0.274723  1
  N  N13  1  0.529743  0.274723  0.152171  1
  Cl  Cl14  1  0.000000  0.000000  0.000000  1
