# generated using pymatgen
data_Y3Ho(AlPd)4
_symmetry_space_group_name_H-M   'P 1'
_cell_length_a   4.47669500
_cell_length_b   6.89082565
_cell_length_c   7.76498785
_cell_angle_alpha   89.92077835
_cell_angle_beta   90.00000000
_cell_angle_gamma   90.00000000
_symmetry_Int_Tables_number   1
_chemical_formula_structural   Y3Ho(AlPd)4
_chemical_formula_sum   'Y3 Ho1 Al4 Pd4'
_cell_volume   239.53508484
_cell_formula_units_Z   1
loop_
 _symmetry_equiv_pos_site_id
 _symmetry_equiv_pos_as_xyz
  1  'x, y, z'
loop_
 _atom_site_type_symbol
 _atom_site_label
 _atom_site_symmetry_multiplicity
 _atom_site_fract_x
 _atom_site_fract_y
 _atom_site_fract_z
 _atom_site_occupancy
  Y  Y0  1  0.250000  0.032273  0.680777  1
  Y  Y1  1  0.250000  0.532231  0.819358  1
  Y  Y2  1  0.750000  0.967509  0.319062  1
  Ho  Ho3  1  0.750000  0.467087  0.180616  1
  Al  Al4  1  0.250000  0.146634  0.062279  1
  Al  Al5  1  0.250000  0.646457  0.437646  1
  Al  Al6  1  0.750000  0.853385  0.937710  1
  Al  Al7  1  0.750000  0.353617  0.562094  1
  Pd  Pd8  1  0.250000  0.274584  0.381899  1
  Pd  Pd9  1  0.250000  0.773339  0.117625  1
  Pd  Pd10  1  0.750000  0.726110  0.617393  1
  Pd  Pd11  1  0.750000  0.226774  0.883541  1
