# generated using pymatgen
data_Ho2Er5Th(ReB6)4
_symmetry_space_group_name_H-M   'P 1'
_cell_length_a   3.68794600
_cell_length_b   9.16060272
_cell_length_c   11.55559706
_cell_angle_alpha   90.04107461
_cell_angle_beta   90.00000000
_cell_angle_gamma   90.00000000
_symmetry_Int_Tables_number   1
_chemical_formula_structural   Ho2Er5Th(ReB6)4
_chemical_formula_sum   'Ho2 Er5 Th1 Re4 B24'
_cell_volume   390.39197412
_cell_formula_units_Z   1
loop_
 _symmetry_equiv_pos_site_id
 _symmetry_equiv_pos_as_xyz
  1  'x, y, z'
loop_
 _atom_site_type_symbol
 _atom_site_label
 _atom_site_symmetry_multiplicity
 _atom_site_fract_x
 _atom_site_fract_y
 _atom_site_fract_z
 _atom_site_occupancy
  Ho  Ho0  1  0.000000  0.677930  0.587397  1
  Ho  Ho1  1  0.000000  0.823246  0.085099  1
  Er  Er2  1  0.000000  0.175974  0.913984  1
  Er  Er3  1  0.000000  0.942115  0.369498  1
  Er  Er4  1  0.000000  0.055857  0.631362  1
  Er  Er5  1  0.000000  0.443582  0.128065  1
  Er  Er6  1  0.000000  0.557311  0.870739  1
  Th  Th7  1  0.000000  0.322336  0.414139  1
  Re  Re8  1  0.000000  0.639403  0.320261  1
  Re  Re9  1  0.000000  0.361653  0.680802  1
  Re  Re10  1  0.000000  0.138224  0.178016  1
  Re  Re11  1  0.000000  0.861568  0.820888  1
  B  B12  1  0.500000  0.556086  0.432271  1
  B  B13  1  0.500000  0.447054  0.569820  1
  B  B14  1  0.500000  0.053018  0.066033  1
  B  B15  1  0.500000  0.946600  0.932965  1
  B  B16  1  0.500000  0.750640  0.418345  1
  B  B17  1  0.500000  0.250296  0.585233  1
  B  B18  1  0.500000  0.249097  0.079668  1
  B  B19  1  0.500000  0.750498  0.918541  1
  B  B20  1  0.500000  0.792484  0.264877  1
  B  B21  1  0.500000  0.207696  0.736523  1
  B  B22  1  0.500000  0.290653  0.231885  1
  B  B23  1  0.500000  0.707825  0.765732  1
  B  B24  1  0.500000  0.631965  0.184117  1
  B  B25  1  0.500000  0.369720  0.815738  1
  B  B26  1  0.500000  0.128863  0.312219  1
  B  B27  1  0.500000  0.869071  0.685922  1
  B  B28  1  0.500000  0.981673  0.210905  1
  B  B29  1  0.500000  0.017459  0.788605  1
  B  B30  1  0.500000  0.485499  0.285850  1
  B  B31  1  0.500000  0.518351  0.713875  1
  B  B32  1  0.500000  0.600936  0.027502  1
  B  B33  1  0.500000  0.399655  0.971625  1
  B  B34  1  0.500000  0.096442  0.473199  1
  B  B35  1  0.500000  0.899218  0.528302  1
