# generated using pymatgen
data_LaErFe3P7Ru9
_symmetry_space_group_name_H-M   'P 1'
_cell_length_a   9.33660100
_cell_length_b   9.33659969
_cell_length_c   3.86633900
_cell_angle_alpha   90.00000000
_cell_angle_beta   90.00000000
_cell_angle_gamma   119.99999403
_symmetry_Int_Tables_number   1
_chemical_formula_structural   LaErFe3P7Ru9
_chemical_formula_sum   'La1 Er1 Fe3 P7 Ru9'
_cell_volume   291.88254625
_cell_formula_units_Z   1
loop_
 _symmetry_equiv_pos_site_id
 _symmetry_equiv_pos_as_xyz
  1  'x, y, z'
loop_
 _atom_site_type_symbol
 _atom_site_label
 _atom_site_symmetry_multiplicity
 _atom_site_fract_x
 _atom_site_fract_y
 _atom_site_fract_z
 _atom_site_occupancy
  La  La0  1  0.000000  0.000000  0.000000  1
  Er  Er1  1  0.333333  0.666667  0.500000  1
  Fe  Fe2  1  0.823616  0.223483  0.000000  1
  Fe  Fe3  1  0.776517  0.600134  0.000000  1
  Fe  Fe4  1  0.399866  0.176384  0.000000  1
  P  P5  1  0.081656  0.440518  0.000000  1
  P  P6  1  0.559482  0.641138  0.000000  1
  P  P7  1  0.358862  0.918344  0.000000  1
  P  P8  1  0.778393  0.055459  0.500000  1
  P  P9  1  0.944541  0.722932  0.500000  1
  P  P10  1  0.277068  0.221607  0.500000  1
  P  P11  1  0.666667  0.333333  0.000000  1
  Ru  Ru12  1  0.086666  0.689281  0.000000  1
  Ru  Ru13  1  0.310719  0.397385  0.000000  1
  Ru  Ru14  1  0.602615  0.913334  0.000000  1
  Ru  Ru15  1  0.055399  0.286292  0.500000  1
  Ru  Ru16  1  0.713708  0.769107  0.500000  1
  Ru  Ru17  1  0.230893  0.944601  0.500000  1
  Ru  Ru18  1  0.869039  0.447334  0.500000  1
  Ru  Ru19  1  0.552666  0.421705  0.500000  1
  Ru  Ru20  1  0.578295  0.130961  0.500000  1
