# generated using pymatgen
data_NdHo3(WN3)4
_symmetry_space_group_name_H-M   'P 1'
_cell_length_a   7.33322759
_cell_length_b   7.33322808
_cell_length_c   6.28014762
_cell_angle_alpha   74.33561085
_cell_angle_beta   74.33562592
_cell_angle_gamma   82.25061257
_symmetry_Int_Tables_number   1
_chemical_formula_structural   NdHo3(WN3)4
_chemical_formula_sum   'Nd1 Ho3 W4 N12'
_cell_volume   312.40277660
_cell_formula_units_Z   1
loop_
 _symmetry_equiv_pos_site_id
 _symmetry_equiv_pos_as_xyz
  1  'x, y, z'
loop_
 _atom_site_type_symbol
 _atom_site_label
 _atom_site_symmetry_multiplicity
 _atom_site_fract_x
 _atom_site_fract_y
 _atom_site_fract_z
 _atom_site_occupancy
  Nd  Nd0  1  0.703846  0.296154  0.750000  1
  Ho  Ho1  1  0.091337  0.908663  0.750000  1
  Ho  Ho2  1  0.290847  0.709153  0.250000  1
  Ho  Ho3  1  0.913413  0.086587  0.250000  1
  W  W4  1  0.379259  0.199937  0.238592  1
  W  W5  1  0.618325  0.799869  0.765275  1
  W  W6  1  0.800063  0.620741  0.261408  1
  W  W7  1  0.200131  0.381675  0.734725  1
  N  N8  1  0.623244  0.110467  0.167183  1
  N  N9  1  0.353934  0.362550  0.444663  1
  N  N10  1  0.006849  0.213718  0.850713  1
  N  N11  1  0.375076  0.892030  0.842470  1
  N  N12  1  0.786282  0.993151  0.649287  1
  N  N13  1  0.107970  0.624924  0.657530  1
  N  N14  1  0.889533  0.376756  0.332817  1
  N  N15  1  0.646199  0.645152  0.549643  1
  N  N16  1  0.637450  0.646066  0.055337  1
  N  N17  1  0.354848  0.353801  0.950357  1
  N  N18  1  0.001830  0.780435  0.150278  1
  N  N19  1  0.219565  0.998170  0.349722  1
