# generated using pymatgen
data_Ca2Al7Ag
_symmetry_space_group_name_H-M   'P 1'
_cell_length_a   4.23066000
_cell_length_b   4.23066000
_cell_length_c   11.69547900
_cell_angle_alpha   90.00000000
_cell_angle_beta   90.00000000
_cell_angle_gamma   90.00000000
_symmetry_Int_Tables_number   1
_chemical_formula_structural   Ca2Al7Ag
_chemical_formula_sum   'Ca2 Al7 Ag1'
_cell_volume   209.33134417
_cell_formula_units_Z   1
loop_
 _symmetry_equiv_pos_site_id
 _symmetry_equiv_pos_as_xyz
  1  'x, y, z'
loop_
 _atom_site_type_symbol
 _atom_site_label
 _atom_site_symmetry_multiplicity
 _atom_site_fract_x
 _atom_site_fract_y
 _atom_site_fract_z
 _atom_site_occupancy
  Ca  Ca0  1  0.000000  0.000000  0.995839  1
  Ca  Ca1  1  0.500000  0.500000  0.501968  1
  Al  Al2  1  0.000000  0.500000  0.250516  1
  Al  Al3  1  0.500000  0.000000  0.749445  1
  Al  Al4  1  0.500000  0.000000  0.250516  1
  Al  Al5  1  0.000000  0.500000  0.749445  1
  Al  Al6  1  0.000000  0.000000  0.610605  1
  Al  Al7  1  0.000000  0.000000  0.390995  1
  Al  Al8  1  0.500000  0.500000  0.890272  1
  Ag  Ag9  1  0.500000  0.500000  0.110399  1
