# generated using pymatgen
data_Lu20CuBi10Au
_symmetry_space_group_name_H-M   'P 1'
_cell_length_a   8.02367605
_cell_length_b   9.32721400
_cell_length_c   11.76926902
_cell_angle_alpha   90.00000000
_cell_angle_beta   89.99687127
_cell_angle_gamma   90.00000000
_symmetry_Int_Tables_number   1
_chemical_formula_structural   Lu20CuBi10Au
_chemical_formula_sum   'Lu20 Cu1 Bi10 Au1'
_cell_volume   880.79495133
_cell_formula_units_Z   1
loop_
 _symmetry_equiv_pos_site_id
 _symmetry_equiv_pos_as_xyz
  1  'x, y, z'
loop_
 _atom_site_type_symbol
 _atom_site_label
 _atom_site_symmetry_multiplicity
 _atom_site_fract_x
 _atom_site_fract_y
 _atom_site_fract_z
 _atom_site_occupancy
  Lu  Lu0  1  0.042274  0.250000  0.508933  1
  Lu  Lu1  1  0.984214  0.750000  0.491765  1
  Lu  Lu2  1  0.486275  0.750000  0.007719  1
  Lu  Lu3  1  0.540157  0.250000  0.992619  1
  Lu  Lu4  1  0.349960  0.250000  0.295388  1
  Lu  Lu5  1  0.656563  0.750000  0.721305  1
  Lu  Lu6  1  0.155839  0.750000  0.781697  1
  Lu  Lu7  1  0.854033  0.250000  0.196475  1
  Lu  Lu8  1  0.166360  0.250000  0.796121  1
  Lu  Lu9  1  0.810047  0.750000  0.216935  1
  Lu  Lu10  1  0.309448  0.750000  0.283142  1
  Lu  Lu11  1  0.671234  0.250000  0.706975  1
  Lu  Lu12  1  0.182962  0.073309  0.055710  1
  Lu  Lu13  1  0.813035  0.960990  0.943604  1
  Lu  Lu14  1  0.311799  0.954101  0.559234  1
  Lu  Lu15  1  0.813035  0.539010  0.943604  1
  Lu  Lu16  1  0.686974  0.071983  0.440675  1
  Lu  Lu17  1  0.182962  0.426691  0.055710  1
  Lu  Lu18  1  0.686974  0.428017  0.440675  1
  Lu  Lu19  1  0.311799  0.545899  0.559234  1
  Cu  Cu20  1  0.909115  0.250000  0.966168  1
  Bi  Bi21  1  0.597049  0.750000  0.460679  1
  Bi  Bi22  1  0.096749  0.750000  0.040866  1
  Bi  Bi23  1  0.055117  0.001667  0.322063  1
  Bi  Bi24  1  0.937370  0.998474  0.677701  1
  Bi  Bi25  1  0.437896  0.999047  0.823404  1
  Bi  Bi26  1  0.937370  0.501526  0.677701  1
  Bi  Bi27  1  0.554997  0.001167  0.177711  1
  Bi  Bi28  1  0.055117  0.498333  0.322063  1
  Bi  Bi29  1  0.554997  0.498833  0.177711  1
  Bi  Bi30  1  0.437896  0.500953  0.823404  1
  Au  Au31  1  0.410390  0.250000  0.533013  1
