# generated using pymatgen
data_Dy5ErAl17Si7Os8
_symmetry_space_group_name_H-M   'P 1'
_cell_length_a   8.69433811
_cell_length_b   8.68301412
_cell_length_c   9.48777800
_cell_angle_alpha   90.00000000
_cell_angle_beta   90.00000000
_cell_angle_gamma   120.11473852
_symmetry_Int_Tables_number   1
_chemical_formula_structural   Dy5ErAl17Si7Os8
_chemical_formula_sum   'Dy5 Er1 Al17 Si7 Os8'
_cell_volume   619.58214454
_cell_formula_units_Z   1
loop_
 _symmetry_equiv_pos_site_id
 _symmetry_equiv_pos_as_xyz
  1  'x, y, z'
loop_
 _atom_site_type_symbol
 _atom_site_label
 _atom_site_symmetry_multiplicity
 _atom_site_fract_x
 _atom_site_fract_y
 _atom_site_fract_z
 _atom_site_occupancy
  Dy  Dy0  1  0.192352  0.387545  0.250000  1
  Dy  Dy1  1  0.807192  0.614570  0.750000  1
  Dy  Dy2  1  0.611536  0.807735  0.250000  1
  Dy  Dy3  1  0.387461  0.190911  0.750000  1
  Dy  Dy4  1  0.802910  0.191396  0.750000  1
  Er  Er5  1  0.195720  0.805207  0.250000  1
  Al  Al6  1  0.164384  0.329605  0.578174  1
  Al  Al7  1  0.834466  0.671249  0.420756  1
  Al  Al8  1  0.671314  0.835049  0.577771  1
  Al  Al9  1  0.834466  0.671249  0.079244  1
  Al  Al10  1  0.329576  0.165677  0.421933  1
  Al  Al11  1  0.164384  0.329605  0.921826  1
  Al  Al12  1  0.163720  0.834353  0.576513  1
  Al  Al13  1  0.329576  0.165677  0.078067  1
  Al  Al14  1  0.835507  0.164088  0.421348  1
  Al  Al15  1  0.671314  0.835049  0.922229  1
  Al  Al16  1  0.835507  0.164088  0.078652  1
  Al  Al17  1  0.163720  0.834353  0.923487  1
  Al  Al18  1  0.125980  0.565617  0.750000  1
  Al  Al19  1  0.564767  0.434989  0.250000  1
  Al  Al20  1  0.438569  0.566478  0.750000  1
  Al  Al21  1  0.999889  0.999047  0.250000  1
  Al  Al22  1  0.999902  0.000815  0.750000  1
  Si  Si23  1  0.333168  0.664889  0.038916  1
  Si  Si24  1  0.666503  0.335729  0.960617  1
  Si  Si25  1  0.666503  0.335729  0.539383  1
  Si  Si26  1  0.333168  0.664889  0.461084  1
  Si  Si27  1  0.564337  0.124299  0.250000  1
  Si  Si28  1  0.436344  0.872905  0.750000  1
  Si  Si29  1  0.874834  0.435197  0.250000  1
  Os  Os30  1  0.500713  0.001002  0.001093  1
  Os  Os31  1  0.998467  0.499595  0.006653  1
  Os  Os32  1  0.500713  0.001002  0.498907  1
  Os  Os33  1  0.500655  0.500124  0.000269  1
  Os  Os34  1  0.998467  0.499595  0.493347  1
  Os  Os35  1  0.500655  0.500124  0.499731  1
  Os  Os36  1  0.000630  0.000287  0.999898  1
  Os  Os37  1  0.000630  0.000287  0.500102  1
