# generated using pymatgen
data_Nd5Er3(MgSn4)2
_symmetry_space_group_name_H-M   'P 1'
_cell_length_a   7.81162571
_cell_length_b   8.37981923
_cell_length_c   15.50578972
_cell_angle_alpha   90.03693063
_cell_angle_beta   89.75273798
_cell_angle_gamma   90.22871299
_symmetry_Int_Tables_number   1
_chemical_formula_structural   Nd5Er3(MgSn4)2
_chemical_formula_sum   'Nd10 Er6 Mg4 Sn16'
_cell_volume   1014.99143258
_cell_formula_units_Z   2
loop_
 _symmetry_equiv_pos_site_id
 _symmetry_equiv_pos_as_xyz
  1  'x, y, z'
loop_
 _atom_site_type_symbol
 _atom_site_label
 _atom_site_symmetry_multiplicity
 _atom_site_fract_x
 _atom_site_fract_y
 _atom_site_fract_z
 _atom_site_occupancy
  Nd  Nd0  1  0.001748  0.182070  0.092901  1
  Nd  Nd1  1  0.998252  0.817930  0.907099  1
  Nd  Nd2  1  0.499670  0.682533  0.906516  1
  Nd  Nd3  1  0.998449  0.818488  0.595372  1
  Nd  Nd4  1  0.500330  0.317467  0.093484  1
  Nd  Nd5  1  0.001551  0.181512  0.404628  1
  Nd  Nd6  1  0.501551  0.316821  0.403289  1
  Nd  Nd7  1  0.498449  0.683179  0.596711  1
  Nd  Nd8  1  0.335473  0.171947  0.627953  1
  Nd  Nd9  1  0.664527  0.828053  0.372047  1
  Er  Er10  1  0.163242  0.670582  0.369669  1
  Er  Er11  1  0.666124  0.829939  0.126339  1
  Er  Er12  1  0.836758  0.329418  0.630331  1
  Er  Er13  1  0.333876  0.170061  0.873661  1
  Er  Er14  1  0.835861  0.329380  0.873275  1
  Er  Er15  1  0.164139  0.670620  0.126725  1
  Mg  Mg16  1  0.162836  0.506259  0.752213  1
  Mg  Mg17  1  0.837164  0.493741  0.247787  1
  Mg  Mg18  1  0.337712  0.005987  0.247488  1
  Mg  Mg19  1  0.662288  0.994013  0.752512  1
  Sn  Sn20  1  0.021417  0.100764  0.753342  1
  Sn  Sn21  1  0.978583  0.899236  0.246658  1
  Sn  Sn22  1  0.472934  0.599208  0.247086  1
  Sn  Sn23  1  0.527066  0.400792  0.752914  1
  Sn  Sn24  1  0.174224  0.464877  0.536479  1
  Sn  Sn25  1  0.825776  0.535123  0.463521  1
  Sn  Sn26  1  0.317638  0.958671  0.460305  1
  Sn  Sn27  1  0.823135  0.539027  0.038280  1
  Sn  Sn28  1  0.682362  0.041329  0.539695  1
  Sn  Sn29  1  0.176865  0.460973  0.961720  1
  Sn  Sn30  1  0.675423  0.038865  0.961470  1
  Sn  Sn31  1  0.324577  0.961135  0.038530  1
  Sn  Sn32  1  0.299399  0.856463  0.752213  1
  Sn  Sn33  1  0.700601  0.143537  0.247787  1
  Sn  Sn34  1  0.198140  0.359221  0.248263  1
  Sn  Sn35  1  0.801860  0.640779  0.751737  1
