# generated using pymatgen
data_AcSF
_symmetry_space_group_name_H-M   'P 1'
_cell_length_a   4.22058600
_cell_length_b   4.22058600
_cell_length_c   7.15932500
_cell_angle_alpha   90.00000000
_cell_angle_beta   90.00000000
_cell_angle_gamma   90.00000000
_symmetry_Int_Tables_number   1
_chemical_formula_structural   AcSF
_chemical_formula_sum   'Ac2 S2 F2'
_cell_volume   127.53153466
_cell_formula_units_Z   2
loop_
 _symmetry_equiv_pos_site_id
 _symmetry_equiv_pos_as_xyz
  1  'x, y, z'
loop_
 _atom_site_type_symbol
 _atom_site_label
 _atom_site_symmetry_multiplicity
 _atom_site_fract_x
 _atom_site_fract_y
 _atom_site_fract_z
 _atom_site_occupancy
  Ac  Ac0  1  0.000000  0.500000  0.767848  1
  Ac  Ac1  1  0.500000  0.000000  0.232152  1
  S  S2  1  0.500000  0.000000  0.654555  1
  S  S3  1  0.000000  0.500000  0.345445  1
  F  F4  1  0.500000  0.500000  0.000000  1
  F  F5  1  0.000000  0.000000  0.000000  1
