# generated using pymatgen
data_Hf7TiGe6(MoC)2
_symmetry_space_group_name_H-M   'P 1'
_cell_length_a   7.83763700
_cell_length_b   7.83763747
_cell_length_c   5.46098400
_cell_angle_alpha   90.00000000
_cell_angle_beta   90.00000000
_cell_angle_gamma   120.00000224
_symmetry_Int_Tables_number   1
_chemical_formula_structural   Hf7TiGe6(MoC)2
_chemical_formula_sum   'Hf7 Ti1 Ge6 Mo2 C2'
_cell_volume   290.51719512
_cell_formula_units_Z   1
loop_
 _symmetry_equiv_pos_site_id
 _symmetry_equiv_pos_as_xyz
  1  'x, y, z'
loop_
 _atom_site_type_symbol
 _atom_site_label
 _atom_site_symmetry_multiplicity
 _atom_site_fract_x
 _atom_site_fract_y
 _atom_site_fract_z
 _atom_site_occupancy
  Hf  Hf0  1  0.666667  0.333333  0.000000  1
  Hf  Hf1  1  0.766113  0.000389  0.750199  1
  Hf  Hf2  1  0.766113  0.765724  0.249801  1
  Hf  Hf3  1  0.999611  0.233887  0.249801  1
  Hf  Hf4  1  0.999611  0.765724  0.750199  1
  Hf  Hf5  1  0.234276  0.233887  0.750199  1
  Hf  Hf6  1  0.234276  0.000389  0.249801  1
  Ti  Ti7  1  0.333333  0.666667  0.500000  1
  Ge  Ge8  1  0.403842  0.995127  0.743880  1
  Ge  Ge9  1  0.403842  0.408716  0.256120  1
  Ge  Ge10  1  0.004873  0.596158  0.256120  1
  Ge  Ge11  1  0.004873  0.408716  0.743880  1
  Ge  Ge12  1  0.591284  0.596158  0.743880  1
  Ge  Ge13  1  0.591284  0.995127  0.256120  1
  Mo  Mo14  1  0.666667  0.333333  0.500000  1
  Mo  Mo15  1  0.333333  0.666667  0.000000  1
  C  C16  1  0.000000  0.000000  0.500000  1
  C  C17  1  0.000000  0.000000  0.000000  1
