# generated using pymatgen
data_Tb3Er7InPb5
_symmetry_space_group_name_H-M   'P 1'
_cell_length_a   9.01223407
_cell_length_b   9.01223347
_cell_length_c   6.63314800
_cell_angle_alpha   90.00000000
_cell_angle_beta   90.00000000
_cell_angle_gamma   120.06121856
_symmetry_Int_Tables_number   1
_chemical_formula_structural   Tb3Er7InPb5
_chemical_formula_sum   'Tb3 Er7 In1 Pb5'
_cell_volume   466.28020418
_cell_formula_units_Z   1
loop_
 _symmetry_equiv_pos_site_id
 _symmetry_equiv_pos_as_xyz
  1  'x, y, z'
loop_
 _atom_site_type_symbol
 _atom_site_label
 _atom_site_symmetry_multiplicity
 _atom_site_fract_x
 _atom_site_fract_y
 _atom_site_fract_z
 _atom_site_occupancy
  Tb  Tb0  1  0.238304  0.238304  0.250000  1
  Tb  Tb1  1  0.761727  0.999601  0.250000  1
  Tb  Tb2  1  0.999601  0.761727  0.250000  1
  Er  Er3  1  0.663813  0.333630  0.997921  1
  Er  Er4  1  0.333630  0.663813  0.997921  1
  Er  Er5  1  0.333630  0.663813  0.502079  1
  Er  Er6  1  0.663813  0.333630  0.502079  1
  Er  Er7  1  0.760542  0.760542  0.750000  1
  Er  Er8  1  0.239006  0.004907  0.750000  1
  Er  Er9  1  0.004907  0.239006  0.750000  1
  In  In10  1  0.396344  0.396344  0.750000  1
  Pb  Pb11  1  0.606697  0.000407  0.750000  1
  Pb  Pb12  1  0.000407  0.606697  0.750000  1
  Pb  Pb13  1  0.604021  0.604021  0.250000  1
  Pb  Pb14  1  0.394954  0.998604  0.250000  1
  Pb  Pb15  1  0.998604  0.394954  0.250000  1
