# generated using pymatgen
data_Ca2YbHo2(Ni2Sn5)2
_symmetry_space_group_name_H-M   'P 1'
_cell_length_a   13.97462200
_cell_length_b   13.97462200
_cell_length_c   4.45803600
_cell_angle_alpha   90.00000000
_cell_angle_beta   90.00000000
_cell_angle_gamma   90.00000000
_symmetry_Int_Tables_number   1
_chemical_formula_structural   Ca2YbHo2(Ni2Sn5)2
_chemical_formula_sum   'Ca4 Yb2 Ho4 Ni8 Sn20'
_cell_volume   870.61011811
_cell_formula_units_Z   2
loop_
 _symmetry_equiv_pos_site_id
 _symmetry_equiv_pos_as_xyz
  1  'x, y, z'
loop_
 _atom_site_type_symbol
 _atom_site_label
 _atom_site_symmetry_multiplicity
 _atom_site_fract_x
 _atom_site_fract_y
 _atom_site_fract_z
 _atom_site_occupancy
  Ca  Ca0  1  0.892914  0.607086  0.500000  1
  Ca  Ca1  1  0.107086  0.392914  0.500000  1
  Ca  Ca2  1  0.392914  0.892914  0.500000  1
  Ca  Ca3  1  0.607086  0.107086  0.500000  1
  Yb  Yb4  1  0.000000  0.000000  0.000000  1
  Yb  Yb5  1  0.500000  0.500000  0.000000  1
  Ho  Ho6  1  0.180696  0.680696  0.500000  1
  Ho  Ho7  1  0.819304  0.319304  0.500000  1
  Ho  Ho8  1  0.680696  0.819304  0.500000  1
  Ho  Ho9  1  0.319304  0.180696  0.500000  1
  Ni  Ni10  1  0.254758  0.537153  0.000000  1
  Ni  Ni11  1  0.745242  0.462847  0.000000  1
  Ni  Ni12  1  0.754758  0.962847  0.000000  1
  Ni  Ni13  1  0.245242  0.037153  0.000000  1
  Ni  Ni14  1  0.462847  0.254758  0.000000  1
  Ni  Ni15  1  0.537153  0.745242  0.000000  1
  Ni  Ni16  1  0.037153  0.754758  0.000000  1
  Ni  Ni17  1  0.962847  0.245242  0.000000  1
  Sn  Sn18  1  0.353556  0.701023  0.000000  1
  Sn  Sn19  1  0.646444  0.298977  0.000000  1
  Sn  Sn20  1  0.853556  0.798977  0.000000  1
  Sn  Sn21  1  0.146444  0.201023  0.000000  1
  Sn  Sn22  1  0.298977  0.353556  0.000000  1
  Sn  Sn23  1  0.701023  0.646444  0.000000  1
  Sn  Sn24  1  0.201023  0.853556  0.000000  1
  Sn  Sn25  1  0.798977  0.146444  0.000000  1
  Sn  Sn26  1  0.337822  0.514189  0.500000  1
  Sn  Sn27  1  0.662178  0.485811  0.500000  1
  Sn  Sn28  1  0.837822  0.985811  0.500000  1
  Sn  Sn29  1  0.162178  0.014189  0.500000  1
  Sn  Sn30  1  0.485811  0.337822  0.500000  1
  Sn  Sn31  1  0.514189  0.662178  0.500000  1
  Sn  Sn32  1  0.014189  0.837822  0.500000  1
  Sn  Sn33  1  0.985811  0.162178  0.500000  1
  Sn  Sn34  1  0.071867  0.571867  0.000000  1
  Sn  Sn35  1  0.928133  0.428133  0.000000  1
  Sn  Sn36  1  0.571867  0.928133  0.000000  1
  Sn  Sn37  1  0.428133  0.071867  0.000000  1
