# generated using pymatgen
data_YbSm3Er4(B6Ru)4
_symmetry_space_group_name_H-M   'P 1'
_cell_length_a   3.66946500
_cell_length_b   9.14859006
_cell_length_c   11.55466012
_cell_angle_alpha   89.93230617
_cell_angle_beta   90.00000000
_cell_angle_gamma   90.00000000
_symmetry_Int_Tables_number   1
_chemical_formula_structural   YbSm3Er4(B6Ru)4
_chemical_formula_sum   'Yb1 Sm3 Er4 B24 Ru4'
_cell_volume   387.89464988
_cell_formula_units_Z   1
loop_
 _symmetry_equiv_pos_site_id
 _symmetry_equiv_pos_as_xyz
  1  'x, y, z'
loop_
 _atom_site_type_symbol
 _atom_site_label
 _atom_site_symmetry_multiplicity
 _atom_site_fract_x
 _atom_site_fract_y
 _atom_site_fract_z
 _atom_site_occupancy
  Yb  Yb0  1  0.000000  0.323270  0.414173  1
  Sm  Sm1  1  0.000000  0.675766  0.584473  1
  Sm  Sm2  1  0.000000  0.822597  0.086280  1
  Sm  Sm3  1  0.000000  0.177748  0.914682  1
  Er  Er4  1  0.000000  0.944479  0.371076  1
  Er  Er5  1  0.000000  0.058201  0.627747  1
  Er  Er6  1  0.000000  0.442944  0.130490  1
  Er  Er7  1  0.000000  0.555911  0.871247  1
  B  B8  1  0.500000  0.553751  0.431295  1
  B  B9  1  0.500000  0.444052  0.567535  1
  B  B10  1  0.500000  0.055153  0.068748  1
  B  B11  1  0.500000  0.944621  0.931027  1
  B  B12  1  0.500000  0.748822  0.417567  1
  B  B13  1  0.500000  0.251400  0.580890  1
  B  B14  1  0.500000  0.249099  0.082895  1
  B  B15  1  0.500000  0.750389  0.917841  1
  B  B16  1  0.500000  0.790790  0.266518  1
  B  B17  1  0.500000  0.210039  0.733237  1
  B  B18  1  0.500000  0.290644  0.235110  1
  B  B19  1  0.500000  0.709442  0.766013  1
  B  B20  1  0.500000  0.630298  0.186146  1
  B  B21  1  0.500000  0.369443  0.814888  1
  B  B22  1  0.500000  0.131585  0.315416  1
  B  B23  1  0.500000  0.869585  0.684627  1
  B  B24  1  0.500000  0.985065  0.213340  1
  B  B25  1  0.500000  0.015640  0.786131  1
  B  B26  1  0.500000  0.483271  0.287864  1
  B  B27  1  0.500000  0.515015  0.712826  1
  B  B28  1  0.500000  0.602990  0.028585  1
  B  B29  1  0.500000  0.396828  0.972201  1
  B  B30  1  0.500000  0.103385  0.471597  1
  B  B31  1  0.500000  0.897608  0.527929  1
  Ru  Ru32  1  0.000000  0.639226  0.319809  1
  Ru  Ru33  1  0.000000  0.361180  0.680325  1
  Ru  Ru34  1  0.000000  0.138573  0.179880  1
  Ru  Ru35  1  0.000000  0.861187  0.819592  1
