# generated using pymatgen
data_La3Tb(Ni12P5)2
_symmetry_space_group_name_H-M   'P 1'
_cell_length_a   3.67502700
_cell_length_b   10.82518605
_cell_length_c   13.15997204
_cell_angle_alpha   71.73759595
_cell_angle_beta   90.00000000
_cell_angle_gamma   90.00000000
_symmetry_Int_Tables_number   1
_chemical_formula_structural   La3Tb(Ni12P5)2
_chemical_formula_sum   'La3 Tb1 Ni24 P10'
_cell_volume   497.17112053
_cell_formula_units_Z   1
loop_
 _symmetry_equiv_pos_site_id
 _symmetry_equiv_pos_as_xyz
  1  'x, y, z'
loop_
 _atom_site_type_symbol
 _atom_site_label
 _atom_site_symmetry_multiplicity
 _atom_site_fract_x
 _atom_site_fract_y
 _atom_site_fract_z
 _atom_site_occupancy
  La  La0  1  0.750000  0.719226  0.317304  1
  La  La1  1  0.250000  0.247339  0.187143  1
  La  La2  1  0.750000  0.754475  0.812337  1
  Tb  Tb3  1  0.250000  0.280158  0.682560  1
  Ni  Ni4  1  0.250000  0.841324  0.135927  1
  Ni  Ni5  1  0.750000  0.163106  0.860181  1
  Ni  Ni6  1  0.250000  0.285647  0.440958  1
  Ni  Ni7  1  0.750000  0.710947  0.563040  1
  Ni  Ni8  1  0.250000  0.071548  0.014742  1
  Ni  Ni9  1  0.750000  0.930613  0.984129  1
  Ni  Ni10  1  0.250000  0.064378  0.447437  1
  Ni  Ni11  1  0.750000  0.935232  0.553138  1
  Ni  Ni12  1  0.250000  0.595002  0.695990  1
  Ni  Ni13  1  0.750000  0.402962  0.305352  1
  Ni  Ni14  1  0.250000  0.582645  0.008387  1
  Ni  Ni15  1  0.750000  0.417850  0.990770  1
  Ni  Ni16  1  0.250000  0.575447  0.511924  1
  Ni  Ni17  1  0.750000  0.417997  0.492313  1
  Ni  Ni18  1  0.250000  0.298353  0.915727  1
  Ni  Ni19  1  0.750000  0.701987  0.081099  1
  Ni  Ni20  1  0.250000  0.995661  0.659374  1
  Ni  Ni21  1  0.750000  0.006731  0.340083  1
  Ni  Ni22  1  0.250000  0.840247  0.438533  1
  Ni  Ni23  1  0.750000  0.161548  0.563674  1
  Ni  Ni24  1  0.250000  0.992956  0.848139  1
  Ni  Ni25  1  0.750000  0.011261  0.150496  1
  Ni  Ni26  1  0.250000  0.561921  0.203481  1
  Ni  Ni27  1  0.750000  0.433620  0.795608  1
  P  P28  1  0.250000  0.507888  0.871318  1
  P  P29  1  0.750000  0.491612  0.128870  1
  P  P30  1  0.250000  0.801378  0.983647  1
  P  P31  1  0.750000  0.200497  0.014257  1
  P  P32  1  0.250000  0.492078  0.378940  1
  P  P33  1  0.750000  0.501936  0.622683  1
  P  P34  1  0.250000  0.812155  0.610792  1
  P  P35  1  0.750000  0.186985  0.390739  1
  P  P36  1  0.250000  0.950076  0.259475  1
  P  P37  1  0.750000  0.055214  0.739431  1
