# generated using pymatgen
data_Tb3Dy(ErBi)6
_symmetry_space_group_name_H-M   'P 1'
_cell_length_a   8.24258000
_cell_length_b   9.49735667
_cell_length_c   12.01514800
_cell_angle_alpha   89.97917901
_cell_angle_beta   90.00000000
_cell_angle_gamma   90.00000000
_symmetry_Int_Tables_number   1
_chemical_formula_structural   Tb3Dy(ErBi)6
_chemical_formula_sum   'Tb6 Dy2 Er12 Bi12'
_cell_volume   940.57842997
_cell_formula_units_Z   2
loop_
 _symmetry_equiv_pos_site_id
 _symmetry_equiv_pos_as_xyz
  1  'x, y, z'
loop_
 _atom_site_type_symbol
 _atom_site_label
 _atom_site_symmetry_multiplicity
 _atom_site_fract_x
 _atom_site_fract_y
 _atom_site_fract_z
 _atom_site_occupancy
  Tb  Tb0  1  0.693176  0.936510  0.058684  1
  Tb  Tb1  1  0.193176  0.563490  0.441316  1
  Tb  Tb2  1  0.312837  0.250041  0.219018  1
  Tb  Tb3  1  0.812837  0.249959  0.280982  1
  Tb  Tb4  1  0.687346  0.749778  0.780853  1
  Tb  Tb5  1  0.187346  0.750222  0.719147  1
  Dy  Dy6  1  0.352815  0.750053  0.215939  1
  Dy  Dy7  1  0.852815  0.749947  0.284061  1
  Er  Er8  1  0.647429  0.249819  0.783808  1
  Er  Er9  1  0.147429  0.250181  0.716192  1
  Er  Er10  1  0.693247  0.564448  0.058735  1
  Er  Er11  1  0.193247  0.935552  0.441265  1
  Er  Er12  1  0.306842  0.064693  0.941217  1
  Er  Er13  1  0.806842  0.435307  0.558783  1
  Er  Er14  1  0.306407  0.435406  0.940946  1
  Er  Er15  1  0.806407  0.064594  0.559054  1
  Er  Er16  1  0.475617  0.249836  0.488678  1
  Er  Er17  1  0.975617  0.250164  0.011322  1
  Er  Er18  1  0.525158  0.750226  0.511838  1
  Er  Er19  1  0.025158  0.749774  0.988162  1
  Bi  Bi20  1  0.406508  0.749425  0.957551  1
  Bi  Bi21  1  0.906508  0.750575  0.542449  1
  Bi  Bi22  1  0.592581  0.251740  0.041395  1
  Bi  Bi23  1  0.092581  0.248260  0.458605  1
  Bi  Bi24  1  0.564994  0.995053  0.326249  1
  Bi  Bi25  1  0.064994  0.504947  0.173751  1
  Bi  Bi26  1  0.434779  0.494473  0.674365  1
  Bi  Bi27  1  0.934779  0.005527  0.825635  1
  Bi  Bi28  1  0.434687  0.005571  0.674110  1
  Bi  Bi29  1  0.934687  0.494429  0.825890  1
  Bi  Bi30  1  0.565578  0.504971  0.325953  1
  Bi  Bi31  1  0.065578  0.995029  0.174047  1
