# generated using pymatgen
data_Er15Lu5(IrPt2)4
_symmetry_space_group_name_H-M   'P 1'
_cell_length_a   10.89006004
_cell_length_b   10.89123127
_cell_length_c   6.27270100
_cell_angle_alpha   90.00496613
_cell_angle_beta   89.99515961
_cell_angle_gamma   89.98835317
_symmetry_Int_Tables_number   1
_chemical_formula_structural   Er15Lu5(IrPt2)4
_chemical_formula_sum   'Er15 Lu5 Ir4 Pt8'
_cell_volume   743.98097257
_cell_formula_units_Z   1
loop_
 _symmetry_equiv_pos_site_id
 _symmetry_equiv_pos_as_xyz
  1  'x, y, z'
loop_
 _atom_site_type_symbol
 _atom_site_label
 _atom_site_symmetry_multiplicity
 _atom_site_fract_x
 _atom_site_fract_y
 _atom_site_fract_z
 _atom_site_occupancy
  Er  Er0  1  0.294044  0.913592  0.874130  1
  Er  Er1  1  0.705748  0.086769  0.873894  1
  Er  Er2  1  0.705775  0.913330  0.374017  1
  Er  Er3  1  0.586775  0.794272  0.874067  1
  Er  Er4  1  0.586242  0.205913  0.373920  1
  Er  Er5  1  0.412903  0.794533  0.373958  1
  Er  Er6  1  0.412748  0.205800  0.874011  1
  Er  Er7  1  0.205868  0.413140  0.625897  1
  Er  Er8  1  0.205872  0.586868  0.126100  1
  Er  Er9  1  0.794049  0.413100  0.126092  1
  Er  Er10  1  0.794074  0.586838  0.626084  1
  Er  Er11  1  0.913200  0.705998  0.126112  1
  Er  Er12  1  0.913139  0.294030  0.626230  1
  Er  Er13  1  0.086941  0.705967  0.625847  1
  Er  Er14  1  0.087271  0.293751  0.126180  1
  Lu  Lu15  1  0.295049  0.086596  0.374667  1
  Lu  Lu16  1  0.000505  0.000234  0.499610  1
  Lu  Lu17  1  0.000190  0.000152  0.999907  1
  Lu  Lu18  1  0.499826  0.499849  0.000087  1
  Lu  Lu19  1  0.499881  0.500112  0.499819  1
  Ir  Ir20  1  0.499307  0.000334  0.120591  1
  Ir  Ir21  1  0.499271  0.000314  0.619717  1
  Ir  Ir22  1  0.000060  0.499957  0.879977  1
  Ir  Ir23  1  0.000063  0.499851  0.379892  1
  Pt  Pt24  1  0.847709  0.151975  0.250128  1
  Pt  Pt25  1  0.848069  0.847929  0.749908  1
  Pt  Pt26  1  0.153122  0.151494  0.747919  1
  Pt  Pt27  1  0.152617  0.848792  0.250529  1
  Pt  Pt28  1  0.651835  0.347866  0.750029  1
  Pt  Pt29  1  0.652103  0.652009  0.249881  1
  Pt  Pt30  1  0.347810  0.346593  0.250713  1
  Pt  Pt31  1  0.347930  0.652043  0.750080  1
