# generated using pymatgen
data_Yb4YIr2
_symmetry_space_group_name_H-M   'P 1'
_cell_length_a   6.53953764
_cell_length_b   7.34648368
_cell_length_c   8.52600222
_cell_angle_alpha   97.28225766
_cell_angle_beta   112.55099543
_cell_angle_gamma   89.99999818
_symmetry_Int_Tables_number   1
_chemical_formula_structural   Yb4YIr2
_chemical_formula_sum   'Yb8 Y2 Ir4'
_cell_volume   374.71180745
_cell_formula_units_Z   2
loop_
 _symmetry_equiv_pos_site_id
 _symmetry_equiv_pos_as_xyz
  1  'x, y, z'
loop_
 _atom_site_type_symbol
 _atom_site_label
 _atom_site_symmetry_multiplicity
 _atom_site_fract_x
 _atom_site_fract_y
 _atom_site_fract_z
 _atom_site_occupancy
  Yb  Yb0  1  0.974447  0.920368  0.171582  1
  Yb  Yb1  1  0.802865  0.579632  0.828418  1
  Yb  Yb2  1  0.025553  0.079632  0.828418  1
  Yb  Yb3  1  0.197135  0.420368  0.171582  1
  Yb  Yb4  1  0.643131  0.820819  0.436796  1
  Yb  Yb5  1  0.206334  0.679181  0.563204  1
  Yb  Yb6  1  0.356869  0.179181  0.563204  1
  Yb  Yb7  1  0.793666  0.320819  0.436796  1
  Y  Y8  1  0.436098  0.750000  0.000000  1
  Y  Y9  1  0.563902  0.250000  0.000000  1
  Ir  Ir10  1  0.815779  0.575052  0.212708  1
  Ir  Ir11  1  0.603070  0.924948  0.787292  1
  Ir  Ir12  1  0.184221  0.424948  0.787292  1
  Ir  Ir13  1  0.396930  0.075052  0.212708  1
