# generated using pymatgen
data_TbNd4Sn3
_symmetry_space_group_name_H-M   'P 1'
_cell_length_a   9.24399400
_cell_length_b   9.24399345
_cell_length_c   6.79251500
_cell_angle_alpha   90.00000000
_cell_angle_beta   90.00000000
_cell_angle_gamma   120.00000197
_symmetry_Int_Tables_number   1
_chemical_formula_structural   TbNd4Sn3
_chemical_formula_sum   'Tb2 Nd8 Sn6'
_cell_volume   502.66716013
_cell_formula_units_Z   2
loop_
 _symmetry_equiv_pos_site_id
 _symmetry_equiv_pos_as_xyz
  1  'x, y, z'
loop_
 _atom_site_type_symbol
 _atom_site_label
 _atom_site_symmetry_multiplicity
 _atom_site_fract_x
 _atom_site_fract_y
 _atom_site_fract_z
 _atom_site_occupancy
  Tb  Tb0  1  0.333333  0.666667  0.500000  1
  Tb  Tb1  1  0.666667  0.333333  0.500000  1
  Nd  Nd2  1  0.666667  0.333333  0.000000  1
  Nd  Nd3  1  0.333333  0.666667  0.000000  1
  Nd  Nd4  1  0.757876  0.757876  0.748724  1
  Nd  Nd5  1  0.242124  0.000000  0.748724  1
  Nd  Nd6  1  0.000000  0.242124  0.748724  1
  Nd  Nd7  1  0.242124  0.242124  0.251276  1
  Nd  Nd8  1  0.757876  0.000000  0.251276  1
  Nd  Nd9  1  0.000000  0.757876  0.251276  1
  Sn  Sn10  1  0.396198  0.396198  0.745081  1
  Sn  Sn11  1  0.603802  0.000000  0.745081  1
  Sn  Sn12  1  0.000000  0.603802  0.745081  1
  Sn  Sn13  1  0.603802  0.603802  0.254919  1
  Sn  Sn14  1  0.396198  0.000000  0.254919  1
  Sn  Sn15  1  0.000000  0.396198  0.254919  1
