# generated using pymatgen
data_Yb6Si23BRu8
_symmetry_space_group_name_H-M   'P 1'
_cell_length_a   10.07605920
_cell_length_b   10.07605832
_cell_length_c   8.12231883
_cell_angle_alpha   89.97908387
_cell_angle_beta   89.97908568
_cell_angle_gamma   132.43669315
_symmetry_Int_Tables_number   1
_chemical_formula_structural   Yb6Si23BRu8
_chemical_formula_sum   'Yb6 Si23 B1 Ru8'
_cell_volume   608.59915317
_cell_formula_units_Z   1
loop_
 _symmetry_equiv_pos_site_id
 _symmetry_equiv_pos_as_xyz
  1  'x, y, z'
loop_
 _atom_site_type_symbol
 _atom_site_label
 _atom_site_symmetry_multiplicity
 _atom_site_fract_x
 _atom_site_fract_y
 _atom_site_fract_z
 _atom_site_occupancy
  Yb  Yb0  1  0.001892  0.998108  0.000000  1
  Yb  Yb1  1  0.501549  0.498451  0.500000  1
  Yb  Yb2  1  0.996529  0.498763  0.245201  1
  Yb  Yb3  1  0.989389  0.492608  0.756029  1
  Yb  Yb4  1  0.501237  0.003471  0.754799  1
  Yb  Yb5  1  0.507392  0.010611  0.243971  1
  Si  Si6  1  0.293978  0.706022  0.000000  1
  Si  Si7  1  0.793811  0.206189  0.500000  1
  Si  Si8  1  0.205754  0.794246  0.500000  1
  Si  Si9  1  0.333913  0.331626  0.167363  1
  Si  Si10  1  0.668374  0.666087  0.832637  1
  Si  Si11  1  0.167783  0.168460  0.668203  1
  Si  Si12  1  0.831540  0.832217  0.331797  1
  Si  Si13  1  0.842181  0.598826  0.004196  1
  Si  Si14  1  0.148619  0.383658  0.990935  1
  Si  Si15  1  0.651951  0.886614  0.508298  1
  Si  Si16  1  0.113386  0.348049  0.491702  1
  Si  Si17  1  0.347169  0.114114  0.491299  1
  Si  Si18  1  0.885886  0.652831  0.508701  1
  Si  Si19  1  0.401174  0.157819  0.995804  1
  Si  Si20  1  0.616342  0.851381  0.009065  1
  Si  Si21  1  0.891634  0.127401  0.265511  1
  Si  Si22  1  0.105962  0.872942  0.731639  1
  Si  Si23  1  0.615524  0.372916  0.778607  1
  Si  Si24  1  0.627084  0.384476  0.221393  1
  Si  Si25  1  0.394772  0.628040  0.231796  1
  Si  Si26  1  0.371960  0.605228  0.768204  1
  Si  Si27  1  0.872599  0.108366  0.734489  1
  Si  Si28  1  0.127058  0.894038  0.268361  1
  B  B29  1  0.702391  0.297609  0.000000  1
  Ru  Ru30  1  0.823365  0.176635  0.000000  1
  Ru  Ru31  1  0.169336  0.830664  0.000000  1
  Ru  Ru32  1  0.669117  0.330883  0.500000  1
  Ru  Ru33  1  0.330526  0.669474  0.500000  1
  Ru  Ru34  1  0.124003  0.125574  0.374644  1
  Ru  Ru35  1  0.874426  0.875997  0.625356  1
  Ru  Ru36  1  0.375067  0.374671  0.875639  1
  Ru  Ru37  1  0.625329  0.624933  0.124361  1
