# generated using pymatgen
data_V6Ni4As2CN
_symmetry_space_group_name_H-M   'P 1'
_cell_length_a   7.67033870
_cell_length_b   7.67008621
_cell_length_c   7.63071409
_cell_angle_alpha   60.15311944
_cell_angle_beta   60.15441043
_cell_angle_gamma   60.29383010
_symmetry_Int_Tables_number   1
_chemical_formula_structural   V6Ni4As2CN
_chemical_formula_sum   'V12 Ni8 As4 C2 N2'
_cell_volume   318.88203431
_cell_formula_units_Z   2
loop_
 _symmetry_equiv_pos_site_id
 _symmetry_equiv_pos_as_xyz
  1  'x, y, z'
loop_
 _atom_site_type_symbol
 _atom_site_label
 _atom_site_symmetry_multiplicity
 _atom_site_fract_x
 _atom_site_fract_y
 _atom_site_fract_z
 _atom_site_occupancy
  V  V0  1  0.816386  0.816386  0.183541  1
  V  V1  1  0.179129  0.179136  0.820776  1
  V  V2  1  0.819496  0.181182  0.817052  1
  V  V3  1  0.181321  0.819360  0.182250  1
  V  V4  1  0.181176  0.819501  0.817054  1
  V  V5  1  0.819353  0.181329  0.182253  1
  V  V6  1  0.433614  0.433614  0.066459  1
  V  V7  1  0.070871  0.070864  0.429224  1
  V  V8  1  0.430504  0.068818  0.432948  1
  V  V9  1  0.068679  0.430640  0.067750  1
  V  V10  1  0.068824  0.430499  0.432946  1
  V  V11  1  0.430647  0.068671  0.067747  1
  Ni  Ni12  1  0.753673  0.414526  0.415998  1
  Ni  Ni13  1  0.414536  0.753671  0.415999  1
  Ni  Ni14  1  0.414732  0.414711  0.754767  1
  Ni  Ni15  1  0.414726  0.414696  0.415957  1
  Ni  Ni16  1  0.496327  0.835474  0.834002  1
  Ni  Ni17  1  0.835464  0.496329  0.834001  1
  Ni  Ni18  1  0.835268  0.835289  0.495233  1
  Ni  Ni19  1  0.835274  0.835304  0.834043  1
  As  As20  1  0.125000  0.625000  0.625000  1
  As  As21  1  0.625000  0.125000  0.625000  1
  As  As22  1  0.625000  0.625000  0.125000  1
  As  As23  1  0.625000  0.625000  0.625000  1
  C  C24  1  0.625000  0.125000  0.125000  1
  C  C25  1  0.125000  0.625000  0.125000  1
  N  N26  1  0.125000  0.125000  0.625000  1
  N  N27  1  0.125000  0.125000  0.125000  1
