# generated using pymatgen
data_Pr6Y10Cd3AgIr3Pt
_symmetry_space_group_name_H-M   'P 1'
_cell_length_a   9.80987468
_cell_length_b   9.80987427
_cell_length_c   9.80987400
_cell_angle_alpha   60.08610688
_cell_angle_beta   60.08610151
_cell_angle_gamma   60.08610384
_symmetry_Int_Tables_number   1
_chemical_formula_structural   Pr6Y10Cd3AgIr3Pt
_chemical_formula_sum   'Pr6 Y10 Cd3 Ag1 Ir3 Pt1'
_cell_volume   668.83943643
_cell_formula_units_Z   1
loop_
 _symmetry_equiv_pos_site_id
 _symmetry_equiv_pos_as_xyz
  1  'x, y, z'
loop_
 _atom_site_type_symbol
 _atom_site_label
 _atom_site_symmetry_multiplicity
 _atom_site_fract_x
 _atom_site_fract_y
 _atom_site_fract_z
 _atom_site_occupancy
  Pr  Pr0  1  0.937483  0.559760  0.559760  1
  Pr  Pr1  1  0.560114  0.939824  0.939824  1
  Pr  Pr2  1  0.559760  0.937483  0.559760  1
  Pr  Pr3  1  0.939824  0.560114  0.939824  1
  Pr  Pr4  1  0.559760  0.559760  0.937483  1
  Pr  Pr5  1  0.939824  0.939824  0.560114  1
  Y  Y6  1  0.346824  0.346824  0.346824  1
  Y  Y7  1  0.351457  0.351457  0.952358  1
  Y  Y8  1  0.351457  0.952358  0.351457  1
  Y  Y9  1  0.952358  0.351457  0.351457  1
  Y  Y10  1  0.807854  0.188829  0.188829  1
  Y  Y11  1  0.185913  0.812205  0.812205  1
  Y  Y12  1  0.188829  0.807854  0.188829  1
  Y  Y13  1  0.812205  0.185913  0.812205  1
  Y  Y14  1  0.188829  0.188829  0.807854  1
  Y  Y15  1  0.812205  0.812205  0.185913  1
  Cd  Cd16  1  0.579947  0.579947  0.263029  1
  Cd  Cd17  1  0.579947  0.263029  0.579947  1
  Cd  Cd18  1  0.263029  0.579947  0.579947  1
  Ag  Ag19  1  0.580598  0.580598  0.580598  1
  Ir  Ir20  1  0.141469  0.141469  0.576785  1
  Ir  Ir21  1  0.141469  0.576785  0.141469  1
  Ir  Ir22  1  0.576785  0.141469  0.141469  1
  Pt  Pt23  1  0.142062  0.142062  0.142062  1
