# generated using pymatgen
data_NdIn2CuIr8
_symmetry_space_group_name_H-M   'P 1'
_cell_length_a   8.80079000
_cell_length_b   8.80079000
_cell_length_c   5.25507200
_cell_angle_alpha   90.00000000
_cell_angle_beta   90.00000000
_cell_angle_gamma   90.00000000
_symmetry_Int_Tables_number   1
_chemical_formula_structural   NdIn2CuIr8
_chemical_formula_sum   'Nd2 In4 Cu2 Ir16'
_cell_volume   407.02584548
_cell_formula_units_Z   2
loop_
 _symmetry_equiv_pos_site_id
 _symmetry_equiv_pos_as_xyz
  1  'x, y, z'
loop_
 _atom_site_type_symbol
 _atom_site_label
 _atom_site_symmetry_multiplicity
 _atom_site_fract_x
 _atom_site_fract_y
 _atom_site_fract_z
 _atom_site_occupancy
  Nd  Nd0  1  0.000000  0.000000  0.000000  1
  Nd  Nd1  1  0.500000  0.500000  0.000000  1
  In  In2  1  0.121566  0.621566  0.000000  1
  In  In3  1  0.878434  0.378434  0.000000  1
  In  In4  1  0.621566  0.878434  0.000000  1
  In  In5  1  0.378434  0.121566  0.000000  1
  Cu  Cu6  1  0.500000  0.000000  0.500000  1
  Cu  Cu7  1  0.000000  0.500000  0.500000  1
  Ir  Ir8  1  0.205262  0.065196  0.500000  1
  Ir  Ir9  1  0.794738  0.934804  0.500000  1
  Ir  Ir10  1  0.065196  0.794738  0.500000  1
  Ir  Ir11  1  0.705262  0.434804  0.500000  1
  Ir  Ir12  1  0.934804  0.205262  0.500000  1
  Ir  Ir13  1  0.294738  0.565196  0.500000  1
  Ir  Ir14  1  0.565196  0.705262  0.500000  1
  Ir  Ir15  1  0.434804  0.294738  0.500000  1
  Ir  Ir16  1  0.677305  0.177305  0.238721  1
  Ir  Ir17  1  0.322695  0.822695  0.761279  1
  Ir  Ir18  1  0.322695  0.822695  0.238721  1
  Ir  Ir19  1  0.177305  0.322695  0.238721  1
  Ir  Ir20  1  0.177305  0.322695  0.761279  1
  Ir  Ir21  1  0.677305  0.177305  0.761279  1
  Ir  Ir22  1  0.822695  0.677305  0.761279  1
  Ir  Ir23  1  0.822695  0.677305  0.238721  1
