# generated using pymatgen
data_NpSc(GaRu2)2
_symmetry_space_group_name_H-M   'P 1'
_cell_length_a   4.48927000
_cell_length_b   6.33375800
_cell_length_c   13.40664300
_cell_angle_alpha   90.00000000
_cell_angle_beta   89.99796559
_cell_angle_gamma   90.00000000
_symmetry_Int_Tables_number   1
_chemical_formula_structural   NpSc(GaRu2)2
_chemical_formula_sum   'Np3 Sc3 Ga6 Ru12'
_cell_volume   381.20381362
_cell_formula_units_Z   3
loop_
 _symmetry_equiv_pos_site_id
 _symmetry_equiv_pos_as_xyz
  1  'x, y, z'
loop_
 _atom_site_type_symbol
 _atom_site_label
 _atom_site_symmetry_multiplicity
 _atom_site_fract_x
 _atom_site_fract_y
 _atom_site_fract_z
 _atom_site_occupancy
  Np  Np0  1  0.999989  0.000000  0.994146  1
  Np  Np1  1  0.499968  0.499999  0.166620  1
  Np  Np2  1  0.999916  0.000000  0.339356  1
  Sc  Sc3  1  0.499969  0.499999  0.506222  1
  Sc  Sc4  1  0.000080  0.000000  0.666664  1
  Sc  Sc5  1  0.500084  0.499999  0.827007  1
  Ga  Ga6  1  0.000021  0.499999  0.994368  1
  Ga  Ga7  1  0.499932  0.000000  0.166729  1
  Ga  Ga8  1  0.999936  0.499999  0.338840  1
  Ga  Ga9  1  0.499997  0.000000  0.511126  1
  Ga  Ga10  1  0.000080  0.499999  0.666733  1
  Ga  Ga11  1  0.500071  0.000000  0.822140  1
  Ru  Ru12  1  0.499999  0.253173  0.000555  1
  Ru  Ru13  1  0.499999  0.746828  0.000555  1
  Ru  Ru14  1  0.999950  0.239770  0.166827  1
  Ru  Ru15  1  0.999950  0.760229  0.166827  1
  Ru  Ru16  1  0.499914  0.253332  0.332793  1
  Ru  Ru17  1  0.499914  0.746669  0.332793  1
  Ru  Ru18  1  0.999955  0.243522  0.494945  1
  Ru  Ru19  1  0.999955  0.756477  0.494945  1
  Ru  Ru20  1  0.500078  0.250784  0.666570  1
  Ru  Ru21  1  0.500078  0.749217  0.666570  1
  Ru  Ru22  1  0.000083  0.243610  0.838334  1
  Ru  Ru23  1  0.000083  0.756389  0.838334  1
