# generated using pymatgen
data_In2Ir(RhS)2
_symmetry_space_group_name_H-M   'P 1'
_cell_length_a   5.63748307
_cell_length_b   5.64241189
_cell_length_c   5.64241160
_cell_angle_alpha   60.67943389
_cell_angle_beta   60.77918158
_cell_angle_gamma   60.77917921
_symmetry_Int_Tables_number   1
_chemical_formula_structural   In2Ir(RhS)2
_chemical_formula_sum   'In2 Ir1 Rh2 S2'
_cell_volume   129.04690241
_cell_formula_units_Z   1
loop_
 _symmetry_equiv_pos_site_id
 _symmetry_equiv_pos_as_xyz
  1  'x, y, z'
loop_
 _atom_site_type_symbol
 _atom_site_label
 _atom_site_symmetry_multiplicity
 _atom_site_fract_x
 _atom_site_fract_y
 _atom_site_fract_z
 _atom_site_occupancy
  In  In0  1  0.000000  0.000000  0.000000  1
  In  In1  1  0.500000  0.500000  0.500000  1
  Ir  Ir2  1  0.500000  0.000000  0.000000  1
  Rh  Rh3  1  0.000000  0.000000  0.500000  1
  Rh  Rh4  1  0.000000  0.500000  0.000000  1
  S  S5  1  0.715993  0.714979  0.714979  1
  S  S6  1  0.284007  0.285021  0.285021  1
