# generated using pymatgen
data_ZrTa8TlSe16
_symmetry_space_group_name_H-M   'P 1'
_cell_length_a   7.01393200
_cell_length_b   7.01393175
_cell_length_c   14.76946700
_cell_angle_alpha   90.00000000
_cell_angle_beta   90.00000000
_cell_angle_gamma   120.00000119
_symmetry_Int_Tables_number   1
_chemical_formula_structural   ZrTa8TlSe16
_chemical_formula_sum   'Zr1 Ta8 Tl1 Se16'
_cell_volume   629.24320690
_cell_formula_units_Z   1
loop_
 _symmetry_equiv_pos_site_id
 _symmetry_equiv_pos_as_xyz
  1  'x, y, z'
loop_
 _atom_site_type_symbol
 _atom_site_label
 _atom_site_symmetry_multiplicity
 _atom_site_fract_x
 _atom_site_fract_y
 _atom_site_fract_z
 _atom_site_occupancy
  Zr  Zr0  1  0.000000  0.000000  0.500000  1
  Ta  Ta1  1  0.985612  0.492806  0.271791  1
  Ta  Ta2  1  0.014388  0.507194  0.728209  1
  Ta  Ta3  1  0.492806  0.507194  0.728209  1
  Ta  Ta4  1  0.507194  0.014388  0.271791  1
  Ta  Ta5  1  0.000000  0.000000  0.726449  1
  Ta  Ta6  1  0.000000  0.000000  0.273551  1
  Ta  Ta7  1  0.507194  0.492806  0.271791  1
  Ta  Ta8  1  0.492806  0.985612  0.728209  1
  Tl  Tl9  1  0.000000  0.000000  0.000000  1
  Se  Se10  1  0.333333  0.666667  0.612201  1
  Se  Se11  1  0.666667  0.333333  0.155316  1
  Se  Se12  1  0.666667  0.333333  0.387799  1
  Se  Se13  1  0.333333  0.666667  0.844684  1
  Se  Se14  1  0.170453  0.340907  0.384523  1
  Se  Se15  1  0.831762  0.168238  0.837716  1
  Se  Se16  1  0.336477  0.168238  0.837716  1
  Se  Se17  1  0.659093  0.829547  0.384523  1
  Se  Se18  1  0.170453  0.829547  0.384523  1
  Se  Se19  1  0.831762  0.663523  0.837716  1
  Se  Se20  1  0.168238  0.336477  0.162284  1
  Se  Se21  1  0.829547  0.170453  0.615477  1
  Se  Se22  1  0.340907  0.170453  0.615477  1
  Se  Se23  1  0.663523  0.831762  0.162284  1
  Se  Se24  1  0.168238  0.831762  0.162284  1
  Se  Se25  1  0.829547  0.659093  0.615477  1
