# generated using pymatgen
data_CsRb(GeH3)2
_symmetry_space_group_name_H-M   'P 1'
_cell_length_a   5.84257200
_cell_length_b   7.51732259
_cell_length_c   9.57047390
_cell_angle_alpha   89.77322417
_cell_angle_beta   90.00000000
_cell_angle_gamma   90.00000000
_symmetry_Int_Tables_number   1
_chemical_formula_structural   CsRb(GeH3)2
_chemical_formula_sum   'Cs2 Rb2 Ge4 H12'
_cell_volume   420.33669227
_cell_formula_units_Z   2
loop_
 _symmetry_equiv_pos_site_id
 _symmetry_equiv_pos_as_xyz
  1  'x, y, z'
loop_
 _atom_site_type_symbol
 _atom_site_label
 _atom_site_symmetry_multiplicity
 _atom_site_fract_x
 _atom_site_fract_y
 _atom_site_fract_z
 _atom_site_occupancy
  Cs  Cs0  1  0.250000  0.345722  0.686165  1
  Cs  Cs1  1  0.750000  0.654278  0.313835  1
  Rb  Rb2  1  0.750000  0.845181  0.815485  1
  Rb  Rb3  1  0.250000  0.154819  0.184515  1
  Ge  Ge4  1  0.250000  0.851058  0.550012  1
  Ge  Ge5  1  0.750000  0.148942  0.449988  1
  Ge  Ge6  1  0.750000  0.347374  0.951936  1
  Ge  Ge7  1  0.250000  0.652626  0.048064  1
  H  H8  1  0.948530  0.295993  0.420676  1
  H  H9  1  0.448530  0.704007  0.579324  1
  H  H10  1  0.051338  0.799315  0.076708  1
  H  H11  1  0.551338  0.200685  0.923292  1
  H  H12  1  0.051470  0.704007  0.579324  1
  H  H13  1  0.551470  0.295993  0.420676  1
  H  H14  1  0.948662  0.200685  0.923292  1
  H  H15  1  0.448662  0.799315  0.076708  1
  H  H16  1  0.250000  0.695999  0.882723  1
  H  H17  1  0.750000  0.304001  0.117277  1
  H  H18  1  0.750000  0.194107  0.615135  1
  H  H19  1  0.250000  0.805893  0.384865  1
