# generated using pymatgen
data_Ce4P7Ir8
_symmetry_space_group_name_H-M   'P 1'
_cell_length_a   3.99473900
_cell_length_b   12.74856191
_cell_length_c   13.18344429
_cell_angle_alpha   80.98617818
_cell_angle_beta   90.00000000
_cell_angle_gamma   90.00000000
_symmetry_Int_Tables_number   1
_chemical_formula_structural   Ce4P7Ir8
_chemical_formula_sum   'Ce8 P14 Ir16'
_cell_volume   663.10425688
_cell_formula_units_Z   2
loop_
 _symmetry_equiv_pos_site_id
 _symmetry_equiv_pos_as_xyz
  1  'x, y, z'
loop_
 _atom_site_type_symbol
 _atom_site_label
 _atom_site_symmetry_multiplicity
 _atom_site_fract_x
 _atom_site_fract_y
 _atom_site_fract_z
 _atom_site_occupancy
  Ce  Ce0  1  0.750000  0.790332  0.561829  1
  Ce  Ce1  1  0.250000  0.209668  0.438171  1
  Ce  Ce2  1  0.750000  0.482676  0.708655  1
  Ce  Ce3  1  0.250000  0.517324  0.291345  1
  Ce  Ce4  1  0.750000  0.718523  0.897272  1
  Ce  Ce5  1  0.250000  0.105600  0.789451  1
  Ce  Ce6  1  0.750000  0.894400  0.210549  1
  Ce  Ce7  1  0.250000  0.281477  0.102728  1
  P  P8  1  0.250000  0.908298  0.408886  1
  P  P9  1  0.750000  0.471632  0.127219  1
  P  P10  1  0.250000  0.528368  0.872781  1
  P  P11  1  0.750000  0.091702  0.591114  1
  P  P12  1  0.250000  0.743641  0.080265  1
  P  P13  1  0.750000  0.256359  0.919735  1
  P  P14  1  0.750000  0.156510  0.280970  1
  P  P15  1  0.250000  0.843490  0.719030  1
  P  P16  1  0.250000  0.055120  0.097974  1
  P  P17  1  0.750000  0.944880  0.902026  1
  P  P18  1  0.250000  0.313191  0.688927  1
  P  P19  1  0.750000  0.686809  0.311073  1
  P  P20  1  0.250000  0.607495  0.562423  1
  P  P21  1  0.750000  0.392505  0.437577  1
  Ir  Ir22  1  0.250000  0.989770  0.576061  1
  Ir  Ir23  1  0.750000  0.010230  0.423939  1
  Ir  Ir24  1  0.250000  0.660829  0.727405  1
  Ir  Ir25  1  0.750000  0.339171  0.272595  1
  Ir  Ir26  1  0.250000  0.552170  0.047867  1
  Ir  Ir27  1  0.750000  0.447830  0.952133  1
  Ir  Ir28  1  0.250000  0.060936  0.272870  1
  Ir  Ir29  1  0.750000  0.939064  0.727130  1
  Ir  Ir30  1  0.250000  0.424327  0.528278  1
  Ir  Ir31  1  0.750000  0.575673  0.471722  1
  Ir  Ir32  1  0.250000  0.917613  0.997963  1
  Ir  Ir33  1  0.750000  0.082387  0.002037  1
  Ir  Ir34  1  0.250000  0.728048  0.397062  1
  Ir  Ir35  1  0.750000  0.271952  0.602938  1
  Ir  Ir36  1  0.250000  0.340377  0.859995  1
  Ir  Ir37  1  0.750000  0.659623  0.140005  1
