# generated using pymatgen
data_Hf2FeNiP2
_symmetry_space_group_name_H-M   'P 1'
_cell_length_a   3.68745700
_cell_length_b   6.28740370
_cell_length_c   7.12552053
_cell_angle_alpha   89.08418270
_cell_angle_beta   90.00000000
_cell_angle_gamma   90.00000000
_symmetry_Int_Tables_number   1
_chemical_formula_structural   Hf2FeNiP2
_chemical_formula_sum   'Hf4 Fe2 Ni2 P4'
_cell_volume   165.18074705
_cell_formula_units_Z   2
loop_
 _symmetry_equiv_pos_site_id
 _symmetry_equiv_pos_as_xyz
  1  'x, y, z'
loop_
 _atom_site_type_symbol
 _atom_site_label
 _atom_site_symmetry_multiplicity
 _atom_site_fract_x
 _atom_site_fract_y
 _atom_site_fract_z
 _atom_site_occupancy
  Hf  Hf0  1  0.250000  0.519129  0.686867  1
  Hf  Hf1  1  0.750000  0.480871  0.313133  1
  Hf  Hf2  1  0.250000  0.019424  0.822481  1
  Hf  Hf3  1  0.750000  0.980576  0.177519  1
  Fe  Fe4  1  0.750000  0.360910  0.938287  1
  Fe  Fe5  1  0.250000  0.639090  0.061713  1
  Ni  Ni6  1  0.750000  0.857267  0.562200  1
  Ni  Ni7  1  0.250000  0.142733  0.437800  1
  P  P8  1  0.250000  0.278138  0.106403  1
  P  P9  1  0.750000  0.721862  0.893597  1
  P  P10  1  0.250000  0.767724  0.376129  1
  P  P11  1  0.750000  0.232276  0.623871  1
