# generated using pymatgen
data_Yb4Er3Tm(B6Os)4
_symmetry_space_group_name_H-M   'P 1'
_cell_length_a   3.62914600
_cell_length_b   9.12691900
_cell_length_c   11.51530500
_cell_angle_alpha   90.00049989
_cell_angle_beta   90.00000000
_cell_angle_gamma   90.00000000
_symmetry_Int_Tables_number   1
_chemical_formula_structural   Yb4Er3Tm(B6Os)4
_chemical_formula_sum   'Yb4 Er3 Tm1 B24 Os4'
_cell_volume   381.42054449
_cell_formula_units_Z   1
loop_
 _symmetry_equiv_pos_site_id
 _symmetry_equiv_pos_as_xyz
  1  'x, y, z'
loop_
 _atom_site_type_symbol
 _atom_site_label
 _atom_site_symmetry_multiplicity
 _atom_site_fract_x
 _atom_site_fract_y
 _atom_site_fract_z
 _atom_site_occupancy
  Yb  Yb0  1  0.000000  0.324367  0.414758  1
  Yb  Yb1  1  0.000000  0.675616  0.585337  1
  Yb  Yb2  1  0.000000  0.824295  0.085228  1
  Yb  Yb3  1  0.000000  0.175695  0.914716  1
  Er  Er4  1  0.000000  0.942157  0.367783  1
  Er  Er5  1  0.000000  0.057842  0.632364  1
  Er  Er6  1  0.000000  0.442266  0.131978  1
  Tm  Tm7  1  0.000000  0.557923  0.867533  1
  B  B8  1  0.500000  0.553654  0.433053  1
  B  B9  1  0.500000  0.446357  0.567094  1
  B  B10  1  0.500000  0.053636  0.066940  1
  B  B11  1  0.500000  0.946152  0.933005  1
  B  B12  1  0.500000  0.748556  0.417398  1
  B  B13  1  0.500000  0.251497  0.582689  1
  B  B14  1  0.500000  0.248613  0.082570  1
  B  B15  1  0.500000  0.750976  0.917432  1
  B  B16  1  0.500000  0.791289  0.264352  1
  B  B17  1  0.500000  0.208877  0.735706  1
  B  B18  1  0.500000  0.291350  0.235605  1
  B  B19  1  0.500000  0.708375  0.764446  1
  B  B20  1  0.500000  0.630892  0.185627  1
  B  B21  1  0.500000  0.369417  0.814553  1
  B  B22  1  0.500000  0.130904  0.314320  1
  B  B23  1  0.500000  0.868970  0.685755  1
  B  B24  1  0.500000  0.982956  0.211049  1
  B  B25  1  0.500000  0.016919  0.789021  1
  B  B26  1  0.500000  0.482915  0.288904  1
  B  B27  1  0.500000  0.517269  0.711277  1
  B  B28  1  0.500000  0.596421  0.026121  1
  B  B29  1  0.500000  0.404006  0.973061  1
  B  B30  1  0.500000  0.096464  0.473444  1
  B  B31  1  0.500000  0.903532  0.526647  1
  Os  Os32  1  0.000000  0.638935  0.319927  1
  Os  Os33  1  0.000000  0.361289  0.680321  1
  Os  Os34  1  0.000000  0.139035  0.179975  1
  Os  Os35  1  0.000000  0.860583  0.820011  1
