# generated using pymatgen
data_Tb8Dy8Cd4Os3Pt
_symmetry_space_group_name_H-M   'P 1'
_cell_length_a   9.63118680
_cell_length_b   9.71574086
_cell_length_c   9.73891500
_cell_angle_alpha   59.92106968
_cell_angle_beta   59.62930007
_cell_angle_gamma   59.56687315
_symmetry_Int_Tables_number   1
_chemical_formula_structural   Tb8Dy8Cd4Os3Pt
_chemical_formula_sum   'Tb8 Dy8 Cd4 Os3 Pt1'
_cell_volume   640.07271976
_cell_formula_units_Z   1
loop_
 _symmetry_equiv_pos_site_id
 _symmetry_equiv_pos_as_xyz
  1  'x, y, z'
loop_
 _atom_site_type_symbol
 _atom_site_label
 _atom_site_symmetry_multiplicity
 _atom_site_fract_x
 _atom_site_fract_y
 _atom_site_fract_z
 _atom_site_occupancy
  Tb  Tb0  1  0.186928  0.190837  0.811117  1
  Tb  Tb1  1  0.814395  0.804847  0.190379  1
  Tb  Tb2  1  0.936717  0.561158  0.561505  1
  Tb  Tb3  1  0.553619  0.940212  0.940095  1
  Tb  Tb4  1  0.553619  0.940212  0.566074  1
  Tb  Tb5  1  0.936717  0.561158  0.940620  1
  Tb  Tb6  1  0.553459  0.566416  0.940063  1
  Tb  Tb7  1  0.937093  0.940570  0.561168  1
  Dy  Dy8  1  0.346386  0.350459  0.349118  1
  Dy  Dy9  1  0.346386  0.350459  0.954036  1
  Dy  Dy10  1  0.346585  0.954493  0.349461  1
  Dy  Dy11  1  0.968292  0.343868  0.343920  1
  Dy  Dy12  1  0.813813  0.189631  0.190824  1
  Dy  Dy13  1  0.186343  0.810477  0.810846  1
  Dy  Dy14  1  0.186343  0.810477  0.192334  1
  Dy  Dy15  1  0.813813  0.189631  0.805734  1
  Cd  Cd16  1  0.580731  0.579334  0.580077  1
  Cd  Cd17  1  0.580731  0.579334  0.259858  1
  Cd  Cd18  1  0.580885  0.259141  0.579987  1
  Cd  Cd19  1  0.255609  0.581154  0.581618  1
  Os  Os20  1  0.147873  0.137409  0.136058  1
  Os  Os21  1  0.147873  0.137409  0.578661  1
  Os  Os22  1  0.148810  0.578840  0.136176  1
  Pt  Pt23  1  0.576983  0.142479  0.140270  1
