# generated using pymatgen
data_Er3Co7NiMoP6
_symmetry_space_group_name_H-M   'P 1'
_cell_length_a   3.72021600
_cell_length_b   10.51573800
_cell_length_c   12.20247500
_cell_angle_alpha   90.00000000
_cell_angle_beta   90.00000000
_cell_angle_gamma   90.00000000
_symmetry_Int_Tables_number   1
_chemical_formula_structural   Er3Co7NiMoP6
_chemical_formula_sum   'Er6 Co14 Ni2 Mo2 P12'
_cell_volume   477.37078849
_cell_formula_units_Z   2
loop_
 _symmetry_equiv_pos_site_id
 _symmetry_equiv_pos_as_xyz
  1  'x, y, z'
loop_
 _atom_site_type_symbol
 _atom_site_label
 _atom_site_symmetry_multiplicity
 _atom_site_fract_x
 _atom_site_fract_y
 _atom_site_fract_z
 _atom_site_occupancy
  Er  Er0  1  0.750000  0.250000  0.476705  1
  Er  Er1  1  0.250000  0.750000  0.523295  1
  Er  Er2  1  0.250000  0.931956  0.795390  1
  Er  Er3  1  0.250000  0.568044  0.795390  1
  Er  Er4  1  0.750000  0.068044  0.204610  1
  Er  Er5  1  0.750000  0.431956  0.204610  1
  Co  Co6  1  0.750000  0.250000  0.013149  1
  Co  Co7  1  0.250000  0.750000  0.986851  1
  Co  Co8  1  0.250000  0.417630  0.009985  1
  Co  Co9  1  0.250000  0.082370  0.009985  1
  Co  Co10  1  0.750000  0.582370  0.990015  1
  Co  Co11  1  0.750000  0.917630  0.990015  1
  Co  Co12  1  0.250000  0.452312  0.567887  1
  Co  Co13  1  0.250000  0.047688  0.567887  1
  Co  Co14  1  0.750000  0.547688  0.432113  1
  Co  Co15  1  0.750000  0.952312  0.432113  1
  Co  Co16  1  0.250000  0.872105  0.292741  1
  Co  Co17  1  0.250000  0.627895  0.292741  1
  Co  Co18  1  0.750000  0.127895  0.707259  1
  Co  Co19  1  0.750000  0.372105  0.707259  1
  Ni  Ni20  1  0.250000  0.250000  0.298148  1
  Ni  Ni21  1  0.750000  0.750000  0.701852  1
  Mo  Mo22  1  0.250000  0.250000  0.843640  1
  Mo  Mo23  1  0.750000  0.750000  0.156360  1
  P  P24  1  0.250000  0.250000  0.118586  1
  P  P25  1  0.750000  0.750000  0.881414  1
  P  P26  1  0.250000  0.250000  0.649953  1
  P  P27  1  0.750000  0.750000  0.350047  1
  P  P28  1  0.250000  0.438791  0.384008  1
  P  P29  1  0.250000  0.061209  0.384008  1
  P  P30  1  0.750000  0.561209  0.615992  1
  P  P31  1  0.750000  0.938791  0.615992  1
  P  P32  1  0.250000  0.905789  0.107415  1
  P  P33  1  0.250000  0.594211  0.107415  1
  P  P34  1  0.750000  0.094211  0.892585  1
  P  P35  1  0.750000  0.405789  0.892585  1
