# generated using pymatgen
data_Nd3ThAl10(Ga4Ir3)2
_symmetry_space_group_name_H-M   'P 1'
_cell_length_a   7.61601480
_cell_length_b   7.62337771
_cell_length_c   9.65854526
_cell_angle_alpha   90.12398917
_cell_angle_beta   89.79722542
_cell_angle_gamma   119.59770536
_symmetry_Int_Tables_number   1
_chemical_formula_structural   Nd3ThAl10(Ga4Ir3)2
_chemical_formula_sum   'Nd3 Th1 Al10 Ga8 Ir6'
_cell_volume   487.59708522
_cell_formula_units_Z   1
loop_
 _symmetry_equiv_pos_site_id
 _symmetry_equiv_pos_as_xyz
  1  'x, y, z'
loop_
 _atom_site_type_symbol
 _atom_site_label
 _atom_site_symmetry_multiplicity
 _atom_site_fract_x
 _atom_site_fract_y
 _atom_site_fract_z
 _atom_site_occupancy
  Nd  Nd0  1  0.002401  0.331588  0.754501  1
  Nd  Nd1  1  0.672839  0.997269  0.249068  1
  Nd  Nd2  1  0.327991  0.001522  0.751119  1
  Th  Th3  1  0.996860  0.669153  0.244906  1
  Al  Al4  1  0.996838  0.664744  0.573232  1
  Al  Al5  1  0.337600  0.003842  0.428112  1
  Al  Al6  1  0.003113  0.332806  0.430309  1
  Al  Al7  1  0.665262  0.999053  0.572681  1
  Al  Al8  1  0.663630  0.996264  0.926334  1
  Al  Al9  1  0.339844  0.007276  0.073029  1
  Al  Al10  1  0.333135  0.332930  0.552695  1
  Al  Al11  1  0.663944  0.665811  0.451473  1
  Al  Al12  1  0.663693  0.665161  0.046894  1
  Al  Al13  1  0.332706  0.333521  0.948881  1
  Ga  Ga14  1  0.133963  0.131742  0.250848  1
  Ga  Ga15  1  0.869144  0.873766  0.749414  1
  Ga  Ga16  1  0.001124  0.330384  0.078100  1
  Ga  Ga17  1  0.998774  0.666245  0.917429  1
  Ga  Ga18  1  0.346158  0.548681  0.250938  1
  Ga  Ga19  1  0.655297  0.450679  0.749110  1
  Ga  Ga20  1  0.543922  0.340995  0.250189  1
  Ga  Ga21  1  0.453018  0.658866  0.749893  1
  Ir  Ir22  1  0.668553  0.329159  0.000797  1
  Ir  Ir23  1  0.331028  0.672692  0.002370  1
  Ir  Ir24  1  0.326697  0.670094  0.498919  1
  Ir  Ir25  1  0.673042  0.331051  0.498237  1
  Ir  Ir26  1  0.999630  0.997021  0.002448  1
  Ir  Ir27  1  0.999795  0.997687  0.498074  1
