# generated using pymatgen
data_EuTh(TaN2)2
_symmetry_space_group_name_H-M   'P 1'
_cell_length_a   3.38935600
_cell_length_b   5.82948588
_cell_length_c   11.09045457
_cell_angle_alpha   90.06202177
_cell_angle_beta   90.00000000
_cell_angle_gamma   90.00000000
_symmetry_Int_Tables_number   1
_chemical_formula_structural   EuTh(TaN2)2
_chemical_formula_sum   'Eu2 Th2 Ta4 N8'
_cell_volume   219.12732386
_cell_formula_units_Z   2
loop_
 _symmetry_equiv_pos_site_id
 _symmetry_equiv_pos_as_xyz
  1  'x, y, z'
loop_
 _atom_site_type_symbol
 _atom_site_label
 _atom_site_symmetry_multiplicity
 _atom_site_fract_x
 _atom_site_fract_y
 _atom_site_fract_z
 _atom_site_occupancy
  Eu  Eu0  1  0.250000  0.581039  0.861199  1
  Eu  Eu1  1  0.750000  0.418961  0.138801  1
  Th  Th2  1  0.750000  0.920084  0.360967  1
  Th  Th3  1  0.250000  0.079916  0.639033  1
  Ta  Ta4  1  0.250000  0.920796  0.107375  1
  Ta  Ta5  1  0.750000  0.079204  0.892625  1
  Ta  Ta6  1  0.750000  0.577257  0.607001  1
  Ta  Ta7  1  0.250000  0.422743  0.392999  1
  N  N8  1  0.250000  0.667738  0.248670  1
  N  N9  1  0.750000  0.332262  0.751330  1
  N  N10  1  0.750000  0.838672  0.745932  1
  N  N11  1  0.250000  0.161328  0.254068  1
  N  N12  1  0.250000  0.733701  0.510915  1
  N  N13  1  0.750000  0.266299  0.489085  1
  N  N14  1  0.750000  0.782904  0.013838  1
  N  N15  1  0.250000  0.217096  0.986162  1
