# generated using pymatgen
data_Tb2CoMoRu2
_symmetry_space_group_name_H-M   'P 1'
_cell_length_a   5.53253947
_cell_length_b   5.17285573
_cell_length_c   5.53254012
_cell_angle_alpha   123.71981385
_cell_angle_beta   119.26392842
_cell_angle_gamma   89.51742403
_symmetry_Int_Tables_number   1
_chemical_formula_structural   Tb2CoMoRu2
_chemical_formula_sum   'Tb2 Co1 Mo1 Ru2'
_cell_volume   107.08127956
_cell_formula_units_Z   1
loop_
 _symmetry_equiv_pos_site_id
 _symmetry_equiv_pos_as_xyz
  1  'x, y, z'
loop_
 _atom_site_type_symbol
 _atom_site_label
 _atom_site_symmetry_multiplicity
 _atom_site_fract_x
 _atom_site_fract_y
 _atom_site_fract_z
 _atom_site_occupancy
  Tb  Tb0  1  0.371637  0.116464  0.244826  1
  Tb  Tb1  1  0.628363  0.883536  0.755174  1
  Co  Co2  1  0.000000  0.500000  0.000000  1
  Mo  Mo3  1  0.000000  0.000000  0.500000  1
  Ru  Ru4  1  0.000000  0.500000  0.500000  1
  Ru  Ru5  1  0.500000  0.500000  0.000000  1
