# generated using pymatgen
data_Tb4Al24Ni7Au2
_symmetry_space_group_name_H-M   'P 1'
_cell_length_a   7.40090670
_cell_length_b   7.39406473
_cell_length_c   12.90384572
_cell_angle_alpha   84.62739415
_cell_angle_beta   101.01412334
_cell_angle_gamma   119.73988970
_symmetry_Int_Tables_number   1
_chemical_formula_structural   Tb4Al24Ni7Au2
_chemical_formula_sum   'Tb4 Al24 Ni7 Au2'
_cell_volume   601.83256593
_cell_formula_units_Z   1
loop_
 _symmetry_equiv_pos_site_id
 _symmetry_equiv_pos_as_xyz
  1  'x, y, z'
loop_
 _atom_site_type_symbol
 _atom_site_label
 _atom_site_symmetry_multiplicity
 _atom_site_fract_x
 _atom_site_fract_y
 _atom_site_fract_z
 _atom_site_occupancy
  Tb  Tb0  1  0.438910  0.829759  0.807976  1
  Tb  Tb1  1  0.561090  0.170241  0.192024  1
  Tb  Tb2  1  0.766275  0.501656  0.809371  1
  Tb  Tb3  1  0.233725  0.498344  0.190629  1
  Al  Al4  1  0.486447  0.164690  0.948776  1
  Al  Al5  1  0.513553  0.835310  0.051224  1
  Al  Al6  1  0.014008  0.160306  0.557998  1
  Al  Al7  1  0.985992  0.839694  0.442002  1
  Al  Al8  1  0.351751  0.843732  0.556638  1
  Al  Al9  1  0.648249  0.156268  0.443362  1
  Al  Al10  1  0.617638  0.847116  0.330530  1
  Al  Al11  1  0.382362  0.152884  0.669470  1
  Al  Al12  1  0.046096  0.492347  0.671139  1
  Al  Al13  1  0.953904  0.507653  0.328861  1
  Al  Al14  1  0.745145  0.854997  0.667440  1
  Al  Al15  1  0.254855  0.145003  0.332560  1
  Al  Al16  1  0.148335  0.503703  0.948225  1
  Al  Al17  1  0.851665  0.496297  0.051775  1
  Al  Al18  1  0.818767  0.831507  0.961758  1
  Al  Al19  1  0.181233  0.168493  0.038242  1
  Al  Al20  1  0.297891  0.500170  0.434539  1
  Al  Al21  1  0.702109  0.499830  0.565461  1
  Al  Al22  1  0.109185  0.836490  0.183196  1
  Al  Al23  1  0.890815  0.163510  0.816804  1
  Al  Al24  1  0.306897  0.365118  0.822865  1
  Al  Al25  1  0.693103  0.634882  0.177135  1
  Al  Al26  1  0.103275  0.951204  0.816541  1
  Al  Al27  1  0.896725  0.048796  0.183459  1
  Ni  Ni28  1  0.169922  0.829176  0.999764  1
  Ni  Ni29  1  0.830078  0.170824  0.000236  1
  Ni  Ni30  1  0.292674  0.832476  0.362540  1
  Ni  Ni31  1  0.707326  0.167524  0.637460  1
  Ni  Ni32  1  0.047559  0.826777  0.637507  1
  Ni  Ni33  1  0.952441  0.173223  0.362493  1
  Ni  Ni34  1  0.500000  0.500000  0.000000  1
  Au  Au35  1  0.388703  0.508521  0.637540  1
  Au  Au36  1  0.611297  0.491479  0.362460  1
