# generated using pymatgen
data_Ho7ZrSiPd24
_symmetry_space_group_name_H-M   'P 1'
_cell_length_a   8.29487927
_cell_length_b   8.29487927
_cell_length_c   8.29487927
_cell_angle_alpha   89.87878077
_cell_angle_beta   89.87878077
_cell_angle_gamma   89.87878077
_symmetry_Int_Tables_number   1
_chemical_formula_structural   Ho7ZrSiPd24
_chemical_formula_sum   'Ho7 Zr1 Si1 Pd24'
_cell_volume   570.72552546
_cell_formula_units_Z   1
loop_
 _symmetry_equiv_pos_site_id
 _symmetry_equiv_pos_as_xyz
  1  'x, y, z'
loop_
 _atom_site_type_symbol
 _atom_site_label
 _atom_site_symmetry_multiplicity
 _atom_site_fract_x
 _atom_site_fract_y
 _atom_site_fract_z
 _atom_site_occupancy
  Ho  Ho0  1  0.745636  0.745636  0.745636  1
  Ho  Ho1  1  0.746141  0.746141  0.253997  1
  Ho  Ho2  1  0.746141  0.253997  0.746141  1
  Ho  Ho3  1  0.254045  0.254045  0.746385  1
  Ho  Ho4  1  0.254045  0.746385  0.254045  1
  Ho  Ho5  1  0.253997  0.746141  0.746141  1
  Ho  Ho6  1  0.746385  0.254045  0.254045  1
  Zr  Zr7  1  0.256556  0.256556  0.256556  1
  Si  Si8  1  0.998809  0.998809  0.998809  1
  Pd  Pd9  1  0.256838  0.496696  0.004364  1
  Pd  Pd10  1  0.743113  0.499126  0.000551  1
  Pd  Pd11  1  0.004364  0.256838  0.496696  1
  Pd  Pd12  1  0.496696  0.256838  0.004364  1
  Pd  Pd13  1  0.000551  0.743113  0.499126  1
  Pd  Pd14  1  0.499126  0.743113  0.000551  1
  Pd  Pd15  1  0.496696  0.004364  0.256838  1
  Pd  Pd16  1  0.256838  0.004364  0.496696  1
  Pd  Pd17  1  0.499126  0.000551  0.743113  1
  Pd  Pd18  1  0.743113  0.000551  0.499126  1
  Pd  Pd19  1  0.004364  0.496696  0.256838  1
  Pd  Pd20  1  0.000551  0.499126  0.743113  1
  Pd  Pd21  1  0.252108  0.496395  0.496395  1
  Pd  Pd22  1  0.748078  0.499286  0.499286  1
  Pd  Pd23  1  0.496395  0.252108  0.496395  1
  Pd  Pd24  1  0.499286  0.748078  0.499286  1
  Pd  Pd25  1  0.496395  0.496395  0.252108  1
  Pd  Pd26  1  0.499286  0.499286  0.748078  1
  Pd  Pd27  1  0.278491  0.003437  0.003437  1
  Pd  Pd28  1  0.719536  0.000210  0.000210  1
  Pd  Pd29  1  0.003437  0.278491  0.003437  1
  Pd  Pd30  1  0.000210  0.719536  0.000210  1
  Pd  Pd31  1  0.003437  0.003437  0.278491  1
  Pd  Pd32  1  0.000210  0.000210  0.719536  1
