# generated using pymatgen
data_Ho2Pa2Al24Pt8Rh
_symmetry_space_group_name_H-M   'P 1'
_cell_length_a   7.55564007
_cell_length_b   7.56258705
_cell_length_c   13.09239710
_cell_angle_alpha   84.50742012
_cell_angle_beta   78.91345888
_cell_angle_gamma   59.90501513
_symmetry_Int_Tables_number   1
_chemical_formula_structural   Ho2Pa2Al24Pt8Rh
_chemical_formula_sum   'Ho2 Pa2 Al24 Pt8 Rh1'
_cell_volume   635.17497741
_cell_formula_units_Z   1
loop_
 _symmetry_equiv_pos_site_id
 _symmetry_equiv_pos_as_xyz
  1  'x, y, z'
loop_
 _atom_site_type_symbol
 _atom_site_label
 _atom_site_symmetry_multiplicity
 _atom_site_fract_x
 _atom_site_fract_y
 _atom_site_fract_z
 _atom_site_occupancy
  Ho  Ho0  1  0.733593  0.498517  0.808336  1
  Ho  Ho1  1  0.266407  0.501483  0.191664  1
  Pa  Pa2  1  0.394864  0.168764  0.805306  1
  Pa  Pa3  1  0.605136  0.831236  0.194694  1
  Al  Al4  1  0.687682  0.829652  0.945070  1
  Al  Al5  1  0.312318  0.170348  0.054930  1
  Al  Al6  1  0.145526  0.832584  0.561564  1
  Al  Al7  1  0.854474  0.167416  0.438436  1
  Al  Al8  1  0.480615  0.167386  0.558336  1
  Al  Al9  1  0.519385  0.832614  0.441664  1
  Al  Al10  1  0.214686  0.167696  0.330642  1
  Al  Al11  1  0.785314  0.832304  0.669358  1
  Al  Al12  1  0.437085  0.509583  0.670464  1
  Al  Al13  1  0.562915  0.490417  0.329536  1
  Al  Al14  1  0.107512  0.159827  0.668546  1
  Al  Al15  1  0.892488  0.840173  0.331454  1
  Al  Al16  1  0.349639  0.499792  0.944802  1
  Al  Al17  1  0.650361  0.500208  0.055198  1
  Al  Al18  1  0.014868  0.171790  0.953268  1
  Al  Al19  1  0.985132  0.828210  0.046732  1
  Al  Al20  1  0.185843  0.500347  0.441243  1
  Al  Al21  1  0.814157  0.499653  0.558757  1
  Al  Al22  1  0.736992  0.162198  0.182598  1
  Al  Al23  1  0.263008  0.837802  0.817402  1
  Al  Al24  1  0.061476  0.629631  0.818220  1
  Al  Al25  1  0.938524  0.370369  0.181780  1
  Al  Al26  1  0.855872  0.040222  0.817016  1
  Al  Al27  1  0.144128  0.959778  0.182984  1
  Pt  Pt28  1  0.120015  0.491207  0.640094  1
  Pt  Pt29  1  0.879985  0.508793  0.359906  1
  Pt  Pt30  1  0.656157  0.172278  0.999944  1
  Pt  Pt31  1  0.343843  0.827722  0.000056  1
  Pt  Pt32  1  0.537223  0.166141  0.360605  1
  Pt  Pt33  1  0.462777  0.833859  0.639395  1
  Pt  Pt34  1  0.777814  0.175507  0.638531  1
  Pt  Pt35  1  0.222186  0.824493  0.361469  1
  Rh  Rh36  1  0.000000  0.500000  0.000000  1
