# generated using pymatgen
data_Nd6Dy10Cd3InIr3Pt
_symmetry_space_group_name_H-M   'P 1'
_cell_length_a   9.74981027
_cell_length_b   9.74980982
_cell_length_c   9.74981000
_cell_angle_alpha   60.09884526
_cell_angle_beta   60.09884679
_cell_angle_gamma   60.09885251
_symmetry_Int_Tables_number   1
_chemical_formula_structural   Nd6Dy10Cd3InIr3Pt
_chemical_formula_sum   'Nd6 Dy10 Cd3 In1 Ir3 Pt1'
_cell_volume   656.81805139
_cell_formula_units_Z   1
loop_
 _symmetry_equiv_pos_site_id
 _symmetry_equiv_pos_as_xyz
  1  'x, y, z'
loop_
 _atom_site_type_symbol
 _atom_site_label
 _atom_site_symmetry_multiplicity
 _atom_site_fract_x
 _atom_site_fract_y
 _atom_site_fract_z
 _atom_site_occupancy
  Nd  Nd0  1  0.941174  0.560038  0.560038  1
  Nd  Nd1  1  0.561255  0.940115  0.940115  1
  Nd  Nd2  1  0.560038  0.941174  0.560038  1
  Nd  Nd3  1  0.940115  0.561255  0.940115  1
  Nd  Nd4  1  0.560038  0.560038  0.941174  1
  Nd  Nd5  1  0.940115  0.940115  0.561255  1
  Dy  Dy6  1  0.346912  0.346912  0.346912  1
  Dy  Dy7  1  0.350577  0.350577  0.953844  1
  Dy  Dy8  1  0.350577  0.953844  0.350577  1
  Dy  Dy9  1  0.953844  0.350577  0.350577  1
  Dy  Dy10  1  0.808582  0.187956  0.187956  1
  Dy  Dy11  1  0.186545  0.812139  0.812139  1
  Dy  Dy12  1  0.187956  0.808582  0.187956  1
  Dy  Dy13  1  0.812139  0.186545  0.812139  1
  Dy  Dy14  1  0.187956  0.187956  0.808582  1
  Dy  Dy15  1  0.812139  0.812139  0.186545  1
  Cd  Cd16  1  0.579478  0.579478  0.261081  1
  Cd  Cd17  1  0.579478  0.261081  0.579478  1
  Cd  Cd18  1  0.261081  0.579478  0.579478  1
  In  In19  1  0.579747  0.579747  0.579747  1
  Ir  Ir20  1  0.141557  0.141557  0.574928  1
  Ir  Ir21  1  0.141557  0.574928  0.141557  1
  Ir  Ir22  1  0.574928  0.141557  0.141557  1
  Pt  Pt23  1  0.142208  0.142208  0.142208  1
