# generated using pymatgen
data_GdHo7(WO6)4
_symmetry_space_group_name_H-M   'P 1'
_cell_length_a   5.39265200
_cell_length_b   7.70291704
_cell_length_c   11.47337690
_cell_angle_alpha   75.45078394
_cell_angle_beta   90.00000000
_cell_angle_gamma   90.00000000
_symmetry_Int_Tables_number   1
_chemical_formula_structural   GdHo7(WO6)4
_chemical_formula_sum   'Gd1 Ho7 W4 O24'
_cell_volume   461.31100860
_cell_formula_units_Z   1
loop_
 _symmetry_equiv_pos_site_id
 _symmetry_equiv_pos_as_xyz
  1  'x, y, z'
loop_
 _atom_site_type_symbol
 _atom_site_label
 _atom_site_symmetry_multiplicity
 _atom_site_fract_x
 _atom_site_fract_y
 _atom_site_fract_z
 _atom_site_occupancy
  Gd  Gd0  1  0.684373  0.500000  0.750000  1
  Ho  Ho1  1  0.740293  0.000000  0.750000  1
  Ho  Ho2  1  0.261376  0.000000  0.250000  1
  Ho  Ho3  1  0.185798  0.795958  0.577131  1
  Ho  Ho4  1  0.814809  0.794945  0.078300  1
  Ho  Ho5  1  0.316312  0.500000  0.250000  1
  Ho  Ho6  1  0.185798  0.204042  0.922869  1
  Ho  Ho7  1  0.814809  0.205055  0.421700  1
  W  W8  1  0.254583  0.724775  0.885893  1
  W  W9  1  0.745384  0.723645  0.384403  1
  W  W10  1  0.254583  0.275225  0.614107  1
  W  W11  1  0.745384  0.276355  0.115597  1
  O  O12  1  0.041635  0.940076  0.896481  1
  O  O13  1  0.533675  0.847819  0.930712  1
  O  O14  1  0.957484  0.940583  0.394318  1
  O  O15  1  0.456970  0.792488  0.727261  1
  O  O16  1  0.467940  0.847978  0.430459  1
  O  O17  1  0.982496  0.714244  0.770759  1
  O  O18  1  0.540990  0.790531  0.226992  1
  O  O19  1  0.852386  0.635413  0.546603  1
  O  O20  1  0.356366  0.490303  0.886966  1
  O  O21  1  0.019661  0.709472  0.271337  1
  O  O22  1  0.356366  0.509697  0.613034  1
  O  O23  1  0.852386  0.364587  0.953397  1
  O  O24  1  0.150797  0.636596  0.049136  1
  O  O25  1  0.637849  0.490164  0.385314  1
  O  O26  1  0.982496  0.285756  0.729241  1
  O  O27  1  0.637849  0.509836  0.114686  1
  O  O28  1  0.150797  0.363404  0.450864  1
  O  O29  1  0.456970  0.207512  0.772739  1
  O  O30  1  0.019661  0.290528  0.228663  1
  O  O31  1  0.533675  0.152181  0.569288  1
  O  O32  1  0.540990  0.209469  0.273008  1
  O  O33  1  0.041635  0.059924  0.603519  1
  O  O34  1  0.467940  0.152022  0.069541  1
  O  O35  1  0.957484  0.059417  0.105682  1
