# generated using pymatgen
data_Pr12Sn3BI12
_symmetry_space_group_name_H-M   'P 1'
_cell_length_a   11.24024441
_cell_length_b   11.02716395
_cell_length_c   11.02718082
_cell_angle_alpha   109.07682527
_cell_angle_beta   109.86281124
_cell_angle_gamma   109.86301301
_symmetry_Int_Tables_number   1
_chemical_formula_structural   Pr12Sn3BI12
_chemical_formula_sum   'Pr12 Sn3 B1 I12'
_cell_volume   1047.03040248
_cell_formula_units_Z   1
loop_
 _symmetry_equiv_pos_site_id
 _symmetry_equiv_pos_as_xyz
  1  'x, y, z'
loop_
 _atom_site_type_symbol
 _atom_site_label
 _atom_site_symmetry_multiplicity
 _atom_site_fract_x
 _atom_site_fract_y
 _atom_site_fract_z
 _atom_site_occupancy
  Pr  Pr0  1  0.457754  0.496830  0.214874  1
  Pr  Pr1  1  0.750000  0.240276  0.259720  1
  Pr  Pr2  1  0.750000  0.007896  0.492103  1
  Pr  Pr3  1  0.242104  0.484205  0.492102  1
  Pr  Pr4  1  0.257118  0.718045  0.214874  1
  Pr  Pr5  1  0.042247  0.285129  0.003173  1
  Pr  Pr6  1  0.009721  0.019443  0.259721  1
  Pr  Pr7  1  0.460927  0.718045  0.003170  1
  Pr  Pr8  1  0.490279  0.240279  0.480558  1
  Pr  Pr9  1  0.039076  0.496830  0.781957  1
  Pr  Pr10  1  0.257897  0.007897  0.015792  1
  Pr  Pr11  1  0.242880  0.285125  0.781954  1
  Sn  Sn12  1  0.250001  0.250516  0.249485  1
  Sn  Sn13  1  0.499483  0.998971  0.249484  1
  Sn  Sn14  1  0.000516  0.250514  0.501030  1
  B  B15  1  0.250000  0.500001  0.999999  1
  I  I16  1  0.250000  0.756223  0.743777  1
  I  I17  1  0.512206  0.506467  0.758613  1
  I  I18  1  0.987794  0.741388  0.993534  1
  I  I19  1  0.746409  0.252142  0.758613  1
  I  I20  1  0.993778  0.987556  0.743777  1
  I  I21  1  0.249999  0.995445  0.504555  1
  I  I22  1  0.754555  0.509110  0.504555  1
  I  I23  1  0.505738  0.252145  0.993534  1
  I  I24  1  0.753590  0.741387  0.247858  1
  I  I25  1  0.745444  0.995445  0.990889  1
  I  I26  1  0.994262  0.506468  0.247856  1
  I  I27  1  0.506222  0.756222  0.512443  1
