# generated using pymatgen
data_Sm5Ga2P10Ir19
_symmetry_space_group_name_H-M   'P 1'
_cell_length_a   12.83593000
_cell_length_b   12.76197543
_cell_length_c   3.99263600
_cell_angle_alpha   90.00000000
_cell_angle_beta   90.00000000
_cell_angle_gamma   120.22266047
_symmetry_Int_Tables_number   1
_chemical_formula_structural   Sm5Ga2P10Ir19
_chemical_formula_sum   'Sm5 Ga2 P10 Ir19'
_cell_volume   565.14097887
_cell_formula_units_Z   1
loop_
 _symmetry_equiv_pos_site_id
 _symmetry_equiv_pos_as_xyz
  1  'x, y, z'
loop_
 _atom_site_type_symbol
 _atom_site_label
 _atom_site_symmetry_multiplicity
 _atom_site_fract_x
 _atom_site_fract_y
 _atom_site_fract_z
 _atom_site_occupancy
  Sm  Sm0  1  0.003080  0.815117  0.500000  1
  Sm  Sm1  1  0.180779  0.183622  0.500000  1
  Sm  Sm2  1  0.815748  0.999021  0.500000  1
  Sm  Sm3  1  0.334306  0.667178  0.000000  1
  Sm  Sm4  1  0.665486  0.332679  0.000000  1
  Ga  Ga5  1  0.517057  0.679347  0.500000  1
  Ga  Ga6  1  0.322401  0.837374  0.500000  1
  P  P7  1  0.995074  0.178214  0.000000  1
  P  P8  1  0.824863  0.818680  0.000000  1
  P  P9  1  0.180190  0.000992  0.000000  1
  P  P10  1  0.169876  0.482680  0.500000  1
  P  P11  1  0.480249  0.172929  0.500000  1
  P  P12  1  0.692317  0.518213  0.500000  1
  P  P13  1  0.824732  0.309375  0.500000  1
  P  P14  1  0.004208  0.641613  0.000000  1
  P  P15  1  0.357589  0.363018  0.000000  1
  P  P16  1  0.636663  0.993860  0.000000  1
  Ir  Ir17  1  0.993551  0.283567  0.500000  1
  Ir  Ir18  1  0.727109  0.715991  0.500000  1
  Ir  Ir19  1  0.281416  0.008869  0.500000  1
  Ir  Ir20  1  0.638010  0.809220  0.000000  1
  Ir  Ir21  1  0.189388  0.820855  0.000000  1
  Ir  Ir22  1  0.170083  0.376394  0.000000  1
  Ir  Ir23  1  0.377959  0.186499  0.000000  1
  Ir  Ir24  1  0.807241  0.620056  0.000000  1
  Ir  Ir25  1  0.813368  0.191828  0.000000  1
  Ir  Ir26  1  0.532217  0.884178  0.500000  1
  Ir  Ir27  1  0.124469  0.633451  0.500000  1
  Ir  Ir28  1  0.347723  0.468754  0.500000  1
  Ir  Ir29  1  0.497333  0.365163  0.500000  1
  Ir  Ir30  1  0.868375  0.505540  0.500000  1
  Ir  Ir31  1  0.635513  0.135293  0.500000  1
  Ir  Ir32  1  0.001456  0.002176  0.000000  1
  Ir  Ir33  1  0.992694  0.456250  0.000000  1
  Ir  Ir34  1  0.539305  0.543423  0.000000  1
  Ir  Ir35  1  0.458171  0.998578  0.000000  1
