# generated using pymatgen
data_Cs2Nd10S2Br17
_symmetry_space_group_name_H-M   'P 1'
_cell_length_a   9.38344977
_cell_length_b   10.97738529
_cell_length_c   10.97731000
_cell_angle_alpha   107.02158268
_cell_angle_beta   94.11691645
_cell_angle_gamma   94.11655744
_symmetry_Int_Tables_number   1
_chemical_formula_structural   Cs2Nd10S2Br17
_chemical_formula_sum   'Cs2 Nd10 S2 Br17'
_cell_volume   1073.28679945
_cell_formula_units_Z   1
loop_
 _symmetry_equiv_pos_site_id
 _symmetry_equiv_pos_as_xyz
  1  'x, y, z'
loop_
 _atom_site_type_symbol
 _atom_site_label
 _atom_site_symmetry_multiplicity
 _atom_site_fract_x
 _atom_site_fract_y
 _atom_site_fract_z
 _atom_site_occupancy
  Cs  Cs0  1  0.999990  0.820815  0.179148  1
  Cs  Cs1  1  0.000005  0.179181  0.820846  1
  Nd  Nd2  1  0.444115  0.159362  0.159358  1
  Nd  Nd3  1  0.573516  0.501140  0.196190  1
  Nd  Nd4  1  0.829097  0.285294  0.285284  1
  Nd  Nd5  1  0.310965  0.435046  0.435040  1
  Nd  Nd6  1  0.426482  0.803810  0.498853  1
  Nd  Nd7  1  0.573509  0.196166  0.501147  1
  Nd  Nd8  1  0.689038  0.564956  0.564960  1
  Nd  Nd9  1  0.170901  0.714707  0.714716  1
  Nd  Nd10  1  0.426489  0.498861  0.803832  1
  Nd  Nd11  1  0.555887  0.840638  0.840639  1
  S  S12  1  0.571012  0.359414  0.359407  1
  S  S13  1  0.428988  0.640594  0.640581  1
  Br  Br14  1  0.581912  0.692957  0.029898  1
  Br  Br15  1  0.721506  0.062790  0.062788  1
  Br  Br16  1  0.859371  0.449170  0.115303  1
  Br  Br17  1  0.139572  0.215918  0.215902  1
  Br  Br18  1  0.286525  0.601923  0.260796  1
  Br  Br19  1  0.418092  0.970104  0.307044  1
  Br  Br20  1  0.713472  0.739196  0.398072  1
  Br  Br21  1  0.859362  0.115332  0.449165  1
  Br  Br22  1  0.000000  0.499999  0.500000  1
  Br  Br23  1  0.140636  0.884680  0.550839  1
  Br  Br24  1  0.286548  0.260813  0.601943  1
  Br  Br25  1  0.581911  0.029899  0.692957  1
  Br  Br26  1  0.713458  0.398065  0.739205  1
  Br  Br27  1  0.860429  0.784083  0.784098  1
  Br  Br28  1  0.140629  0.550828  0.884693  1
  Br  Br29  1  0.278503  0.937212  0.937200  1
  Br  Br30  1  0.418085  0.307046  0.970099  1
