# generated using pymatgen
data_Cs2KTbSb2
_symmetry_space_group_name_H-M   'P 1'
_cell_length_a   10.49295734
_cell_length_b   10.49301698
_cell_length_c   10.49295744
_cell_angle_alpha   132.86247124
_cell_angle_beta   66.06864433
_cell_angle_gamma   136.50154677
_symmetry_Int_Tables_number   1
_chemical_formula_structural   Cs2KTbSb2
_chemical_formula_sum   'Cs4 K2 Tb2 Sb4'
_cell_volume   574.00519515
_cell_formula_units_Z   2
loop_
 _symmetry_equiv_pos_site_id
 _symmetry_equiv_pos_as_xyz
  1  'x, y, z'
loop_
 _atom_site_type_symbol
 _atom_site_label
 _atom_site_symmetry_multiplicity
 _atom_site_fract_x
 _atom_site_fract_y
 _atom_site_fract_z
 _atom_site_occupancy
  Cs  Cs0  1  0.317838  0.760596  0.078436  1
  Cs  Cs1  1  0.182159  0.260595  0.442757  1
  Cs  Cs2  1  0.817841  0.739405  0.557242  1
  Cs  Cs3  1  0.682162  0.239405  0.921564  1
  K  K4  1  0.250007  0.250000  0.000007  1
  K  K5  1  0.749993  0.750000  0.999993  1
  Tb  Tb6  1  0.749997  0.250000  0.499998  1
  Tb  Tb7  1  0.250002  0.750000  0.500002  1
  Sb  Sb8  1  0.904842  0.297848  0.202681  1
  Sb  Sb9  1  0.595167  0.797848  0.393006  1
  Sb  Sb10  1  0.404834  0.202152  0.606995  1
  Sb  Sb11  1  0.095159  0.702152  0.797319  1
