# generated using pymatgen
data_Ce4Y3Tm(ReC2)4
_symmetry_space_group_name_H-M   'P 1'
_cell_length_a   5.21073900
_cell_length_b   6.53410936
_cell_length_c   9.88225037
_cell_angle_alpha   89.90224102
_cell_angle_beta   90.00000000
_cell_angle_gamma   90.00000000
_symmetry_Int_Tables_number   1
_chemical_formula_structural   Ce4Y3Tm(ReC2)4
_chemical_formula_sum   'Ce4 Y3 Tm1 Re4 C8'
_cell_volume   336.46580983
_cell_formula_units_Z   1
loop_
 _symmetry_equiv_pos_site_id
 _symmetry_equiv_pos_as_xyz
  1  'x, y, z'
loop_
 _atom_site_type_symbol
 _atom_site_label
 _atom_site_symmetry_multiplicity
 _atom_site_fract_x
 _atom_site_fract_y
 _atom_site_fract_z
 _atom_site_occupancy
  Ce  Ce0  1  0.250000  0.470160  0.782413  1
  Ce  Ce1  1  0.750000  0.029764  0.280954  1
  Ce  Ce2  1  0.250000  0.970659  0.718159  1
  Ce  Ce3  1  0.750000  0.529569  0.217383  1
  Y  Y4  1  0.250000  0.819209  0.051390  1
  Y  Y5  1  0.750000  0.681176  0.552313  1
  Y  Y6  1  0.250000  0.318487  0.447976  1
  Tm  Tm7  1  0.750000  0.177945  0.946949  1
  Re  Re8  1  0.250000  0.277926  0.133463  1
  Re  Re9  1  0.750000  0.222380  0.635816  1
  Re  Re10  1  0.250000  0.777753  0.364793  1
  Re  Re11  1  0.750000  0.722016  0.866068  1
  C  C12  1  0.250000  0.175584  0.946463  1
  C  C13  1  0.750000  0.827590  0.052632  1
  C  C14  1  0.250000  0.676574  0.552344  1
  C  C15  1  0.750000  0.323756  0.448033  1
  C  C16  1  0.250000  0.044846  0.258794  1
  C  C17  1  0.750000  0.453977  0.761727  1
  C  C18  1  0.250000  0.544466  0.240066  1
  C  C19  1  0.750000  0.956161  0.742266  1
