# generated using pymatgen
data_PrHo2IrO7
_symmetry_space_group_name_H-M   'P 1'
_cell_length_a   6.46297688
_cell_length_b   6.46297663
_cell_length_c   7.49464100
_cell_angle_alpha   90.00000000
_cell_angle_beta   90.00000000
_cell_angle_gamma   109.88619395
_symmetry_Int_Tables_number   1
_chemical_formula_structural   PrHo2IrO7
_chemical_formula_sum   'Pr2 Ho4 Ir2 O14'
_cell_volume   294.38443414
_cell_formula_units_Z   2
loop_
 _symmetry_equiv_pos_site_id
 _symmetry_equiv_pos_as_xyz
  1  'x, y, z'
loop_
 _atom_site_type_symbol
 _atom_site_label
 _atom_site_symmetry_multiplicity
 _atom_site_fract_x
 _atom_site_fract_y
 _atom_site_fract_z
 _atom_site_occupancy
  Pr  Pr0  1  0.000000  0.000000  0.000000  1
  Pr  Pr1  1  0.000000  0.000000  0.500000  1
  Ho  Ho2  1  0.483800  0.935526  0.750000  1
  Ho  Ho3  1  0.516200  0.064474  0.250000  1
  Ho  Ho4  1  0.935526  0.483800  0.750000  1
  Ho  Ho5  1  0.064474  0.516200  0.250000  1
  Ir  Ir6  1  0.500000  0.500000  0.000000  1
  Ir  Ir7  1  0.500000  0.500000  0.500000  1
  O  O8  1  0.592349  0.592349  0.750000  1
  O  O9  1  0.407651  0.407651  0.250000  1
  O  O10  1  0.837492  0.121058  0.750000  1
  O  O11  1  0.162508  0.878942  0.250000  1
  O  O12  1  0.121058  0.837492  0.750000  1
  O  O13  1  0.878942  0.162508  0.250000  1
  O  O14  1  0.440357  0.179884  0.964824  1
  O  O15  1  0.559643  0.820116  0.464824  1
  O  O16  1  0.179884  0.440357  0.964824  1
  O  O17  1  0.820116  0.559643  0.464824  1
  O  O18  1  0.440357  0.179884  0.535176  1
  O  O19  1  0.559643  0.820116  0.035176  1
  O  O20  1  0.820116  0.559643  0.035176  1
  O  O21  1  0.179884  0.440357  0.535176  1
