# generated using pymatgen
data_LaScV3Si7Pt9
_symmetry_space_group_name_H-M   'P 1'
_cell_length_a   9.89833500
_cell_length_b   9.89833513
_cell_length_c   3.92694200
_cell_angle_alpha   90.00000000
_cell_angle_beta   90.00000000
_cell_angle_gamma   119.99999624
_symmetry_Int_Tables_number   1
_chemical_formula_structural   LaScV3Si7Pt9
_chemical_formula_sum   'La1 Sc1 V3 Si7 Pt9'
_cell_volume   333.20340949
_cell_formula_units_Z   1
loop_
 _symmetry_equiv_pos_site_id
 _symmetry_equiv_pos_as_xyz
  1  'x, y, z'
loop_
 _atom_site_type_symbol
 _atom_site_label
 _atom_site_symmetry_multiplicity
 _atom_site_fract_x
 _atom_site_fract_y
 _atom_site_fract_z
 _atom_site_occupancy
  La  La0  1  0.333333  0.666667  0.500000  1
  Sc  Sc1  1  0.000000  0.000000  0.000000  1
  V  V2  1  0.880247  0.450440  0.500000  1
  V  V3  1  0.570193  0.119753  0.500000  1
  V  V4  1  0.549560  0.429807  0.500000  1
  Si  Si5  1  0.254661  0.210437  0.500000  1
  Si  Si6  1  0.789563  0.044225  0.500000  1
  Si  Si7  1  0.955775  0.745339  0.500000  1
  Si  Si8  1  0.557502  0.632151  0.000000  1
  Si  Si9  1  0.367849  0.925350  0.000000  1
  Si  Si10  1  0.074650  0.442498  0.000000  1
  Si  Si11  1  0.666667  0.333333  0.000000  1
  Pt  Pt12  1  0.220433  0.947132  0.500000  1
  Pt  Pt13  1  0.052868  0.273302  0.500000  1
  Pt  Pt14  1  0.726698  0.779567  0.500000  1
  Pt  Pt15  1  0.304719  0.404939  0.000000  1
  Pt  Pt16  1  0.595061  0.899779  0.000000  1
  Pt  Pt17  1  0.100221  0.695281  0.000000  1
  Pt  Pt18  1  0.392028  0.178786  0.000000  1
  Pt  Pt19  1  0.821214  0.213243  0.000000  1
  Pt  Pt20  1  0.786757  0.607972  0.000000  1
