# generated using pymatgen
data_Ti5(Ga2Co)2
_symmetry_space_group_name_H-M   'P 1'
_cell_length_a   3.02225500
_cell_length_b   6.85396700
_cell_length_c   15.74705900
_cell_angle_alpha   90.00000000
_cell_angle_beta   90.00000000
_cell_angle_gamma   90.00000000
_symmetry_Int_Tables_number   1
_chemical_formula_structural   Ti5(Ga2Co)2
_chemical_formula_sum   'Ti10 Ga8 Co4'
_cell_volume   326.19144640
_cell_formula_units_Z   2
loop_
 _symmetry_equiv_pos_site_id
 _symmetry_equiv_pos_as_xyz
  1  'x, y, z'
loop_
 _atom_site_type_symbol
 _atom_site_label
 _atom_site_symmetry_multiplicity
 _atom_site_fract_x
 _atom_site_fract_y
 _atom_site_fract_z
 _atom_site_occupancy
  Ti  Ti0  1  0.500000  0.500000  0.500000  1
  Ti  Ti1  1  0.500000  0.000000  0.000000  1
  Ti  Ti2  1  0.500000  0.861523  0.422320  1
  Ti  Ti3  1  0.500000  0.138477  0.577680  1
  Ti  Ti4  1  0.500000  0.638477  0.922320  1
  Ti  Ti5  1  0.500000  0.361523  0.077680  1
  Ti  Ti6  1  0.500000  0.244426  0.278268  1
  Ti  Ti7  1  0.500000  0.755574  0.721732  1
  Ti  Ti8  1  0.500000  0.255574  0.778268  1
  Ti  Ti9  1  0.500000  0.744426  0.221732  1
  Ga  Ga10  1  0.000000  0.199513  0.430066  1
  Ga  Ga11  1  0.000000  0.800487  0.569934  1
  Ga  Ga12  1  0.000000  0.300487  0.930066  1
  Ga  Ga13  1  0.000000  0.699513  0.069934  1
  Ga  Ga14  1  0.000000  0.565820  0.349150  1
  Ga  Ga15  1  0.000000  0.434180  0.650850  1
  Ga  Ga16  1  0.000000  0.934180  0.849150  1
  Ga  Ga17  1  0.000000  0.065820  0.150850  1
  Co  Co18  1  0.000000  0.951834  0.307452  1
  Co  Co19  1  0.000000  0.048166  0.692548  1
  Co  Co20  1  0.000000  0.548166  0.807452  1
  Co  Co21  1  0.000000  0.451834  0.192548  1
