# generated using pymatgen
data_Ca2HoZn8CuNi6
_symmetry_space_group_name_H-M   'P 1'
_cell_length_a   8.88449500
_cell_length_b   8.87363099
_cell_length_c   4.16408300
_cell_angle_alpha   90.00000000
_cell_angle_beta   90.00000000
_cell_angle_gamma   120.04049668
_symmetry_Int_Tables_number   1
_chemical_formula_structural   Ca2HoZn8CuNi6
_chemical_formula_sum   'Ca2 Ho1 Zn8 Cu1 Ni6'
_cell_volume   284.18866589
_cell_formula_units_Z   1
loop_
 _symmetry_equiv_pos_site_id
 _symmetry_equiv_pos_as_xyz
  1  'x, y, z'
loop_
 _atom_site_type_symbol
 _atom_site_label
 _atom_site_symmetry_multiplicity
 _atom_site_fract_x
 _atom_site_fract_y
 _atom_site_fract_z
 _atom_site_occupancy
  Ca  Ca0  1  0.333031  0.669669  0.000000  1
  Ca  Ca1  1  0.663362  0.330331  0.000000  1
  Ho  Ho2  1  0.003625  0.000000  0.500000  1
  Zn  Zn3  1  0.496801  0.000000  0.500000  1
  Zn  Zn4  1  0.499958  0.500949  0.500000  1
  Zn  Zn5  1  0.999009  0.499051  0.500000  1
  Zn  Zn6  1  0.289869  0.286980  0.000000  1
  Zn  Zn7  1  0.002889  0.713020  0.000000  1
  Zn  Zn8  1  0.000040  0.291017  0.000000  1
  Zn  Zn9  1  0.709023  0.708983  0.000000  1
  Zn  Zn10  1  0.710060  0.000000  0.000000  1
  Cu  Cu11  1  0.292146  0.000000  0.000000  1
  Ni  Ni12  1  0.179723  0.359037  0.500000  1
  Ni  Ni13  1  0.820741  0.177206  0.500000  1
  Ni  Ni14  1  0.357915  0.180327  0.500000  1
  Ni  Ni15  1  0.643534  0.822794  0.500000  1
  Ni  Ni16  1  0.177588  0.819673  0.500000  1
  Ni  Ni17  1  0.820686  0.640963  0.500000  1
