# generated using pymatgen
data_LiHo12Th4Mg3Ir4
_symmetry_space_group_name_H-M   'P 1'
_cell_length_a   9.78733806
_cell_length_b   9.78733729
_cell_length_c   9.78733727
_cell_angle_alpha   59.69703705
_cell_angle_beta   59.69703565
_cell_angle_gamma   59.69703510
_symmetry_Int_Tables_number   1
_chemical_formula_structural   LiHo12Th4Mg3Ir4
_chemical_formula_sum   'Li1 Ho12 Th4 Mg3 Ir4'
_cell_volume   658.38448546
_cell_formula_units_Z   1
loop_
 _symmetry_equiv_pos_site_id
 _symmetry_equiv_pos_as_xyz
  1  'x, y, z'
loop_
 _atom_site_type_symbol
 _atom_site_label
 _atom_site_symmetry_multiplicity
 _atom_site_fract_x
 _atom_site_fract_y
 _atom_site_fract_z
 _atom_site_occupancy
  Li  Li0  1  0.579646  0.579646  0.579646  1
  Ho  Ho1  1  0.812303  0.187441  0.187441  1
  Ho  Ho2  1  0.184228  0.814255  0.814255  1
  Ho  Ho3  1  0.187441  0.812303  0.187441  1
  Ho  Ho4  1  0.814255  0.184228  0.814255  1
  Ho  Ho5  1  0.187441  0.187441  0.812303  1
  Ho  Ho6  1  0.814255  0.814255  0.184228  1
  Ho  Ho7  1  0.934671  0.566149  0.566149  1
  Ho  Ho8  1  0.565511  0.934399  0.934399  1
  Ho  Ho9  1  0.566149  0.934671  0.566149  1
  Ho  Ho10  1  0.934399  0.565511  0.934399  1
  Ho  Ho11  1  0.566149  0.566149  0.934671  1
  Ho  Ho12  1  0.934399  0.934399  0.565511  1
  Th  Th13  1  0.347908  0.347908  0.347908  1
  Th  Th14  1  0.348536  0.348536  0.955097  1
  Th  Th15  1  0.348536  0.955097  0.348536  1
  Th  Th16  1  0.955097  0.348536  0.348536  1
  Mg  Mg17  1  0.580308  0.580308  0.258467  1
  Mg  Mg18  1  0.580308  0.258467  0.580308  1
  Mg  Mg19  1  0.258467  0.580308  0.580308  1
  Ir  Ir20  1  0.143058  0.143058  0.143058  1
  Ir  Ir21  1  0.142884  0.142884  0.571169  1
  Ir  Ir22  1  0.142884  0.571169  0.142884  1
  Ir  Ir23  1  0.571169  0.142884  0.142884  1
