# generated using pymatgen
data_Pr2Eu6Si12IrPd3
_symmetry_space_group_name_H-M   'P 1'
_cell_length_a   8.31305800
_cell_length_b   8.31305901
_cell_length_c   8.55420500
_cell_angle_alpha   90.00000000
_cell_angle_beta   90.00000000
_cell_angle_gamma   120.00000394
_symmetry_Int_Tables_number   1
_chemical_formula_structural   Pr2Eu6Si12IrPd3
_chemical_formula_sum   'Pr2 Eu6 Si12 Ir1 Pd3'
_cell_volume   511.95518073
_cell_formula_units_Z   1
loop_
 _symmetry_equiv_pos_site_id
 _symmetry_equiv_pos_as_xyz
  1  'x, y, z'
loop_
 _atom_site_type_symbol
 _atom_site_label
 _atom_site_symmetry_multiplicity
 _atom_site_fract_x
 _atom_site_fract_y
 _atom_site_fract_z
 _atom_site_occupancy
  Pr  Pr0  1  0.000000  0.000000  0.749192  1
  Pr  Pr1  1  0.000000  0.000000  0.250600  1
  Eu  Eu2  1  0.501156  0.498844  0.752465  1
  Eu  Eu3  1  0.502486  0.497514  0.247583  1
  Eu  Eu4  1  0.997689  0.498844  0.752465  1
  Eu  Eu5  1  0.995029  0.497514  0.247583  1
  Eu  Eu6  1  0.501156  0.002311  0.752465  1
  Eu  Eu7  1  0.502486  0.004971  0.247583  1
  Si  Si8  1  0.832643  0.167357  0.000003  1
  Si  Si9  1  0.164252  0.835748  0.999891  1
  Si  Si10  1  0.334714  0.167357  0.000003  1
  Si  Si11  1  0.165005  0.834995  0.500294  1
  Si  Si12  1  0.671495  0.835748  0.999891  1
  Si  Si13  1  0.835691  0.164309  0.499578  1
  Si  Si14  1  0.832643  0.665286  0.000003  1
  Si  Si15  1  0.669991  0.834995  0.500294  1
  Si  Si16  1  0.164252  0.328505  0.999891  1
  Si  Si17  1  0.328619  0.164309  0.499578  1
  Si  Si18  1  0.165005  0.330009  0.500294  1
  Si  Si19  1  0.835691  0.671381  0.499578  1
  Ir  Ir20  1  0.666667  0.333333  0.998569  1
  Pd  Pd21  1  0.333333  0.666667  0.002555  1
  Pd  Pd22  1  0.333333  0.666667  0.497551  1
  Pd  Pd23  1  0.666667  0.333333  0.502092  1
