# generated using pymatgen
data_Ce2(CdSn)3
_symmetry_space_group_name_H-M   'P 1'
_cell_length_a   4.75752700
_cell_length_b   4.85875800
_cell_length_c   9.11149000
_cell_angle_alpha   90.00000000
_cell_angle_beta   90.00000000
_cell_angle_gamma   90.00000000
_symmetry_Int_Tables_number   1
_chemical_formula_structural   Ce2(CdSn)3
_chemical_formula_sum   'Ce2 Cd3 Sn3'
_cell_volume   210.61821766
_cell_formula_units_Z   1
loop_
 _symmetry_equiv_pos_site_id
 _symmetry_equiv_pos_as_xyz
  1  'x, y, z'
loop_
 _atom_site_type_symbol
 _atom_site_label
 _atom_site_symmetry_multiplicity
 _atom_site_fract_x
 _atom_site_fract_y
 _atom_site_fract_z
 _atom_site_occupancy
  Ce  Ce0  1  0.000000  0.000000  0.243634  1
  Ce  Ce1  1  0.000000  0.000000  0.756366  1
  Cd  Cd2  1  0.500000  0.500000  0.255521  1
  Cd  Cd3  1  0.500000  0.500000  0.744479  1
  Cd  Cd4  1  0.000000  0.500000  0.500000  1
  Sn  Sn5  1  0.000000  0.500000  0.000000  1
  Sn  Sn6  1  0.500000  0.000000  0.500000  1
  Sn  Sn7  1  0.500000  0.000000  0.000000  1
