# generated using pymatgen
data_Hf3Zn5Os
_symmetry_space_group_name_H-M   'P 1'
_cell_length_a   7.37832300
_cell_length_b   7.37832175
_cell_length_c   6.54611500
_cell_angle_alpha   90.00000000
_cell_angle_beta   90.00000000
_cell_angle_gamma   120.00000112
_symmetry_Int_Tables_number   1
_chemical_formula_structural   Hf3Zn5Os
_chemical_formula_sum   'Hf6 Zn10 Os2'
_cell_volume   308.62386835
_cell_formula_units_Z   2
loop_
 _symmetry_equiv_pos_site_id
 _symmetry_equiv_pos_as_xyz
  1  'x, y, z'
loop_
 _atom_site_type_symbol
 _atom_site_label
 _atom_site_symmetry_multiplicity
 _atom_site_fract_x
 _atom_site_fract_y
 _atom_site_fract_z
 _atom_site_occupancy
  Hf  Hf0  1  0.734312  0.043559  0.000000  1
  Hf  Hf1  1  0.309246  0.265688  0.000000  1
  Hf  Hf2  1  0.956441  0.690754  0.000000  1
  Hf  Hf3  1  0.313952  0.265880  0.500000  1
  Hf  Hf4  1  0.734120  0.048072  0.500000  1
  Hf  Hf5  1  0.951928  0.686048  0.500000  1
  Zn  Zn6  1  0.603819  0.654727  0.749245  1
  Zn  Zn7  1  0.050909  0.396181  0.749245  1
  Zn  Zn8  1  0.345273  0.949091  0.749245  1
  Zn  Zn9  1  0.603819  0.654727  0.250755  1
  Zn  Zn10  1  0.050909  0.396181  0.250755  1
  Zn  Zn11  1  0.345273  0.949091  0.250755  1
  Zn  Zn12  1  0.333333  0.666667  0.000000  1
  Zn  Zn13  1  0.333333  0.666667  0.500000  1
  Zn  Zn14  1  0.666667  0.333333  0.761522  1
  Zn  Zn15  1  0.666667  0.333333  0.238478  1
  Os  Os16  1  0.000000  0.000000  0.251608  1
  Os  Os17  1  0.000000  0.000000  0.748392  1
