# generated using pymatgen
data_CaTh(Ga3Rh)3
_symmetry_space_group_name_H-M   'P 1'
_cell_length_a   7.61824895
_cell_length_b   7.68475690
_cell_length_c   9.61012200
_cell_angle_alpha   90.00000000
_cell_angle_beta   90.00000000
_cell_angle_gamma   119.42935115
_symmetry_Int_Tables_number   1
_chemical_formula_structural   CaTh(Ga3Rh)3
_chemical_formula_sum   'Ca2 Th2 Ga18 Rh6'
_cell_volume   490.01966784
_cell_formula_units_Z   2
loop_
 _symmetry_equiv_pos_site_id
 _symmetry_equiv_pos_as_xyz
  1  'x, y, z'
loop_
 _atom_site_type_symbol
 _atom_site_label
 _atom_site_symmetry_multiplicity
 _atom_site_fract_x
 _atom_site_fract_y
 _atom_site_fract_z
 _atom_site_occupancy
  Ca  Ca0  1  0.670638  0.995024  0.750000  1
  Ca  Ca1  1  0.329362  0.004976  0.250000  1
  Th  Th2  1  0.999378  0.671072  0.750000  1
  Th  Th3  1  0.000622  0.328928  0.250000  1
  Ga  Ga4  1  0.130574  0.128297  0.750000  1
  Ga  Ga5  1  0.869426  0.871703  0.250000  1
  Ga  Ga6  1  0.000710  0.329544  0.581480  1
  Ga  Ga7  1  0.999290  0.670456  0.418520  1
  Ga  Ga8  1  0.999290  0.670456  0.081480  1
  Ga  Ga9  1  0.341480  0.005143  0.924684  1
  Ga  Ga10  1  0.000710  0.329544  0.918520  1
  Ga  Ga11  1  0.658520  0.994857  0.075316  1
  Ga  Ga12  1  0.658520  0.994857  0.424684  1
  Ga  Ga13  1  0.341480  0.005143  0.575316  1
  Ga  Ga14  1  0.335983  0.332079  0.055956  1
  Ga  Ga15  1  0.664017  0.667921  0.944044  1
  Ga  Ga16  1  0.664017  0.667921  0.555956  1
  Ga  Ga17  1  0.335983  0.332079  0.444044  1
  Ga  Ga18  1  0.341513  0.547123  0.750000  1
  Ga  Ga19  1  0.658487  0.452877  0.250000  1
  Ga  Ga20  1  0.546315  0.338442  0.750000  1
  Ga  Ga21  1  0.453685  0.661558  0.250000  1
  Rh  Rh22  1  0.676263  0.333133  0.499389  1
  Rh  Rh23  1  0.323737  0.666867  0.500611  1
  Rh  Rh24  1  0.323737  0.666867  0.999389  1
  Rh  Rh25  1  0.676263  0.333133  0.000611  1
  Rh  Rh26  1  0.000000  0.000000  0.500000  1
  Rh  Rh27  1  0.000000  0.000000  0.000000  1
