# generated using pymatgen
data_La3(AgAu2)2
_symmetry_space_group_name_H-M   'P 1'
_cell_length_a   7.96685700
_cell_length_b   7.91253686
_cell_length_c   4.13207700
_cell_angle_alpha   90.00000000
_cell_angle_beta   90.00000000
_cell_angle_gamma   119.77471254
_symmetry_Int_Tables_number   1
_chemical_formula_structural   La3(AgAu2)2
_chemical_formula_sum   'La3 Ag2 Au4'
_cell_volume   226.09098615
_cell_formula_units_Z   1
loop_
 _symmetry_equiv_pos_site_id
 _symmetry_equiv_pos_as_xyz
  1  'x, y, z'
loop_
 _atom_site_type_symbol
 _atom_site_label
 _atom_site_symmetry_multiplicity
 _atom_site_fract_x
 _atom_site_fract_y
 _atom_site_fract_z
 _atom_site_occupancy
  La  La0  1  0.386156  0.993300  0.000000  1
  La  La1  1  0.613844  0.607144  0.000000  1
  La  La2  1  0.000000  0.407552  0.000000  1
  Ag  Ag3  1  0.740762  0.001095  0.500000  1
  Ag  Ag4  1  0.259238  0.260333  0.500000  1
  Au  Au5  1  0.000000  0.730733  0.500000  1
  Au  Au6  1  0.658180  0.325380  0.500000  1
  Au  Au7  1  0.341820  0.667200  0.500000  1
  Au  Au8  1  0.000000  0.007264  0.000000  1
