# generated using pymatgen
data_CeEr(MoN2)2
_symmetry_space_group_name_H-M   'P 1'
_cell_length_a   3.22734600
_cell_length_b   5.71252100
_cell_length_c   10.70518400
_cell_angle_alpha   90.00000000
_cell_angle_beta   90.00000000
_cell_angle_gamma   90.00000000
_symmetry_Int_Tables_number   1
_chemical_formula_structural   CeEr(MoN2)2
_chemical_formula_sum   'Ce2 Er2 Mo4 N8'
_cell_volume   197.36378894
_cell_formula_units_Z   2
loop_
 _symmetry_equiv_pos_site_id
 _symmetry_equiv_pos_as_xyz
  1  'x, y, z'
loop_
 _atom_site_type_symbol
 _atom_site_label
 _atom_site_symmetry_multiplicity
 _atom_site_fract_x
 _atom_site_fract_y
 _atom_site_fract_z
 _atom_site_occupancy
  Ce  Ce0  1  0.250000  0.073933  0.857801  1
  Ce  Ce1  1  0.250000  0.573933  0.642199  1
  Er  Er2  1  0.750000  0.921767  0.151121  1
  Er  Er3  1  0.750000  0.421767  0.348879  1
  Mo  Mo4  1  0.250000  0.434306  0.095636  1
  Mo  Mo5  1  0.250000  0.934306  0.404364  1
  Mo  Mo6  1  0.750000  0.568653  0.906390  1
  Mo  Mo7  1  0.750000  0.068653  0.593610  1
  N  N8  1  0.250000  0.164136  0.246831  1
  N  N9  1  0.250000  0.664136  0.253169  1
  N  N10  1  0.750000  0.834075  0.751992  1
  N  N11  1  0.750000  0.334075  0.748008  1
  N  N12  1  0.250000  0.756005  0.998227  1
  N  N13  1  0.250000  0.256005  0.501773  1
  N  N14  1  0.750000  0.247126  0.010906  1
  N  N15  1  0.750000  0.747126  0.489094  1
