# generated using pymatgen
data_TbY3Lu4(B6Ru)4
_symmetry_space_group_name_H-M   'P 1'
_cell_length_a   3.62546900
_cell_length_b   9.07640801
_cell_length_c   11.46535703
_cell_angle_alpha   89.99316570
_cell_angle_beta   90.00000000
_cell_angle_gamma   90.00000000
_symmetry_Int_Tables_number   1
_chemical_formula_structural   TbY3Lu4(B6Ru)4
_chemical_formula_sum   'Tb1 Y3 Lu4 B24 Ru4'
_cell_volume   377.28174008
_cell_formula_units_Z   1
loop_
 _symmetry_equiv_pos_site_id
 _symmetry_equiv_pos_as_xyz
  1  'x, y, z'
loop_
 _atom_site_type_symbol
 _atom_site_label
 _atom_site_symmetry_multiplicity
 _atom_site_fract_x
 _atom_site_fract_y
 _atom_site_fract_z
 _atom_site_occupancy
  Tb  Tb0  1  0.000000  0.178414  0.914314  1
  Y  Y1  1  0.000000  0.321282  0.414363  1
  Y  Y2  1  0.000000  0.678695  0.585720  1
  Y  Y3  1  0.000000  0.821310  0.085577  1
  Lu  Lu4  1  0.000000  0.943837  0.372267  1
  Lu  Lu5  1  0.000000  0.056148  0.627658  1
  Lu  Lu6  1  0.000000  0.443841  0.127476  1
  Lu  Lu7  1  0.000000  0.556279  0.872477  1
  B  B8  1  0.500000  0.554520  0.432713  1
  B  B9  1  0.500000  0.445288  0.567496  1
  B  B10  1  0.500000  0.054746  0.067170  1
  B  B11  1  0.500000  0.945445  0.932689  1
  B  B12  1  0.500000  0.749886  0.418952  1
  B  B13  1  0.500000  0.250014  0.581209  1
  B  B14  1  0.500000  0.249953  0.080836  1
  B  B15  1  0.500000  0.750226  0.919106  1
  B  B16  1  0.500000  0.791733  0.265540  1
  B  B17  1  0.500000  0.208245  0.734490  1
  B  B18  1  0.500000  0.291713  0.234053  1
  B  B19  1  0.500000  0.708333  0.765846  1
  B  B20  1  0.500000  0.630446  0.184085  1
  B  B21  1  0.500000  0.369502  0.815981  1
  B  B22  1  0.500000  0.130482  0.315632  1
  B  B23  1  0.500000  0.869653  0.684308  1
  B  B24  1  0.500000  0.982907  0.213332  1
  B  B25  1  0.500000  0.017094  0.786573  1
  B  B26  1  0.500000  0.482784  0.286310  1
  B  B27  1  0.500000  0.517083  0.713783  1
  B  B28  1  0.500000  0.603817  0.028368  1
  B  B29  1  0.500000  0.396410  0.971608  1
  B  B30  1  0.500000  0.103628  0.471613  1
  B  B31  1  0.500000  0.896448  0.528376  1
  Ru  Ru32  1  0.000000  0.638523  0.319880  1
  Ru  Ru33  1  0.000000  0.361303  0.680302  1
  Ru  Ru34  1  0.000000  0.138569  0.179885  1
  Ru  Ru35  1  0.000000  0.861442  0.820012  1
