# generated using pymatgen
data_Tb10Y2InGaCo4
_symmetry_space_group_name_H-M   'P 1'
_cell_length_a   8.39384413
_cell_length_b   8.36854025
_cell_length_c   8.36854228
_cell_angle_alpha   111.91320522
_cell_angle_beta   109.47400830
_cell_angle_gamma   106.94959116
_symmetry_Int_Tables_number   1
_chemical_formula_structural   Tb10Y2InGaCo4
_chemical_formula_sum   'Tb10 Y2 In1 Ga1 Co4'
_cell_volume   452.31202793
_cell_formula_units_Z   1
loop_
 _symmetry_equiv_pos_site_id
 _symmetry_equiv_pos_as_xyz
  1  'x, y, z'
loop_
 _atom_site_type_symbol
 _atom_site_label
 _atom_site_symmetry_multiplicity
 _atom_site_fract_x
 _atom_site_fract_y
 _atom_site_fract_z
 _atom_site_occupancy
  Tb  Tb0  1  0.568110  0.267687  0.300424  1
  Tb  Tb1  1  0.431890  0.732313  0.699576  1
  Tb  Tb2  1  0.675153  0.861334  0.186496  1
  Tb  Tb3  1  0.324847  0.511344  0.186181  1
  Tb  Tb4  1  0.324847  0.138666  0.813504  1
  Tb  Tb5  1  0.675153  0.488656  0.813819  1
  Tb  Tb6  1  0.180901  0.217658  0.398171  1
  Tb  Tb7  1  0.819099  0.217270  0.036757  1
  Tb  Tb8  1  0.180901  0.782730  0.963243  1
  Tb  Tb9  1  0.819099  0.782342  0.601829  1
  Y  Y10  1  0.034215  0.733305  0.300910  1
  Y  Y11  1  0.965785  0.266695  0.699090  1
  In  In12  1  0.500000  0.000000  0.500000  1
  Ga  Ga13  1  0.000000  0.500000  0.500000  1
  Co  Co14  1  0.659474  0.499390  0.160084  1
  Co  Co15  1  0.340526  0.500610  0.839916  1
  Co  Co16  1  0.886997  0.886843  0.000153  1
  Co  Co17  1  0.113003  0.113157  0.999847  1
