# generated using pymatgen
data_HoLu(B3Mo)2
_symmetry_space_group_name_H-M   'P 1'
_cell_length_a   3.15387100
_cell_length_b   5.40979705
_cell_length_c   6.79533925
_cell_angle_alpha   78.45678850
_cell_angle_beta   90.00000000
_cell_angle_gamma   90.00000000
_symmetry_Int_Tables_number   1
_chemical_formula_structural   HoLu(B3Mo)2
_chemical_formula_sum   'Ho1 Lu1 B6 Mo2'
_cell_volume   113.59572327
_cell_formula_units_Z   1
loop_
 _symmetry_equiv_pos_site_id
 _symmetry_equiv_pos_as_xyz
  1  'x, y, z'
loop_
 _atom_site_type_symbol
 _atom_site_label
 _atom_site_symmetry_multiplicity
 _atom_site_fract_x
 _atom_site_fract_y
 _atom_site_fract_z
 _atom_site_occupancy
  Ho  Ho0  1  0.750000  0.675196  0.292180  1
  Lu  Lu1  1  0.250000  0.319403  0.713083  1
  B  B2  1  0.250000  0.922333  0.524322  1
  B  B3  1  0.750000  0.085662  0.477758  1
  B  B4  1  0.250000  0.912616  0.002971  1
  B  B5  1  0.750000  0.087494  0.994164  1
  B  B6  1  0.250000  0.582793  0.005615  1
  B  B7  1  0.750000  0.415706  0.990858  1
  Mo  Mo8  1  0.250000  0.189541  0.220527  1
  Mo  Mo9  1  0.750000  0.809256  0.778521  1
