# generated using pymatgen
data_Tb12Zn11Si12Pt
_symmetry_space_group_name_H-M   'P 1'
_cell_length_a   4.13205800
_cell_length_b   7.17528414
_cell_length_c   24.21267600
_cell_angle_alpha   89.98864510
_cell_angle_beta   90.00000000
_cell_angle_gamma   90.00000000
_symmetry_Int_Tables_number   1
_chemical_formula_structural   Tb12Zn11Si12Pt
_chemical_formula_sum   'Tb12 Zn11 Si12 Pt1'
_cell_volume   717.87411643
_cell_formula_units_Z   1
loop_
 _symmetry_equiv_pos_site_id
 _symmetry_equiv_pos_as_xyz
  1  'x, y, z'
loop_
 _atom_site_type_symbol
 _atom_site_label
 _atom_site_symmetry_multiplicity
 _atom_site_fract_x
 _atom_site_fract_y
 _atom_site_fract_z
 _atom_site_occupancy
  Tb  Tb0  1  0.250000  0.750106  0.333992  1
  Tb  Tb1  1  0.750000  0.244639  0.664052  1
  Tb  Tb2  1  0.750000  0.250726  0.167096  1
  Tb  Tb3  1  0.250000  0.748629  0.832253  1
  Tb  Tb4  1  0.250000  0.750676  0.167100  1
  Tb  Tb5  1  0.750000  0.250004  0.832606  1
  Tb  Tb6  1  0.750000  0.251270  0.333833  1
  Tb  Tb7  1  0.250000  0.754055  0.665284  1
  Tb  Tb8  1  0.250000  0.750227  0.999457  1
  Tb  Tb9  1  0.750000  0.249557  0.999294  1
  Tb  Tb10  1  0.750000  0.247095  0.502399  1
  Tb  Tb11  1  0.250000  0.752040  0.501666  1
  Zn  Zn12  1  0.250000  0.417435  0.250037  1
  Zn  Zn13  1  0.750000  0.581801  0.750277  1
  Zn  Zn14  1  0.750000  0.917411  0.250364  1
  Zn  Zn15  1  0.250000  0.082899  0.754969  1
  Zn  Zn16  1  0.250000  0.416845  0.414446  1
  Zn  Zn17  1  0.750000  0.584709  0.589128  1
  Zn  Zn18  1  0.750000  0.916830  0.085845  1
  Zn  Zn19  1  0.250000  0.082846  0.912418  1
  Zn  Zn20  1  0.250000  0.416710  0.085719  1
  Zn  Zn21  1  0.750000  0.583390  0.913903  1
  Zn  Zn22  1  0.750000  0.916808  0.413731  1
  Si  Si23  1  0.250000  0.084165  0.080910  1
  Si  Si24  1  0.750000  0.916202  0.918923  1
  Si  Si25  1  0.750000  0.583965  0.419238  1
  Si  Si26  1  0.250000  0.417011  0.578707  1
  Si  Si27  1  0.250000  0.084730  0.250107  1
  Si  Si28  1  0.750000  0.915018  0.748925  1
  Si  Si29  1  0.750000  0.584457  0.249843  1
  Si  Si30  1  0.250000  0.415664  0.749129  1
  Si  Si31  1  0.250000  0.083687  0.417345  1
  Si  Si32  1  0.750000  0.915431  0.579017  1
  Si  Si33  1  0.750000  0.583562  0.081431  1
  Si  Si34  1  0.250000  0.415886  0.918373  1
  Pt  Pt35  1  0.250000  0.083517  0.588183  1
