# generated using pymatgen
data_Hf3Sc5Nb11Si16W
_symmetry_space_group_name_H-M   'P 1'
_cell_length_a   6.67683547
_cell_length_b   6.86715362
_cell_length_c   13.10748900
_cell_angle_alpha   90.01484106
_cell_angle_beta   90.01391165
_cell_angle_gamma   90.06491141
_symmetry_Int_Tables_number   1
_chemical_formula_structural   Hf3Sc5Nb11Si16W
_chemical_formula_sum   'Hf3 Sc5 Nb11 Si16 W1'
_cell_volume   600.98915219
_cell_formula_units_Z   1
loop_
 _symmetry_equiv_pos_site_id
 _symmetry_equiv_pos_as_xyz
  1  'x, y, z'
loop_
 _atom_site_type_symbol
 _atom_site_label
 _atom_site_symmetry_multiplicity
 _atom_site_fract_x
 _atom_site_fract_y
 _atom_site_fract_z
 _atom_site_occupancy
  Hf  Hf0  1  0.500010  0.674231  0.595047  1
  Hf  Hf1  1  0.998258  0.826627  0.904714  1
  Hf  Hf2  1  0.499716  0.325762  0.094949  1
  Sc  Sc3  1  0.001368  0.173972  0.405878  1
  Sc  Sc4  1  0.501131  0.327573  0.407665  1
  Sc  Sc5  1  0.001405  0.173158  0.093736  1
  Sc  Sc6  1  0.497531  0.672755  0.906289  1
  Sc  Sc7  1  0.997119  0.827683  0.593449  1
  Nb  Nb8  1  0.164263  0.327925  0.875412  1
  Nb  Nb9  1  0.336231  0.827508  0.123572  1
  Nb  Nb10  1  0.834811  0.672335  0.377096  1
  Nb  Nb11  1  0.338244  0.827577  0.376556  1
  Nb  Nb12  1  0.836049  0.672000  0.123329  1
  Nb  Nb13  1  0.664239  0.171136  0.875280  1
  Nb  Nb14  1  0.164799  0.329625  0.623923  1
  Nb  Nb15  1  0.837300  0.495787  0.749950  1
  Nb  Nb16  1  0.337619  0.005148  0.748549  1
  Nb  Nb17  1  0.163202  0.505175  0.249599  1
  Nb  Nb18  1  0.662215  0.996395  0.249229  1
  Si  Si19  1  0.670263  0.967055  0.463012  1
  Si  Si20  1  0.169538  0.533693  0.038535  1
  Si  Si21  1  0.329620  0.034375  0.961114  1
  Si  Si22  1  0.827857  0.461522  0.540238  1
  Si  Si23  1  0.334095  0.035338  0.540256  1
  Si  Si24  1  0.829020  0.465461  0.960589  1
  Si  Si25  1  0.670892  0.965613  0.038680  1
  Si  Si26  1  0.169423  0.534280  0.460811  1
  Si  Si27  1  0.461836  0.385459  0.748841  1
  Si  Si28  1  0.958587  0.114581  0.747991  1
  Si  Si29  1  0.540254  0.613518  0.250246  1
  Si  Si30  1  0.039946  0.886194  0.250228  1
  Si  Si31  1  0.703359  0.861926  0.749653  1
  Si  Si32  1  0.204726  0.638888  0.749977  1
  Si  Si33  1  0.295008  0.138814  0.250557  1
  Si  Si34  1  0.795813  0.361296  0.250555  1
  W  W35  1  0.664258  0.169615  0.624498  1
