# generated using pymatgen
data_NdGd4SiSe4
_symmetry_space_group_name_H-M   'P 1'
_cell_length_a   7.25584586
_cell_length_b   7.25584402
_cell_length_c   7.25584468
_cell_angle_alpha   99.48386398
_cell_angle_beta   99.48386027
_cell_angle_gamma   132.10260416
_symmetry_Int_Tables_number   1
_chemical_formula_structural   NdGd4SiSe4
_chemical_formula_sum   'Nd1 Gd4 Si1 Se4'
_cell_volume   259.02339540
_cell_formula_units_Z   1
loop_
 _symmetry_equiv_pos_site_id
 _symmetry_equiv_pos_as_xyz
  1  'x, y, z'
loop_
 _atom_site_type_symbol
 _atom_site_label
 _atom_site_symmetry_multiplicity
 _atom_site_fract_x
 _atom_site_fract_y
 _atom_site_fract_z
 _atom_site_occupancy
  Nd  Nd0  1  0.000000  0.000000  0.000000  1
  Gd  Gd1  1  0.402647  0.790358  0.193004  1
  Gd  Gd2  1  0.597353  0.209642  0.806996  1
  Gd  Gd3  1  0.209642  0.402647  0.612290  1
  Gd  Gd4  1  0.790358  0.597353  0.387710  1
  Si  Si5  1  0.500000  0.500000  0.000000  1
  Se  Se6  1  0.099211  0.693939  0.793149  1
  Se  Se7  1  0.693939  0.900789  0.594726  1
  Se  Se8  1  0.306061  0.099211  0.405274  1
  Se  Se9  1  0.900789  0.306061  0.206851  1
