# generated using pymatgen
data_SrYb5(SbI3)2
_symmetry_space_group_name_H-M   'P 1'
_cell_length_a   11.18309386
_cell_length_b   11.21932506
_cell_length_c   11.21932438
_cell_angle_alpha   109.42552126
_cell_angle_beta   109.31356104
_cell_angle_gamma   109.80641144
_symmetry_Int_Tables_number   1
_chemical_formula_structural   SrYb5(SbI3)2
_chemical_formula_sum   'Sr2 Yb10 Sb4 I12'
_cell_volume   1081.82816166
_cell_formula_units_Z   2
loop_
 _symmetry_equiv_pos_site_id
 _symmetry_equiv_pos_as_xyz
  1  'x, y, z'
loop_
 _atom_site_type_symbol
 _atom_site_label
 _atom_site_symmetry_multiplicity
 _atom_site_fract_x
 _atom_site_fract_y
 _atom_site_fract_z
 _atom_site_occupancy
  Sr  Sr0  1  0.255010  0.004355  0.012259  1
  Sr  Sr1  1  0.244990  0.257250  0.749345  1
  Yb  Yb2  1  0.481825  0.493658  0.243135  1
  Yb  Yb3  1  0.748969  0.241090  0.258270  1
  Yb  Yb4  1  0.751031  0.009302  0.492122  1
  Yb  Yb5  1  0.240532  0.483843  0.491824  1
  Yb  Yb6  1  0.259468  0.751292  0.243310  1
  Yb  Yb7  1  0.018175  0.261311  0.011834  1
  Yb  Yb8  1  0.007533  0.019286  0.258594  1
  Yb  Yb9  1  0.492467  0.751061  0.011754  1
  Yb  Yb10  1  0.492086  0.241331  0.480487  1
  Yb  Yb11  1  0.007914  0.488400  0.749245  1
  Sb  Sb12  1  0.250416  0.254310  0.254124  1
  Sb  Sb13  1  0.503655  0.999838  0.254096  1
  Sb  Sb14  1  0.996345  0.250441  0.496183  1
  Sb  Sb15  1  0.249584  0.503708  0.003895  1
  I  I16  1  0.250906  0.741503  0.744531  1
  I  I17  1  0.507443  0.509839  0.748127  1
  I  I18  1  0.992557  0.740684  0.002396  1
  I  I19  1  0.751002  0.249801  0.748647  1
  I  I20  1  0.982496  0.993352  0.744934  1
  I  I21  1  0.249094  0.993625  0.490597  1
  I  I22  1  0.748998  0.497645  0.498798  1
  I  I23  1  0.517504  0.262438  0.010856  1
  I  I24  1  0.748902  0.751572  0.250151  1
  I  I25  1  0.751098  0.001249  0.002670  1
  I  I26  1  0.001145  0.498778  0.250182  1
  I  I27  1  0.498855  0.749036  0.497633  1
