# generated using pymatgen
data_YbY19(In3Ni)2
_symmetry_space_group_name_H-M   'P 1'
_cell_length_a   9.74015700
_cell_length_b   9.74016127
_cell_length_c   9.79705600
_cell_angle_alpha   90.00003070
_cell_angle_beta   89.99998827
_cell_angle_gamma   120.00009526
_symmetry_Int_Tables_number   1
_chemical_formula_structural   YbY19(In3Ni)2
_chemical_formula_sum   'Yb1 Y19 In6 Ni2'
_cell_volume   804.92962232
_cell_formula_units_Z   1
loop_
 _symmetry_equiv_pos_site_id
 _symmetry_equiv_pos_as_xyz
  1  'x, y, z'
loop_
 _atom_site_type_symbol
 _atom_site_label
 _atom_site_symmetry_multiplicity
 _atom_site_fract_x
 _atom_site_fract_y
 _atom_site_fract_z
 _atom_site_occupancy
  Yb  Yb0  1  0.000000  0.000000  0.500000  1
  Y  Y1  1  0.000000  0.000000  0.000000  1
  Y  Y2  1  0.543301  0.456699  0.250856  1
  Y  Y3  1  0.543301  0.086602  0.250856  1
  Y  Y4  1  0.913398  0.456699  0.250856  1
  Y  Y5  1  0.456699  0.543301  0.749144  1
  Y  Y6  1  0.456699  0.913398  0.749144  1
  Y  Y7  1  0.086602  0.543301  0.749144  1
  Y  Y8  1  0.210342  0.789658  0.435762  1
  Y  Y9  1  0.210342  0.420685  0.435762  1
  Y  Y10  1  0.579315  0.789658  0.435762  1
  Y  Y11  1  0.789658  0.210342  0.564238  1
  Y  Y12  1  0.789658  0.579315  0.564238  1
  Y  Y13  1  0.420685  0.210342  0.564238  1
  Y  Y14  1  0.789807  0.210193  0.936159  1
  Y  Y15  1  0.789808  0.579615  0.936159  1
  Y  Y16  1  0.420385  0.210193  0.936159  1
  Y  Y17  1  0.210193  0.789807  0.063841  1
  Y  Y18  1  0.210192  0.420385  0.063841  1
  Y  Y19  1  0.579615  0.789807  0.063841  1
  In  In20  1  0.884070  0.115930  0.250037  1
  In  In21  1  0.884070  0.768141  0.250037  1
  In  In22  1  0.231859  0.115930  0.250037  1
  In  In23  1  0.115930  0.884070  0.749963  1
  In  In24  1  0.115930  0.231859  0.749963  1
  In  In25  1  0.768141  0.884070  0.749963  1
  Ni  Ni26  1  0.333333  0.666667  0.250213  1
  Ni  Ni27  1  0.666667  0.333333  0.749787  1
