# generated using pymatgen
data_NaDyPa2Ge6Ir7
_symmetry_space_group_name_H-M   'P 1'
_cell_length_a   7.24447792
_cell_length_b   7.28756082
_cell_length_c   7.28371661
_cell_angle_alpha   109.45261103
_cell_angle_beta   109.21264175
_cell_angle_gamma   109.65071974
_symmetry_Int_Tables_number   1
_chemical_formula_structural   NaDyPa2Ge6Ir7
_chemical_formula_sum   'Na1 Dy1 Pa2 Ge6 Ir7'
_cell_volume   296.37266778
_cell_formula_units_Z   1
loop_
 _symmetry_equiv_pos_site_id
 _symmetry_equiv_pos_as_xyz
  1  'x, y, z'
loop_
 _atom_site_type_symbol
 _atom_site_label
 _atom_site_symmetry_multiplicity
 _atom_site_fract_x
 _atom_site_fract_y
 _atom_site_fract_z
 _atom_site_occupancy
  Na  Na0  1  0.000000  0.500000  0.000000  1
  Dy  Dy1  1  0.500000  0.000000  0.000000  1
  Pa  Pa2  1  0.000000  0.000000  0.500000  1
  Pa  Pa3  1  0.500000  0.500000  0.500000  1
  Ge  Ge4  1  0.689854  0.679672  0.000000  1
  Ge  Ge5  1  0.309990  0.983427  0.304754  1
  Ge  Ge6  1  0.994764  0.321326  0.304754  1
  Ge  Ge7  1  0.310146  0.320328  0.000000  1
  Ge  Ge8  1  0.690010  0.016573  0.695246  1
  Ge  Ge9  1  0.005236  0.678674  0.695246  1
  Ir  Ir10  1  0.749106  0.249106  0.498212  1
  Ir  Ir11  1  0.748595  0.506067  0.257430  1
  Ir  Ir12  1  0.491165  0.248637  0.742570  1
  Ir  Ir13  1  0.251405  0.493933  0.742570  1
  Ir  Ir14  1  0.250894  0.750894  0.501788  1
  Ir  Ir15  1  0.508835  0.751363  0.257430  1
  Ir  Ir16  1  0.000000  0.000000  0.000000  1
