# generated using pymatgen
data_Er5Lu15(Zn3Ru)2
_symmetry_space_group_name_H-M   'P 1'
_cell_length_a   9.21751059
_cell_length_b   9.21750972
_cell_length_c   9.46197900
_cell_angle_alpha   90.00000000
_cell_angle_beta   90.00000000
_cell_angle_gamma   119.95905005
_symmetry_Int_Tables_number   1
_chemical_formula_structural   Er5Lu15(Zn3Ru)2
_chemical_formula_sum   'Er5 Lu15 Zn6 Ru2'
_cell_volume   696.49647056
_cell_formula_units_Z   1
loop_
 _symmetry_equiv_pos_site_id
 _symmetry_equiv_pos_as_xyz
  1  'x, y, z'
loop_
 _atom_site_type_symbol
 _atom_site_label
 _atom_site_symmetry_multiplicity
 _atom_site_fract_x
 _atom_site_fract_y
 _atom_site_fract_z
 _atom_site_occupancy
  Er  Er0  1  0.540156  0.081135  0.250000  1
  Er  Er1  1  0.918865  0.459844  0.250000  1
  Er  Er2  1  0.459599  0.540401  0.750000  1
  Er  Er3  1  0.459754  0.919495  0.750000  1
  Er  Er4  1  0.080505  0.540246  0.750000  1
  Lu  Lu5  1  0.000038  0.999962  0.499980  1
  Lu  Lu6  1  0.000038  0.999962  0.000020  1
  Lu  Lu7  1  0.207662  0.792338  0.442652  1
  Lu  Lu8  1  0.208056  0.415275  0.442435  1
  Lu  Lu9  1  0.584725  0.791944  0.442435  1
  Lu  Lu10  1  0.792366  0.207634  0.557216  1
  Lu  Lu11  1  0.792027  0.584571  0.557038  1
  Lu  Lu12  1  0.415429  0.207973  0.557038  1
  Lu  Lu13  1  0.792366  0.207634  0.942784  1
  Lu  Lu14  1  0.792027  0.584571  0.942962  1
  Lu  Lu15  1  0.415429  0.207973  0.942962  1
  Lu  Lu16  1  0.207662  0.792338  0.057348  1
  Lu  Lu17  1  0.208056  0.415275  0.057565  1
  Lu  Lu18  1  0.584725  0.791944  0.057565  1
  Lu  Lu19  1  0.540236  0.459764  0.250000  1
  Zn  Zn20  1  0.886679  0.113321  0.250000  1
  Zn  Zn21  1  0.886105  0.772847  0.250000  1
  Zn  Zn22  1  0.227153  0.113895  0.250000  1
  Zn  Zn23  1  0.113367  0.886633  0.750000  1
  Zn  Zn24  1  0.113546  0.226690  0.750000  1
  Zn  Zn25  1  0.773310  0.886454  0.750000  1
  Ru  Ru26  1  0.333396  0.666604  0.250000  1
  Ru  Ru27  1  0.666722  0.333278  0.750000  1
