# generated using pymatgen
data_DyYMn2(CuO5)2
_symmetry_space_group_name_H-M   'P 1'
_cell_length_a   5.65536200
_cell_length_b   7.52015800
_cell_length_c   8.47446800
_cell_angle_alpha   90.00354831
_cell_angle_beta   90.00000000
_cell_angle_gamma   90.00000000
_symmetry_Int_Tables_number   1
_chemical_formula_structural   DyYMn2(CuO5)2
_chemical_formula_sum   'Dy2 Y2 Mn4 Cu4 O20'
_cell_volume   360.41247791
_cell_formula_units_Z   2
loop_
 _symmetry_equiv_pos_site_id
 _symmetry_equiv_pos_as_xyz
  1  'x, y, z'
loop_
 _atom_site_type_symbol
 _atom_site_label
 _atom_site_symmetry_multiplicity
 _atom_site_fract_x
 _atom_site_fract_y
 _atom_site_fract_z
 _atom_site_occupancy
  Dy  Dy0  1  0.500000  0.351625  0.325831  1
  Dy  Dy1  1  0.500000  0.648375  0.674169  1
  Y  Y2  1  0.500000  0.148616  0.825824  1
  Y  Y3  1  0.500000  0.851384  0.174176  1
  Mn  Mn4  1  0.240371  0.000000  0.500000  1
  Mn  Mn5  1  0.759629  0.000000  0.500000  1
  Mn  Mn6  1  0.759652  0.500000  0.000000  1
  Mn  Mn7  1  0.240348  0.500000  0.000000  1
  Cu  Cu8  1  0.000000  0.072182  0.150383  1
  Cu  Cu9  1  0.000000  0.927818  0.849617  1
  Cu  Cu10  1  0.000000  0.428765  0.649944  1
  Cu  Cu11  1  0.000000  0.571235  0.350056  1
  O  O12  1  0.227020  0.000000  0.000000  1
  O  O13  1  0.772980  0.000000  0.000000  1
  O  O14  1  0.772218  0.500000  0.500000  1
  O  O15  1  0.227782  0.500000  0.500000  1
  O  O16  1  0.000000  0.347309  0.061287  1
  O  O17  1  0.000000  0.652691  0.938713  1
  O  O18  1  0.000000  0.152479  0.561985  1
  O  O19  1  0.000000  0.847521  0.438015  1
  O  O20  1  0.258049  0.096146  0.287062  1
  O  O21  1  0.741951  0.903854  0.712938  1
  O  O22  1  0.258049  0.903854  0.712938  1
  O  O23  1  0.741843  0.405275  0.786610  1
  O  O24  1  0.741951  0.096146  0.287062  1
  O  O25  1  0.258157  0.594725  0.213390  1
  O  O26  1  0.741843  0.594725  0.213390  1
  O  O27  1  0.258157  0.405275  0.786610  1
  O  O28  1  0.500000  0.335390  0.051937  1
  O  O29  1  0.500000  0.664610  0.948063  1
  O  O30  1  0.500000  0.164724  0.551528  1
  O  O31  1  0.500000  0.835276  0.448472  1
