# generated using pymatgen
data_Ho5CoRhO12
_symmetry_space_group_name_H-M   'P 1'
_cell_length_a   6.77302667
_cell_length_b   6.77302596
_cell_length_c   7.17454580
_cell_angle_alpha   74.50531073
_cell_angle_beta   74.50532274
_cell_angle_gamma   51.05935948
_symmetry_Int_Tables_number   1
_chemical_formula_structural   Ho5CoRhO12
_chemical_formula_sum   'Ho5 Co1 Rh1 O12'
_cell_volume   244.51615570
_cell_formula_units_Z   1
loop_
 _symmetry_equiv_pos_site_id
 _symmetry_equiv_pos_as_xyz
  1  'x, y, z'
loop_
 _atom_site_type_symbol
 _atom_site_label
 _atom_site_symmetry_multiplicity
 _atom_site_fract_x
 _atom_site_fract_y
 _atom_site_fract_z
 _atom_site_occupancy
  Ho  Ho0  1  0.296728  0.310290  0.357963  1
  Ho  Ho1  1  0.689710  0.703272  0.642037  1
  Ho  Ho2  1  0.306765  0.310541  0.832603  1
  Ho  Ho3  1  0.689459  0.693235  0.167397  1
  Ho  Ho4  1  0.004656  0.995344  0.500000  1
  Co  Co5  1  0.250128  0.749872  0.000000  1
  Rh  Rh6  1  0.758941  0.241059  0.000000  1
  O  O7  1  0.902347  0.428709  0.917311  1
  O  O8  1  0.421281  0.901936  0.918129  1
  O  O9  1  0.098064  0.578719  0.081871  1
  O  O10  1  0.571291  0.097653  0.082689  1
  O  O11  1  0.095851  0.596646  0.575170  1
  O  O12  1  0.600204  0.098496  0.574347  1
  O  O13  1  0.901504  0.399796  0.425653  1
  O  O14  1  0.403354  0.904149  0.424830  1
  O  O15  1  0.014881  0.985605  0.822238  1
  O  O16  1  0.014395  0.985119  0.177762  1
  O  O17  1  0.490487  0.510046  0.817334  1
  O  O18  1  0.489954  0.509513  0.182666  1
