# generated using pymatgen
data_Dy9Lu(SiPb3)2
_symmetry_space_group_name_H-M   'P 1'
_cell_length_a   9.31751700
_cell_length_b   9.31751638
_cell_length_c   6.50297800
_cell_angle_alpha   90.00000000
_cell_angle_beta   90.00000000
_cell_angle_gamma   119.99999864
_symmetry_Int_Tables_number   1
_chemical_formula_structural   Dy9Lu(SiPb3)2
_chemical_formula_sum   'Dy9 Lu1 Si2 Pb6'
_cell_volume   488.92616735
_cell_formula_units_Z   1
loop_
 _symmetry_equiv_pos_site_id
 _symmetry_equiv_pos_as_xyz
  1  'x, y, z'
loop_
 _atom_site_type_symbol
 _atom_site_label
 _atom_site_symmetry_multiplicity
 _atom_site_fract_x
 _atom_site_fract_y
 _atom_site_fract_z
 _atom_site_occupancy
  Dy  Dy0  1  0.248889  0.999658  0.249848  1
  Dy  Dy1  1  0.000342  0.751111  0.750152  1
  Dy  Dy2  1  0.000342  0.249232  0.249848  1
  Dy  Dy3  1  0.750768  0.999658  0.750152  1
  Dy  Dy4  1  0.666667  0.333333  0.500000  1
  Dy  Dy5  1  0.248889  0.249232  0.750152  1
  Dy  Dy6  1  0.333333  0.666667  0.000000  1
  Dy  Dy7  1  0.666667  0.333333  0.000000  1
  Dy  Dy8  1  0.750768  0.751111  0.249848  1
  Lu  Lu9  1  0.333333  0.666667  0.500000  1
  Si  Si10  1  0.000000  0.000000  0.000000  1
  Si  Si11  1  0.000000  0.000000  0.500000  1
  Pb  Pb12  1  0.607341  0.999201  0.250319  1
  Pb  Pb13  1  0.391860  0.999201  0.749681  1
  Pb  Pb14  1  0.000799  0.608140  0.250319  1
  Pb  Pb15  1  0.607341  0.608140  0.749681  1
  Pb  Pb16  1  0.391860  0.392659  0.250319  1
  Pb  Pb17  1  0.000799  0.392659  0.749681  1
