# generated using pymatgen
data_Dy12Fe2Br17
_symmetry_space_group_name_H-M   'P 1'
_cell_length_a   9.19708828
_cell_length_b   11.05787631
_cell_length_c   11.10268536
_cell_angle_alpha   93.51704417
_cell_angle_beta   104.63153198
_cell_angle_gamma   114.09812372
_symmetry_Int_Tables_number   1
_chemical_formula_structural   Dy12Fe2Br17
_chemical_formula_sum   'Dy12 Fe2 Br17'
_cell_volume   979.86564295
_cell_formula_units_Z   1
loop_
 _symmetry_equiv_pos_site_id
 _symmetry_equiv_pos_as_xyz
  1  'x, y, z'
loop_
 _atom_site_type_symbol
 _atom_site_label
 _atom_site_symmetry_multiplicity
 _atom_site_fract_x
 _atom_site_fract_y
 _atom_site_fract_z
 _atom_site_occupancy
  Dy  Dy0  1  0.059412  0.512985  0.322297  1
  Dy  Dy1  1  0.986947  0.811464  0.579511  1
  Dy  Dy2  1  0.644792  0.239560  0.285309  1
  Dy  Dy3  1  0.013053  0.188536  0.420489  1
  Dy  Dy4  1  0.225651  0.670352  0.991272  1
  Dy  Dy5  1  0.258739  0.988250  0.891211  1
  Dy  Dy6  1  0.355208  0.760440  0.714691  1
  Dy  Dy7  1  0.940588  0.487015  0.677703  1
  Dy  Dy8  1  0.741261  0.011750  0.108789  1
  Dy  Dy9  1  0.152643  0.288147  0.151683  1
  Dy  Dy10  1  0.774349  0.329648  0.008728  1
  Dy  Dy11  1  0.847357  0.711853  0.848317  1
  Fe  Fe12  1  0.104090  0.738292  0.785544  1
  Fe  Fe13  1  0.895910  0.261708  0.214456  1
  Br  Br14  1  0.788977  0.527132  0.419640  1
  Br  Br15  1  0.645653  0.421640  0.760644  1
  Br  Br16  1  0.846051  0.898605  0.326827  1
  Br  Br17  1  0.324628  0.213261  0.366153  1
  Br  Br18  1  0.153949  0.101395  0.673173  1
  Br  Br19  1  0.585427  0.052146  0.846690  1
  Br  Br20  1  0.758355  0.186542  0.536215  1
  Br  Br21  1  0.548446  0.709172  0.951395  1
  Br  Br22  1  0.354347  0.578360  0.239356  1
  Br  Br23  1  0.211023  0.472868  0.580360  1
  Br  Br24  1  0.055249  0.370369  0.899505  1
  Br  Br25  1  0.451554  0.290828  0.048605  1
  Br  Br26  1  0.000000  0.000000  0.000000  1
  Br  Br27  1  0.241645  0.813458  0.463785  1
  Br  Br28  1  0.414573  0.947854  0.153310  1
  Br  Br29  1  0.675372  0.786739  0.633847  1
  Br  Br30  1  0.944751  0.629631  0.100495  1
