# generated using pymatgen
data_Nd6AlRuI6
_symmetry_space_group_name_H-M   'P 1'
_cell_length_a   4.17582800
_cell_length_b   9.44345825
_cell_length_c   12.71814585
_cell_angle_alpha   86.00345391
_cell_angle_beta   90.00000000
_cell_angle_gamma   90.00000000
_symmetry_Int_Tables_number   1
_chemical_formula_structural   Nd6AlRuI6
_chemical_formula_sum   'Nd6 Al1 Ru1 I6'
_cell_volume   500.31104175
_cell_formula_units_Z   1
loop_
 _symmetry_equiv_pos_site_id
 _symmetry_equiv_pos_as_xyz
  1  'x, y, z'
loop_
 _atom_site_type_symbol
 _atom_site_label
 _atom_site_symmetry_multiplicity
 _atom_site_fract_x
 _atom_site_fract_y
 _atom_site_fract_z
 _atom_site_occupancy
  Nd  Nd0  1  0.750000  0.152995  0.138601  1
  Nd  Nd1  1  0.250000  0.827864  0.858338  1
  Nd  Nd2  1  0.750000  0.092604  0.677079  1
  Nd  Nd3  1  0.250000  0.906458  0.323333  1
  Nd  Nd4  1  0.250000  0.280486  0.896942  1
  Nd  Nd5  1  0.750000  0.755901  0.102665  1
  Al  Al6  1  0.750000  0.033463  0.924321  1
  Ru  Ru7  1  0.250000  0.960099  0.080544  1
  I  I8  1  0.250000  0.344685  0.645661  1
  I  I9  1  0.750000  0.651014  0.359036  1
  I  I10  1  0.750000  0.144838  0.401860  1
  I  I11  1  0.250000  0.853179  0.606784  1
  I  I12  1  0.250000  0.434387  0.126112  1
  I  I13  1  0.750000  0.562029  0.858725  1
