# generated using pymatgen
data_Nd2Y2TmGa4
_symmetry_space_group_name_H-M   'P 1'
_cell_length_a   7.93193100
_cell_length_b   7.93193100
_cell_length_c   14.82629600
_cell_angle_alpha   90.00000000
_cell_angle_beta   90.00000000
_cell_angle_gamma   90.00000000
_symmetry_Int_Tables_number   1
_chemical_formula_structural   Nd2Y2TmGa4
_chemical_formula_sum   'Nd8 Y8 Tm4 Ga16'
_cell_volume   932.80426171
_cell_formula_units_Z   4
loop_
 _symmetry_equiv_pos_site_id
 _symmetry_equiv_pos_as_xyz
  1  'x, y, z'
loop_
 _atom_site_type_symbol
 _atom_site_label
 _atom_site_symmetry_multiplicity
 _atom_site_fract_x
 _atom_site_fract_y
 _atom_site_fract_z
 _atom_site_occupancy
  Nd  Nd0  1  0.637698  0.989496  0.457643  1
  Nd  Nd1  1  0.362302  0.010504  0.957643  1
  Nd  Nd2  1  0.989496  0.637698  0.542357  1
  Nd  Nd3  1  0.489496  0.862302  0.207643  1
  Nd  Nd4  1  0.510504  0.137698  0.707643  1
  Nd  Nd5  1  0.862302  0.489496  0.792357  1
  Nd  Nd6  1  0.137698  0.510504  0.292357  1
  Nd  Nd7  1  0.010504  0.362302  0.042357  1
  Y  Y8  1  0.492152  0.358114  0.125596  1
  Y  Y9  1  0.992152  0.141886  0.624404  1
  Y  Y10  1  0.858114  0.007848  0.875596  1
  Y  Y11  1  0.141886  0.992152  0.375596  1
  Y  Y12  1  0.507848  0.641886  0.625596  1
  Y  Y13  1  0.358114  0.492152  0.874404  1
  Y  Y14  1  0.641886  0.507848  0.374404  1
  Y  Y15  1  0.007848  0.858114  0.124404  1
  Tm  Tm16  1  0.318535  0.318535  0.500000  1
  Tm  Tm17  1  0.181465  0.818535  0.750000  1
  Tm  Tm18  1  0.818535  0.181465  0.250000  1
  Tm  Tm19  1  0.681465  0.681465  0.000000  1
  Ga  Ga20  1  0.287728  0.936019  0.562707  1
  Ga  Ga21  1  0.712272  0.063981  0.062707  1
  Ga  Ga22  1  0.936019  0.287728  0.437293  1
  Ga  Ga23  1  0.436019  0.212272  0.312707  1
  Ga  Ga24  1  0.563981  0.787728  0.812707  1
  Ga  Ga25  1  0.212272  0.436019  0.687293  1
  Ga  Ga26  1  0.787728  0.563981  0.187293  1
  Ga  Ga27  1  0.063981  0.712272  0.937293  1
  Ga  Ga28  1  0.800827  0.844418  0.689709  1
  Ga  Ga29  1  0.199173  0.155582  0.189709  1
  Ga  Ga30  1  0.844418  0.800827  0.310291  1
  Ga  Ga31  1  0.344418  0.699173  0.439709  1
  Ga  Ga32  1  0.655582  0.300827  0.939709  1
  Ga  Ga33  1  0.699173  0.344418  0.560291  1
  Ga  Ga34  1  0.300827  0.655582  0.060291  1
  Ga  Ga35  1  0.155582  0.199173  0.810291  1
