# generated using pymatgen
data_Tb12Th4Mg3InRu4
_symmetry_space_group_name_H-M   'P 1'
_cell_length_a   9.78821008
_cell_length_b   9.78821126
_cell_length_c   9.78821057
_cell_angle_alpha   59.94698689
_cell_angle_beta   59.94698411
_cell_angle_gamma   59.94698385
_symmetry_Int_Tables_number   1
_chemical_formula_structural   Tb12Th4Mg3InRu4
_chemical_formula_sum   'Tb12 Th4 Mg3 In1 Ru4'
_cell_volume   662.32693758
_cell_formula_units_Z   1
loop_
 _symmetry_equiv_pos_site_id
 _symmetry_equiv_pos_as_xyz
  1  'x, y, z'
loop_
 _atom_site_type_symbol
 _atom_site_label
 _atom_site_symmetry_multiplicity
 _atom_site_fract_x
 _atom_site_fract_y
 _atom_site_fract_z
 _atom_site_occupancy
  Tb  Tb0  1  0.061934  0.437458  0.437458  1
  Tb  Tb1  1  0.438237  0.061353  0.061353  1
  Tb  Tb2  1  0.437458  0.061934  0.437458  1
  Tb  Tb3  1  0.061353  0.438237  0.061353  1
  Tb  Tb4  1  0.437458  0.437458  0.061934  1
  Tb  Tb5  1  0.061353  0.061353  0.438237  1
  Tb  Tb6  1  0.185784  0.813856  0.813856  1
  Tb  Tb7  1  0.812347  0.186979  0.186979  1
  Tb  Tb8  1  0.813856  0.185784  0.813856  1
  Tb  Tb9  1  0.186979  0.812347  0.186979  1
  Tb  Tb10  1  0.813856  0.813856  0.185784  1
  Tb  Tb11  1  0.186979  0.186979  0.812347  1
  Th  Th12  1  0.595228  0.595228  0.595228  1
  Th  Th13  1  0.597334  0.597334  0.209469  1
  Th  Th14  1  0.597334  0.209469  0.597334  1
  Th  Th15  1  0.209469  0.597334  0.597334  1
  Mg  Mg16  1  0.829164  0.829164  0.511916  1
  Mg  Mg17  1  0.829164  0.511916  0.829164  1
  Mg  Mg18  1  0.511916  0.829164  0.829164  1
  In  In19  1  0.831407  0.831407  0.831407  1
  Ru  Ru20  1  0.393753  0.393753  0.393753  1
  Ru  Ru21  1  0.394584  0.394584  0.818469  1
  Ru  Ru22  1  0.394584  0.818469  0.394584  1
  Ru  Ru23  1  0.818469  0.394584  0.394584  1
