# generated using pymatgen
data_La2Dy4IrI10
_symmetry_space_group_name_H-M   'P 1'
_cell_length_a   7.85067571
_cell_length_b   9.89489338
_cell_length_c   9.90455171
_cell_angle_alpha   107.11382364
_cell_angle_beta   96.09684567
_cell_angle_gamma   105.78133021
_symmetry_Int_Tables_number   1
_chemical_formula_structural   La2Dy4IrI10
_chemical_formula_sum   'La2 Dy4 Ir1 I10'
_cell_volume   692.95610219
_cell_formula_units_Z   1
loop_
 _symmetry_equiv_pos_site_id
 _symmetry_equiv_pos_as_xyz
  1  'x, y, z'
loop_
 _atom_site_type_symbol
 _atom_site_label
 _atom_site_symmetry_multiplicity
 _atom_site_fract_x
 _atom_site_fract_y
 _atom_site_fract_z
 _atom_site_occupancy
  La  La0  1  0.382332  0.956380  0.736438  1
  La  La1  1  0.617668  0.043620  0.263562  1
  Dy  Dy2  1  0.473204  0.287864  0.587985  1
  Dy  Dy3  1  0.526796  0.712136  0.412015  1
  Dy  Dy4  1  0.850435  0.129207  0.666553  1
  Dy  Dy5  1  0.149565  0.870793  0.333447  1
  Ir  Ir6  1  0.500000  0.000000  0.500000  1
  I  I7  1  0.418744  0.620710  0.673171  1
  I  I8  1  0.581256  0.379290  0.326829  1
  I  I9  1  0.279697  0.266466  0.843459  1
  I  I10  1  0.720303  0.733534  0.156541  1
  I  I11  1  0.853499  0.451454  0.769552  1
  I  I12  1  0.146501  0.548546  0.230448  1
  I  I13  1  0.055464  0.180922  0.415017  1
  I  I14  1  0.227179  0.910164  0.042735  1
  I  I15  1  0.772821  0.089836  0.957265  1
  I  I16  1  0.944536  0.819078  0.584983  1
