# generated using pymatgen
data_Dy2Y2MnV3B16
_symmetry_space_group_name_H-M   'P 1'
_cell_length_a   3.45268300
_cell_length_b   5.97822552
_cell_length_c   11.56769200
_cell_angle_alpha   89.92216768
_cell_angle_beta   90.00000000
_cell_angle_gamma   90.00000000
_symmetry_Int_Tables_number   1
_chemical_formula_structural   Dy2Y2MnV3B16
_chemical_formula_sum   'Dy2 Y2 Mn1 V3 B16'
_cell_volume   238.76755719
_cell_formula_units_Z   1
loop_
 _symmetry_equiv_pos_site_id
 _symmetry_equiv_pos_as_xyz
  1  'x, y, z'
loop_
 _atom_site_type_symbol
 _atom_site_label
 _atom_site_symmetry_multiplicity
 _atom_site_fract_x
 _atom_site_fract_y
 _atom_site_fract_z
 _atom_site_occupancy
  Dy  Dy0  1  0.000000  0.624763  0.350691  1
  Dy  Dy1  1  0.000000  0.375975  0.650544  1
  Y  Y2  1  0.000000  0.124179  0.152064  1
  Y  Y3  1  0.000000  0.876294  0.846894  1
  Mn  Mn4  1  0.000000  0.875960  0.580635  1
  V  V5  1  0.000000  0.626681  0.082394  1
  V  V6  1  0.000000  0.373314  0.915167  1
  V  V7  1  0.000000  0.124429  0.420667  1
  B  B8  1  0.500000  0.785086  0.186499  1
  B  B9  1  0.500000  0.214236  0.812749  1
  B  B10  1  0.500000  0.283572  0.316116  1
  B  B11  1  0.500000  0.720879  0.681469  1
  B  B12  1  0.500000  0.864429  0.032597  1
  B  B13  1  0.500000  0.135461  0.966857  1
  B  B14  1  0.500000  0.364104  0.469148  1
  B  B15  1  0.500000  0.639182  0.533333  1
  B  B16  1  0.500000  0.884422  0.455728  1
  B  B17  1  0.500000  0.109534  0.548699  1
  B  B18  1  0.500000  0.384938  0.047079  1
  B  B19  1  0.500000  0.614739  0.952150  1
  B  B20  1  0.500000  0.975654  0.309457  1
  B  B21  1  0.500000  0.020922  0.689981  1
  B  B22  1  0.500000  0.475364  0.192867  1
  B  B23  1  0.500000  0.525881  0.806214  1
