# generated using pymatgen
data_Ho17Tm3(SnPb)8
_symmetry_space_group_name_H-M   'P 1'
_cell_length_a   8.10046946
_cell_length_b   8.17188019
_cell_length_c   15.50753800
_cell_angle_alpha   90.00000000
_cell_angle_beta   90.00000000
_cell_angle_gamma   90.05025125
_symmetry_Int_Tables_number   1
_chemical_formula_structural   Ho17Tm3(SnPb)8
_chemical_formula_sum   'Ho17 Tm3 Sn8 Pb8'
_cell_volume   1026.53761271
_cell_formula_units_Z   1
loop_
 _symmetry_equiv_pos_site_id
 _symmetry_equiv_pos_as_xyz
  1  'x, y, z'
loop_
 _atom_site_type_symbol
 _atom_site_label
 _atom_site_symmetry_multiplicity
 _atom_site_fract_x
 _atom_site_fract_y
 _atom_site_fract_z
 _atom_site_occupancy
  Ho  Ho0  1  0.379895  0.839686  0.877461  1
  Ho  Ho1  1  0.879651  0.660707  0.622947  1
  Ho  Ho2  1  0.620448  0.160411  0.377306  1
  Ho  Ho3  1  0.120210  0.339435  0.123229  1
  Ho  Ho4  1  0.620448  0.160411  0.122694  1
  Ho  Ho5  1  0.120210  0.339435  0.376771  1
  Ho  Ho6  1  0.379895  0.839686  0.622539  1
  Ho  Ho7  1  0.879651  0.660707  0.877053  1
  Ho  Ho8  1  0.536894  0.324381  0.896613  1
  Ho  Ho9  1  0.036933  0.175068  0.603594  1
  Ho  Ho10  1  0.463127  0.675541  0.396210  1
  Ho  Ho11  1  0.962837  0.824765  0.103815  1
  Ho  Ho12  1  0.463127  0.675541  0.103790  1
  Ho  Ho13  1  0.962837  0.824765  0.396185  1
  Ho  Ho14  1  0.536894  0.324381  0.603387  1
  Ho  Ho15  1  0.036933  0.175068  0.896406  1
  Ho  Ho16  1  0.210415  0.503348  0.750000  1
  Tm  Tm17  1  0.710556  0.995730  0.750000  1
  Tm  Tm18  1  0.789576  0.496367  0.250000  1
  Tm  Tm19  1  0.289692  0.003936  0.250000  1
  Sn  Sn20  1  0.575572  0.623331  0.750000  1
  Sn  Sn21  1  0.075671  0.877057  0.750000  1
  Sn  Sn22  1  0.425084  0.377035  0.250000  1
  Sn  Sn23  1  0.924248  0.123136  0.250000  1
  Sn  Sn24  1  0.345230  0.148208  0.750000  1
  Sn  Sn25  1  0.843964  0.350014  0.750000  1
  Sn  Sn26  1  0.655064  0.850879  0.250000  1
  Sn  Sn27  1  0.155189  0.649430  0.250000  1
  Pb  Pb28  1  0.280472  0.032537  0.042107  1
  Pb  Pb29  1  0.781003  0.468068  0.457817  1
  Pb  Pb30  1  0.719437  0.967604  0.541957  1
  Pb  Pb31  1  0.218964  0.532561  0.958438  1
  Pb  Pb32  1  0.719437  0.967604  0.958043  1
  Pb  Pb33  1  0.218964  0.532561  0.541562  1
  Pb  Pb34  1  0.280472  0.032537  0.457893  1
  Pb  Pb35  1  0.781003  0.468068  0.042183  1
