# generated using pymatgen
data_Er3Sc(Os3W)2
_symmetry_space_group_name_H-M   'P 1'
_cell_length_a   5.45950000
_cell_length_b   5.45949767
_cell_length_c   8.42178600
_cell_angle_alpha   90.00000000
_cell_angle_beta   90.00000000
_cell_angle_gamma   120.00001413
_symmetry_Int_Tables_number   1
_chemical_formula_structural   Er3Sc(Os3W)2
_chemical_formula_sum   'Er3 Sc1 Os6 W2'
_cell_volume   217.39038253
_cell_formula_units_Z   1
loop_
 _symmetry_equiv_pos_site_id
 _symmetry_equiv_pos_as_xyz
  1  'x, y, z'
loop_
 _atom_site_type_symbol
 _atom_site_label
 _atom_site_symmetry_multiplicity
 _atom_site_fract_x
 _atom_site_fract_y
 _atom_site_fract_z
 _atom_site_occupancy
  Er  Er0  1  0.333333  0.666667  0.432228  1
  Er  Er1  1  0.666667  0.333333  0.564605  1
  Er  Er2  1  0.666667  0.333333  0.937883  1
  Sc  Sc3  1  0.333333  0.666667  0.063028  1
  Os  Os4  1  0.173635  0.347269  0.752263  1
  Os  Os5  1  0.173635  0.826365  0.752263  1
  Os  Os6  1  0.346381  0.173191  0.248273  1
  Os  Os7  1  0.826809  0.653619  0.248273  1
  Os  Os8  1  0.652731  0.826365  0.752263  1
  Os  Os9  1  0.826809  0.173191  0.248273  1
  W  W10  1  0.000000  0.000000  0.000313  1
  W  W11  1  0.000000  0.000000  0.500335  1
