# generated using pymatgen
data_Tm8Hf12Si15Sn
_symmetry_space_group_name_H-M   'P 1'
_cell_length_a   7.26365627
_cell_length_b   7.29210860
_cell_length_c   13.35386413
_cell_angle_alpha   89.75722659
_cell_angle_beta   90.01450945
_cell_angle_gamma   89.82781533
_symmetry_Int_Tables_number   1
_chemical_formula_structural   Tm8Hf12Si15Sn
_chemical_formula_sum   'Tm8 Hf12 Si15 Sn1'
_cell_volume   707.30949819
_cell_formula_units_Z   1
loop_
 _symmetry_equiv_pos_site_id
 _symmetry_equiv_pos_as_xyz
  1  'x, y, z'
loop_
 _atom_site_type_symbol
 _atom_site_label
 _atom_site_symmetry_multiplicity
 _atom_site_fract_x
 _atom_site_fract_y
 _atom_site_fract_z
 _atom_site_occupancy
  Tm  Tm0  1  0.988305  0.345388  0.212291  1
  Tm  Tm1  1  0.004706  0.655622  0.716179  1
  Tm  Tm2  1  0.148348  0.505606  0.470818  1
  Tm  Tm3  1  0.505519  0.842785  0.032827  1
  Tm  Tm4  1  0.844937  0.503801  0.964091  1
  Tm  Tm5  1  0.498140  0.153383  0.539074  1
  Tm  Tm6  1  0.344119  0.995845  0.784841  1
  Tm  Tm7  1  0.662073  0.997080  0.283399  1
  Hf  Hf8  1  0.174196  0.174833  0.999159  1
  Hf  Hf9  1  0.825597  0.826836  0.501206  1
  Hf  Hf10  1  0.326695  0.681174  0.247949  1
  Hf  Hf11  1  0.674698  0.325075  0.750203  1
  Hf  Hf12  1  0.141467  0.988486  0.373912  1
  Hf  Hf13  1  0.852376  0.002547  0.873864  1
  Hf  Hf14  1  0.502311  0.649717  0.624837  1
  Hf  Hf15  1  0.351327  0.496658  0.875486  1
  Hf  Hf16  1  0.497750  0.352031  0.118839  1
  Hf  Hf17  1  0.659818  0.513827  0.379346  1
  Hf  Hf18  1  0.995932  0.148840  0.626714  1
  Hf  Hf19  1  0.001471  0.849824  0.124019  1
  Si  Si20  1  0.638623  0.705001  0.817578  1
  Si  Si21  1  0.204826  0.862997  0.568645  1
  Si  Si22  1  0.139240  0.794587  0.931712  1
  Si  Si23  1  0.795379  0.138121  0.065924  1
  Si  Si24  1  0.860514  0.204572  0.432911  1
  Si  Si25  1  0.295330  0.361593  0.682940  1
  Si  Si26  1  0.703279  0.638002  0.181980  1
  Si  Si27  1  0.296459  0.041662  0.180701  1
  Si  Si28  1  0.703996  0.950138  0.686423  1
  Si  Si29  1  0.450608  0.798550  0.435758  1
  Si  Si30  1  0.202685  0.548552  0.064289  1
  Si  Si31  1  0.548669  0.201958  0.933858  1
  Si  Si32  1  0.795252  0.451019  0.566696  1
  Si  Si33  1  0.048911  0.296466  0.814559  1
  Si  Si34  1  0.953205  0.700987  0.312931  1
  Sn  Sn35  1  0.363232  0.296437  0.324042  1
