# generated using pymatgen
data_Er3Tm5(P7Ir8)2
_symmetry_space_group_name_H-M   'P 1'
_cell_length_a   3.93662800
_cell_length_b   12.60201078
_cell_length_c   13.10064400
_cell_angle_alpha   80.73825506
_cell_angle_beta   90.00000000
_cell_angle_gamma   90.00000000
_symmetry_Int_Tables_number   1
_chemical_formula_structural   Er3Tm5(P7Ir8)2
_chemical_formula_sum   'Er3 Tm5 P14 Ir16'
_cell_volume   641.44277118
_cell_formula_units_Z   1
loop_
 _symmetry_equiv_pos_site_id
 _symmetry_equiv_pos_as_xyz
  1  'x, y, z'
loop_
 _atom_site_type_symbol
 _atom_site_label
 _atom_site_symmetry_multiplicity
 _atom_site_fract_x
 _atom_site_fract_y
 _atom_site_fract_z
 _atom_site_occupancy
  Er  Er0  1  0.250000  0.101759  0.789448  1
  Er  Er1  1  0.750000  0.898234  0.210557  1
  Er  Er2  1  0.250000  0.279896  0.100762  1
  Tm  Tm3  1  0.750000  0.790731  0.562263  1
  Tm  Tm4  1  0.250000  0.209269  0.437732  1
  Tm  Tm5  1  0.750000  0.479510  0.706775  1
  Tm  Tm6  1  0.250000  0.520491  0.293229  1
  Tm  Tm7  1  0.750000  0.720045  0.899267  1
  P  P8  1  0.250000  0.906644  0.412710  1
  P  P9  1  0.750000  0.471076  0.129678  1
  P  P10  1  0.250000  0.528934  0.870332  1
  P  P11  1  0.750000  0.093357  0.587290  1
  P  P12  1  0.250000  0.741500  0.079341  1
  P  P13  1  0.750000  0.258508  0.920605  1
  P  P14  1  0.750000  0.157594  0.281223  1
  P  P15  1  0.250000  0.842409  0.718796  1
  P  P16  1  0.250000  0.051735  0.101021  1
  P  P17  1  0.750000  0.948171  0.898990  1
  P  P18  1  0.250000  0.311766  0.690121  1
  P  P19  1  0.750000  0.688237  0.309869  1
  P  P20  1  0.250000  0.608213  0.566613  1
  P  P21  1  0.750000  0.391788  0.433399  1
  Ir  Ir22  1  0.250000  0.991219  0.576018  1
  Ir  Ir23  1  0.750000  0.008775  0.423995  1
  Ir  Ir24  1  0.250000  0.661674  0.728988  1
  Ir  Ir25  1  0.750000  0.338404  0.271179  1
  Ir  Ir26  1  0.250000  0.553764  0.045863  1
  Ir  Ir27  1  0.750000  0.446357  0.954039  1
  Ir  Ir28  1  0.250000  0.060966  0.273412  1
  Ir  Ir29  1  0.750000  0.938970  0.726615  1
  Ir  Ir30  1  0.250000  0.421158  0.523259  1
  Ir  Ir31  1  0.750000  0.578853  0.476739  1
  Ir  Ir32  1  0.250000  0.915058  0.997664  1
  Ir  Ir33  1  0.750000  0.084907  0.002304  1
  Ir  Ir34  1  0.250000  0.729457  0.394428  1
  Ir  Ir35  1  0.750000  0.270542  0.605576  1
  Ir  Ir36  1  0.250000  0.342055  0.858074  1
  Ir  Ir37  1  0.750000  0.657975  0.141826  1
