# generated using pymatgen
data_K(YbB9)2
_symmetry_space_group_name_H-M   'P 1'
_cell_length_a   4.15868500
_cell_length_b   4.15868500
_cell_length_c   12.47709400
_cell_angle_alpha   90.00000000
_cell_angle_beta   90.00000000
_cell_angle_gamma   90.00000000
_symmetry_Int_Tables_number   1
_chemical_formula_structural   K(YbB9)2
_chemical_formula_sum   'K1 Yb2 B18'
_cell_volume   215.78711011
_cell_formula_units_Z   1
loop_
 _symmetry_equiv_pos_site_id
 _symmetry_equiv_pos_as_xyz
  1  'x, y, z'
loop_
 _atom_site_type_symbol
 _atom_site_label
 _atom_site_symmetry_multiplicity
 _atom_site_fract_x
 _atom_site_fract_y
 _atom_site_fract_z
 _atom_site_occupancy
  K  K0  1  0.000000  0.000000  0.000000  1
  Yb  Yb1  1  0.000000  0.000000  0.327786  1
  Yb  Yb2  1  0.000000  0.000000  0.672214  1
  B  B3  1  0.200345  0.500000  0.170312  1
  B  B4  1  0.200539  0.500000  0.500000  1
  B  B5  1  0.200345  0.500000  0.829688  1
  B  B6  1  0.500000  0.500000  0.269048  1
  B  B7  1  0.500000  0.500000  0.599090  1
  B  B8  1  0.500000  0.500000  0.931628  1
  B  B9  1  0.500000  0.200345  0.170312  1
  B  B10  1  0.500000  0.200539  0.500000  1
  B  B11  1  0.500000  0.200345  0.829688  1
  B  B12  1  0.500000  0.500000  0.068372  1
  B  B13  1  0.500000  0.500000  0.400910  1
  B  B14  1  0.500000  0.500000  0.730952  1
  B  B15  1  0.500000  0.799655  0.170312  1
  B  B16  1  0.500000  0.799461  0.500000  1
  B  B17  1  0.500000  0.799655  0.829688  1
  B  B18  1  0.799655  0.500000  0.170312  1
  B  B19  1  0.799461  0.500000  0.500000  1
  B  B20  1  0.799655  0.500000  0.829688  1
