# generated using pymatgen
data_Pr4Al17SiRh6
_symmetry_space_group_name_H-M   'P 1'
_cell_length_a   7.63034355
_cell_length_b   7.61722768
_cell_length_c   9.63536002
_cell_angle_alpha   89.96995604
_cell_angle_beta   89.97698655
_cell_angle_gamma   119.39732661
_symmetry_Int_Tables_number   1
_chemical_formula_structural   Pr4Al17SiRh6
_chemical_formula_sum   'Pr4 Al17 Si1 Rh6'
_cell_volume   487.91588889
_cell_formula_units_Z   1
loop_
 _symmetry_equiv_pos_site_id
 _symmetry_equiv_pos_as_xyz
  1  'x, y, z'
loop_
 _atom_site_type_symbol
 _atom_site_label
 _atom_site_symmetry_multiplicity
 _atom_site_fract_x
 _atom_site_fract_y
 _atom_site_fract_z
 _atom_site_occupancy
  Pr  Pr0  1  0.994424  0.665356  0.747316  1
  Pr  Pr1  1  0.004845  0.329525  0.254078  1
  Pr  Pr2  1  0.674540  0.000440  0.746908  1
  Pr  Pr3  1  0.329168  0.005575  0.250942  1
  Al  Al4  1  0.131026  0.131207  0.749473  1
  Al  Al5  1  0.868976  0.870379  0.249744  1
  Al  Al6  1  0.996195  0.668735  0.424738  1
  Al  Al7  1  0.997181  0.665167  0.072738  1
  Al  Al8  1  0.334768  0.001764  0.926866  1
  Al  Al9  1  0.003774  0.335216  0.931444  1
  Al  Al10  1  0.664182  0.996949  0.072708  1
  Al  Al11  1  0.660415  0.992482  0.424421  1
  Al  Al12  1  0.334451  0.002324  0.573974  1
  Al  Al13  1  0.334682  0.334005  0.046450  1
  Al  Al14  1  0.666868  0.667241  0.953853  1
  Al  Al15  1  0.665461  0.665772  0.547150  1
  Al  Al16  1  0.336806  0.334545  0.454443  1
  Al  Al17  1  0.340686  0.547260  0.750074  1
  Al  Al18  1  0.660355  0.452436  0.250513  1
  Al  Al19  1  0.544402  0.340026  0.749795  1
  Al  Al20  1  0.451671  0.658146  0.249665  1
  Si  Si21  1  0.005154  0.335197  0.573017  1
  Rh  Rh22  1  0.679063  0.329441  0.501891  1
  Rh  Rh23  1  0.321458  0.663452  0.500369  1
  Rh  Rh24  1  0.328832  0.670266  0.999161  1
  Rh  Rh25  1  0.671156  0.329431  0.999030  1
  Rh  Rh26  1  0.999518  0.006827  0.500192  1
  Rh  Rh27  1  0.999944  0.000838  0.999048  1
