# generated using pymatgen
data_Y3ErAl4(Ga7Ir3)2
_symmetry_space_group_name_H-M   'P 1'
_cell_length_a   7.56745196
_cell_length_b   7.56579101
_cell_length_c   9.50913100
_cell_angle_alpha   90.00000000
_cell_angle_beta   90.00000000
_cell_angle_gamma   119.67050360
_symmetry_Int_Tables_number   1
_chemical_formula_structural   Y3ErAl4(Ga7Ir3)2
_chemical_formula_sum   'Y3 Er1 Al4 Ga14 Ir6'
_cell_volume   473.05090357
_cell_formula_units_Z   1
loop_
 _symmetry_equiv_pos_site_id
 _symmetry_equiv_pos_as_xyz
  1  'x, y, z'
loop_
 _atom_site_type_symbol
 _atom_site_label
 _atom_site_symmetry_multiplicity
 _atom_site_fract_x
 _atom_site_fract_y
 _atom_site_fract_z
 _atom_site_occupancy
  Y  Y0  1  0.999674  0.329999  0.750000  1
  Y  Y1  1  0.670005  0.000329  0.250000  1
  Y  Y2  1  0.330022  0.999672  0.750000  1
  Er  Er3  1  0.000616  0.670064  0.250000  1
  Al  Al4  1  0.331708  0.331707  0.553392  1
  Al  Al5  1  0.668597  0.668275  0.446260  1
  Al  Al6  1  0.668597  0.668275  0.053740  1
  Al  Al7  1  0.331708  0.331707  0.946608  1
  Ga  Ga8  1  0.126917  0.126575  0.250000  1
  Ga  Ga9  1  0.872969  0.872952  0.750000  1
  Ga  Ga10  1  0.000568  0.335677  0.079796  1
  Ga  Ga11  1  0.999447  0.664822  0.920931  1
  Ga  Ga12  1  0.999447  0.664822  0.579069  1
  Ga  Ga13  1  0.334712  0.000101  0.420224  1
  Ga  Ga14  1  0.000568  0.335677  0.420204  1
  Ga  Ga15  1  0.664809  0.999425  0.579420  1
  Ga  Ga16  1  0.664809  0.999425  0.920580  1
  Ga  Ga17  1  0.334712  0.000101  0.079776  1
  Ga  Ga18  1  0.346814  0.549904  0.250000  1
  Ga  Ga19  1  0.652892  0.450167  0.750000  1
  Ga  Ga20  1  0.550454  0.347650  0.250000  1
  Ga  Ga21  1  0.450122  0.652851  0.750000  1
  Ir  Ir22  1  0.669532  0.330646  0.000167  1
  Ir  Ir23  1  0.330457  0.669476  0.000175  1
  Ir  Ir24  1  0.330457  0.669476  0.499825  1
  Ir  Ir25  1  0.669532  0.330646  0.499833  1
  Ir  Ir26  1  0.999927  0.999790  0.000222  1
  Ir  Ir27  1  0.999927  0.999790  0.499778  1
