# generated using pymatgen
data_La2HI4F
_symmetry_space_group_name_H-M   'P 1'
_cell_length_a   4.28276500
_cell_length_b   4.28276313
_cell_length_c   16.65060000
_cell_angle_alpha   90.00000000
_cell_angle_beta   90.00000000
_cell_angle_gamma   119.99999124
_symmetry_Int_Tables_number   1
_chemical_formula_structural   La2HI4F
_chemical_formula_sum   'La2 H1 I4 F1'
_cell_volume   264.48975743
_cell_formula_units_Z   1
loop_
 _symmetry_equiv_pos_site_id
 _symmetry_equiv_pos_as_xyz
  1  'x, y, z'
loop_
 _atom_site_type_symbol
 _atom_site_label
 _atom_site_symmetry_multiplicity
 _atom_site_fract_x
 _atom_site_fract_y
 _atom_site_fract_z
 _atom_site_occupancy
  La  La0  1  0.000000  0.000000  0.250000  1
  La  La1  1  0.000000  0.000000  0.750000  1
  H  H2  1  0.666667  0.333332  0.750000  1
  I  I3  1  0.666667  0.333332  0.115501  1
  I  I4  1  0.666667  0.333332  0.384499  1
  I  I5  1  0.333334  0.666668  0.619810  1
  I  I6  1  0.333334  0.666668  0.880191  1
  F  F7  1  0.333334  0.666668  0.250000  1
