# generated using pymatgen
data_Lu4NiAu3O14
_symmetry_space_group_name_H-M   'P 1'
_cell_length_a   7.24478221
_cell_length_b   7.23651042
_cell_length_c   7.23651000
_cell_angle_alpha   59.99999278
_cell_angle_beta   60.03775469
_cell_angle_gamma   60.03775685
_symmetry_Int_Tables_number   1
_chemical_formula_structural   Lu4NiAu3O14
_chemical_formula_sum   'Lu4 Ni1 Au3 O14'
_cell_volume   268.42086918
_cell_formula_units_Z   1
loop_
 _symmetry_equiv_pos_site_id
 _symmetry_equiv_pos_as_xyz
  1  'x, y, z'
loop_
 _atom_site_type_symbol
 _atom_site_label
 _atom_site_symmetry_multiplicity
 _atom_site_fract_x
 _atom_site_fract_y
 _atom_site_fract_z
 _atom_site_occupancy
  Lu  Lu0  1  0.125000  0.125000  0.125000  1
  Lu  Lu1  1  0.625000  0.125000  0.125000  1
  Lu  Lu2  1  0.125000  0.125000  0.625000  1
  Lu  Lu3  1  0.125000  0.625000  0.125000  1
  Ni  Ni4  1  0.125000  0.625000  0.625000  1
  Au  Au5  1  0.625000  0.625000  0.625000  1
  Au  Au6  1  0.625000  0.625000  0.125000  1
  Au  Au7  1  0.625000  0.125000  0.625000  1
  O  O8  1  0.993747  0.002085  0.002085  1
  O  O9  1  0.256253  0.247915  0.247915  1
  O  O10  1  0.280171  0.275070  0.722380  1
  O  O11  1  0.534923  0.524013  0.970532  1
  O  O12  1  0.715077  0.279468  0.725987  1
  O  O13  1  0.715077  0.279468  0.279468  1
  O  O14  1  0.280171  0.722380  0.722380  1
  O  O15  1  0.280171  0.722380  0.275070  1
  O  O16  1  0.715077  0.725987  0.279468  1
  O  O17  1  0.969829  0.527620  0.527620  1
  O  O18  1  0.534923  0.970532  0.970532  1
  O  O19  1  0.969829  0.974930  0.527620  1
  O  O20  1  0.969829  0.527620  0.974930  1
  O  O21  1  0.534923  0.970532  0.524013  1
