# generated using pymatgen
data_Tb4Ga18Ir5Au
_symmetry_space_group_name_H-M   'P 1'
_cell_length_a   7.63822269
_cell_length_b   7.63822275
_cell_length_c   9.51097203
_cell_angle_alpha   89.99549201
_cell_angle_beta   89.99548889
_cell_angle_gamma   119.81635130
_symmetry_Int_Tables_number   1
_chemical_formula_structural   Tb4Ga18Ir5Au
_chemical_formula_sum   'Tb4 Ga18 Ir5 Au1'
_cell_volume   481.43857582
_cell_formula_units_Z   1
loop_
 _symmetry_equiv_pos_site_id
 _symmetry_equiv_pos_as_xyz
  1  'x, y, z'
loop_
 _atom_site_type_symbol
 _atom_site_label
 _atom_site_symmetry_multiplicity
 _atom_site_fract_x
 _atom_site_fract_y
 _atom_site_fract_z
 _atom_site_occupancy
  Tb  Tb0  1  0.996406  0.672065  0.250874  1
  Tb  Tb1  1  0.003594  0.327935  0.749126  1
  Tb  Tb2  1  0.672065  0.996406  0.250874  1
  Tb  Tb3  1  0.327935  0.003594  0.749126  1
  Ga  Ga4  1  0.135341  0.135341  0.255672  1
  Ga  Ga5  1  0.864659  0.864659  0.744328  1
  Ga  Ga6  1  0.998883  0.343767  0.084444  1
  Ga  Ga7  1  0.001117  0.656233  0.915556  1
  Ga  Ga8  1  0.002316  0.665039  0.578330  1
  Ga  Ga9  1  0.334961  0.997684  0.421670  1
  Ga  Ga10  1  0.997684  0.334961  0.421670  1
  Ga  Ga11  1  0.665039  0.002316  0.578330  1
  Ga  Ga12  1  0.656233  0.001117  0.915556  1
  Ga  Ga13  1  0.343767  0.998883  0.084444  1
  Ga  Ga14  1  0.331921  0.331921  0.565276  1
  Ga  Ga15  1  0.668079  0.668079  0.434724  1
  Ga  Ga16  1  0.657511  0.657511  0.072307  1
  Ga  Ga17  1  0.342489  0.342489  0.927693  1
  Ga  Ga18  1  0.336734  0.547227  0.251408  1
  Ga  Ga19  1  0.663266  0.452773  0.748592  1
  Ga  Ga20  1  0.547227  0.336734  0.251408  1
  Ga  Ga21  1  0.452773  0.663266  0.748592  1
  Ir  Ir22  1  0.670852  0.329148  0.000000  1
  Ir  Ir23  1  0.329148  0.670852  0.000000  1
  Ir  Ir24  1  0.328943  0.671057  0.500000  1
  Ir  Ir25  1  0.671057  0.328943  0.500000  1
  Ir  Ir26  1  0.000000  0.000000  0.500000  1
  Au  Au27  1  0.000000  0.000000  0.000000  1
