# generated using pymatgen
data_K5AsPAu
_symmetry_space_group_name_H-M   'P 1'
_cell_length_a   5.75235300
_cell_length_b   5.75235390
_cell_length_c   19.17022400
_cell_angle_alpha   90.00000000
_cell_angle_beta   90.00000000
_cell_angle_gamma   120.00001209
_symmetry_Int_Tables_number   1
_chemical_formula_structural   K5AsPAu
_chemical_formula_sum   'K10 As2 P2 Au2'
_cell_volume   549.34970101
_cell_formula_units_Z   2
loop_
 _symmetry_equiv_pos_site_id
 _symmetry_equiv_pos_as_xyz
  1  'x, y, z'
loop_
 _atom_site_type_symbol
 _atom_site_label
 _atom_site_symmetry_multiplicity
 _atom_site_fract_x
 _atom_site_fract_y
 _atom_site_fract_z
 _atom_site_occupancy
  K  K0  1  0.000000  0.000000  0.856533  1
  K  K1  1  0.000000  0.000000  0.646047  1
  K  K2  1  0.333333  0.666667  0.746517  1
  K  K3  1  0.000000  0.000000  0.356533  1
  K  K4  1  0.333333  0.666667  0.546213  1
  K  K5  1  0.666667  0.333333  0.246517  1
  K  K6  1  0.666667  0.333333  0.448083  1
  K  K7  1  0.666667  0.333333  0.046213  1
  K  K8  1  0.333333  0.666667  0.948083  1
  K  K9  1  0.000000  0.000000  0.146047  1
  As  As10  1  0.333333  0.666667  0.121988  1
  As  As11  1  0.666667  0.333333  0.621988  1
  P  P12  1  0.666667  0.333333  0.879730  1
  P  P13  1  0.333333  0.666667  0.379730  1
  Au  Au14  1  0.666667  0.333333  0.754891  1
  Au  Au15  1  0.333333  0.666667  0.254891  1
