# generated using pymatgen
data_TbErTm2(WO6)2
_symmetry_space_group_name_H-M   'P 1'
_cell_length_a   5.36844700
_cell_length_b   7.66334808
_cell_length_c   11.39728391
_cell_angle_alpha   75.35960847
_cell_angle_beta   90.00000000
_cell_angle_gamma   90.00000000
_symmetry_Int_Tables_number   1
_chemical_formula_structural   TbErTm2(WO6)2
_chemical_formula_sum   'Tb2 Er2 Tm4 W4 O24'
_cell_volume   453.66323038
_cell_formula_units_Z   2
loop_
 _symmetry_equiv_pos_site_id
 _symmetry_equiv_pos_as_xyz
  1  'x, y, z'
loop_
 _atom_site_type_symbol
 _atom_site_label
 _atom_site_symmetry_multiplicity
 _atom_site_fract_x
 _atom_site_fract_y
 _atom_site_fract_z
 _atom_site_occupancy
  Tb  Tb0  1  0.684272  0.500000  0.750000  1
  Tb  Tb1  1  0.315728  0.500000  0.250000  1
  Er  Er2  1  0.740750  0.000000  0.750000  1
  Er  Er3  1  0.259250  0.000000  0.250000  1
  Tm  Tm4  1  0.184584  0.795547  0.578237  1
  Tm  Tm5  1  0.815416  0.795547  0.078237  1
  Tm  Tm6  1  0.184584  0.204453  0.921763  1
  Tm  Tm7  1  0.815416  0.204453  0.421763  1
  W  W8  1  0.254995  0.724395  0.885529  1
  W  W9  1  0.745005  0.724395  0.385529  1
  W  W10  1  0.254995  0.275605  0.614471  1
  W  W11  1  0.745005  0.275605  0.114471  1
  O  O12  1  0.042450  0.941296  0.896184  1
  O  O13  1  0.535889  0.846807  0.931374  1
  O  O14  1  0.957550  0.941296  0.396184  1
  O  O15  1  0.458066  0.792433  0.726134  1
  O  O16  1  0.464111  0.846807  0.431374  1
  O  O17  1  0.981739  0.713716  0.769998  1
  O  O18  1  0.541934  0.792433  0.226134  1
  O  O19  1  0.853517  0.635980  0.548956  1
  O  O20  1  0.357464  0.488696  0.886831  1
  O  O21  1  0.018261  0.713716  0.269998  1
  O  O22  1  0.357464  0.511304  0.613169  1
  O  O23  1  0.853517  0.364020  0.951044  1
  O  O24  1  0.146483  0.635980  0.048956  1
  O  O25  1  0.642536  0.488696  0.386831  1
  O  O26  1  0.981739  0.286284  0.730002  1
  O  O27  1  0.642536  0.511304  0.113169  1
  O  O28  1  0.146483  0.364020  0.451044  1
  O  O29  1  0.458066  0.207567  0.773866  1
  O  O30  1  0.018261  0.286284  0.230002  1
  O  O31  1  0.535889  0.153193  0.568626  1
  O  O32  1  0.541934  0.207567  0.273866  1
  O  O33  1  0.042450  0.058704  0.603816  1
  O  O34  1  0.464111  0.153193  0.068626  1
  O  O35  1  0.957550  0.058704  0.103816  1
