# generated using pymatgen
data_Cs4SnTe4
_symmetry_space_group_name_H-M   'P 1'
_cell_length_a   9.82922500
_cell_length_b   11.68573600
_cell_length_c   17.02804800
_cell_angle_alpha   90.00000000
_cell_angle_beta   90.00000000
_cell_angle_gamma   90.00000000
_symmetry_Int_Tables_number   1
_chemical_formula_structural   Cs4SnTe4
_chemical_formula_sum   'Cs16 Sn4 Te16'
_cell_volume   1955.87102515
_cell_formula_units_Z   4
loop_
 _symmetry_equiv_pos_site_id
 _symmetry_equiv_pos_as_xyz
  1  'x, y, z'
loop_
 _atom_site_type_symbol
 _atom_site_label
 _atom_site_symmetry_multiplicity
 _atom_site_fract_x
 _atom_site_fract_y
 _atom_site_fract_z
 _atom_site_occupancy
  Cs  Cs0  1  0.000000  0.000000  0.000000  1
  Cs  Cs1  1  0.500000  0.000000  0.500000  1
  Cs  Cs2  1  0.000000  0.500000  0.000000  1
  Cs  Cs3  1  0.500000  0.500000  0.500000  1
  Cs  Cs4  1  0.986970  0.750000  0.422076  1
  Cs  Cs5  1  0.486970  0.250000  0.077924  1
  Cs  Cs6  1  0.013030  0.250000  0.577924  1
  Cs  Cs7  1  0.513030  0.750000  0.922076  1
  Cs  Cs8  1  0.840440  0.048663  0.275080  1
  Cs  Cs9  1  0.340440  0.951337  0.224920  1
  Cs  Cs10  1  0.159560  0.548663  0.724920  1
  Cs  Cs11  1  0.659560  0.451337  0.775080  1
  Cs  Cs12  1  0.159560  0.951337  0.724920  1
  Cs  Cs13  1  0.659560  0.048663  0.775080  1
  Cs  Cs14  1  0.840440  0.451337  0.275080  1
  Cs  Cs15  1  0.340440  0.548663  0.224920  1
  Sn  Sn16  1  0.762409  0.750000  0.665242  1
  Sn  Sn17  1  0.237591  0.250000  0.334758  1
  Sn  Sn18  1  0.737591  0.750000  0.165242  1
  Sn  Sn19  1  0.262409  0.250000  0.834758  1
  Te  Te20  1  0.977467  0.250000  0.824883  1
  Te  Te21  1  0.522533  0.250000  0.324883  1
  Te  Te22  1  0.477467  0.750000  0.675117  1
  Te  Te23  1  0.022533  0.750000  0.175117  1
  Te  Te24  1  0.648450  0.554995  0.086011  1
  Te  Te25  1  0.148450  0.445005  0.413989  1
  Te  Te26  1  0.351550  0.054995  0.913989  1
  Te  Te27  1  0.851550  0.945005  0.586011  1
  Te  Te28  1  0.351550  0.445005  0.913989  1
  Te  Te29  1  0.851550  0.554995  0.586011  1
  Te  Te30  1  0.648450  0.945005  0.086011  1
  Te  Te31  1  0.148450  0.054995  0.413989  1
  Te  Te32  1  0.629909  0.750000  0.318520  1
  Te  Te33  1  0.129909  0.250000  0.181480  1
  Te  Te34  1  0.370091  0.250000  0.681480  1
  Te  Te35  1  0.870091  0.750000  0.818520  1
