# generated using pymatgen
data_Tm2ZnCoNi
_symmetry_space_group_name_H-M   'P 1'
_cell_length_a   5.23452823
_cell_length_b   5.23452790
_cell_length_c   5.23452789
_cell_angle_alpha   133.91356278
_cell_angle_beta   117.56194254
_cell_angle_gamma   81.00897936
_symmetry_Int_Tables_number   1
_chemical_formula_structural   Tm2ZnCoNi
_chemical_formula_sum   'Tm2 Zn1 Co1 Ni1'
_cell_volume   88.50105715
_cell_formula_units_Z   1
loop_
 _symmetry_equiv_pos_site_id
 _symmetry_equiv_pos_as_xyz
  1  'x, y, z'
loop_
 _atom_site_type_symbol
 _atom_site_label
 _atom_site_symmetry_multiplicity
 _atom_site_fract_x
 _atom_site_fract_y
 _atom_site_fract_z
 _atom_site_occupancy
  Tm  Tm0  1  0.702534  0.206081  0.496454  1
  Tm  Tm1  1  0.290373  0.793919  0.496454  1
  Zn  Zn2  1  0.003941  0.000000  0.003941  1
  Co  Co3  1  0.279216  0.500000  0.779216  1
  Ni  Ni4  1  0.723934  0.500000  0.223934  1
