# generated using pymatgen
data_Tb3Ho3TcIr
_symmetry_space_group_name_H-M   'P 1'
_cell_length_a   6.35013428
_cell_length_b   7.33497700
_cell_length_c   9.18719966
_cell_angle_alpha   90.00000000
_cell_angle_beta   90.37665505
_cell_angle_gamma   90.00000000
_symmetry_Int_Tables_number   1
_chemical_formula_structural   Tb3Ho3TcIr
_chemical_formula_sum   'Tb6 Ho6 Tc2 Ir2'
_cell_volume   427.91295608
_cell_formula_units_Z   2
loop_
 _symmetry_equiv_pos_site_id
 _symmetry_equiv_pos_as_xyz
  1  'x, y, z'
loop_
 _atom_site_type_symbol
 _atom_site_label
 _atom_site_symmetry_multiplicity
 _atom_site_fract_x
 _atom_site_fract_y
 _atom_site_fract_z
 _atom_site_occupancy
  Tb  Tb0  1  0.328220  0.677188  0.065848  1
  Tb  Tb1  1  0.171780  0.177188  0.434152  1
  Tb  Tb2  1  0.873281  0.537837  0.250076  1
  Tb  Tb3  1  0.626719  0.037837  0.249924  1
  Tb  Tb4  1  0.132965  0.460090  0.750291  1
  Tb  Tb5  1  0.367035  0.960090  0.749709  1
  Ho  Ho6  1  0.668778  0.323668  0.561234  1
  Ho  Ho7  1  0.831222  0.823668  0.938766  1
  Ho  Ho8  1  0.667898  0.323724  0.938360  1
  Ho  Ho9  1  0.832102  0.823724  0.561640  1
  Ho  Ho10  1  0.329855  0.676711  0.434640  1
  Ho  Ho11  1  0.170145  0.176711  0.065360  1
  Tc  Tc12  1  0.035238  0.886451  0.250259  1
  Tc  Tc13  1  0.464762  0.386451  0.249741  1
  Ir  Ir14  1  0.953054  0.114331  0.751442  1
  Ir  Ir15  1  0.546946  0.614331  0.748558  1
