# generated using pymatgen
data_Tb4Sm(CoB3)2
_symmetry_space_group_name_H-M   'P 1'
_cell_length_a   5.42233448
_cell_length_b   5.42233426
_cell_length_c   8.49448818
_cell_angle_alpha   71.38738893
_cell_angle_beta   71.38739201
_cell_angle_gamma   59.99999442
_symmetry_Int_Tables_number   1
_chemical_formula_structural   Tb4Sm(CoB3)2
_chemical_formula_sum   'Tb4 Sm1 Co2 B6'
_cell_volume   201.06731084
_cell_formula_units_Z   1
loop_
 _symmetry_equiv_pos_site_id
 _symmetry_equiv_pos_as_xyz
  1  'x, y, z'
loop_
 _atom_site_type_symbol
 _atom_site_label
 _atom_site_symmetry_multiplicity
 _atom_site_fract_x
 _atom_site_fract_y
 _atom_site_fract_z
 _atom_site_occupancy
  Tb  Tb0  1  0.250456  0.250456  0.248632  1
  Tb  Tb1  1  0.749544  0.749544  0.751368  1
  Tb  Tb2  1  0.417309  0.417309  0.748075  1
  Tb  Tb3  1  0.582691  0.582691  0.251925  1
  Sm  Sm4  1  0.000000  0.000000  0.000000  1
  Co  Co5  1  0.120378  0.120378  0.638863  1
  Co  Co6  1  0.879622  0.879622  0.361137  1
  B  B7  1  0.168111  0.831889  0.500000  1
  B  B8  1  0.831889  0.500000  0.500000  1
  B  B9  1  0.500000  0.168111  0.500000  1
  B  B10  1  0.168111  0.500000  0.500000  1
  B  B11  1  0.500000  0.831889  0.500000  1
  B  B12  1  0.831889  0.168111  0.500000  1
