# generated using pymatgen
data_LiNd2(Co3P2)3
_symmetry_space_group_name_H-M   'P 1'
_cell_length_a   3.71773000
_cell_length_b   10.40123800
_cell_length_c   11.92515700
_cell_angle_alpha   90.00000000
_cell_angle_beta   90.00000000
_cell_angle_gamma   90.00000000
_symmetry_Int_Tables_number   1
_chemical_formula_structural   LiNd2(Co3P2)3
_chemical_formula_sum   'Li2 Nd4 Co18 P12'
_cell_volume   461.13383104
_cell_formula_units_Z   2
loop_
 _symmetry_equiv_pos_site_id
 _symmetry_equiv_pos_as_xyz
  1  'x, y, z'
loop_
 _atom_site_type_symbol
 _atom_site_label
 _atom_site_symmetry_multiplicity
 _atom_site_fract_x
 _atom_site_fract_y
 _atom_site_fract_z
 _atom_site_occupancy
  Li  Li0  1  0.250000  0.700544  0.991233  1
  Li  Li1  1  0.250000  0.799456  0.491233  1
  Nd  Nd2  1  0.250000  0.580986  0.700172  1
  Nd  Nd3  1  0.250000  0.919014  0.200172  1
  Nd  Nd4  1  0.750000  0.418160  0.297846  1
  Nd  Nd5  1  0.750000  0.081840  0.797846  1
  Co  Co6  1  0.750000  0.291079  0.009789  1
  Co  Co7  1  0.750000  0.208921  0.509789  1
  Co  Co8  1  0.250000  0.401422  0.488734  1
  Co  Co9  1  0.250000  0.098578  0.988734  1
  Co  Co10  1  0.750000  0.588717  0.511234  1
  Co  Co11  1  0.750000  0.911283  0.011234  1
  Co  Co12  1  0.250000  0.222914  0.174140  1
  Co  Co13  1  0.250000  0.277086  0.674140  1
  Co  Co14  1  0.750000  0.780692  0.827163  1
  Co  Co15  1  0.750000  0.719308  0.327163  1
  Co  Co16  1  0.250000  0.882397  0.697508  1
  Co  Co17  1  0.250000  0.617603  0.197508  1
  Co  Co18  1  0.750000  0.120255  0.301543  1
  Co  Co19  1  0.750000  0.379745  0.801543  1
  Co  Co20  1  0.250000  0.465023  0.932090  1
  Co  Co21  1  0.250000  0.034977  0.432090  1
  Co  Co22  1  0.750000  0.531277  0.065470  1
  Co  Co23  1  0.750000  0.968723  0.565470  1
  P  P24  1  0.250000  0.420923  0.109693  1
  P  P25  1  0.250000  0.079077  0.609693  1
  P  P26  1  0.750000  0.577886  0.886088  1
  P  P27  1  0.750000  0.922114  0.386088  1
  P  P28  1  0.250000  0.273148  0.866933  1
  P  P29  1  0.250000  0.226852  0.366933  1
  P  P30  1  0.750000  0.722407  0.139820  1
  P  P31  1  0.750000  0.777593  0.639820  1
  P  P32  1  0.250000  0.603816  0.394897  1
  P  P33  1  0.250000  0.896184  0.894897  1
  P  P34  1  0.750000  0.391892  0.605649  1
  P  P35  1  0.750000  0.108108  0.105649  1
