# generated using pymatgen
data_Tb3Y(Si5Pt3)2
_symmetry_space_group_name_H-M   'P 1'
_cell_length_a   8.13416343
_cell_length_b   8.14256149
_cell_length_c   8.14256300
_cell_angle_alpha   136.35133118
_cell_angle_beta   104.39432632
_cell_angle_gamma   91.61054028
_symmetry_Int_Tables_number   1
_chemical_formula_structural   Tb3Y(Si5Pt3)2
_chemical_formula_sum   'Tb3 Y1 Si10 Pt6'
_cell_volume   342.67078342
_cell_formula_units_Z   1
loop_
 _symmetry_equiv_pos_site_id
 _symmetry_equiv_pos_as_xyz
  1  'x, y, z'
loop_
 _atom_site_type_symbol
 _atom_site_label
 _atom_site_symmetry_multiplicity
 _atom_site_fract_x
 _atom_site_fract_y
 _atom_site_fract_z
 _atom_site_occupancy
  Tb  Tb0  1  0.900207  0.129474  0.770733  1
  Tb  Tb1  1  0.641145  0.370539  0.270606  1
  Tb  Tb2  1  0.358910  0.629302  0.729608  1
  Y  Y3  1  0.099931  0.870879  0.229052  1
  Si  Si4  1  0.000012  0.749663  0.749437  1
  Si  Si5  1  0.000012  0.250575  0.250349  1
  Si  Si6  1  0.271532  0.021141  0.749889  1
  Si  Si7  1  0.728369  0.478327  0.749691  1
  Si  Si8  1  0.728369  0.978677  0.250040  1
  Si  Si9  1  0.271532  0.521644  0.250393  1
  Si  Si10  1  0.762897  0.612258  0.150639  1
  Si  Si11  1  0.236799  0.387487  0.849312  1
  Si  Si12  1  0.461428  0.112436  0.348992  1
  Si  Si13  1  0.538804  0.887604  0.651199  1
  Pt  Pt14  1  0.500009  0.750427  0.250652  1
  Pt  Pt15  1  0.500009  0.249358  0.749581  1
  Pt  Pt16  1  0.024140  0.637424  0.386716  1
  Pt  Pt17  1  0.975861  0.362897  0.612964  1
  Pt  Pt18  1  0.249896  0.137013  0.112883  1
  Pt  Pt19  1  0.750137  0.862873  0.887264  1
