# generated using pymatgen
data_Dy5Ho3(MoI4)2
_symmetry_space_group_name_H-M   'P 1'
_cell_length_a   11.40737788
_cell_length_b   11.43323217
_cell_length_c   5.97020800
_cell_angle_alpha   90.26452436
_cell_angle_beta   90.28976553
_cell_angle_gamma   89.93382134
_symmetry_Int_Tables_number   1
_chemical_formula_structural   Dy5Ho3(MoI4)2
_chemical_formula_sum   'Dy5 Ho3 Mo2 I8'
_cell_volume   778.63487603
_cell_formula_units_Z   1
loop_
 _symmetry_equiv_pos_site_id
 _symmetry_equiv_pos_as_xyz
  1  'x, y, z'
loop_
 _atom_site_type_symbol
 _atom_site_label
 _atom_site_symmetry_multiplicity
 _atom_site_fract_x
 _atom_site_fract_y
 _atom_site_fract_z
 _atom_site_occupancy
  Dy  Dy0  1  0.205485  0.915842  0.001797  1
  Dy  Dy1  1  0.794526  0.084491  0.997986  1
  Dy  Dy2  1  0.084422  0.794875  0.498270  1
  Dy  Dy3  1  0.915653  0.205284  0.501500  1
  Dy  Dy4  1  0.794663  0.915353  0.497069  1
  Ho  Ho5  1  0.203112  0.083756  0.502604  1
  Ho  Ho6  1  0.083867  0.202959  0.002556  1
  Ho  Ho7  1  0.916497  0.797044  0.997235  1
  Mo  Mo8  1  0.999612  0.000078  0.249992  1
  Mo  Mo9  1  0.999819  0.999817  0.749814  1
  I  I10  1  0.358245  0.851679  0.498678  1
  I  I11  1  0.641811  0.150278  0.501587  1
  I  I12  1  0.149243  0.642522  0.001485  1
  I  I13  1  0.851639  0.357821  0.998534  1
  I  I14  1  0.356764  0.150887  0.008786  1
  I  I15  1  0.642858  0.848755  0.991992  1
  I  I16  1  0.850358  0.642355  0.491270  1
  I  I17  1  0.151425  0.356203  0.508844  1
