# generated using pymatgen
data_Ba2NaB2Pt7
_symmetry_space_group_name_H-M   'P 1'
_cell_length_a   8.50129480
_cell_length_b   8.50129383
_cell_length_c   8.50129331
_cell_angle_alpha   38.86990837
_cell_angle_beta   38.86990458
_cell_angle_gamma   38.86990636
_symmetry_Int_Tables_number   1
_chemical_formula_structural   Ba2NaB2Pt7
_chemical_formula_sum   'Ba2 Na1 B2 Pt7'
_cell_volume   217.55230033
_cell_formula_units_Z   1
loop_
 _symmetry_equiv_pos_site_id
 _symmetry_equiv_pos_as_xyz
  1  'x, y, z'
loop_
 _atom_site_type_symbol
 _atom_site_label
 _atom_site_symmetry_multiplicity
 _atom_site_fract_x
 _atom_site_fract_y
 _atom_site_fract_z
 _atom_site_occupancy
  Ba  Ba0  1  0.362255  0.362255  0.362255  1
  Ba  Ba1  1  0.637745  0.637745  0.637745  1
  Na  Na2  1  0.500000  0.500000  0.500000  1
  B  B3  1  0.169182  0.169182  0.169182  1
  B  B4  1  0.830818  0.830818  0.830818  1
  Pt  Pt5  1  0.000000  0.000000  0.000000  1
  Pt  Pt6  1  0.566322  0.059559  0.059558  1
  Pt  Pt7  1  0.059559  0.566322  0.059558  1
  Pt  Pt8  1  0.940441  0.940441  0.433679  1
  Pt  Pt9  1  0.059559  0.059559  0.566321  1
  Pt  Pt10  1  0.940441  0.433678  0.940442  1
  Pt  Pt11  1  0.433678  0.940441  0.940442  1
