# generated using pymatgen
data_Be4NbTc
_symmetry_space_group_name_H-M   'P 1'
_cell_length_a   4.48659813
_cell_length_b   4.48659908
_cell_length_c   4.48659800
_cell_angle_alpha   60.00000799
_cell_angle_beta   60.00000099
_cell_angle_gamma   59.99999914
_symmetry_Int_Tables_number   1
_chemical_formula_structural   Be4NbTc
_chemical_formula_sum   'Be4 Nb1 Tc1'
_cell_volume   63.86113339
_cell_formula_units_Z   1
loop_
 _symmetry_equiv_pos_site_id
 _symmetry_equiv_pos_as_xyz
  1  'x, y, z'
loop_
 _atom_site_type_symbol
 _atom_site_label
 _atom_site_symmetry_multiplicity
 _atom_site_fract_x
 _atom_site_fract_y
 _atom_site_fract_z
 _atom_site_occupancy
  Be  Be0  1  0.625779  0.625779  0.122661  1
  Be  Be1  1  0.625779  0.122661  0.625779  1
  Be  Be2  1  0.122661  0.625779  0.625779  1
  Be  Be3  1  0.625779  0.625779  0.625779  1
  Nb  Nb4  1  0.250000  0.250000  0.250000  1
  Tc  Tc5  1  0.000000  0.000000  0.000000  1
