# generated using pymatgen
data_Rb2MgAs2O7
_symmetry_space_group_name_H-M   'P 1'
_cell_length_a   7.45534716
_cell_length_b   7.45534729
_cell_length_c   8.78310700
_cell_angle_alpha   79.04105316
_cell_angle_beta   79.04105307
_cell_angle_gamma   108.06863844
_symmetry_Int_Tables_number   1
_chemical_formula_structural   Rb2MgAs2O7
_chemical_formula_sum   'Rb4 Mg2 As4 O14'
_cell_volume   439.12311364
_cell_formula_units_Z   2
loop_
 _symmetry_equiv_pos_site_id
 _symmetry_equiv_pos_as_xyz
  1  'x, y, z'
loop_
 _atom_site_type_symbol
 _atom_site_label
 _atom_site_symmetry_multiplicity
 _atom_site_fract_x
 _atom_site_fract_y
 _atom_site_fract_z
 _atom_site_occupancy
  Rb  Rb0  1  0.183323  0.263098  0.026060  1
  Rb  Rb1  1  0.736902  0.816677  0.473940  1
  Rb  Rb2  1  0.816677  0.736902  0.973940  1
  Rb  Rb3  1  0.263098  0.183323  0.526060  1
  Mg  Mg4  1  0.255651  0.744349  0.250000  1
  Mg  Mg5  1  0.744349  0.255651  0.750000  1
  As  As6  1  0.394613  0.836360  0.865841  1
  As  As7  1  0.163640  0.605387  0.634159  1
  As  As8  1  0.605387  0.163640  0.134159  1
  As  As9  1  0.836360  0.394613  0.365841  1
  O  O10  1  0.342307  0.657693  0.750000  1
  O  O11  1  0.657693  0.342307  0.250000  1
  O  O12  1  0.637756  0.968943  0.773742  1
  O  O13  1  0.031057  0.362244  0.726258  1
  O  O14  1  0.362244  0.031057  0.226258  1
  O  O15  1  0.968943  0.637756  0.273742  1
  O  O16  1  0.371489  0.688898  0.049439  1
  O  O17  1  0.311102  0.628511  0.450561  1
  O  O18  1  0.628511  0.311102  0.950561  1
  O  O19  1  0.688898  0.371489  0.549439  1
  O  O20  1  0.246557  0.966149  0.864550  1
  O  O21  1  0.033851  0.753443  0.635450  1
  O  O22  1  0.753443  0.033851  0.135450  1
  O  O23  1  0.966149  0.246557  0.364550  1
