# generated using pymatgen
data_NdGa4(AgO4)3
_symmetry_space_group_name_H-M   'P 1'
_cell_length_a   6.59959233
_cell_length_b   6.59959266
_cell_length_c   6.59959300
_cell_angle_alpha   109.47122780
_cell_angle_beta   109.47122884
_cell_angle_gamma   109.47120704
_symmetry_Int_Tables_number   1
_chemical_formula_structural   NdGa4(AgO4)3
_chemical_formula_sum   'Nd1 Ga4 Ag3 O12'
_cell_volume   221.27354457
_cell_formula_units_Z   1
loop_
 _symmetry_equiv_pos_site_id
 _symmetry_equiv_pos_as_xyz
  1  'x, y, z'
loop_
 _atom_site_type_symbol
 _atom_site_label
 _atom_site_symmetry_multiplicity
 _atom_site_fract_x
 _atom_site_fract_y
 _atom_site_fract_z
 _atom_site_occupancy
  Nd  Nd0  1  0.000000  0.000000  0.000000  1
  Ga  Ga1  1  0.000000  0.000000  0.500000  1
  Ga  Ga2  1  0.000000  0.500000  0.000000  1
  Ga  Ga3  1  0.500000  0.000000  0.000000  1
  Ga  Ga4  1  0.500000  0.500000  0.500000  1
  Ag  Ag5  1  0.000000  0.500000  0.500000  1
  Ag  Ag6  1  0.500000  0.000000  0.500000  1
  Ag  Ag7  1  0.500000  0.500000  0.000000  1
  O  O8  1  0.296277  0.118713  0.822435  1
  O  O9  1  0.703723  0.881287  0.177565  1
  O  O10  1  0.703723  0.526158  0.822435  1
  O  O11  1  0.473842  0.177565  0.296277  1
  O  O12  1  0.177565  0.296277  0.473842  1
  O  O13  1  0.822435  0.296277  0.118713  1
  O  O14  1  0.881287  0.177565  0.703723  1
  O  O15  1  0.822435  0.703723  0.526158  1
  O  O16  1  0.296277  0.473842  0.177565  1
  O  O17  1  0.526158  0.822435  0.703723  1
  O  O18  1  0.177565  0.703723  0.881287  1
  O  O19  1  0.118713  0.822435  0.296277  1
