# generated using pymatgen
data_Tm3Al9Si3Os4
_symmetry_space_group_name_H-M   'P 1'
_cell_length_a   8.67219800
_cell_length_b   8.65012654
_cell_length_c   9.50149000
_cell_angle_alpha   90.00000000
_cell_angle_beta   90.00000000
_cell_angle_gamma   120.08444143
_symmetry_Int_Tables_number   1
_chemical_formula_structural   Tm3Al9Si3Os4
_chemical_formula_sum   'Tm6 Al18 Si6 Os8'
_cell_volume   616.74243026
_cell_formula_units_Z   2
loop_
 _symmetry_equiv_pos_site_id
 _symmetry_equiv_pos_as_xyz
  1  'x, y, z'
loop_
 _atom_site_type_symbol
 _atom_site_label
 _atom_site_symmetry_multiplicity
 _atom_site_fract_x
 _atom_site_fract_y
 _atom_site_fract_z
 _atom_site_occupancy
  Tm  Tm0  1  0.194467  0.388935  0.250000  1
  Tm  Tm1  1  0.805533  0.611065  0.750000  1
  Tm  Tm2  1  0.608130  0.806677  0.250000  1
  Tm  Tm3  1  0.391870  0.193323  0.750000  1
  Tm  Tm4  1  0.198548  0.806677  0.250000  1
  Tm  Tm5  1  0.801452  0.193323  0.750000  1
  Al  Al6  1  0.164622  0.329245  0.579456  1
  Al  Al7  1  0.835378  0.670755  0.420544  1
  Al  Al8  1  0.671067  0.834862  0.577991  1
  Al  Al9  1  0.835378  0.670755  0.079456  1
  Al  Al10  1  0.328933  0.165138  0.422009  1
  Al  Al11  1  0.164622  0.329245  0.920544  1
  Al  Al12  1  0.163795  0.834862  0.577991  1
  Al  Al13  1  0.328933  0.165138  0.077991  1
  Al  Al14  1  0.836205  0.165138  0.422009  1
  Al  Al15  1  0.671067  0.834862  0.922009  1
  Al  Al16  1  0.836205  0.165138  0.077991  1
  Al  Al17  1  0.163795  0.834862  0.922009  1
  Al  Al18  1  0.873031  0.433663  0.250000  1
  Al  Al19  1  0.126969  0.566337  0.750000  1
  Al  Al20  1  0.560632  0.433663  0.250000  1
  Al  Al21  1  0.439368  0.566337  0.750000  1
  Al  Al22  1  0.999694  0.999388  0.250000  1
  Al  Al23  1  0.000306  0.000612  0.750000  1
  Si  Si24  1  0.332101  0.664202  0.039895  1
  Si  Si25  1  0.667899  0.335798  0.960105  1
  Si  Si26  1  0.667899  0.335798  0.539895  1
  Si  Si27  1  0.332101  0.664202  0.460105  1
  Si  Si28  1  0.563165  0.126330  0.250000  1
  Si  Si29  1  0.436835  0.873670  0.750000  1
  Os  Os30  1  0.500000  0.000000  0.000000  1
  Os  Os31  1  0.000000  0.500000  0.000000  1
  Os  Os32  1  0.500000  0.000000  0.500000  1
  Os  Os33  1  0.500000  0.500000  0.000000  1
  Os  Os34  1  0.000000  0.500000  0.500000  1
  Os  Os35  1  0.500000  0.500000  0.500000  1
  Os  Os36  1  0.000000  0.000000  0.000000  1
  Os  Os37  1  0.000000  0.000000  0.500000  1
