# generated using pymatgen
data_Lu5TlBi2S
_symmetry_space_group_name_H-M   'P 1'
_cell_length_a   9.01040100
_cell_length_b   9.01040058
_cell_length_c   6.47783500
_cell_angle_alpha   90.00000000
_cell_angle_beta   90.00000000
_cell_angle_gamma   120.11171190
_symmetry_Int_Tables_number   1
_chemical_formula_structural   Lu5TlBi2S
_chemical_formula_sum   'Lu10 Tl2 Bi4 S2'
_cell_volume   454.94484892
_cell_formula_units_Z   2
loop_
 _symmetry_equiv_pos_site_id
 _symmetry_equiv_pos_as_xyz
  1  'x, y, z'
loop_
 _atom_site_type_symbol
 _atom_site_label
 _atom_site_symmetry_multiplicity
 _atom_site_fract_x
 _atom_site_fract_y
 _atom_site_fract_z
 _atom_site_occupancy
  Lu  Lu0  1  0.755948  0.755948  0.750000  1
  Lu  Lu1  1  0.244077  0.999662  0.750000  1
  Lu  Lu2  1  0.999662  0.244077  0.750000  1
  Lu  Lu3  1  0.242306  0.242306  0.250000  1
  Lu  Lu4  1  0.756297  0.007539  0.250000  1
  Lu  Lu5  1  0.007539  0.756297  0.250000  1
  Lu  Lu6  1  0.668733  0.330012  0.003358  1
  Lu  Lu7  1  0.330012  0.668733  0.003358  1
  Lu  Lu8  1  0.330012  0.668733  0.496642  1
  Lu  Lu9  1  0.668733  0.330012  0.496642  1
  Tl  Tl10  1  0.395466  0.001065  0.250000  1
  Tl  Tl11  1  0.001065  0.395466  0.250000  1
  Bi  Bi12  1  0.396469  0.396469  0.750000  1
  Bi  Bi13  1  0.601691  0.998616  0.750000  1
  Bi  Bi14  1  0.998616  0.601691  0.750000  1
  Bi  Bi15  1  0.607420  0.607420  0.250000  1
  S  S16  1  0.997976  0.997976  0.999036  1
  S  S17  1  0.997976  0.997976  0.500964  1
