# generated using pymatgen
data_Sc3B4Mo3Ru10
_symmetry_space_group_name_H-M   'P 1'
_cell_length_a   9.44126472
_cell_length_b   9.44126468
_cell_length_c   3.03252200
_cell_angle_alpha   90.00000000
_cell_angle_beta   90.00000000
_cell_angle_gamma   90.18991259
_symmetry_Int_Tables_number   1
_chemical_formula_structural   Sc3B4Mo3Ru10
_chemical_formula_sum   'Sc3 B4 Mo3 Ru10'
_cell_volume   270.30988160
_cell_formula_units_Z   1
loop_
 _symmetry_equiv_pos_site_id
 _symmetry_equiv_pos_as_xyz
  1  'x, y, z'
loop_
 _atom_site_type_symbol
 _atom_site_label
 _atom_site_symmetry_multiplicity
 _atom_site_fract_x
 _atom_site_fract_y
 _atom_site_fract_z
 _atom_site_occupancy
  Sc  Sc0  1  0.176035  0.823965  0.000000  1
  Sc  Sc1  1  0.324385  0.326202  0.000000  1
  Sc  Sc2  1  0.673798  0.675615  0.000000  1
  B  B3  1  0.620939  0.379061  0.000000  1
  B  B4  1  0.380219  0.619781  0.000000  1
  B  B5  1  0.122508  0.122060  0.000000  1
  B  B6  1  0.877940  0.877492  0.000000  1
  Mo  Mo7  1  0.495284  0.997322  0.000000  1
  Mo  Mo8  1  0.002678  0.504716  0.000000  1
  Mo  Mo9  1  0.823932  0.176068  0.000000  1
  Ru  Ru10  1  0.502242  0.497758  0.500000  1
  Ru  Ru11  1  0.994283  0.005717  0.500000  1
  Ru  Ru12  1  0.580597  0.212439  0.500000  1
  Ru  Ru13  1  0.431285  0.783233  0.500000  1
  Ru  Ru14  1  0.061197  0.282001  0.500000  1
  Ru  Ru15  1  0.927369  0.717017  0.500000  1
  Ru  Ru16  1  0.282983  0.072631  0.500000  1
  Ru  Ru17  1  0.717999  0.938803  0.500000  1
  Ru  Ru18  1  0.216767  0.568715  0.500000  1
  Ru  Ru19  1  0.787561  0.419403  0.500000  1
