# generated using pymatgen
data_Rb3Lu(BrO3)6
_symmetry_space_group_name_H-M   'P 1'
_cell_length_a   7.27135943
_cell_length_b   7.15029152
_cell_length_c   10.79393600
_cell_angle_alpha   87.32926265
_cell_angle_beta   108.11190478
_cell_angle_gamma   106.13559255
_symmetry_Int_Tables_number   1
_chemical_formula_structural   Rb3Lu(BrO3)6
_chemical_formula_sum   'Rb3 Lu1 Br6 O18'
_cell_volume   511.89584291
_cell_formula_units_Z   1
loop_
 _symmetry_equiv_pos_site_id
 _symmetry_equiv_pos_as_xyz
  1  'x, y, z'
loop_
 _atom_site_type_symbol
 _atom_site_label
 _atom_site_symmetry_multiplicity
 _atom_site_fract_x
 _atom_site_fract_y
 _atom_site_fract_z
 _atom_site_occupancy
  Rb  Rb0  1  0.000000  0.000000  0.000000  1
  Rb  Rb1  1  0.829315  0.033026  0.601541  1
  Rb  Rb2  1  0.170685  0.966974  0.398459  1
  Lu  Lu3  1  0.500000  0.500000  0.000000  1
  Br  Br4  1  0.001430  0.468045  0.188397  1
  Br  Br5  1  0.998570  0.531955  0.811603  1
  Br  Br6  1  0.555014  0.937478  0.190823  1
  Br  Br7  1  0.444986  0.062522  0.809177  1
  Br  Br8  1  0.447633  0.579366  0.648314  1
  Br  Br9  1  0.552367  0.420634  0.351686  1
  O  O10  1  0.829957  0.538979  0.055392  1
  O  O11  1  0.170043  0.461021  0.944608  1
  O  O12  1  0.957456  0.548613  0.315843  1
  O  O13  1  0.042544  0.451387  0.684157  1
  O  O14  1  0.918557  0.224182  0.182488  1
  O  O15  1  0.081443  0.775818  0.817512  1
  O  O16  1  0.572804  0.812038  0.063051  1
  O  O17  1  0.427196  0.187962  0.936949  1
  O  O18  1  0.313828  0.851526  0.186424  1
  O  O19  1  0.686172  0.148474  0.813576  1
  O  O20  1  0.690648  0.848128  0.322901  1
  O  O21  1  0.309352  0.151872  0.677099  1
  O  O22  1  0.527554  0.612633  0.816195  1
  O  O23  1  0.472446  0.387367  0.183805  1
  O  O24  1  0.662954  0.583910  0.621369  1
  O  O25  1  0.337046  0.416090  0.378631  1
  O  O26  1  0.410012  0.795370  0.602265  1
  O  O27  1  0.589988  0.204630  0.397735  1
