# generated using pymatgen
data_Y3Al2Si2AgAu
_symmetry_space_group_name_H-M   'P 1'
_cell_length_a   4.30757200
_cell_length_b   7.06718114
_cell_length_c   6.94053416
_cell_angle_alpha   120.60548518
_cell_angle_beta   90.00000000
_cell_angle_gamma   90.00000000
_symmetry_Int_Tables_number   1
_chemical_formula_structural   Y3Al2Si2AgAu
_chemical_formula_sum   'Y3 Al2 Si2 Ag1 Au1'
_cell_volume   181.85283751
_cell_formula_units_Z   1
loop_
 _symmetry_equiv_pos_site_id
 _symmetry_equiv_pos_as_xyz
  1  'x, y, z'
loop_
 _atom_site_type_symbol
 _atom_site_label
 _atom_site_symmetry_multiplicity
 _atom_site_fract_x
 _atom_site_fract_y
 _atom_site_fract_z
 _atom_site_occupancy
  Y  Y0  1  0.000000  0.427890  0.000000  1
  Y  Y1  1  0.000000  0.580261  0.582890  1
  Y  Y2  1  0.000000  0.997371  0.417110  1
  Al  Al3  1  0.500000  0.241279  0.238108  1
  Al  Al4  1  0.500000  0.003169  0.761892  1
  Si  Si5  1  0.500000  0.664503  0.341786  1
  Si  Si6  1  0.500000  0.322716  0.658214  1
  Ag  Ag7  1  0.500000  0.741737  0.000000  1
  Au  Au8  1  0.000000  0.021172  0.000000  1
