# generated using pymatgen
data_TbYb(MgRh)2
_symmetry_space_group_name_H-M   'P 1'
_cell_length_a   4.13238300
_cell_length_b   7.10078467
_cell_length_c   8.51290300
_cell_angle_alpha   89.90067941
_cell_angle_beta   90.00000000
_cell_angle_gamma   90.00000000
_symmetry_Int_Tables_number   1
_chemical_formula_structural   TbYb(MgRh)2
_chemical_formula_sum   'Tb2 Yb2 Mg4 Rh4'
_cell_volume   249.79511525
_cell_formula_units_Z   2
loop_
 _symmetry_equiv_pos_site_id
 _symmetry_equiv_pos_as_xyz
  1  'x, y, z'
loop_
 _atom_site_type_symbol
 _atom_site_label
 _atom_site_symmetry_multiplicity
 _atom_site_fract_x
 _atom_site_fract_y
 _atom_site_fract_z
 _atom_site_occupancy
  Tb  Tb0  1  0.250000  0.536815  0.175213  1
  Tb  Tb1  1  0.750000  0.463185  0.824787  1
  Yb  Yb2  1  0.750000  0.965639  0.673773  1
  Yb  Yb3  1  0.250000  0.034361  0.326227  1
  Mg  Mg4  1  0.250000  0.638015  0.556678  1
  Mg  Mg5  1  0.750000  0.361985  0.443322  1
  Mg  Mg6  1  0.750000  0.864008  0.058944  1
  Mg  Mg7  1  0.250000  0.135992  0.941056  1
  Rh  Rh8  1  0.250000  0.749165  0.872928  1
  Rh  Rh9  1  0.750000  0.250835  0.127072  1
  Rh  Rh10  1  0.750000  0.738315  0.364336  1
  Rh  Rh11  1  0.250000  0.261685  0.635664  1
