# generated using pymatgen
data_K9O2
_symmetry_space_group_name_H-M   'P 1'
_cell_length_a   13.50849600
_cell_length_b   7.86380513
_cell_length_c   11.14751274
_cell_angle_alpha   74.95945283
_cell_angle_beta   90.00000000
_cell_angle_gamma   90.00000000
_symmetry_Int_Tables_number   1
_chemical_formula_structural   K9O2
_chemical_formula_sum   'K18 O4'
_cell_volume   1143.61285518
_cell_formula_units_Z   2
loop_
 _symmetry_equiv_pos_site_id
 _symmetry_equiv_pos_as_xyz
  1  'x, y, z'
loop_
 _atom_site_type_symbol
 _atom_site_label
 _atom_site_symmetry_multiplicity
 _atom_site_fract_x
 _atom_site_fract_y
 _atom_site_fract_z
 _atom_site_occupancy
  K  K0  1  0.890442  0.278150  0.458695  1
  K  K1  1  0.390442  0.721850  0.541305  1
  K  K2  1  0.109558  0.721850  0.541305  1
  K  K3  1  0.609558  0.278150  0.458695  1
  K  K4  1  0.875560  0.057859  0.184916  1
  K  K5  1  0.375560  0.942141  0.815084  1
  K  K6  1  0.124440  0.942141  0.815084  1
  K  K7  1  0.624440  0.057859  0.184916  1
  K  K8  1  0.750000  0.967814  0.892202  1
  K  K9  1  0.250000  0.032186  0.107798  1
  K  K10  1  0.750000  0.844647  0.498805  1
  K  K11  1  0.250000  0.155353  0.501195  1
  K  K12  1  0.750000  0.440571  0.153962  1
  K  K13  1  0.250000  0.559429  0.846038  1
  K  K14  1  0.608844  0.390816  0.861787  1
  K  K15  1  0.108844  0.609184  0.138213  1
  K  K16  1  0.391156  0.609184  0.138213  1
  K  K17  1  0.891156  0.390816  0.861787  1
  O  O18  1  0.250000  0.843423  0.655291  1
  O  O19  1  0.750000  0.156577  0.344709  1
  O  O20  1  0.250000  0.777803  0.999425  1
  O  O21  1  0.750000  0.222197  0.000575  1
