# generated using pymatgen
data_SiOs2Cl13
_symmetry_space_group_name_H-M   'P 1'
_cell_length_a   9.88608861
_cell_length_b   11.19639200
_cell_length_c   10.42983000
_cell_angle_alpha   90.00000000
_cell_angle_beta   96.55259261
_cell_angle_gamma   90.00000000
_symmetry_Int_Tables_number   1
_chemical_formula_structural   SiOs2Cl13
_chemical_formula_sum   'Si2 Os4 Cl26'
_cell_volume   1146.92098669
_cell_formula_units_Z   2
loop_
 _symmetry_equiv_pos_site_id
 _symmetry_equiv_pos_as_xyz
  1  'x, y, z'
loop_
 _atom_site_type_symbol
 _atom_site_label
 _atom_site_symmetry_multiplicity
 _atom_site_fract_x
 _atom_site_fract_y
 _atom_site_fract_z
 _atom_site_occupancy
  Si  Si0  1  0.258965  0.750000  0.499602  1
  Si  Si1  1  0.741036  0.250000  0.500398  1
  Os  Os2  1  0.176302  0.250000  0.084582  1
  Os  Os3  1  0.684717  0.750000  0.121483  1
  Os  Os4  1  0.315283  0.250000  0.878517  1
  Os  Os5  1  0.823698  0.750000  0.915418  1
  Cl  Cl6  1  0.945318  0.250000  0.060731  1
  Cl  Cl7  1  0.832212  0.588451  0.070239  1
  Cl  Cl8  1  0.832212  0.911550  0.070239  1
  Cl  Cl9  1  0.422182  0.250000  0.099216  1
  Cl  Cl10  1  0.536763  0.605798  0.169595  1
  Cl  Cl11  1  0.536763  0.894202  0.169595  1
  Cl  Cl12  1  0.187001  0.105663  0.238957  1
  Cl  Cl13  1  0.187001  0.394337  0.238957  1
  Cl  Cl14  1  0.201766  0.750000  0.306113  1
  Cl  Cl15  1  0.795042  0.750000  0.323995  1
  Cl  Cl16  1  0.816057  0.101436  0.420922  1
  Cl  Cl17  1  0.816057  0.398564  0.420922  1
  Cl  Cl18  1  0.534370  0.250000  0.464860  1
  Cl  Cl19  1  0.465631  0.750000  0.535140  1
  Cl  Cl20  1  0.183944  0.601436  0.579078  1
  Cl  Cl21  1  0.183944  0.898564  0.579078  1
  Cl  Cl22  1  0.204958  0.250000  0.676005  1
  Cl  Cl23  1  0.798234  0.250000  0.693887  1
  Cl  Cl24  1  0.813000  0.605662  0.761043  1
  Cl  Cl25  1  0.813000  0.894338  0.761043  1
  Cl  Cl26  1  0.463236  0.105798  0.830405  1
  Cl  Cl27  1  0.463236  0.394202  0.830405  1
  Cl  Cl28  1  0.577817  0.750000  0.900784  1
  Cl  Cl29  1  0.167788  0.088451  0.929761  1
  Cl  Cl30  1  0.167788  0.411549  0.929761  1
  Cl  Cl31  1  0.054682  0.750000  0.939270  1
