# generated using pymatgen
data_Tb15Dy(LuSn4)4
_symmetry_space_group_name_H-M   'P 1'
_cell_length_a   8.01403701
_cell_length_b   8.17156243
_cell_length_c   15.48488222
_cell_angle_alpha   90.01833201
_cell_angle_beta   89.94570438
_cell_angle_gamma   90.03010894
_symmetry_Int_Tables_number   1
_chemical_formula_structural   Tb15Dy(LuSn4)4
_chemical_formula_sum   'Tb15 Dy1 Lu4 Sn16'
_cell_volume   1014.06098950
_cell_formula_units_Z   1
loop_
 _symmetry_equiv_pos_site_id
 _symmetry_equiv_pos_as_xyz
  1  'x, y, z'
loop_
 _atom_site_type_symbol
 _atom_site_label
 _atom_site_symmetry_multiplicity
 _atom_site_fract_x
 _atom_site_fract_y
 _atom_site_fract_z
 _atom_site_occupancy
  Tb  Tb0  1  0.865289  0.662411  0.623132  1
  Tb  Tb1  1  0.634461  0.162160  0.377580  1
  Tb  Tb2  1  0.135560  0.337542  0.121027  1
  Tb  Tb3  1  0.634365  0.162890  0.122683  1
  Tb  Tb4  1  0.134161  0.337332  0.377643  1
  Tb  Tb5  1  0.365931  0.837623  0.622808  1
  Tb  Tb6  1  0.865950  0.662201  0.878085  1
  Tb  Tb7  1  0.518808  0.320287  0.903481  1
  Tb  Tb8  1  0.019808  0.178998  0.597406  1
  Tb  Tb9  1  0.480937  0.679658  0.403649  1
  Tb  Tb10  1  0.980225  0.820467  0.096496  1
  Tb  Tb11  1  0.481492  0.680310  0.095297  1
  Tb  Tb12  1  0.980983  0.820618  0.403293  1
  Tb  Tb13  1  0.519190  0.320818  0.597401  1
  Tb  Tb14  1  0.018703  0.178545  0.903064  1
  Dy  Dy15  1  0.364637  0.838446  0.876151  1
  Lu  Lu16  1  0.197260  0.503219  0.750627  1
  Lu  Lu17  1  0.696632  0.996515  0.750420  1
  Lu  Lu18  1  0.803602  0.496725  0.250057  1
  Lu  Lu19  1  0.303299  0.002912  0.249496  1
  Sn  Sn20  1  0.295067  0.035508  0.040964  1
  Sn  Sn21  1  0.794132  0.463578  0.457647  1
  Sn  Sn22  1  0.706352  0.963673  0.542858  1
  Sn  Sn23  1  0.207499  0.539208  0.956668  1
  Sn  Sn24  1  0.701780  0.962685  0.957209  1
  Sn  Sn25  1  0.205659  0.536235  0.543177  1
  Sn  Sn26  1  0.293948  0.036228  0.457279  1
  Sn  Sn27  1  0.794163  0.463445  0.042877  1
  Sn  Sn28  1  0.561704  0.618266  0.750808  1
  Sn  Sn29  1  0.062276  0.882218  0.750774  1
  Sn  Sn30  1  0.437845  0.383309  0.250110  1
  Sn  Sn31  1  0.938379  0.117181  0.249355  1
  Sn  Sn32  1  0.328647  0.149569  0.750461  1
  Sn  Sn33  1  0.828207  0.349969  0.750492  1
  Sn  Sn34  1  0.671495  0.849761  0.249856  1
  Sn  Sn35  1  0.171555  0.649488  0.249667  1
