# generated using pymatgen
data_Ho8Si(Pd5Pt)4
_symmetry_space_group_name_H-M   'P 1'
_cell_length_a   8.31972700
_cell_length_b   8.31726300
_cell_length_c   8.31726300
_cell_angle_alpha   90.00000000
_cell_angle_beta   90.00000000
_cell_angle_gamma   90.00000000
_symmetry_Int_Tables_number   1
_chemical_formula_structural   Ho8Si(Pd5Pt)4
_chemical_formula_sum   'Ho8 Si1 Pd20 Pt4'
_cell_volume   575.53262163
_cell_formula_units_Z   1
loop_
 _symmetry_equiv_pos_site_id
 _symmetry_equiv_pos_as_xyz
  1  'x, y, z'
loop_
 _atom_site_type_symbol
 _atom_site_label
 _atom_site_symmetry_multiplicity
 _atom_site_fract_x
 _atom_site_fract_y
 _atom_site_fract_z
 _atom_site_occupancy
  Ho  Ho0  1  0.253615  0.253863  0.253863  1
  Ho  Ho1  1  0.746385  0.746137  0.746137  1
  Ho  Ho2  1  0.746385  0.746137  0.253863  1
  Ho  Ho3  1  0.746385  0.253863  0.746137  1
  Ho  Ho4  1  0.253615  0.253863  0.746137  1
  Ho  Ho5  1  0.253615  0.746137  0.253863  1
  Ho  Ho6  1  0.253615  0.746137  0.746137  1
  Ho  Ho7  1  0.746385  0.253863  0.253863  1
  Si  Si8  1  0.000000  0.000000  0.000000  1
  Pd  Pd9  1  0.257544  0.500000  0.000000  1
  Pd  Pd10  1  0.742456  0.500000  0.000000  1
  Pd  Pd11  1  0.000000  0.257688  0.500000  1
  Pd  Pd12  1  0.500000  0.257623  0.000000  1
  Pd  Pd13  1  0.000000  0.742312  0.500000  1
  Pd  Pd14  1  0.500000  0.742377  0.000000  1
  Pd  Pd15  1  0.500000  0.000000  0.257623  1
  Pd  Pd16  1  0.257544  0.000000  0.500000  1
  Pd  Pd17  1  0.500000  0.000000  0.742377  1
  Pd  Pd18  1  0.742456  0.000000  0.500000  1
  Pd  Pd19  1  0.000000  0.500000  0.257688  1
  Pd  Pd20  1  0.000000  0.500000  0.742312  1
  Pd  Pd21  1  0.500000  0.252465  0.500000  1
  Pd  Pd22  1  0.500000  0.747535  0.500000  1
  Pd  Pd23  1  0.500000  0.500000  0.252465  1
  Pd  Pd24  1  0.500000  0.500000  0.747535  1
  Pd  Pd25  1  0.000000  0.280897  0.000000  1
  Pd  Pd26  1  0.000000  0.719103  0.000000  1
  Pd  Pd27  1  0.000000  0.000000  0.280897  1
  Pd  Pd28  1  0.000000  0.000000  0.719103  1
  Pt  Pt29  1  0.252209  0.500000  0.500000  1
  Pt  Pt30  1  0.747791  0.500000  0.500000  1
  Pt  Pt31  1  0.279729  0.000000  0.000000  1
  Pt  Pt32  1  0.720271  0.000000  0.000000  1
