# generated using pymatgen
data_DyY8HoIr4
_symmetry_space_group_name_H-M   'P 1'
_cell_length_a   6.51398478
_cell_length_b   7.23784375
_cell_length_c   8.55977434
_cell_angle_alpha   96.61165832
_cell_angle_beta   112.36465138
_cell_angle_gamma   89.99999876
_symmetry_Int_Tables_number   1
_chemical_formula_structural   DyY8HoIr4
_chemical_formula_sum   'Dy1 Y8 Ho1 Ir4'
_cell_volume   370.30937122
_cell_formula_units_Z   1
loop_
 _symmetry_equiv_pos_site_id
 _symmetry_equiv_pos_as_xyz
  1  'x, y, z'
loop_
 _atom_site_type_symbol
 _atom_site_label
 _atom_site_symmetry_multiplicity
 _atom_site_fract_x
 _atom_site_fract_y
 _atom_site_fract_z
 _atom_site_occupancy
  Dy  Dy0  1  0.427732  0.750000  0.000000  1
  Y  Y1  1  0.971790  0.917853  0.182295  1
  Y  Y2  1  0.789497  0.582147  0.817705  1
  Y  Y3  1  0.027920  0.082583  0.817778  1
  Y  Y4  1  0.210141  0.417417  0.182222  1
  Y  Y5  1  0.653993  0.817274  0.441298  1
  Y  Y6  1  0.212694  0.682726  0.558702  1
  Y  Y7  1  0.346556  0.182877  0.559070  1
  Y  Y8  1  0.787487  0.317123  0.440930  1
  Ho  Ho9  1  0.571664  0.250000  0.000000  1
  Ir  Ir10  1  0.824446  0.572644  0.218836  1
  Ir  Ir11  1  0.605612  0.927356  0.781164  1
  Ir  Ir12  1  0.175791  0.426866  0.781112  1
  Ir  Ir13  1  0.394678  0.073134  0.218888  1
