# generated using pymatgen
data_Ho3Er5In3Ir
_symmetry_space_group_name_H-M   'P 1'
_cell_length_a   10.35582600
_cell_length_b   10.35582516
_cell_length_c   7.03026800
_cell_angle_alpha   90.00000000
_cell_angle_beta   90.00000000
_cell_angle_gamma   119.99999630
_symmetry_Int_Tables_number   1
_chemical_formula_structural   Ho3Er5In3Ir
_chemical_formula_sum   'Ho6 Er10 In6 Ir2'
_cell_volume   652.93805797
_cell_formula_units_Z   2
loop_
 _symmetry_equiv_pos_site_id
 _symmetry_equiv_pos_as_xyz
  1  'x, y, z'
loop_
 _atom_site_type_symbol
 _atom_site_label
 _atom_site_symmetry_multiplicity
 _atom_site_fract_x
 _atom_site_fract_y
 _atom_site_fract_z
 _atom_site_occupancy
  Ho  Ho0  1  0.533294  0.066589  0.792894  1
  Ho  Ho1  1  0.933411  0.466706  0.792894  1
  Ho  Ho2  1  0.533294  0.466706  0.792894  1
  Ho  Ho3  1  0.466706  0.933411  0.292894  1
  Ho  Ho4  1  0.066589  0.533294  0.292894  1
  Ho  Ho5  1  0.466706  0.533294  0.292894  1
  Er  Er6  1  0.823337  0.646675  0.499197  1
  Er  Er7  1  0.353325  0.176663  0.499197  1
  Er  Er8  1  0.823337  0.176663  0.499197  1
  Er  Er9  1  0.176663  0.353325  0.999197  1
  Er  Er10  1  0.646675  0.823337  0.999197  1
  Er  Er11  1  0.176663  0.823337  0.999197  1
  Er  Er12  1  0.666667  0.333333  0.175503  1
  Er  Er13  1  0.333333  0.666667  0.675503  1
  Er  Er14  1  0.000000  0.000000  0.778828  1
  Er  Er15  1  0.000000  0.000000  0.278828  1
  In  In16  1  0.837277  0.674553  0.039290  1
  In  In17  1  0.325447  0.162723  0.039290  1
  In  In18  1  0.837277  0.162723  0.039290  1
  In  In19  1  0.162723  0.325447  0.539290  1
  In  In20  1  0.674553  0.837277  0.539290  1
  In  In21  1  0.162723  0.837277  0.539290  1
  Ir  Ir22  1  0.666667  0.333333  0.569480  1
  Ir  Ir23  1  0.333333  0.666667  0.069480  1
