# generated using pymatgen
data_Er7Tm5(TcIr)2
_symmetry_space_group_name_H-M   'P 1'
_cell_length_a   6.25545195
_cell_length_b   7.32125254
_cell_length_c   9.01844872
_cell_angle_alpha   90.00158996
_cell_angle_beta   90.04562778
_cell_angle_gamma   90.04394670
_symmetry_Int_Tables_number   1
_chemical_formula_structural   Er7Tm5(TcIr)2
_chemical_formula_sum   'Er7 Tm5 Tc2 Ir2'
_cell_volume   413.02434857
_cell_formula_units_Z   1
loop_
 _symmetry_equiv_pos_site_id
 _symmetry_equiv_pos_as_xyz
  1  'x, y, z'
loop_
 _atom_site_type_symbol
 _atom_site_label
 _atom_site_symmetry_multiplicity
 _atom_site_fract_x
 _atom_site_fract_y
 _atom_site_fract_z
 _atom_site_occupancy
  Er  Er0  1  0.332536  0.676090  0.065314  1
  Er  Er1  1  0.167438  0.176137  0.434536  1
  Er  Er2  1  0.665611  0.323812  0.560535  1
  Er  Er3  1  0.874031  0.539718  0.249836  1
  Er  Er4  1  0.626141  0.039245  0.249754  1
  Er  Er5  1  0.132603  0.459774  0.750219  1
  Er  Er6  1  0.367512  0.959675  0.750187  1
  Tm  Tm7  1  0.834423  0.824242  0.939165  1
  Tm  Tm8  1  0.665758  0.324013  0.939446  1
  Tm  Tm9  1  0.834170  0.823967  0.560863  1
  Tm  Tm10  1  0.332498  0.676241  0.434825  1
  Tm  Tm11  1  0.167279  0.176005  0.065037  1
  Tc  Tc12  1  0.036174  0.884688  0.250088  1
  Tc  Tc13  1  0.463560  0.384816  0.249632  1
  Ir  Ir14  1  0.955656  0.115390  0.750771  1
  Ir  Ir15  1  0.544609  0.616186  0.749792  1
