# generated using pymatgen
data_La16Cd4Co2NiOs
_symmetry_space_group_name_H-M   'P 1'
_cell_length_a   10.08546651
_cell_length_b   10.02392047
_cell_length_c   9.99169533
_cell_angle_alpha   59.89325423
_cell_angle_beta   60.18730373
_cell_angle_gamma   60.20166019
_symmetry_Int_Tables_number   1
_chemical_formula_structural   La16Cd4Co2NiOs
_chemical_formula_sum   'La16 Cd4 Co2 Ni1 Os1'
_cell_volume   715.77177045
_cell_formula_units_Z   1
loop_
 _symmetry_equiv_pos_site_id
 _symmetry_equiv_pos_as_xyz
  1  'x, y, z'
loop_
 _atom_site_type_symbol
 _atom_site_label
 _atom_site_symmetry_multiplicity
 _atom_site_fract_x
 _atom_site_fract_y
 _atom_site_fract_z
 _atom_site_occupancy
  La  La0  1  0.937626  0.944707  0.558301  1
  La  La1  1  0.560187  0.939252  0.561310  1
  La  La2  1  0.558878  0.939270  0.940179  1
  La  La3  1  0.684412  0.692791  0.311378  1
  La  La4  1  0.159101  0.152259  0.536381  1
  La  La5  1  0.307635  0.696359  0.685303  1
  La  La6  1  0.157276  0.149934  0.155753  1
  La  La7  1  0.539123  0.152001  0.156873  1
  La  La8  1  0.309882  0.689235  0.311650  1
  La  La9  1  0.307635  0.310703  0.685303  1
  La  La10  1  0.690781  0.310048  0.689124  1
  La  La11  1  0.937626  0.559366  0.558301  1
  La  La12  1  0.558878  0.561674  0.940179  1
  La  La13  1  0.157276  0.537036  0.155753  1
  La  La14  1  0.684412  0.311419  0.311378  1
  La  La15  1  0.937780  0.558247  0.945726  1
  Cd  Cd16  1  0.237803  0.920972  0.920253  1
  Cd  Cd17  1  0.921098  0.921669  0.921023  1
  Cd  Cd18  1  0.920160  0.920995  0.237848  1
  Cd  Cd19  1  0.921098  0.236207  0.921023  1
  Co  Co20  1  0.364887  0.918991  0.357710  1
  Co  Co21  1  0.364887  0.358411  0.357710  1
  Ni  Ni22  1  0.360518  0.358369  0.922743  1
  Os  Os23  1  0.921034  0.360084  0.358799  1
