# generated using pymatgen
data_V12Re6Mo5W
_symmetry_space_group_name_H-M   'P 1'
_cell_length_a   4.31184800
_cell_length_b   6.11074600
_cell_length_c   13.01455300
_cell_angle_alpha   90.00000000
_cell_angle_beta   90.00013256
_cell_angle_gamma   90.00000000
_symmetry_Int_Tables_number   1
_chemical_formula_structural   V12Re6Mo5W
_chemical_formula_sum   'V12 Re6 Mo5 W1'
_cell_volume   342.91535423
_cell_formula_units_Z   1
loop_
 _symmetry_equiv_pos_site_id
 _symmetry_equiv_pos_as_xyz
  1  'x, y, z'
loop_
 _atom_site_type_symbol
 _atom_site_label
 _atom_site_symmetry_multiplicity
 _atom_site_fract_x
 _atom_site_fract_y
 _atom_site_fract_z
 _atom_site_occupancy
  V  V0  1  0.500001  0.250630  0.000000  1
  V  V1  1  0.500001  0.749370  0.000000  1
  V  V2  1  0.000013  0.250173  0.166829  1
  V  V3  1  0.000013  0.749827  0.166829  1
  V  V4  1  0.500042  0.250220  0.333348  1
  V  V5  1  0.500042  0.749781  0.333348  1
  V  V6  1  0.000000  0.249921  0.500000  1
  V  V7  1  0.000000  0.750078  0.500000  1
  V  V8  1  0.499959  0.250220  0.666652  1
  V  V9  1  0.499959  0.749781  0.666652  1
  V  V10  1  0.999987  0.250173  0.833171  1
  V  V11  1  0.999987  0.749827  0.833171  1
  Re  Re12  1  0.000000  0.499999  0.000000  1
  Re  Re13  1  0.500034  0.000000  0.166459  1
  Re  Re14  1  0.000015  0.499999  0.333349  1
  Re  Re15  1  0.499999  0.000000  0.500000  1
  Re  Re16  1  0.999985  0.499999  0.666651  1
  Re  Re17  1  0.499967  0.000000  0.833542  1
  Mo  Mo18  1  0.500032  0.499999  0.166699  1
  Mo  Mo19  1  0.000016  0.000000  0.333373  1
  Mo  Mo20  1  0.499999  0.499999  0.500000  1
  Mo  Mo21  1  0.999984  0.000000  0.666626  1
  Mo  Mo22  1  0.499968  0.499999  0.833301  1
  W  W23  1  0.000000  0.000000  0.000000  1
