# generated using pymatgen
data_Tm12Tc3Ru
_symmetry_space_group_name_H-M   'P 1'
_cell_length_a   6.18612407
_cell_length_b   7.31538409
_cell_length_c   8.98906700
_cell_angle_alpha   90.00000000
_cell_angle_beta   90.00000000
_cell_angle_gamma   89.98223035
_symmetry_Int_Tables_number   1
_chemical_formula_structural   Tm12Tc3Ru
_chemical_formula_sum   'Tm12 Tc3 Ru1'
_cell_volume   406.79008241
_cell_formula_units_Z   1
loop_
 _symmetry_equiv_pos_site_id
 _symmetry_equiv_pos_as_xyz
  1  'x, y, z'
loop_
 _atom_site_type_symbol
 _atom_site_label
 _atom_site_symmetry_multiplicity
 _atom_site_fract_x
 _atom_site_fract_y
 _atom_site_fract_z
 _atom_site_occupancy
  Tm  Tm0  1  0.630545  0.041532  0.250000  1
  Tm  Tm1  1  0.374524  0.959467  0.750000  1
  Tm  Tm2  1  0.125191  0.460586  0.750000  1
  Tm  Tm3  1  0.874577  0.542252  0.250000  1
  Tm  Tm4  1  0.161690  0.175310  0.062228  1
  Tm  Tm5  1  0.835923  0.823634  0.937510  1
  Tm  Tm6  1  0.661254  0.324558  0.938204  1
  Tm  Tm7  1  0.835923  0.823634  0.562490  1
  Tm  Tm8  1  0.337452  0.675856  0.061703  1
  Tm  Tm9  1  0.161690  0.175310  0.437772  1
  Tm  Tm10  1  0.337452  0.675856  0.438297  1
  Tm  Tm11  1  0.661254  0.324558  0.561796  1
  Tc  Tc12  1  0.461228  0.384825  0.250000  1
  Tc  Tc13  1  0.540468  0.615270  0.750000  1
  Tc  Tc14  1  0.961804  0.113233  0.750000  1
  Ru  Ru15  1  0.039025  0.884119  0.250000  1
