# generated using pymatgen
data_Tb8InTcHg2
_symmetry_space_group_name_H-M   'P 1'
_cell_length_a   10.35727207
_cell_length_b   10.35727235
_cell_length_c   7.03351200
_cell_angle_alpha   90.04415039
_cell_angle_beta   89.95585514
_cell_angle_gamma   120.05959264
_symmetry_Int_Tables_number   1
_chemical_formula_structural   Tb8InTcHg2
_chemical_formula_sum   'Tb16 In2 Tc2 Hg4'
_cell_volume   653.02885117
_cell_formula_units_Z   2
loop_
 _symmetry_equiv_pos_site_id
 _symmetry_equiv_pos_as_xyz
  1  'x, y, z'
loop_
 _atom_site_type_symbol
 _atom_site_label
 _atom_site_symmetry_multiplicity
 _atom_site_fract_x
 _atom_site_fract_y
 _atom_site_fract_z
 _atom_site_occupancy
  Tb  Tb0  1  0.466065  0.533935  0.478476  1
  Tb  Tb1  1  0.069012  0.537029  0.472576  1
  Tb  Tb2  1  0.462971  0.930988  0.472576  1
  Tb  Tb3  1  0.533821  0.466179  0.976795  1
  Tb  Tb4  1  0.926819  0.458704  0.976208  1
  Tb  Tb5  1  0.541296  0.073181  0.976208  1
  Tb  Tb6  1  0.827715  0.172285  0.288697  1
  Tb  Tb7  1  0.344717  0.172954  0.270919  1
  Tb  Tb8  1  0.827046  0.655283  0.270919  1
  Tb  Tb9  1  0.177195  0.822805  0.792180  1
  Tb  Tb10  1  0.651589  0.830724  0.784740  1
  Tb  Tb11  1  0.169276  0.348411  0.784740  1
  Tb  Tb12  1  0.334480  0.665520  0.096032  1
  Tb  Tb13  1  0.667376  0.332624  0.594616  1
  Tb  Tb14  1  0.003111  0.996889  0.500679  1
  Tb  Tb15  1  0.001340  0.998660  0.995089  1
  In  In16  1  0.328795  0.164814  0.733464  1
  In  In17  1  0.835186  0.671205  0.733464  1
  Tc  Tc18  1  0.333443  0.666557  0.708573  1
  Tc  Tc19  1  0.666887  0.333113  0.211797  1
  Hg  Hg20  1  0.167537  0.832463  0.232674  1
  Hg  Hg21  1  0.664723  0.832664  0.231886  1
  Hg  Hg22  1  0.167336  0.335277  0.231886  1
  Hg  Hg23  1  0.832262  0.167738  0.729355  1
