# generated using pymatgen
data_Hf3Cu3Si4Rh
_symmetry_space_group_name_H-M   'P 1'
_cell_length_a   7.53413223
_cell_length_b   7.52794145
_cell_length_c   7.52794151
_cell_angle_alpha   149.78321528
_cell_angle_beta   128.92705135
_cell_angle_gamma   60.49039309
_symmetry_Int_Tables_number   1
_chemical_formula_structural   Hf3Cu3Si4Rh
_chemical_formula_sum   'Hf3 Cu3 Si4 Rh1'
_cell_volume   165.77246890
_cell_formula_units_Z   1
loop_
 _symmetry_equiv_pos_site_id
 _symmetry_equiv_pos_as_xyz
  1  'x, y, z'
loop_
 _atom_site_type_symbol
 _atom_site_label
 _atom_site_symmetry_multiplicity
 _atom_site_fract_x
 _atom_site_fract_y
 _atom_site_fract_z
 _atom_site_occupancy
  Hf  Hf0  1  0.885574  0.876597  0.008977  1
  Hf  Hf1  1  0.119073  0.126018  0.993055  1
  Hf  Hf2  1  0.504880  0.996889  0.507992  1
  Cu  Cu3  1  0.857181  0.665500  0.191681  1
  Cu  Cu4  1  0.132410  0.334054  0.798356  1
  Cu  Cu5  1  0.480721  0.676328  0.804393  1
  Si  Si6  1  0.809874  0.496261  0.313613  1
  Si  Si7  1  0.197659  0.505697  0.691962  1
  Si  Si8  1  0.270907  0.784435  0.486472  1
  Si  Si9  1  0.723522  0.215543  0.507980  1
  Rh  Rh10  1  0.518199  0.322679  0.195520  1
