# generated using pymatgen
data_PrHg3PtRh3O14
_symmetry_space_group_name_H-M   'P 1'
_cell_length_a   7.37708947
_cell_length_b   7.28646462
_cell_length_c   7.30812400
_cell_angle_alpha   59.90161092
_cell_angle_beta   60.30876145
_cell_angle_gamma   60.34068579
_symmetry_Int_Tables_number   1
_chemical_formula_structural   PrHg3PtRh3O14
_chemical_formula_sum   'Pr1 Hg3 Pt1 Rh3 O14'
_cell_volume   278.92016569
_cell_formula_units_Z   1
loop_
 _symmetry_equiv_pos_site_id
 _symmetry_equiv_pos_as_xyz
  1  'x, y, z'
loop_
 _atom_site_type_symbol
 _atom_site_label
 _atom_site_symmetry_multiplicity
 _atom_site_fract_x
 _atom_site_fract_y
 _atom_site_fract_z
 _atom_site_occupancy
  Pr  Pr0  1  0.625000  0.125000  0.125000  1
  Hg  Hg1  1  0.125000  0.125000  0.125000  1
  Hg  Hg2  1  0.125000  0.625000  0.125000  1
  Hg  Hg3  1  0.125000  0.125000  0.625000  1
  Pt  Pt4  1  0.625000  0.125000  0.625000  1
  Rh  Rh5  1  0.625000  0.625000  0.125000  1
  Rh  Rh6  1  0.625000  0.625000  0.625000  1
  Rh  Rh7  1  0.125000  0.625000  0.625000  1
  O  O8  1  0.697932  0.295857  0.295108  1
  O  O9  1  0.697932  0.295857  0.711103  1
  O  O10  1  0.026232  0.988513  0.992628  1
  O  O11  1  0.305412  0.694762  0.302998  1
  O  O12  1  0.695132  0.705303  0.299783  1
  O  O13  1  0.944588  0.555238  0.553172  1
  O  O14  1  0.305412  0.694762  0.696828  1
  O  O15  1  0.223768  0.261487  0.257372  1
  O  O16  1  0.944588  0.555238  0.947002  1
  O  O17  1  0.552068  0.954143  0.538897  1
  O  O18  1  0.554868  0.544697  0.950217  1
  O  O19  1  0.950658  0.951610  0.548866  1
  O  O20  1  0.552068  0.954143  0.954892  1
  O  O21  1  0.299342  0.298390  0.701134  1
