# generated using pymatgen
data_Ac2CeSn2Rh3Pb
_symmetry_space_group_name_H-M   'P 1'
_cell_length_a   7.70613442
_cell_length_b   7.70613466
_cell_length_c   4.27073200
_cell_angle_alpha   90.00000000
_cell_angle_beta   90.00000000
_cell_angle_gamma   119.83872776
_symmetry_Int_Tables_number   1
_chemical_formula_structural   Ac2CeSn2Rh3Pb
_chemical_formula_sum   'Ac2 Ce1 Sn2 Rh3 Pb1'
_cell_volume   219.99337329
_cell_formula_units_Z   1
loop_
 _symmetry_equiv_pos_site_id
 _symmetry_equiv_pos_as_xyz
  1  'x, y, z'
loop_
 _atom_site_type_symbol
 _atom_site_label
 _atom_site_symmetry_multiplicity
 _atom_site_fract_x
 _atom_site_fract_y
 _atom_site_fract_z
 _atom_site_occupancy
  Ac  Ac0  1  0.584334  0.001365  0.500000  1
  Ac  Ac1  1  0.001365  0.584334  0.500000  1
  Ce  Ce2  1  0.408296  0.408296  0.500000  1
  Sn  Sn3  1  0.248059  0.006535  0.000000  1
  Sn  Sn4  1  0.006535  0.248059  0.000000  1
  Rh  Rh5  1  0.646023  0.329321  0.000000  1
  Rh  Rh6  1  0.329321  0.646023  0.000000  1
  Rh  Rh7  1  0.028869  0.028869  0.500000  1
  Pb  Pb8  1  0.747198  0.747198  0.000000  1
