# generated using pymatgen
data_Hf12Zn9Pd2AuC3N
_symmetry_space_group_name_H-M   'P 1'
_cell_length_a   8.57067111
_cell_length_b   8.57067069
_cell_length_c   8.54093700
_cell_angle_alpha   60.04164719
_cell_angle_beta   60.04164883
_cell_angle_gamma   60.19298611
_symmetry_Int_Tables_number   1
_chemical_formula_structural   Hf12Zn9Pd2AuC3N
_chemical_formula_sum   'Hf12 Zn9 Pd2 Au1 C3 N1'
_cell_volume   444.55293127
_cell_formula_units_Z   1
loop_
 _symmetry_equiv_pos_site_id
 _symmetry_equiv_pos_as_xyz
  1  'x, y, z'
loop_
 _atom_site_type_symbol
 _atom_site_label
 _atom_site_symmetry_multiplicity
 _atom_site_fract_x
 _atom_site_fract_y
 _atom_site_fract_z
 _atom_site_occupancy
  Hf  Hf0  1  0.811665  0.187475  0.188827  1
  Hf  Hf1  1  0.187475  0.811665  0.188827  1
  Hf  Hf2  1  0.812173  0.812173  0.186550  1
  Hf  Hf3  1  0.185481  0.813027  0.811788  1
  Hf  Hf4  1  0.813027  0.185481  0.811788  1
  Hf  Hf5  1  0.188078  0.188078  0.811531  1
  Hf  Hf6  1  0.438335  0.062525  0.061173  1
  Hf  Hf7  1  0.062525  0.438335  0.061173  1
  Hf  Hf8  1  0.437827  0.437827  0.063450  1
  Hf  Hf9  1  0.064519  0.436973  0.438212  1
  Hf  Hf10  1  0.436973  0.064519  0.438212  1
  Hf  Hf11  1  0.061922  0.061922  0.438469  1
  Zn  Zn12  1  0.417846  0.417846  0.748062  1
  Zn  Zn13  1  0.414713  0.414713  0.422139  1
  Zn  Zn14  1  0.750004  0.414873  0.422333  1
  Zn  Zn15  1  0.414873  0.750004  0.422333  1
  Zn  Zn16  1  0.832154  0.832154  0.501938  1
  Zn  Zn17  1  0.835287  0.835287  0.827861  1
  Zn  Zn18  1  0.499996  0.835127  0.827667  1
  Zn  Zn19  1  0.835127  0.499996  0.827667  1
  Zn  Zn20  1  0.625000  0.625000  0.625000  1
  Pd  Pd21  1  0.125000  0.625000  0.625000  1
  Pd  Pd22  1  0.625000  0.125000  0.625000  1
  Au  Au23  1  0.625000  0.625000  0.125000  1
  C  C24  1  0.125000  0.125000  0.125000  1
  C  C25  1  0.625000  0.125000  0.125000  1
  C  C26  1  0.125000  0.625000  0.125000  1
  N  N27  1  0.125000  0.125000  0.625000  1
