# generated using pymatgen
data_La2DyEr17Bi12
_symmetry_space_group_name_H-M   'P 1'
_cell_length_a   8.28594117
_cell_length_b   9.51596300
_cell_length_c   12.08136802
_cell_angle_alpha   90.00000000
_cell_angle_beta   90.00799978
_cell_angle_gamma   90.00000000
_symmetry_Int_Tables_number   1
_chemical_formula_structural   La2DyEr17Bi12
_chemical_formula_sum   'La2 Dy1 Er17 Bi12'
_cell_volume   952.60026900
_cell_formula_units_Z   1
loop_
 _symmetry_equiv_pos_site_id
 _symmetry_equiv_pos_as_xyz
  1  'x, y, z'
loop_
 _atom_site_type_symbol
 _atom_site_label
 _atom_site_symmetry_multiplicity
 _atom_site_fract_x
 _atom_site_fract_y
 _atom_site_fract_z
 _atom_site_occupancy
  La  La0  1  0.684149  0.750000  0.779152  1
  La  La1  1  0.184040  0.750000  0.720857  1
  Dy  Dy2  1  0.813521  0.250000  0.282133  1
  Er  Er3  1  0.353147  0.750000  0.218407  1
  Er  Er4  1  0.853150  0.750000  0.281440  1
  Er  Er5  1  0.647788  0.250000  0.783622  1
  Er  Er6  1  0.148102  0.250000  0.716562  1
  Er  Er7  1  0.692503  0.564948  0.060994  1
  Er  Er8  1  0.192130  0.935017  0.438865  1
  Er  Er9  1  0.308212  0.065531  0.941250  1
  Er  Er10  1  0.808456  0.434385  0.558910  1
  Er  Er11  1  0.308212  0.434469  0.941250  1
  Er  Er12  1  0.808456  0.065615  0.558910  1
  Er  Er13  1  0.692503  0.935052  0.060994  1
  Er  Er14  1  0.192130  0.564983  0.438865  1
  Er  Er15  1  0.476112  0.250000  0.487184  1
  Er  Er16  1  0.976297  0.250000  0.012943  1
  Er  Er17  1  0.523325  0.750000  0.509725  1
  Er  Er18  1  0.023606  0.750000  0.990334  1
  Er  Er19  1  0.313071  0.250000  0.217311  1
  Bi  Bi20  1  0.403611  0.750000  0.964359  1
  Bi  Bi21  1  0.903318  0.750000  0.535659  1
  Bi  Bi22  1  0.593661  0.250000  0.042234  1
  Bi  Bi23  1  0.094698  0.250000  0.458073  1
  Bi  Bi24  1  0.565301  0.995877  0.325744  1
  Bi  Bi25  1  0.066628  0.504161  0.174100  1
  Bi  Bi26  1  0.435536  0.489013  0.671610  1
  Bi  Bi27  1  0.935435  0.011054  0.828529  1
  Bi  Bi28  1  0.435536  0.010987  0.671610  1
  Bi  Bi29  1  0.935435  0.488946  0.828529  1
  Bi  Bi30  1  0.565301  0.504123  0.325744  1
  Bi  Bi31  1  0.066628  0.995839  0.174100  1
