# generated using pymatgen
data_Er5In4CoRh
_symmetry_space_group_name_H-M   'P 1'
_cell_length_a   3.56325700
_cell_length_b   7.94165100
_cell_length_c   18.06208500
_cell_angle_alpha   90.00000000
_cell_angle_beta   90.00000000
_cell_angle_gamma   90.00000000
_symmetry_Int_Tables_number   1
_chemical_formula_structural   Er5In4CoRh
_chemical_formula_sum   'Er10 In8 Co2 Rh2'
_cell_volume   511.12347355
_cell_formula_units_Z   2
loop_
 _symmetry_equiv_pos_site_id
 _symmetry_equiv_pos_as_xyz
  1  'x, y, z'
loop_
 _atom_site_type_symbol
 _atom_site_label
 _atom_site_symmetry_multiplicity
 _atom_site_fract_x
 _atom_site_fract_y
 _atom_site_fract_z
 _atom_site_occupancy
  Er  Er0  1  0.500000  0.384593  0.590741  1
  Er  Er1  1  0.500000  0.883045  0.912951  1
  Er  Er2  1  0.500000  0.115407  0.090741  1
  Er  Er3  1  0.500000  0.749169  0.720349  1
  Er  Er4  1  0.500000  0.257773  0.776991  1
  Er  Er5  1  0.500000  0.500358  0.999868  1
  Er  Er6  1  0.500000  0.750831  0.220349  1
  Er  Er7  1  0.500000  0.242227  0.276991  1
  Er  Er8  1  0.500000  0.999642  0.499868  1
  Er  Er9  1  0.500000  0.616955  0.412951  1
  In  In10  1  0.000000  0.794790  0.069326  1
  In  In11  1  0.000000  0.929748  0.347771  1
  In  In12  1  0.000000  0.071743  0.649766  1
  In  In13  1  0.000000  0.570252  0.847771  1
  In  In14  1  0.000000  0.705210  0.569326  1
  In  In15  1  0.000000  0.208086  0.932508  1
  In  In16  1  0.000000  0.291914  0.432508  1
  In  In17  1  0.000000  0.428257  0.149766  1
  Co  Co18  1  0.000000  0.478257  0.695392  1
  Co  Co19  1  0.000000  0.021743  0.195392  1
  Rh  Rh20  1  0.000000  0.975408  0.804336  1
  Rh  Rh21  1  0.000000  0.524592  0.304336  1
