# generated using pymatgen
data_Pr6Tm2Sc12Si15Ag
_symmetry_space_group_name_H-M   'P 1'
_cell_length_a   7.24847205
_cell_length_b   7.48138402
_cell_length_c   14.28835879
_cell_angle_alpha   89.93312341
_cell_angle_beta   89.74844043
_cell_angle_gamma   90.20564525
_symmetry_Int_Tables_number   1
_chemical_formula_structural   Pr6Tm2Sc12Si15Ag
_chemical_formula_sum   'Pr6 Tm2 Sc12 Si15 Ag1'
_cell_volume   774.82473449
_cell_formula_units_Z   1
loop_
 _symmetry_equiv_pos_site_id
 _symmetry_equiv_pos_as_xyz
  1  'x, y, z'
loop_
 _atom_site_type_symbol
 _atom_site_label
 _atom_site_symmetry_multiplicity
 _atom_site_fract_x
 _atom_site_fract_y
 _atom_site_fract_z
 _atom_site_occupancy
  Pr  Pr0  1  0.488375  0.672793  0.903300  1
  Pr  Pr1  1  0.491230  0.675181  0.597802  1
  Pr  Pr2  1  0.988562  0.833500  0.594874  1
  Pr  Pr3  1  0.988209  0.829687  0.903362  1
  Pr  Pr4  1  0.512148  0.328048  0.098185  1
  Pr  Pr5  1  0.012306  0.172227  0.099254  1
  Tm  Tm6  1  0.008914  0.174667  0.395703  1
  Tm  Tm7  1  0.512899  0.322165  0.397555  1
  Sc  Sc8  1  0.343727  0.173457  0.626004  1
  Sc  Sc9  1  0.666034  0.823841  0.374371  1
  Sc  Sc10  1  0.664989  0.000201  0.751716  1
  Sc  Sc11  1  0.167487  0.674906  0.372730  1
  Sc  Sc12  1  0.830624  0.323021  0.876415  1
  Sc  Sc13  1  0.823778  0.324895  0.623480  1
  Sc  Sc14  1  0.837768  0.499732  0.253057  1
  Sc  Sc15  1  0.338684  0.999072  0.250875  1
  Sc  Sc16  1  0.328177  0.173905  0.876388  1
  Sc  Sc17  1  0.169931  0.675750  0.127263  1
  Sc  Sc18  1  0.671065  0.825238  0.127002  1
  Sc  Sc19  1  0.162265  0.497645  0.753248  1
  Si  Si20  1  0.286827  0.882938  0.750169  1
  Si  Si21  1  0.466039  0.620445  0.250912  1
  Si  Si22  1  0.037158  0.129594  0.749053  1
  Si  Si23  1  0.536289  0.376584  0.751904  1
  Si  Si24  1  0.965256  0.878860  0.251766  1
  Si  Si25  1  0.711813  0.123622  0.253198  1
  Si  Si26  1  0.849190  0.537938  0.040053  1
  Si  Si27  1  0.348078  0.962038  0.040789  1
  Si  Si28  1  0.150407  0.463161  0.961949  1
  Si  Si29  1  0.654110  0.043352  0.533948  1
  Si  Si30  1  0.340167  0.969613  0.457440  1
  Si  Si31  1  0.835058  0.530956  0.455078  1
  Si  Si32  1  0.790394  0.617929  0.751072  1
  Si  Si33  1  0.213792  0.376065  0.253254  1
  Si  Si34  1  0.651326  0.037051  0.960955  1
  Ag  Ag35  1  0.156924  0.449926  0.535878  1
