# generated using pymatgen
data_LaEu7(Er3Sn4)4
_symmetry_space_group_name_H-M   'P 1'
_cell_length_a   8.02849448
_cell_length_b   8.17809954
_cell_length_c   15.43959800
_cell_angle_alpha   89.99250358
_cell_angle_beta   89.69941413
_cell_angle_gamma   90.19309984
_symmetry_Int_Tables_number   1
_chemical_formula_structural   LaEu7(Er3Sn4)4
_chemical_formula_sum   'La1 Eu7 Er12 Sn16'
_cell_volume   1013.71073585
_cell_formula_units_Z   1
loop_
 _symmetry_equiv_pos_site_id
 _symmetry_equiv_pos_as_xyz
  1  'x, y, z'
loop_
 _atom_site_type_symbol
 _atom_site_label
 _atom_site_symmetry_multiplicity
 _atom_site_fract_x
 _atom_site_fract_y
 _atom_site_fract_z
 _atom_site_occupancy
  La  La0  1  0.506799  0.324533  0.906259  1
  Eu  Eu1  1  0.010478  0.176584  0.593418  1
  Eu  Eu2  1  0.490103  0.676721  0.406564  1
  Eu  Eu3  1  0.989906  0.823219  0.092999  1
  Eu  Eu4  1  0.490328  0.677605  0.093618  1
  Eu  Eu5  1  0.989974  0.822736  0.406960  1
  Eu  Eu6  1  0.511466  0.323051  0.593918  1
  Eu  Eu7  1  0.010306  0.176275  0.906784  1
  Er  Er8  1  0.347620  0.836681  0.875584  1
  Er  Er9  1  0.849851  0.663065  0.623734  1
  Er  Er10  1  0.649880  0.163129  0.376676  1
  Er  Er11  1  0.150816  0.336514  0.123559  1
  Er  Er12  1  0.652831  0.162816  0.124212  1
  Er  Er13  1  0.150741  0.336878  0.376800  1
  Er  Er14  1  0.349012  0.837132  0.623855  1
  Er  Er15  1  0.849251  0.664439  0.875908  1
  Er  Er16  1  0.185978  0.498774  0.748819  1
  Er  Er17  1  0.688287  0.001301  0.749162  1
  Er  Er18  1  0.813301  0.502274  0.250321  1
  Er  Er19  1  0.312807  0.997311  0.250453  1
  Sn  Sn20  1  0.320695  0.041537  0.041657  1
  Sn  Sn21  1  0.818387  0.458560  0.457923  1
  Sn  Sn22  1  0.681592  0.958138  0.542109  1
  Sn  Sn23  1  0.180145  0.542082  0.957984  1
  Sn  Sn24  1  0.679380  0.959808  0.957462  1
  Sn  Sn25  1  0.182619  0.539854  0.542666  1
  Sn  Sn26  1  0.317915  0.040707  0.457914  1
  Sn  Sn27  1  0.818037  0.458911  0.042082  1
  Sn  Sn28  1  0.548928  0.622955  0.750311  1
  Sn  Sn29  1  0.049271  0.877173  0.750106  1
  Sn  Sn30  1  0.450285  0.377386  0.249898  1
  Sn  Sn31  1  0.950355  0.121920  0.250478  1
  Sn  Sn32  1  0.317837  0.139552  0.749735  1
  Sn  Sn33  1  0.816130  0.360760  0.750735  1
  Sn  Sn34  1  0.684504  0.862001  0.249798  1
  Sn  Sn35  1  0.184186  0.637618  0.249541  1
