# generated using pymatgen
data_Nb2P2H
_symmetry_space_group_name_H-M   'P 1'
_cell_length_a   4.76228791
_cell_length_b   4.76179440
_cell_length_c   5.87819805
_cell_angle_alpha   128.16931397
_cell_angle_beta   128.17603925
_cell_angle_gamma   88.92560831
_symmetry_Int_Tables_number   1
_chemical_formula_structural   Nb2P2H
_chemical_formula_sum   'Nb2 P2 H1'
_cell_volume   66.65559761
_cell_formula_units_Z   1
loop_
 _symmetry_equiv_pos_site_id
 _symmetry_equiv_pos_as_xyz
  1  'x, y, z'
loop_
 _atom_site_type_symbol
 _atom_site_label
 _atom_site_symmetry_multiplicity
 _atom_site_fract_x
 _atom_site_fract_y
 _atom_site_fract_z
 _atom_site_occupancy
  Nb  Nb0  1  0.396422  0.829931  0.666593  1
  Nb  Nb1  1  0.896154  0.330043  0.664532  1
  P  P2  1  0.647263  0.579560  0.332765  1
  P  P3  1  0.145951  0.080946  0.333298  1
  H  H4  1  0.899688  0.326133  0.998825  1
