# generated using pymatgen
data_Nb3Zn2SnRu6
_symmetry_space_group_name_H-M   'P 1'
_cell_length_a   4.43971000
_cell_length_b   6.29285600
_cell_length_c   13.27896300
_cell_angle_alpha   90.00000000
_cell_angle_beta   89.99765200
_cell_angle_gamma   90.00000000
_symmetry_Int_Tables_number   1
_chemical_formula_structural   Nb3Zn2SnRu6
_chemical_formula_sum   'Nb6 Zn4 Sn2 Ru12'
_cell_volume   370.99371952
_cell_formula_units_Z   2
loop_
 _symmetry_equiv_pos_site_id
 _symmetry_equiv_pos_as_xyz
  1  'x, y, z'
loop_
 _atom_site_type_symbol
 _atom_site_label
 _atom_site_symmetry_multiplicity
 _atom_site_fract_x
 _atom_site_fract_y
 _atom_site_fract_z
 _atom_site_occupancy
  Nb  Nb0  1  0.999993  0.000000  0.991948  1
  Nb  Nb1  1  0.499893  0.500000  0.174734  1
  Nb  Nb2  1  0.999885  0.000000  0.343229  1
  Nb  Nb3  1  0.499999  0.500000  0.503810  1
  Nb  Nb4  1  0.000105  0.000000  0.662881  1
  Nb  Nb5  1  0.500113  0.500000  0.823422  1
  Zn  Zn6  1  0.999856  0.500000  0.334985  1
  Zn  Zn7  1  0.499993  0.000000  0.500677  1
  Zn  Zn8  1  0.000134  0.500000  0.665976  1
  Zn  Zn9  1  0.500136  0.000000  0.831692  1
  Sn  Sn10  1  0.999988  0.500000  0.998364  1
  Sn  Sn11  1  0.499904  0.000000  0.168237  1
  Ru  Ru12  1  0.499994  0.246925  0.998000  1
  Ru  Ru13  1  0.499994  0.753077  0.998000  1
  Ru  Ru14  1  0.999891  0.253073  0.168638  1
  Ru  Ru15  1  0.999891  0.746927  0.168638  1
  Ru  Ru16  1  0.499877  0.252615  0.336379  1
  Ru  Ru17  1  0.499877  0.747385  0.336379  1
  Ru  Ru18  1  0.999991  0.251671  0.500448  1
  Ru  Ru19  1  0.999991  0.748329  0.500448  1
  Ru  Ru20  1  0.500137  0.248331  0.666253  1
  Ru  Ru21  1  0.500137  0.751669  0.666253  1
  Ru  Ru22  1  0.000106  0.247454  0.830305  1
  Ru  Ru23  1  0.000106  0.752546  0.830305  1
