# generated using pymatgen
data_Cs2Zr3OF12
_symmetry_space_group_name_H-M   'P 1'
_cell_length_a   11.41603826
_cell_length_b   11.41603758
_cell_length_c   11.41603700
_cell_angle_alpha   40.08601525
_cell_angle_beta   40.08601929
_cell_angle_gamma   40.08602236
_symmetry_Int_Tables_number   1
_chemical_formula_structural   Cs2Zr3OF12
_chemical_formula_sum   'Cs4 Zr6 O2 F24'
_cell_volume   555.95876668
_cell_formula_units_Z   2
loop_
 _symmetry_equiv_pos_site_id
 _symmetry_equiv_pos_as_xyz
  1  'x, y, z'
loop_
 _atom_site_type_symbol
 _atom_site_label
 _atom_site_symmetry_multiplicity
 _atom_site_fract_x
 _atom_site_fract_y
 _atom_site_fract_z
 _atom_site_occupancy
  Cs  Cs0  1  0.000000  0.000000  0.000000  1
  Cs  Cs1  1  0.500000  0.500000  0.500000  1
  Cs  Cs2  1  0.137937  0.137937  0.137937  1
  Cs  Cs3  1  0.862063  0.862063  0.862063  1
  Zr  Zr4  1  0.573882  0.573882  0.026840  1
  Zr  Zr5  1  0.026840  0.573882  0.573882  1
  Zr  Zr6  1  0.573882  0.026840  0.573882  1
  Zr  Zr7  1  0.426118  0.973160  0.426118  1
  Zr  Zr8  1  0.973160  0.426118  0.426118  1
  Zr  Zr9  1  0.426118  0.426118  0.973160  1
  O  O10  1  0.289021  0.289021  0.289021  1
  O  O11  1  0.710979  0.710979  0.710979  1
  F  F12  1  0.372480  0.709684  0.709684  1
  F  F13  1  0.709684  0.372480  0.709684  1
  F  F14  1  0.709684  0.709684  0.372480  1
  F  F15  1  0.627520  0.290316  0.290316  1
  F  F16  1  0.290316  0.627520  0.290316  1
  F  F17  1  0.290316  0.290316  0.627520  1
  F  F18  1  0.092795  0.598274  0.092795  1
  F  F19  1  0.092795  0.092795  0.598274  1
  F  F20  1  0.000000  0.354277  0.645723  1
  F  F21  1  0.354277  0.645723  0.000000  1
  F  F22  1  0.645723  0.000000  0.354277  1
  F  F23  1  0.000000  0.645723  0.354277  1
  F  F24  1  0.645723  0.354277  0.000000  1
  F  F25  1  0.354277  0.000000  0.645723  1
  F  F26  1  0.076699  0.645217  0.645217  1
  F  F27  1  0.645217  0.645217  0.076699  1
  F  F28  1  0.645217  0.076699  0.645217  1
  F  F29  1  0.354783  0.923301  0.354783  1
  F  F30  1  0.923301  0.354783  0.354783  1
  F  F31  1  0.354783  0.354783  0.923301  1
  F  F32  1  0.907205  0.401726  0.907205  1
  F  F33  1  0.401726  0.907205  0.907205  1
  F  F34  1  0.907205  0.907205  0.401726  1
  F  F35  1  0.598274  0.092795  0.092795  1
