# generated using pymatgen
data_Ac3Y(B2Ir5)2
_symmetry_space_group_name_H-M   'P 1'
_cell_length_a   11.27351950
_cell_length_b   11.27351892
_cell_length_c   11.27352000
_cell_angle_alpha   28.76937995
_cell_angle_beta   28.76938524
_cell_angle_gamma   28.76939205
_symmetry_Int_Tables_number   1
_chemical_formula_structural   Ac3Y(B2Ir5)2
_chemical_formula_sum   'Ac3 Y1 B4 Ir10'
_cell_volume   293.44973123
_cell_formula_units_Z   1
loop_
 _symmetry_equiv_pos_site_id
 _symmetry_equiv_pos_as_xyz
  1  'x, y, z'
loop_
 _atom_site_type_symbol
 _atom_site_label
 _atom_site_symmetry_multiplicity
 _atom_site_fract_x
 _atom_site_fract_y
 _atom_site_fract_z
 _atom_site_occupancy
  Ac  Ac0  1  0.150066  0.150066  0.150066  1
  Ac  Ac1  1  0.951135  0.951135  0.951135  1
  Ac  Ac2  1  0.848459  0.848459  0.848459  1
  Y  Y3  1  0.049412  0.049412  0.049412  1
  B  B4  1  0.618900  0.618900  0.618900  1
  B  B5  1  0.716415  0.716415  0.716415  1
  B  B6  1  0.381224  0.381224  0.381224  1
  B  B7  1  0.284164  0.284164  0.284164  1
  Ir  Ir8  1  0.410106  0.898649  0.410106  1
  Ir  Ir9  1  0.898649  0.410106  0.410106  1
  Ir  Ir10  1  0.501451  0.501451  0.000646  1
  Ir  Ir11  1  0.501451  0.000646  0.501451  1
  Ir  Ir12  1  0.000646  0.501451  0.501451  1
  Ir  Ir13  1  0.499627  0.499627  0.499627  1
  Ir  Ir14  1  0.588627  0.100932  0.588627  1
  Ir  Ir15  1  0.588627  0.588627  0.100932  1
  Ir  Ir16  1  0.100932  0.588627  0.588627  1
  Ir  Ir17  1  0.410106  0.410106  0.898649  1
