# generated using pymatgen
data_OF37
_symmetry_space_group_name_H-M   'P 1'
_cell_length_a   6.63665445
_cell_length_b   10.56821984
_cell_length_c   10.65291679
_cell_angle_alpha   86.53655934
_cell_angle_beta   98.57604134
_cell_angle_gamma   72.88846665
_symmetry_Int_Tables_number   1
_chemical_formula_structural   OF37
_chemical_formula_sum   'O1 F37'
_cell_volume   701.79889836
_cell_formula_units_Z   1
loop_
 _symmetry_equiv_pos_site_id
 _symmetry_equiv_pos_as_xyz
  1  'x, y, z'
loop_
 _atom_site_type_symbol
 _atom_site_label
 _atom_site_symmetry_multiplicity
 _atom_site_fract_x
 _atom_site_fract_y
 _atom_site_fract_z
 _atom_site_occupancy
  O  O0  1  0.736320  0.801567  0.740728  1
  F  F1  1  0.277175  0.135271  0.185174  1
  F  F2  1  0.312898  0.376965  0.901943  1
  F  F3  1  0.675034  0.620747  0.086708  1
  F  F4  1  0.323674  0.230927  0.567495  1
  F  F5  1  0.702240  0.748512  0.438465  1
  F  F6  1  0.895543  0.217888  0.817486  1
  F  F7  1  0.109704  0.797427  0.187040  1
  F  F8  1  0.682629  0.893883  0.013937  1
  F  F9  1  0.298892  0.139375  0.003355  1
  F  F10  1  0.776292  0.630116  0.853348  1
  F  F11  1  0.181857  0.414950  0.167417  1
  F  F12  1  0.443096  0.430036  0.832657  1
  F  F13  1  0.561483  0.576617  0.174993  1
  F  F14  1  0.749259  0.624889  0.670610  1
  F  F15  1  0.231506  0.377873  0.301926  1
  F  F16  1  0.768548  0.007798  0.536682  1
  F  F17  1  0.237586  0.010354  0.452091  1
  F  F18  1  0.294683  0.187087  0.690776  1
  F  F19  1  0.701847  0.801539  0.312059  1
  F  F20  1  0.820202  0.087020  0.633242  1
  F  F21  1  0.187404  0.917625  0.370099  1
  F  F22  1  0.785952  0.981314  0.963741  1
  F  F23  1  0.200846  0.998297  0.064275  1
  F  F24  1  0.878180  0.355339  0.794829  1
  F  F25  1  0.109811  0.662233  0.194190  1
  F  F26  1  0.170532  0.711456  0.917008  1
  F  F27  1  0.812247  0.275130  0.085223  1
  F  F28  1  0.533853  0.885318  0.722884  1
  F  F29  1  0.546668  0.081969  0.282938  1
  F  F30  1  0.128255  0.762108  0.583320  1
  F  F31  1  0.901269  0.245032  0.414059  1
  F  F32  1  0.209432  0.635186  0.657736  1
  F  F33  1  0.799813  0.376301  0.350779  1
  F  F34  1  0.267592  0.809671  0.884879  1
  F  F35  1  0.711268  0.197747  0.154271  1
  F  F36  1  0.501587  0.436337  0.533529  1
  F  F37  1  0.474822  0.558094  0.458109  1
