# generated using pymatgen
data_Th3Sn3Pd2Ru
_symmetry_space_group_name_H-M   'P 1'
_cell_length_a   7.62331200
_cell_length_b   7.62331126
_cell_length_c   4.17637000
_cell_angle_alpha   90.00000000
_cell_angle_beta   90.00000000
_cell_angle_gamma   120.00000321
_symmetry_Int_Tables_number   1
_chemical_formula_structural   Th3Sn3Pd2Ru
_chemical_formula_sum   'Th3 Sn3 Pd2 Ru1'
_cell_volume   210.19236277
_cell_formula_units_Z   1
loop_
 _symmetry_equiv_pos_site_id
 _symmetry_equiv_pos_as_xyz
  1  'x, y, z'
loop_
 _atom_site_type_symbol
 _atom_site_label
 _atom_site_symmetry_multiplicity
 _atom_site_fract_x
 _atom_site_fract_y
 _atom_site_fract_z
 _atom_site_occupancy
  Th  Th0  1  0.418262  0.406468  0.500000  1
  Th  Th1  1  0.593532  0.011794  0.500000  1
  Th  Th2  1  0.988206  0.581738  0.500000  1
  Sn  Sn3  1  0.745872  0.747890  0.000000  1
  Sn  Sn4  1  0.252110  0.997982  0.000000  1
  Sn  Sn5  1  0.002018  0.254128  0.000000  1
  Pd  Pd6  1  0.333333  0.666667  0.000000  1
  Pd  Pd7  1  0.000000  0.000000  0.500000  1
  Ru  Ru8  1  0.666667  0.333333  0.000000  1
