# generated using pymatgen
data_Zr6ReSi6Tc5
_symmetry_space_group_name_H-M   'P 1'
_cell_length_a   7.79961980
_cell_length_b   7.80066447
_cell_length_c   7.79975691
_cell_angle_alpha   126.66358194
_cell_angle_beta   127.65536906
_cell_angle_gamma   77.98958808
_symmetry_Int_Tables_number   1
_chemical_formula_structural   Zr6ReSi6Tc5
_chemical_formula_sum   'Zr6 Re1 Si6 Tc5'
_cell_volume   292.05571530
_cell_formula_units_Z   1
loop_
 _symmetry_equiv_pos_site_id
 _symmetry_equiv_pos_as_xyz
  1  'x, y, z'
loop_
 _atom_site_type_symbol
 _atom_site_label
 _atom_site_symmetry_multiplicity
 _atom_site_fract_x
 _atom_site_fract_y
 _atom_site_fract_z
 _atom_site_occupancy
  Zr  Zr0  1  0.452411  0.659066  0.706715  1
  Zr  Zr1  1  0.547729  0.253728  0.205743  1
  Zr  Zr2  1  0.749701  0.848035  0.598397  1
  Zr  Zr3  1  0.249726  0.848101  0.098301  1
  Zr  Zr4  1  0.048050  0.253718  0.705896  1
  Zr  Zr5  1  0.952277  0.658916  0.206550  1
  Re  Re6  1  0.627213  0.253154  0.626056  1
  Si  Si7  1  0.249238  0.253107  0.502380  1
  Si  Si8  1  0.750677  0.253064  0.003962  1
  Si  Si9  1  0.333155  0.586487  0.253151  1
  Si  Si10  1  0.666461  0.920592  0.254284  1
  Si  Si11  1  0.166534  0.920266  0.753529  1
  Si  Si12  1  0.832789  0.585909  0.753261  1
  Tc  Tc13  1  0.500288  0.506811  0.006492  1
  Tc  Tc14  1  0.999968  0.506343  0.506388  1
  Tc  Tc15  1  0.127126  0.253263  0.126049  1
  Tc  Tc16  1  0.873252  0.999425  0.126270  1
  Tc  Tc17  1  0.373406  0.999619  0.626184  1
