# generated using pymatgen
data_ZrTcSeBr12
_symmetry_space_group_name_H-M   'P 1'
_cell_length_a   9.54669439
_cell_length_b   9.54669423
_cell_length_c   7.23098688
_cell_angle_alpha   71.48175271
_cell_angle_beta   71.48174293
_cell_angle_gamma   80.69122509
_symmetry_Int_Tables_number   1
_chemical_formula_structural   ZrTcSeBr12
_chemical_formula_sum   'Zr1 Tc1 Se1 Br12'
_cell_volume   591.18890543
_cell_formula_units_Z   1
loop_
 _symmetry_equiv_pos_site_id
 _symmetry_equiv_pos_as_xyz
  1  'x, y, z'
loop_
 _atom_site_type_symbol
 _atom_site_label
 _atom_site_symmetry_multiplicity
 _atom_site_fract_x
 _atom_site_fract_y
 _atom_site_fract_z
 _atom_site_occupancy
  Zr  Zr0  1  0.270131  0.270131  0.737184  1
  Tc  Tc1  1  0.999920  0.999920  0.001073  1
  Se  Se2  1  0.724089  0.724089  0.267442  1
  Br  Br3  1  0.970513  0.254069  0.750840  1
  Br  Br4  1  0.254069  0.970513  0.750840  1
  Br  Br5  1  0.039114  0.753509  0.244144  1
  Br  Br6  1  0.753509  0.039114  0.244144  1
  Br  Br7  1  0.205513  0.519603  0.800768  1
  Br  Br8  1  0.519603  0.205513  0.800768  1
  Br  Br9  1  0.778645  0.485498  0.211737  1
  Br  Br10  1  0.485498  0.778645  0.211737  1
  Br  Br11  1  0.129642  0.129642  0.154645  1
  Br  Br12  1  0.877863  0.877863  0.838276  1
  Br  Br13  1  0.649067  0.649067  0.631653  1
  Br  Br14  1  0.342825  0.342825  0.354753  1
