# generated using pymatgen
data_Er3ScGa4Pt
_symmetry_space_group_name_H-M   'P 1'
_cell_length_a   7.06838500
_cell_length_b   7.06903950
_cell_length_c   4.35575700
_cell_angle_alpha   90.00000000
_cell_angle_beta   90.00000000
_cell_angle_gamma   119.99693263
_symmetry_Int_Tables_number   1
_chemical_formula_structural   Er3ScGa4Pt
_chemical_formula_sum   'Er3 Sc1 Ga4 Pt1'
_cell_volume   188.48999482
_cell_formula_units_Z   1
loop_
 _symmetry_equiv_pos_site_id
 _symmetry_equiv_pos_as_xyz
  1  'x, y, z'
loop_
 _atom_site_type_symbol
 _atom_site_label
 _atom_site_symmetry_multiplicity
 _atom_site_fract_x
 _atom_site_fract_y
 _atom_site_fract_z
 _atom_site_occupancy
  Er  Er0  1  0.593604  0.000000  0.000000  1
  Er  Er1  1  0.418654  0.420354  0.000000  1
  Er  Er2  1  0.998301  0.579646  0.000000  1
  Sc  Sc3  1  0.223257  0.000000  0.499999  1
  Ga  Ga4  1  0.002238  0.249717  0.499999  1
  Ga  Ga5  1  0.671089  0.332920  0.499999  1
  Ga  Ga6  1  0.338168  0.667080  0.499999  1
  Ga  Ga7  1  0.752521  0.750283  0.499999  1
  Pt  Pt8  1  0.002168  0.000000  0.000000  1
