# generated using pymatgen
data_Li2Dy8Sc10Si15Sb
_symmetry_space_group_name_H-M   'P 1'
_cell_length_a   7.06059057
_cell_length_b   7.43087500
_cell_length_c   14.05820735
_cell_angle_alpha   90.05158997
_cell_angle_beta   89.31977012
_cell_angle_gamma   90.09260707
_symmetry_Int_Tables_number   1
_chemical_formula_structural   Li2Dy8Sc10Si15Sb
_chemical_formula_sum   'Li2 Dy8 Sc10 Si15 Sb1'
_cell_volume   737.52982122
_cell_formula_units_Z   1
loop_
 _symmetry_equiv_pos_site_id
 _symmetry_equiv_pos_as_xyz
  1  'x, y, z'
loop_
 _atom_site_type_symbol
 _atom_site_label
 _atom_site_symmetry_multiplicity
 _atom_site_fract_x
 _atom_site_fract_y
 _atom_site_fract_z
 _atom_site_occupancy
  Li  Li0  1  0.162659  0.503081  0.754384  1
  Li  Li1  1  0.837372  0.496709  0.249794  1
  Dy  Dy2  1  0.010034  0.183904  0.098398  1
  Dy  Dy3  1  0.989936  0.817109  0.902352  1
  Dy  Dy4  1  0.485222  0.674320  0.902833  1
  Dy  Dy5  1  0.991042  0.821927  0.598375  1
  Dy  Dy6  1  0.514935  0.325693  0.098161  1
  Dy  Dy7  1  0.003109  0.179774  0.398292  1
  Dy  Dy8  1  0.516935  0.322779  0.398252  1
  Dy  Dy9  1  0.500644  0.681922  0.600713  1
  Sc  Sc10  1  0.337252  0.002710  0.250621  1
  Sc  Sc11  1  0.664255  0.997111  0.750916  1
  Sc  Sc12  1  0.340912  0.167902  0.630562  1
  Sc  Sc13  1  0.666813  0.819497  0.372355  1
  Sc  Sc14  1  0.154681  0.679871  0.369045  1
  Sc  Sc15  1  0.671048  0.817695  0.124838  1
  Sc  Sc16  1  0.829057  0.324091  0.626577  1
  Sc  Sc17  1  0.327165  0.181145  0.875160  1
  Sc  Sc18  1  0.835931  0.324436  0.874195  1
  Sc  Sc19  1  0.165297  0.675173  0.125801  1
  Si  Si20  1  0.033428  0.104270  0.751419  1
  Si  Si21  1  0.966114  0.897165  0.246593  1
  Si  Si22  1  0.459493  0.615232  0.248790  1
  Si  Si23  1  0.538554  0.385809  0.752306  1
  Si  Si24  1  0.290054  0.879811  0.751650  1
  Si  Si25  1  0.708933  0.116551  0.247927  1
  Si  Si26  1  0.218830  0.373740  0.249293  1
  Si  Si27  1  0.783196  0.626516  0.751251  1
  Si  Si28  1  0.818150  0.544430  0.465735  1
  Si  Si29  1  0.337992  0.965409  0.460975  1
  Si  Si30  1  0.841157  0.538327  0.033995  1
  Si  Si31  1  0.662156  0.036084  0.536924  1
  Si  Si32  1  0.158370  0.461738  0.966045  1
  Si  Si33  1  0.654945  0.033440  0.960626  1
  Si  Si34  1  0.344487  0.967333  0.039825  1
  Sb  Sb35  1  0.179839  0.457301  0.535022  1
