# generated using pymatgen
data_Y7Co6CuSn22
_symmetry_space_group_name_H-M   'P 1'
_cell_length_a   9.68114600
_cell_length_b   9.68114531
_cell_length_c   9.91267500
_cell_angle_alpha   90.00000000
_cell_angle_beta   90.00000000
_cell_angle_gamma   120.00000919
_symmetry_Int_Tables_number   1
_chemical_formula_structural   Y7Co6CuSn22
_chemical_formula_sum   'Y7 Co6 Cu1 Sn22'
_cell_volume   804.59062414
_cell_formula_units_Z   1
loop_
 _symmetry_equiv_pos_site_id
 _symmetry_equiv_pos_as_xyz
  1  'x, y, z'
loop_
 _atom_site_type_symbol
 _atom_site_label
 _atom_site_symmetry_multiplicity
 _atom_site_fract_x
 _atom_site_fract_y
 _atom_site_fract_z
 _atom_site_occupancy
  Y  Y0  1  0.000000  0.000000  0.000000  1
  Y  Y1  1  0.478823  0.521177  0.306348  1
  Y  Y2  1  0.521177  0.478823  0.693652  1
  Y  Y3  1  0.478823  0.957645  0.306348  1
  Y  Y4  1  0.521177  0.042355  0.693652  1
  Y  Y5  1  0.042355  0.521177  0.306348  1
  Y  Y6  1  0.957645  0.478823  0.693652  1
  Co  Co7  1  0.832154  0.167846  0.196882  1
  Co  Co8  1  0.167846  0.832154  0.803118  1
  Co  Co9  1  0.832154  0.664308  0.196882  1
  Co  Co10  1  0.167846  0.335692  0.803118  1
  Co  Co11  1  0.335692  0.167846  0.196882  1
  Co  Co12  1  0.664308  0.832154  0.803118  1
  Cu  Cu13  1  0.000000  0.000000  0.500000  1
  Sn  Sn14  1  0.345855  0.000000  0.000000  1
  Sn  Sn15  1  0.654145  0.000000  0.000000  1
  Sn  Sn16  1  0.000000  0.345855  0.000000  1
  Sn  Sn17  1  0.000000  0.654145  0.000000  1
  Sn  Sn18  1  0.654145  0.654145  0.000000  1
  Sn  Sn19  1  0.345855  0.345855  0.000000  1
  Sn  Sn20  1  0.333333  0.666667  0.817087  1
  Sn  Sn21  1  0.666667  0.333333  0.182913  1
  Sn  Sn22  1  0.784242  0.215758  0.453300  1
  Sn  Sn23  1  0.215758  0.784242  0.546700  1
  Sn  Sn24  1  0.784242  0.568484  0.453300  1
  Sn  Sn25  1  0.215758  0.431516  0.546700  1
  Sn  Sn26  1  0.431516  0.215758  0.453300  1
  Sn  Sn27  1  0.568484  0.784242  0.546700  1
  Sn  Sn28  1  0.333333  0.666667  0.117337  1
  Sn  Sn29  1  0.666667  0.333333  0.882663  1
  Sn  Sn30  1  0.110814  0.889186  0.283349  1
  Sn  Sn31  1  0.889186  0.110814  0.716651  1
  Sn  Sn32  1  0.110814  0.221629  0.283349  1
  Sn  Sn33  1  0.889186  0.778371  0.716651  1
  Sn  Sn34  1  0.778371  0.889186  0.283349  1
  Sn  Sn35  1  0.221629  0.110814  0.716651  1
