# generated using pymatgen
data_Nd2Al9Pd2Rh
_symmetry_space_group_name_H-M   'P 1'
_cell_length_a   7.68136300
_cell_length_b   7.68136296
_cell_length_c   9.61304849
_cell_angle_alpha   89.96806791
_cell_angle_beta   89.96806633
_cell_angle_gamma   119.58149678
_symmetry_Int_Tables_number   1
_chemical_formula_structural   Nd2Al9Pd2Rh
_chemical_formula_sum   'Nd4 Al18 Pd4 Rh2'
_cell_volume   493.26936093
_cell_formula_units_Z   2
loop_
 _symmetry_equiv_pos_site_id
 _symmetry_equiv_pos_as_xyz
  1  'x, y, z'
loop_
 _atom_site_type_symbol
 _atom_site_label
 _atom_site_symmetry_multiplicity
 _atom_site_fract_x
 _atom_site_fract_y
 _atom_site_fract_z
 _atom_site_occupancy
  Nd  Nd0  1  0.994512  0.670000  0.749865  1
  Nd  Nd1  1  0.005488  0.330000  0.250135  1
  Nd  Nd2  1  0.670000  0.994512  0.749865  1
  Nd  Nd3  1  0.330000  0.005488  0.250135  1
  Al  Al4  1  0.133122  0.133122  0.751448  1
  Al  Al5  1  0.866878  0.866878  0.248552  1
  Al  Al6  1  0.003953  0.334926  0.574833  1
  Al  Al7  1  0.996047  0.665074  0.425167  1
  Al  Al8  1  0.999420  0.661723  0.071056  1
  Al  Al9  1  0.338277  0.000580  0.928944  1
  Al  Al10  1  0.000580  0.338277  0.928944  1
  Al  Al11  1  0.661723  0.999420  0.071056  1
  Al  Al12  1  0.665074  0.996047  0.425167  1
  Al  Al13  1  0.334926  0.003953  0.574833  1
  Al  Al14  1  0.336594  0.336594  0.048428  1
  Al  Al15  1  0.663406  0.663406  0.951572  1
  Al  Al16  1  0.663851  0.663851  0.556187  1
  Al  Al17  1  0.336149  0.336149  0.443813  1
  Al  Al18  1  0.338664  0.545739  0.754746  1
  Al  Al19  1  0.661336  0.454261  0.245254  1
  Al  Al20  1  0.545739  0.338664  0.754746  1
  Al  Al21  1  0.454261  0.661336  0.245254  1
  Pd  Pd22  1  0.671202  0.328798  0.500000  1
  Pd  Pd23  1  0.328798  0.671202  0.500000  1
  Pd  Pd24  1  0.000000  0.000000  0.500000  1
  Pd  Pd25  1  0.000000  0.000000  0.000000  1
  Rh  Rh26  1  0.329303  0.670697  0.000000  1
  Rh  Rh27  1  0.670697  0.329303  0.000000  1
