# generated using pymatgen
data_Tm2LuCo8P6W
_symmetry_space_group_name_H-M   'P 1'
_cell_length_a   3.69687300
_cell_length_b   10.50441300
_cell_length_c   12.16977900
_cell_angle_alpha   90.00000000
_cell_angle_beta   90.00000000
_cell_angle_gamma   90.00000000
_symmetry_Int_Tables_number   1
_chemical_formula_structural   Tm2LuCo8P6W
_chemical_formula_sum   'Tm4 Lu2 Co16 P12 W2'
_cell_volume   472.59487914
_cell_formula_units_Z   2
loop_
 _symmetry_equiv_pos_site_id
 _symmetry_equiv_pos_as_xyz
  1  'x, y, z'
loop_
 _atom_site_type_symbol
 _atom_site_label
 _atom_site_symmetry_multiplicity
 _atom_site_fract_x
 _atom_site_fract_y
 _atom_site_fract_z
 _atom_site_occupancy
  Tm  Tm0  1  0.000000  0.500000  0.525025  1
  Tm  Tm1  1  0.500000  0.000000  0.474670  1
  Tm  Tm2  1  0.000000  0.680144  0.794913  1
  Tm  Tm3  1  0.000000  0.319856  0.794913  1
  Lu  Lu4  1  0.500000  0.820170  0.205075  1
  Lu  Lu5  1  0.500000  0.179830  0.205075  1
  Co  Co6  1  0.500000  0.500000  0.700910  1
  Co  Co7  1  0.000000  0.000000  0.298637  1
  Co  Co8  1  0.000000  0.500000  0.987528  1
  Co  Co9  1  0.500000  0.000000  0.013456  1
  Co  Co10  1  0.500000  0.332548  0.990509  1
  Co  Co11  1  0.500000  0.667452  0.990509  1
  Co  Co12  1  0.000000  0.167047  0.010540  1
  Co  Co13  1  0.000000  0.832953  0.010540  1
  Co  Co14  1  0.500000  0.295902  0.431288  1
  Co  Co15  1  0.500000  0.704098  0.431288  1
  Co  Co16  1  0.000000  0.203820  0.567881  1
  Co  Co17  1  0.000000  0.796180  0.567881  1
  Co  Co18  1  0.500000  0.877518  0.706583  1
  Co  Co19  1  0.500000  0.122482  0.706583  1
  Co  Co20  1  0.000000  0.622936  0.292987  1
  Co  Co21  1  0.000000  0.377064  0.292987  1
  P  P22  1  0.500000  0.500000  0.879812  1
  P  P23  1  0.000000  0.000000  0.120994  1
  P  P24  1  0.500000  0.500000  0.352151  1
  P  P25  1  0.000000  0.000000  0.647758  1
  P  P26  1  0.500000  0.312553  0.616122  1
  P  P27  1  0.500000  0.687447  0.616122  1
  P  P28  1  0.000000  0.187119  0.382923  1
  P  P29  1  0.000000  0.812881  0.382923  1
  P  P30  1  0.500000  0.843437  0.891748  1
  P  P31  1  0.500000  0.156563  0.891748  1
  P  P32  1  0.000000  0.657135  0.108846  1
  P  P33  1  0.000000  0.342865  0.108846  1
  W  W34  1  0.500000  0.500000  0.157452  1
  W  W35  1  0.000000  0.000000  0.842776  1
