# generated using pymatgen
data_PaAl4Fe
_symmetry_space_group_name_H-M   'P 1'
_cell_length_a   9.14086400
_cell_length_b   9.14086326
_cell_length_c   4.15615900
_cell_angle_alpha   90.00000000
_cell_angle_beta   90.00000000
_cell_angle_gamma   120.00000993
_symmetry_Int_Tables_number   1
_chemical_formula_structural   PaAl4Fe
_chemical_formula_sum   'Pa3 Al12 Fe3'
_cell_volume   300.74415918
_cell_formula_units_Z   3
loop_
 _symmetry_equiv_pos_site_id
 _symmetry_equiv_pos_as_xyz
  1  'x, y, z'
loop_
 _atom_site_type_symbol
 _atom_site_label
 _atom_site_symmetry_multiplicity
 _atom_site_fract_x
 _atom_site_fract_y
 _atom_site_fract_z
 _atom_site_occupancy
  Pa  Pa0  1  0.000000  0.408765  0.000000  1
  Pa  Pa1  1  0.591235  0.591235  0.000000  1
  Pa  Pa2  1  0.408765  0.000000  0.000000  1
  Al  Al3  1  0.000000  0.742838  0.000000  1
  Al  Al4  1  0.257162  0.257162  0.000000  1
  Al  Al5  1  0.742838  0.000000  0.000000  1
  Al  Al6  1  0.000000  0.166521  0.500000  1
  Al  Al7  1  0.833479  0.833479  0.500000  1
  Al  Al8  1  0.166521  0.000000  0.500000  1
  Al  Al9  1  0.296151  0.480835  0.500000  1
  Al  Al10  1  0.184685  0.703849  0.500000  1
  Al  Al11  1  0.519165  0.815315  0.500000  1
  Al  Al12  1  0.815315  0.519165  0.500000  1
  Al  Al13  1  0.703849  0.184685  0.500000  1
  Al  Al14  1  0.480835  0.296151  0.500000  1
  Fe  Fe15  1  0.666667  0.333333  0.000000  1
  Fe  Fe16  1  0.333333  0.666667  0.000000  1
  Fe  Fe17  1  0.000000  0.000000  0.000000  1
