# generated using pymatgen
data_SmHo2Mg3Pb2Au
_symmetry_space_group_name_H-M   'P 1'
_cell_length_a   7.62284630
_cell_length_b   7.62284660
_cell_length_c   4.52377100
_cell_angle_alpha   90.00000000
_cell_angle_beta   90.00000000
_cell_angle_gamma   120.28933763
_symmetry_Int_Tables_number   1
_chemical_formula_structural   SmHo2Mg3Pb2Au
_chemical_formula_sum   'Sm1 Ho2 Mg3 Pb2 Au1'
_cell_volume   226.98229295
_cell_formula_units_Z   1
loop_
 _symmetry_equiv_pos_site_id
 _symmetry_equiv_pos_as_xyz
  1  'x, y, z'
loop_
 _atom_site_type_symbol
 _atom_site_label
 _atom_site_symmetry_multiplicity
 _atom_site_fract_x
 _atom_site_fract_y
 _atom_site_fract_z
 _atom_site_occupancy
  Sm  Sm0  1  0.405724  0.405724  0.000000  1
  Ho  Ho1  1  0.597858  0.000857  0.000000  1
  Ho  Ho2  1  0.000857  0.597858  0.000000  1
  Mg  Mg3  1  0.232411  0.999489  0.500000  1
  Mg  Mg4  1  0.999489  0.232411  0.500000  1
  Mg  Mg5  1  0.767013  0.767013  0.500000  1
  Pb  Pb6  1  0.331854  0.669437  0.500000  1
  Pb  Pb7  1  0.669437  0.331854  0.500000  1
  Au  Au8  1  0.995357  0.995357  0.000000  1
