# generated using pymatgen
data_Nb6Fe3Co(OsN)2
_symmetry_space_group_name_H-M   'P 1'
_cell_length_a   8.12765264
_cell_length_b   8.12765285
_cell_length_c   8.12435700
_cell_angle_alpha   60.01341735
_cell_angle_beta   60.01341648
_cell_angle_gamma   60.02063907
_symmetry_Int_Tables_number   1
_chemical_formula_structural   Nb6Fe3Co(OsN)2
_chemical_formula_sum   'Nb12 Fe6 Co2 Os4 N4'
_cell_volume   379.62958256
_cell_formula_units_Z   2
loop_
 _symmetry_equiv_pos_site_id
 _symmetry_equiv_pos_as_xyz
  1  'x, y, z'
loop_
 _atom_site_type_symbol
 _atom_site_label
 _atom_site_symmetry_multiplicity
 _atom_site_fract_x
 _atom_site_fract_y
 _atom_site_fract_z
 _atom_site_occupancy
  Nb  Nb0  1  0.803882  0.803882  0.196118  1
  Nb  Nb1  1  0.195045  0.195045  0.804955  1
  Nb  Nb2  1  0.804043  0.196251  0.804425  1
  Nb  Nb3  1  0.196251  0.804043  0.195281  1
  Nb  Nb4  1  0.196251  0.804043  0.804425  1
  Nb  Nb5  1  0.804043  0.196251  0.195281  1
  Nb  Nb6  1  0.445000  0.445000  0.055000  1
  Nb  Nb7  1  0.053542  0.053542  0.446458  1
  Nb  Nb8  1  0.445460  0.053814  0.446169  1
  Nb  Nb9  1  0.053814  0.445460  0.054556  1
  Nb  Nb10  1  0.053814  0.445460  0.446169  1
  Nb  Nb11  1  0.445460  0.053814  0.054556  1
  Fe  Fe12  1  0.728275  0.424197  0.423765  1
  Fe  Fe13  1  0.424197  0.728275  0.423765  1
  Fe  Fe14  1  0.424422  0.424422  0.726728  1
  Fe  Fe15  1  0.424422  0.424422  0.424430  1
  Fe  Fe16  1  0.523455  0.826329  0.825107  1
  Fe  Fe17  1  0.826329  0.523455  0.825107  1
  Co  Co18  1  0.828153  0.828153  0.516136  1
  Co  Co19  1  0.828153  0.828153  0.827556  1
  Os  Os20  1  0.125707  0.622842  0.625726  1
  Os  Os21  1  0.622842  0.125707  0.625726  1
  Os  Os22  1  0.624154  0.624154  0.124234  1
  Os  Os23  1  0.624154  0.624154  0.627457  1
  N  N24  1  0.624696  0.124656  0.125324  1
  N  N25  1  0.124656  0.624696  0.125324  1
  N  N26  1  0.124891  0.124891  0.624594  1
  N  N27  1  0.124891  0.124891  0.125624  1
