# generated using pymatgen
data_Er5In4CuPd
_symmetry_space_group_name_H-M   'P 1'
_cell_length_a   3.60545400
_cell_length_b   8.03553037
_cell_length_c   18.05041959
_cell_angle_alpha   90.10502411
_cell_angle_beta   90.00000000
_cell_angle_gamma   90.00000000
_symmetry_Int_Tables_number   1
_chemical_formula_structural   Er5In4CuPd
_chemical_formula_sum   'Er10 In8 Cu2 Pd2'
_cell_volume   522.95109658
_cell_formula_units_Z   2
loop_
 _symmetry_equiv_pos_site_id
 _symmetry_equiv_pos_as_xyz
  1  'x, y, z'
loop_
 _atom_site_type_symbol
 _atom_site_label
 _atom_site_symmetry_multiplicity
 _atom_site_fract_x
 _atom_site_fract_y
 _atom_site_fract_z
 _atom_site_occupancy
  Er  Er0  1  0.000000  0.500000  0.500000  1
  Er  Er1  1  0.000000  0.000000  0.000000  1
  Er  Er2  1  0.000000  0.739331  0.279623  1
  Er  Er3  1  0.000000  0.260669  0.720377  1
  Er  Er4  1  0.000000  0.759651  0.779924  1
  Er  Er5  1  0.000000  0.240349  0.220076  1
  Er  Er6  1  0.000000  0.613960  0.083130  1
  Er  Er7  1  0.000000  0.386040  0.916870  1
  Er  Er8  1  0.000000  0.885848  0.582463  1
  Er  Er9  1  0.000000  0.114152  0.417537  1
  In  In10  1  0.500000  0.711580  0.930617  1
  In  In11  1  0.500000  0.288420  0.069383  1
  In  In12  1  0.500000  0.787901  0.431282  1
  In  In13  1  0.500000  0.212099  0.568718  1
  In  In14  1  0.500000  0.581422  0.650124  1
  In  In15  1  0.500000  0.418578  0.349876  1
  In  In16  1  0.500000  0.917927  0.148766  1
  In  In17  1  0.500000  0.082073  0.851234  1
  Cu  Cu18  1  0.500000  0.523816  0.196679  1
  Cu  Cu19  1  0.500000  0.476184  0.803321  1
  Pd  Pd20  1  0.500000  0.975582  0.696811  1
  Pd  Pd21  1  0.500000  0.024418  0.303189  1
