# generated using pymatgen
data_TcPt5Rh3
_symmetry_space_group_name_H-M   'P 1'
_cell_length_a   6.23446769
_cell_length_b   6.23446653
_cell_length_c   6.19559917
_cell_angle_alpha   95.63209643
_cell_angle_beta   95.63209709
_cell_angle_gamma   143.60472499
_symmetry_Int_Tables_number   1
_chemical_formula_structural   TcPt5Rh3
_chemical_formula_sum   'Tc1 Pt5 Rh3'
_cell_volume   135.64880184
_cell_formula_units_Z   1
loop_
 _symmetry_equiv_pos_site_id
 _symmetry_equiv_pos_as_xyz
  1  'x, y, z'
loop_
 _atom_site_type_symbol
 _atom_site_label
 _atom_site_symmetry_multiplicity
 _atom_site_fract_x
 _atom_site_fract_y
 _atom_site_fract_z
 _atom_site_occupancy
  Tc  Tc0  1  0.003920  0.996080  0.000000  1
  Pt  Pt1  1  0.337452  0.662548  0.000000  1
  Pt  Pt2  1  0.001990  0.327571  0.329560  1
  Pt  Pt3  1  0.997974  0.673008  0.670982  1
  Pt  Pt4  1  0.672429  0.998010  0.670440  1
  Pt  Pt5  1  0.326992  0.002026  0.329018  1
  Rh  Rh6  1  0.340168  0.339008  0.679176  1
  Rh  Rh7  1  0.660992  0.659832  0.320824  1
  Rh  Rh8  1  0.658084  0.341916  0.000000  1
