# generated using pymatgen
data_P2Pt6Pb
_symmetry_space_group_name_H-M   'P 1'
_cell_length_a   8.57028800
_cell_length_b   8.57028800
_cell_length_c   8.57028800
_cell_angle_alpha   90.00000000
_cell_angle_beta   90.00000000
_cell_angle_gamma   90.00000000
_symmetry_Int_Tables_number   1
_chemical_formula_structural   P2Pt6Pb
_chemical_formula_sum   'P8 Pt24 Pb4'
_cell_volume   629.48625153
_cell_formula_units_Z   4
loop_
 _symmetry_equiv_pos_site_id
 _symmetry_equiv_pos_as_xyz
  1  'x, y, z'
loop_
 _atom_site_type_symbol
 _atom_site_label
 _atom_site_symmetry_multiplicity
 _atom_site_fract_x
 _atom_site_fract_y
 _atom_site_fract_z
 _atom_site_occupancy
  P  P0  1  0.806254  0.306254  0.193746  1
  P  P1  1  0.193746  0.806254  0.306254  1
  P  P2  1  0.693746  0.693746  0.693746  1
  P  P3  1  0.306254  0.193746  0.806254  1
  P  P4  1  0.193746  0.693746  0.806254  1
  P  P5  1  0.806254  0.193746  0.693746  1
  P  P6  1  0.306254  0.306254  0.306254  1
  P  P7  1  0.693746  0.806254  0.193746  1
  Pt  Pt8  1  0.421930  0.843412  0.158026  1
  Pt  Pt9  1  0.578070  0.343412  0.341974  1
  Pt  Pt10  1  0.078070  0.156588  0.658026  1
  Pt  Pt11  1  0.921930  0.656588  0.841974  1
  Pt  Pt12  1  0.158026  0.421930  0.843412  1
  Pt  Pt13  1  0.341974  0.578070  0.343412  1
  Pt  Pt14  1  0.658026  0.078070  0.156588  1
  Pt  Pt15  1  0.841974  0.921930  0.656588  1
  Pt  Pt16  1  0.843412  0.158026  0.421930  1
  Pt  Pt17  1  0.343412  0.341974  0.578070  1
  Pt  Pt18  1  0.156588  0.658026  0.078070  1
  Pt  Pt19  1  0.656588  0.841974  0.921930  1
  Pt  Pt20  1  0.578070  0.156588  0.841974  1
  Pt  Pt21  1  0.421930  0.656588  0.658026  1
  Pt  Pt22  1  0.921930  0.843412  0.341974  1
  Pt  Pt23  1  0.078070  0.343412  0.158026  1
  Pt  Pt24  1  0.841974  0.578070  0.156588  1
  Pt  Pt25  1  0.658026  0.421930  0.656588  1
  Pt  Pt26  1  0.341974  0.921930  0.843412  1
  Pt  Pt27  1  0.158026  0.078070  0.343412  1
  Pt  Pt28  1  0.156588  0.841974  0.578070  1
  Pt  Pt29  1  0.656588  0.658026  0.421930  1
  Pt  Pt30  1  0.843412  0.341974  0.921930  1
  Pt  Pt31  1  0.343412  0.158026  0.078070  1
  Pb  Pb32  1  0.500000  0.500000  0.000000  1
  Pb  Pb33  1  0.500000  0.000000  0.500000  1
  Pb  Pb34  1  0.000000  0.500000  0.500000  1
  Pb  Pb35  1  0.000000  0.000000  0.000000  1
