# generated using pymatgen
data_Ho16MgCd3(NiIr)2
_symmetry_space_group_name_H-M   'P 1'
_cell_length_a   9.57943974
_cell_length_b   9.57943971
_cell_length_c   9.63507186
_cell_angle_alpha   59.68057815
_cell_angle_beta   59.68057904
_cell_angle_gamma   59.40815712
_symmetry_Int_Tables_number   1
_chemical_formula_structural   Ho16MgCd3(NiIr)2
_chemical_formula_sum   'Ho16 Mg1 Cd3 Ni2 Ir2'
_cell_volume   619.36254989
_cell_formula_units_Z   1
loop_
 _symmetry_equiv_pos_site_id
 _symmetry_equiv_pos_as_xyz
  1  'x, y, z'
loop_
 _atom_site_type_symbol
 _atom_site_label
 _atom_site_symmetry_multiplicity
 _atom_site_fract_x
 _atom_site_fract_y
 _atom_site_fract_z
 _atom_site_occupancy
  Ho  Ho0  1  0.348827  0.348827  0.345142  1
  Ho  Ho1  1  0.351180  0.351180  0.954388  1
  Ho  Ho2  1  0.352630  0.955558  0.347042  1
  Ho  Ho3  1  0.955558  0.352630  0.347042  1
  Ho  Ho4  1  0.807936  0.188436  0.191781  1
  Ho  Ho5  1  0.186069  0.810653  0.814306  1
  Ho  Ho6  1  0.188436  0.807936  0.191781  1
  Ho  Ho7  1  0.810653  0.186069  0.814306  1
  Ho  Ho8  1  0.189640  0.189640  0.810314  1
  Ho  Ho9  1  0.812132  0.812132  0.187245  1
  Ho  Ho10  1  0.936194  0.562885  0.568246  1
  Ho  Ho11  1  0.560595  0.938574  0.936616  1
  Ho  Ho12  1  0.562885  0.936194  0.568246  1
  Ho  Ho13  1  0.938574  0.560595  0.936616  1
  Ho  Ho14  1  0.566536  0.566536  0.936517  1
  Ho  Ho15  1  0.939592  0.939592  0.561551  1
  Mg  Mg16  1  0.574256  0.574256  0.575967  1
  Cd  Cd17  1  0.580057  0.580057  0.255141  1
  Cd  Cd18  1  0.580040  0.254482  0.580625  1
  Cd  Cd19  1  0.254482  0.580040  0.580625  1
  Ni  Ni20  1  0.141674  0.575651  0.140292  1
  Ni  Ni21  1  0.575651  0.141674  0.140292  1
  Ir  Ir22  1  0.144283  0.144283  0.140833  1
  Ir  Ir23  1  0.142119  0.142119  0.575087  1
