# generated using pymatgen
data_Ta4V4SiGe3
_symmetry_space_group_name_H-M   'P 1'
_cell_length_a   3.43642600
_cell_length_b   6.65412884
_cell_length_c   8.00671485
_cell_angle_alpha   89.96019790
_cell_angle_beta   90.00000000
_cell_angle_gamma   90.00000000
_symmetry_Int_Tables_number   1
_chemical_formula_structural   Ta4V4SiGe3
_chemical_formula_sum   'Ta4 V4 Si1 Ge3'
_cell_volume   183.08487126
_cell_formula_units_Z   1
loop_
 _symmetry_equiv_pos_site_id
 _symmetry_equiv_pos_as_xyz
  1  'x, y, z'
loop_
 _atom_site_type_symbol
 _atom_site_label
 _atom_site_symmetry_multiplicity
 _atom_site_fract_x
 _atom_site_fract_y
 _atom_site_fract_z
 _atom_site_occupancy
  Ta  Ta0  1  0.250000  0.548723  0.164352  1
  Ta  Ta1  1  0.750000  0.448036  0.828866  1
  Ta  Ta2  1  0.750000  0.961979  0.665739  1
  Ta  Ta3  1  0.250000  0.048114  0.338396  1
  V  V4  1  0.250000  0.623948  0.561820  1
  V  V5  1  0.750000  0.368268  0.443123  1
  V  V6  1  0.750000  0.870322  0.060841  1
  V  V7  1  0.250000  0.130513  0.936311  1
  Si  Si8  1  0.250000  0.253696  0.638630  1
  Ge  Ge9  1  0.250000  0.753421  0.859700  1
  Ge  Ge10  1  0.750000  0.246880  0.139377  1
  Ge  Ge11  1  0.750000  0.746100  0.362844  1
