# generated using pymatgen
data_Gd9Pa(Sn3C)2
_symmetry_space_group_name_H-M   'P 1'
_cell_length_a   8.96601800
_cell_length_b   8.96601815
_cell_length_c   6.53657600
_cell_angle_alpha   90.00000000
_cell_angle_beta   90.00000000
_cell_angle_gamma   120.45605068
_symmetry_Int_Tables_number   1
_chemical_formula_structural   Gd9Pa(Sn3C)2
_chemical_formula_sum   'Gd9 Pa1 Sn6 C2'
_cell_volume   452.96639155
_cell_formula_units_Z   1
loop_
 _symmetry_equiv_pos_site_id
 _symmetry_equiv_pos_as_xyz
  1  'x, y, z'
loop_
 _atom_site_type_symbol
 _atom_site_label
 _atom_site_symmetry_multiplicity
 _atom_site_fract_x
 _atom_site_fract_y
 _atom_site_fract_z
 _atom_site_occupancy
  Gd  Gd0  1  0.331033  0.667295  0.500744  1
  Gd  Gd1  1  0.667295  0.331033  0.500744  1
  Gd  Gd2  1  0.667295  0.331033  0.999256  1
  Gd  Gd3  1  0.331033  0.667295  0.999256  1
  Gd  Gd4  1  0.221512  0.002311  0.750000  1
  Gd  Gd5  1  0.773535  0.995542  0.250000  1
  Gd  Gd6  1  0.002311  0.221512  0.750000  1
  Gd  Gd7  1  0.995542  0.773535  0.250000  1
  Gd  Gd8  1  0.785568  0.785568  0.750000  1
  Pa  Pa9  1  0.201969  0.201969  0.250000  1
  Sn  Sn10  1  0.597115  0.999384  0.750000  1
  Sn  Sn11  1  0.403235  0.999177  0.250000  1
  Sn  Sn12  1  0.999384  0.597115  0.750000  1
  Sn  Sn13  1  0.999177  0.403235  0.250000  1
  Sn  Sn14  1  0.412816  0.412816  0.750000  1
  Sn  Sn15  1  0.583188  0.583188  0.250000  1
  C  C16  1  0.013997  0.013997  0.489737  1
  C  C17  1  0.013997  0.013997  0.010263  1
