# generated using pymatgen
data_Tb19HoIr7Ru5
_symmetry_space_group_name_H-M   'P 1'
_cell_length_a   10.89787870
_cell_length_b   10.89847482
_cell_length_c   6.42931900
_cell_angle_alpha   89.96927577
_cell_angle_beta   89.96811121
_cell_angle_gamma   90.00689058
_symmetry_Int_Tables_number   1
_chemical_formula_structural   Tb19HoIr7Ru5
_chemical_formula_sum   'Tb19 Ho1 Ir7 Ru5'
_cell_volume   763.61163344
_cell_formula_units_Z   1
loop_
 _symmetry_equiv_pos_site_id
 _symmetry_equiv_pos_as_xyz
  1  'x, y, z'
loop_
 _atom_site_type_symbol
 _atom_site_label
 _atom_site_symmetry_multiplicity
 _atom_site_fract_x
 _atom_site_fract_y
 _atom_site_fract_z
 _atom_site_occupancy
  Tb  Tb0  1  0.293458  0.086448  0.378395  1
  Tb  Tb1  1  0.292864  0.913443  0.878463  1
  Tb  Tb2  1  0.707359  0.086813  0.878757  1
  Tb  Tb3  1  0.706990  0.913765  0.377651  1
  Tb  Tb4  1  0.586506  0.793424  0.878380  1
  Tb  Tb5  1  0.587256  0.206933  0.378700  1
  Tb  Tb6  1  0.413461  0.793199  0.378533  1
  Tb  Tb7  1  0.413333  0.206476  0.877798  1
  Tb  Tb8  1  0.206673  0.413539  0.621490  1
  Tb  Tb9  1  0.206692  0.586567  0.121599  1
  Tb  Tb10  1  0.793191  0.412720  0.121423  1
  Tb  Tb11  1  0.793417  0.586642  0.622075  1
  Tb  Tb12  1  0.913572  0.706571  0.121599  1
  Tb  Tb13  1  0.913158  0.292666  0.621254  1
  Tb  Tb14  1  0.086568  0.707081  0.621542  1
  Tb  Tb15  1  0.086203  0.292990  0.122340  1
  Tb  Tb16  1  0.999520  0.001015  0.499407  1
  Tb  Tb17  1  0.998967  0.000483  0.000624  1
  Tb  Tb18  1  0.500168  0.500068  0.000102  1
  Ho  Ho19  1  0.499937  0.499837  0.499869  1
  Ir  Ir20  1  0.846796  0.846524  0.749805  1
  Ir  Ir21  1  0.153512  0.153175  0.750201  1
  Ir  Ir22  1  0.153170  0.846825  0.250011  1
  Ir  Ir23  1  0.651861  0.348097  0.749486  1
  Ir  Ir24  1  0.652817  0.652492  0.250284  1
  Ir  Ir25  1  0.347459  0.347220  0.250741  1
  Ir  Ir26  1  0.347610  0.652427  0.749482  1
  Ru  Ru27  1  0.847680  0.152358  0.249976  1
  Ru  Ru28  1  0.500170  0.000182  0.121504  1
  Ru  Ru29  1  0.499839  0.000035  0.621530  1
  Ru  Ru30  1  0.999959  0.500150  0.878428  1
  Ru  Ru31  1  0.999834  0.499836  0.378554  1
