# generated using pymatgen
data_Cs3Ac(VSe4)2
_symmetry_space_group_name_H-M   'P 1'
_cell_length_a   10.80730251
_cell_length_b   7.47201900
_cell_length_c   12.72519900
_cell_angle_alpha   90.00000000
_cell_angle_beta   89.40104308
_cell_angle_gamma   90.00000000
_symmetry_Int_Tables_number   1
_chemical_formula_structural   Cs3Ac(VSe4)2
_chemical_formula_sum   'Cs6 Ac2 V4 Se16'
_cell_volume   1027.53382665
_cell_formula_units_Z   2
loop_
 _symmetry_equiv_pos_site_id
 _symmetry_equiv_pos_as_xyz
  1  'x, y, z'
loop_
 _atom_site_type_symbol
 _atom_site_label
 _atom_site_symmetry_multiplicity
 _atom_site_fract_x
 _atom_site_fract_y
 _atom_site_fract_z
 _atom_site_occupancy
  Cs  Cs0  1  0.366512  0.805028  0.083244  1
  Cs  Cs1  1  0.401191  0.305822  0.344934  1
  Cs  Cs2  1  0.842708  0.306526  0.433582  1
  Cs  Cs3  1  0.157292  0.806526  0.566419  1
  Cs  Cs4  1  0.598809  0.805822  0.655066  1
  Cs  Cs5  1  0.633489  0.305028  0.916756  1
  Ac  Ac6  1  0.891067  0.786659  0.150119  1
  Ac  Ac7  1  0.108933  0.286659  0.849881  1
  V  V8  1  0.091626  0.335148  0.156553  1
  V  V9  1  0.632882  0.806056  0.310885  1
  V  V10  1  0.367118  0.306055  0.689115  1
  V  V11  1  0.908374  0.835148  0.843447  1
  Se  Se12  1  0.932261  0.393372  0.043622  1
  Se  Se13  1  0.270292  0.308421  0.058786  1
  Se  Se14  1  0.658509  0.047570  0.200349  1
  Se  Se15  1  0.647520  0.556412  0.204254  1
  Se  Se16  1  0.062606  0.081202  0.254944  1
  Se  Se17  1  0.104407  0.574414  0.267811  1
  Se  Se18  1  0.449292  0.813633  0.396718  1
  Se  Se19  1  0.807334  0.802016  0.412926  1
  Se  Se20  1  0.192667  0.302015  0.587074  1
  Se  Se21  1  0.550707  0.313632  0.603282  1
  Se  Se22  1  0.895593  0.074413  0.732189  1
  Se  Se23  1  0.937394  0.581202  0.745056  1
  Se  Se24  1  0.352480  0.056413  0.795746  1
  Se  Se25  1  0.341491  0.547568  0.799651  1
  Se  Se26  1  0.729707  0.808422  0.941214  1
  Se  Se27  1  0.067739  0.893372  0.956377  1
