# generated using pymatgen
data_K2Ta4Se4O19
_symmetry_space_group_name_H-M   'P 1'
_cell_length_a   3.92939332
_cell_length_b   10.45517413
_cell_length_c   11.31649809
_cell_angle_alpha   105.52326201
_cell_angle_beta   90.15797698
_cell_angle_gamma   97.07555180
_symmetry_Int_Tables_number   1
_chemical_formula_structural   K2Ta4Se4O19
_chemical_formula_sum   'K2 Ta4 Se4 O19'
_cell_volume   444.22921194
_cell_formula_units_Z   1
loop_
 _symmetry_equiv_pos_site_id
 _symmetry_equiv_pos_as_xyz
  1  'x, y, z'
loop_
 _atom_site_type_symbol
 _atom_site_label
 _atom_site_symmetry_multiplicity
 _atom_site_fract_x
 _atom_site_fract_y
 _atom_site_fract_z
 _atom_site_occupancy
  K  K0  1  0.811259  0.954178  0.852406  1
  K  K1  1  0.188741  0.045822  0.147594  1
  Ta  Ta2  1  0.370831  0.192829  0.705798  1
  Ta  Ta3  1  0.629169  0.807171  0.294202  1
  Ta  Ta4  1  0.532814  0.553682  0.677597  1
  Ta  Ta5  1  0.467186  0.446318  0.322403  1
  Se  Se6  1  0.328919  0.827443  0.579778  1
  Se  Se7  1  0.671081  0.172557  0.420222  1
  Se  Se8  1  0.295113  0.701930  0.982772  1
  Se  Se9  1  0.704887  0.298070  0.017228  1
  O  O10  1  0.638951  0.871731  0.482930  1
  O  O11  1  0.361049  0.128269  0.517070  1
  O  O12  1  0.320527  0.979198  0.689016  1
  O  O13  1  0.679473  0.020802  0.310984  1
  O  O14  1  0.580993  0.754645  0.663277  1
  O  O15  1  0.419007  0.245355  0.336723  1
  O  O16  1  0.574277  0.634278  0.869730  1
  O  O17  1  0.425723  0.365722  0.130270  1
  O  O18  1  0.606700  0.763636  0.111454  1
  O  O19  1  0.393300  0.236364  0.888546  1
  O  O20  1  0.252399  0.847250  0.953981  1
  O  O21  1  0.747601  0.152750  0.046019  1
  O  O22  1  0.882298  0.176763  0.707922  1
  O  O23  1  0.117702  0.823237  0.292078  1
  O  O24  1  0.453644  0.372304  0.694456  1
  O  O25  1  0.546356  0.627696  0.305544  1
  O  O26  1  0.500000  0.500000  0.500000  1
  O  O27  1  0.024322  0.570498  0.689561  1
  O  O28  1  0.975678  0.429502  0.310439  1
