# generated using pymatgen
data_Cs3In(IO3)6
_symmetry_space_group_name_H-M   'P 1'
_cell_length_a   7.39796975
_cell_length_b   7.39554693
_cell_length_c   11.23710791
_cell_angle_alpha   88.45333507
_cell_angle_beta   108.31132738
_cell_angle_gamma   106.88544434
_symmetry_Int_Tables_number   1
_chemical_formula_structural   Cs3In(IO3)6
_chemical_formula_sum   'Cs3 In1 I6 O18'
_cell_volume   557.11038755
_cell_formula_units_Z   1
loop_
 _symmetry_equiv_pos_site_id
 _symmetry_equiv_pos_as_xyz
  1  'x, y, z'
loop_
 _atom_site_type_symbol
 _atom_site_label
 _atom_site_symmetry_multiplicity
 _atom_site_fract_x
 _atom_site_fract_y
 _atom_site_fract_z
 _atom_site_occupancy
  Cs  Cs0  1  0.000000  0.000000  0.000000  1
  Cs  Cs1  1  0.830293  0.026275  0.598964  1
  Cs  Cs2  1  0.169707  0.973725  0.401036  1
  In  In3  1  0.500000  0.500000  0.000000  1
  I  I4  1  0.011699  0.471295  0.190254  1
  I  I5  1  0.988301  0.528705  0.809746  1
  I  I6  1  0.554292  0.946156  0.187443  1
  I  I7  1  0.445708  0.053844  0.812557  1
  I  I8  1  0.426500  0.554328  0.649377  1
  I  I9  1  0.573500  0.445672  0.350623  1
  O  O10  1  0.823084  0.536937  0.053520  1
  O  O11  1  0.176916  0.463063  0.946480  1
  O  O12  1  0.945705  0.547586  0.319088  1
  O  O13  1  0.054295  0.452414  0.680912  1
  O  O14  1  0.908766  0.214675  0.185253  1
  O  O15  1  0.091234  0.785325  0.814747  1
  O  O16  1  0.568963  0.808372  0.054757  1
  O  O17  1  0.431037  0.191628  0.945243  1
  O  O18  1  0.298058  0.837276  0.184817  1
  O  O19  1  0.701942  0.162724  0.815183  1
  O  O20  1  0.688509  0.838814  0.320876  1
  O  O21  1  0.311491  0.161186  0.679124  1
  O  O22  1  0.534605  0.602946  0.823025  1
  O  O23  1  0.465395  0.397054  0.176975  1
  O  O24  1  0.663102  0.567115  0.623199  1
  O  O25  1  0.336898  0.432885  0.376801  1
  O  O26  1  0.413868  0.793305  0.614010  1
  O  O27  1  0.586132  0.206695  0.385990  1
