# generated using pymatgen
data_Tb4ZnSb3As2Rh7
_symmetry_space_group_name_H-M   'P 1'
_cell_length_a   7.48662987
_cell_length_b   7.45684533
_cell_length_c   7.45684472
_cell_angle_alpha   108.90686469
_cell_angle_beta   109.80405917
_cell_angle_gamma   109.80406356
_symmetry_Int_Tables_number   1
_chemical_formula_structural   Tb4ZnSb3As2Rh7
_chemical_formula_sum   'Tb4 Zn1 Sb3 As2 Rh7'
_cell_volume   320.03972306
_cell_formula_units_Z   1
loop_
 _symmetry_equiv_pos_site_id
 _symmetry_equiv_pos_as_xyz
  1  'x, y, z'
loop_
 _atom_site_type_symbol
 _atom_site_label
 _atom_site_symmetry_multiplicity
 _atom_site_fract_x
 _atom_site_fract_y
 _atom_site_fract_z
 _atom_site_occupancy
  Tb  Tb0  1  0.546175  0.004531  0.004531  1
  Tb  Tb1  1  0.988757  0.487596  0.003377  1
  Tb  Tb2  1  0.988757  0.003377  0.487596  1
  Tb  Tb3  1  0.515211  0.529363  0.529363  1
  Zn  Zn4  1  0.014166  0.326972  0.326972  1
  Sb  Sb5  1  0.012219  0.683047  0.683047  1
  Sb  Sb6  1  0.308823  0.006918  0.303778  1
  Sb  Sb7  1  0.308823  0.303778  0.006918  1
  As  As8  1  0.673261  0.005458  0.669999  1
  As  As9  1  0.673261  0.669999  0.005458  1
  Rh  Rh10  1  0.958098  0.978701  0.978701  1
  Rh  Rh11  1  0.499170  0.750895  0.250637  1
  Rh  Rh12  1  0.750756  0.497121  0.247712  1
  Rh  Rh13  1  0.256298  0.755440  0.498455  1
  Rh  Rh14  1  0.256298  0.498455  0.755440  1
  Rh  Rh15  1  0.499170  0.250637  0.750895  1
  Rh  Rh16  1  0.750756  0.247712  0.497121  1
