# generated using pymatgen
data_Er9Cd5NiAu3
_symmetry_space_group_name_H-M   'P 1'
_cell_length_a   10.89340825
_cell_length_b   10.89340825
_cell_length_c   3.70241000
_cell_angle_alpha   90.00000000
_cell_angle_beta   90.00000000
_cell_angle_gamma   89.94507848
_symmetry_Int_Tables_number   1
_chemical_formula_structural   Er9Cd5NiAu3
_chemical_formula_sum   'Er9 Cd5 Ni1 Au3'
_cell_volume   439.35125435
_cell_formula_units_Z   1
loop_
 _symmetry_equiv_pos_site_id
 _symmetry_equiv_pos_as_xyz
  1  'x, y, z'
loop_
 _atom_site_type_symbol
 _atom_site_label
 _atom_site_symmetry_multiplicity
 _atom_site_fract_x
 _atom_site_fract_y
 _atom_site_fract_z
 _atom_site_occupancy
  Er  Er0  1  0.334719  0.334983  0.500000  1
  Er  Er1  1  0.665017  0.665281  0.500000  1
  Er  Er2  1  0.334621  0.665379  0.500000  1
  Er  Er3  1  0.673454  0.326546  0.500000  1
  Er  Er4  1  0.987552  0.292460  0.500000  1
  Er  Er5  1  0.998867  0.697632  0.500000  1
  Er  Er6  1  0.302368  0.001133  0.500000  1
  Er  Er7  1  0.707540  0.012448  0.500000  1
  Er  Er8  1  0.992270  0.007730  0.000000  1
  Cd  Cd9  1  0.502962  0.150264  0.000000  1
  Cd  Cd10  1  0.503378  0.852847  0.000000  1
  Cd  Cd11  1  0.147153  0.496622  0.000000  1
  Cd  Cd12  1  0.849736  0.497038  0.000000  1
  Cd  Cd13  1  0.502924  0.497076  0.000000  1
  Ni  Ni14  1  0.809106  0.190894  0.000000  1
  Au  Au15  1  0.190666  0.191460  0.000000  1
  Au  Au16  1  0.808540  0.809334  0.000000  1
  Au  Au17  1  0.189127  0.810873  0.000000  1
