# generated using pymatgen
data_PbCF34
_symmetry_space_group_name_H-M   'P 1'
_cell_length_a   8.51521209
_cell_length_b   7.97296985
_cell_length_c   10.62057686
_cell_angle_alpha   82.43508485
_cell_angle_beta   91.36431933
_cell_angle_gamma   67.34431566
_symmetry_Int_Tables_number   1
_chemical_formula_structural   PbCF34
_chemical_formula_sum   'Pb1 C1 F34'
_cell_volume   657.42487705
_cell_formula_units_Z   1
loop_
 _symmetry_equiv_pos_site_id
 _symmetry_equiv_pos_as_xyz
  1  'x, y, z'
loop_
 _atom_site_type_symbol
 _atom_site_label
 _atom_site_symmetry_multiplicity
 _atom_site_fract_x
 _atom_site_fract_y
 _atom_site_fract_z
 _atom_site_occupancy
  Pb  Pb0  1  0.857071  0.262604  0.776311  1
  C  C1  1  0.165277  0.733173  0.156330  1
  F  F2  1  0.590300  0.249781  0.485324  1
  F  F3  1  0.400637  0.774345  0.503815  1
  F  F4  1  0.793376  0.731790  0.714106  1
  F  F5  1  0.163098  0.314518  0.301558  1
  F  F6  1  0.096048  0.732664  0.826149  1
  F  F7  1  0.911886  0.252356  0.131588  1
  F  F8  1  0.560490  0.174375  0.376284  1
  F  F9  1  0.424910  0.853482  0.611347  1
  F  F10  1  0.611407  0.360115  0.694068  1
  F  F11  1  0.271372  0.695143  0.261868  1
  F  F12  1  0.951412  0.117786  0.612254  1
  F  F13  1  0.012080  0.870390  0.448208  1
  F  F14  1  0.921308  0.384646  0.594944  1
  F  F15  1  0.089222  0.679467  0.497060  1
  F  F16  1  0.758473  0.899182  0.626332  1
  F  F17  1  0.163605  0.152078  0.375823  1
  F  F18  1  0.818153  0.497463  0.858242  1
  F  F19  1  0.190281  0.575526  0.110900  1
  F  F20  1  0.259759  0.669282  0.777617  1
  F  F21  1  0.797053  0.271804  0.229176  1
  F  F22  1  0.002568  0.809567  0.185056  1
  F  F23  1  0.104379  0.154512  0.858220  1
  F  F24  1  0.815931  0.053678  0.892278  1
  F  F25  1  0.198131  0.849705  0.068507  1
  F  F26  1  0.521450  0.561793  0.006496  1
  F  F27  1  0.537969  0.379069  0.997878  1
  F  F28  1  0.464577  0.094975  0.871872  1
  F  F29  1  0.548610  0.912401  0.141535  1
  F  F30  1  0.297451  0.226404  0.607378  1
  F  F31  1  0.733878  0.731161  0.393908  1
  F  F32  1  0.265267  0.389078  0.661725  1
  F  F33  1  0.753601  0.586931  0.321819  1
  F  F34  1  0.509422  0.907151  0.861067  1
  F  F35  1  0.439544  0.091606  0.162957  1
