# generated using pymatgen
data_LiTb6Mn(RuC6)2
_symmetry_space_group_name_H-M   'P 1'
_cell_length_a   8.29331600
_cell_length_b   8.29331557
_cell_length_c   5.03156100
_cell_angle_alpha   90.00000000
_cell_angle_beta   90.00000000
_cell_angle_gamma   120.00000647
_symmetry_Int_Tables_number   1
_chemical_formula_structural   LiTb6Mn(RuC6)2
_chemical_formula_sum   'Li1 Tb6 Mn1 Ru2 C12'
_cell_volume   299.70207546
_cell_formula_units_Z   1
loop_
 _symmetry_equiv_pos_site_id
 _symmetry_equiv_pos_as_xyz
  1  'x, y, z'
loop_
 _atom_site_type_symbol
 _atom_site_label
 _atom_site_symmetry_multiplicity
 _atom_site_fract_x
 _atom_site_fract_y
 _atom_site_fract_z
 _atom_site_occupancy
  Li  Li0  1  0.000000  0.000000  0.493077  1
  Tb  Tb1  1  0.624022  0.687848  0.741603  1
  Tb  Tb2  1  0.937465  0.624552  0.255183  1
  Tb  Tb3  1  0.687087  0.062535  0.255183  1
  Tb  Tb4  1  0.312152  0.936174  0.741603  1
  Tb  Tb5  1  0.063826  0.375978  0.741603  1
  Tb  Tb6  1  0.375448  0.312913  0.255183  1
  Mn  Mn7  1  0.333333  0.666667  0.251809  1
  Ru  Ru8  1  0.000000  0.000000  0.992992  1
  Ru  Ru9  1  0.666667  0.333333  0.739496  1
  C  C10  1  0.969448  0.768812  0.767553  1
  C  C11  1  0.211847  0.970096  0.245809  1
  C  C12  1  0.758250  0.788153  0.245809  1
  C  C13  1  0.231188  0.200637  0.767553  1
  C  C14  1  0.799363  0.030552  0.767553  1
  C  C15  1  0.029904  0.241750  0.245809  1
  C  C16  1  0.873327  0.584568  0.759009  1
  C  C17  1  0.284340  0.855998  0.238384  1
  C  C18  1  0.571658  0.715660  0.238384  1
  C  C19  1  0.415432  0.288759  0.759009  1
  C  C20  1  0.144002  0.428342  0.238384  1
  C  C21  1  0.711241  0.126673  0.759009  1
