# generated using pymatgen
data_Tm4Cd2Pd3Pt
_symmetry_space_group_name_H-M   'P 1'
_cell_length_a   7.74482623
_cell_length_b   7.74482623
_cell_length_c   3.60515200
_cell_angle_alpha   90.00000000
_cell_angle_beta   90.00000000
_cell_angle_gamma   89.97182863
_symmetry_Int_Tables_number   1
_chemical_formula_structural   Tm4Cd2Pd3Pt
_chemical_formula_sum   'Tm4 Cd2 Pd3 Pt1'
_cell_volume   216.24540307
_cell_formula_units_Z   1
loop_
 _symmetry_equiv_pos_site_id
 _symmetry_equiv_pos_as_xyz
  1  'x, y, z'
loop_
 _atom_site_type_symbol
 _atom_site_label
 _atom_site_symmetry_multiplicity
 _atom_site_fract_x
 _atom_site_fract_y
 _atom_site_fract_z
 _atom_site_occupancy
  Tm  Tm0  1  0.668070  0.168070  0.500000  1
  Tm  Tm1  1  0.327447  0.827447  0.500000  1
  Tm  Tm2  1  0.170289  0.335071  0.500000  1
  Tm  Tm3  1  0.835071  0.670289  0.500000  1
  Cd  Cd4  1  0.000309  0.002203  0.000000  1
  Cd  Cd5  1  0.502203  0.500309  0.000000  1
  Pd  Pd6  1  0.867393  0.367393  0.000000  1
  Pd  Pd7  1  0.630472  0.870188  0.000000  1
  Pd  Pd8  1  0.370188  0.130472  0.000000  1
  Pt  Pt9  1  0.128560  0.628560  0.000000  1
