# generated using pymatgen
data_GdHoU4(Ni3Sb4)2
_symmetry_space_group_name_H-M   'P 1'
_cell_length_a   8.11952799
_cell_length_b   8.11952774
_cell_length_c   8.11952801
_cell_angle_alpha   109.60317717
_cell_angle_beta   109.20762261
_cell_angle_gamma   109.60317852
_symmetry_Int_Tables_number   1
_chemical_formula_structural   GdHoU4(Ni3Sb4)2
_chemical_formula_sum   'Gd1 Ho1 U4 Ni6 Sb8'
_cell_volume   412.06296404
_cell_formula_units_Z   1
loop_
 _symmetry_equiv_pos_site_id
 _symmetry_equiv_pos_as_xyz
  1  'x, y, z'
loop_
 _atom_site_type_symbol
 _atom_site_label
 _atom_site_symmetry_multiplicity
 _atom_site_fract_x
 _atom_site_fract_y
 _atom_site_fract_z
 _atom_site_occupancy
  Gd  Gd0  1  0.875000  0.250000  0.125000  1
  Ho  Ho1  1  0.625000  0.750000  0.375000  1
  U  U2  1  0.249910  0.125710  0.875715  1
  U  U3  1  0.750006  0.374290  0.624200  1
  U  U4  1  0.124285  0.874195  0.249994  1
  U  U5  1  0.375800  0.625805  0.750090  1
  Ni  Ni6  1  0.375000  0.250000  0.625000  1
  Ni  Ni7  1  0.125000  0.750000  0.875000  1
  Ni  Ni8  1  0.250193  0.627686  0.377678  1
  Ni  Ni9  1  0.749991  0.872314  0.122507  1
  Ni  Ni10  1  0.622322  0.372515  0.250009  1
  Ni  Ni11  1  0.877493  0.127485  0.749807  1
  Sb  Sb12  1  0.663659  0.501189  0.002389  1
  Sb  Sb13  1  0.501200  0.998811  0.662470  1
  Sb  Sb14  1  0.998826  0.661261  0.497626  1
  Sb  Sb15  1  0.836365  0.838739  0.837565  1
  Sb  Sb16  1  0.502374  0.001199  0.163635  1
  Sb  Sb17  1  0.162435  0.498801  0.001174  1
  Sb  Sb18  1  0.997611  0.161270  0.498800  1
  Sb  Sb19  1  0.337530  0.338730  0.336341  1
