# generated using pymatgen
data_Dy2ErTm5(Si3Rh)4
_symmetry_space_group_name_H-M   'P 1'
_cell_length_a   8.14281700
_cell_length_b   8.14432941
_cell_length_c   7.81760300
_cell_angle_alpha   90.00000000
_cell_angle_beta   90.00000000
_cell_angle_gamma   119.99385317
_symmetry_Int_Tables_number   1
_chemical_formula_structural   Dy2ErTm5(Si3Rh)4
_chemical_formula_sum   'Dy2 Er1 Tm5 Si12 Rh4'
_cell_volume   449.01530679
_cell_formula_units_Z   1
loop_
 _symmetry_equiv_pos_site_id
 _symmetry_equiv_pos_as_xyz
  1  'x, y, z'
loop_
 _atom_site_type_symbol
 _atom_site_label
 _atom_site_symmetry_multiplicity
 _atom_site_fract_x
 _atom_site_fract_y
 _atom_site_fract_z
 _atom_site_occupancy
  Dy  Dy0  1  0.000035  0.000069  0.250000  1
  Dy  Dy1  1  0.999966  0.999932  0.750000  1
  Er  Er2  1  0.508077  0.016155  0.750000  1
  Tm  Tm3  1  0.492033  0.507926  0.250000  1
  Tm  Tm4  1  0.492039  0.984076  0.250000  1
  Tm  Tm5  1  0.015894  0.507926  0.250000  1
  Tm  Tm6  1  0.507967  0.492125  0.750000  1
  Tm  Tm7  1  0.984157  0.492125  0.750000  1
  Si  Si8  1  0.832957  0.167209  0.500935  1
  Si  Si9  1  0.832826  0.665653  0.501111  1
  Si  Si10  1  0.334251  0.167209  0.500935  1
  Si  Si11  1  0.832957  0.167209  0.999065  1
  Si  Si12  1  0.832826  0.665653  0.998889  1
  Si  Si13  1  0.334251  0.167209  0.999065  1
  Si  Si14  1  0.167088  0.832804  0.001210  1
  Si  Si15  1  0.665717  0.832804  0.001210  1
  Si  Si16  1  0.167151  0.334301  0.001163  1
  Si  Si17  1  0.167088  0.832804  0.498790  1
  Si  Si18  1  0.665717  0.832804  0.498790  1
  Si  Si19  1  0.167151  0.334301  0.498837  1
  Rh  Rh20  1  0.666749  0.333496  0.467771  1
  Rh  Rh21  1  0.666749  0.333496  0.032229  1
  Rh  Rh22  1  0.333178  0.666357  0.968223  1
  Rh  Rh23  1  0.333178  0.666357  0.531777  1
