# generated using pymatgen
data_Tb2Mn10Nb2P7
_symmetry_space_group_name_H-M   'P 1'
_cell_length_a   9.51292423
_cell_length_b   9.52173152
_cell_length_c   3.60763500
_cell_angle_alpha   90.00000000
_cell_angle_beta   90.00000000
_cell_angle_gamma   120.15641818
_symmetry_Int_Tables_number   1
_chemical_formula_structural   Tb2Mn10Nb2P7
_chemical_formula_sum   'Tb2 Mn10 Nb2 P7'
_cell_volume   282.55077925
_cell_formula_units_Z   1
loop_
 _symmetry_equiv_pos_site_id
 _symmetry_equiv_pos_as_xyz
  1  'x, y, z'
loop_
 _atom_site_type_symbol
 _atom_site_label
 _atom_site_symmetry_multiplicity
 _atom_site_fract_x
 _atom_site_fract_y
 _atom_site_fract_z
 _atom_site_occupancy
  Tb  Tb0  1  0.336812  0.668268  0.000000  1
  Tb  Tb1  1  0.666072  0.331923  0.500002  1
  Mn  Mn2  1  0.425025  0.047227  0.000000  1
  Mn  Mn3  1  0.166712  0.286956  0.000000  1
  Mn  Mn4  1  0.950649  0.379590  0.000000  1
  Mn  Mn5  1  0.628836  0.581464  0.000000  1
  Mn  Mn6  1  0.115448  0.833549  0.000000  1
  Mn  Mn7  1  0.718481  0.873988  0.000000  1
  Mn  Mn8  1  0.394542  0.441839  0.500002  1
  Mn  Mn9  1  0.043909  0.611655  0.500002  1
  Mn  Mn10  1  0.872039  0.774103  0.500002  1
  Mn  Mn11  1  0.562037  0.951376  0.500002  1
  Nb  Nb12  1  0.221412  0.098310  0.500002  1
  Nb  Nb13  1  0.901649  0.121498  0.500002  1
  P  P14  1  0.992114  0.988493  0.000000  1
  P  P15  1  0.699724  0.115170  0.000000  1
  P  P16  1  0.421206  0.301673  0.000000  1
  P  P17  1  0.877338  0.586207  0.000000  1
  P  P18  1  0.130542  0.421542  0.500002  1
  P  P19  1  0.589318  0.718998  0.500002  1
  P  P20  1  0.286134  0.866172  0.500002  1
