# generated using pymatgen
data_ErLu9(GaSb)4
_symmetry_space_group_name_H-M   'P 1'
_cell_length_a   8.47277812
_cell_length_b   8.47802423
_cell_length_c   7.76899529
_cell_angle_alpha   89.99072804
_cell_angle_beta   89.98102463
_cell_angle_gamma   125.47616964
_symmetry_Int_Tables_number   1
_chemical_formula_structural   ErLu9(GaSb)4
_chemical_formula_sum   'Er1 Lu9 Ga4 Sb4'
_cell_volume   454.46464144
_cell_formula_units_Z   1
loop_
 _symmetry_equiv_pos_site_id
 _symmetry_equiv_pos_as_xyz
  1  'x, y, z'
loop_
 _atom_site_type_symbol
 _atom_site_label
 _atom_site_symmetry_multiplicity
 _atom_site_fract_x
 _atom_site_fract_y
 _atom_site_fract_z
 _atom_site_occupancy
  Er  Er0  1  0.298792  0.039231  0.332321  1
  Lu  Lu1  1  0.039175  0.297873  0.332890  1
  Lu  Lu2  1  0.960570  0.702037  0.667329  1
  Lu  Lu3  1  0.460801  0.202338  0.832849  1
  Lu  Lu4  1  0.797786  0.539285  0.167162  1
  Lu  Lu5  1  0.539158  0.797729  0.167110  1
  Lu  Lu6  1  0.202093  0.460816  0.832776  1
  Lu  Lu7  1  0.701916  0.960769  0.667095  1
  Lu  Lu8  1  0.999657  0.999935  0.999709  1
  Lu  Lu9  1  0.500163  0.500434  0.500168  1
  Ga  Ga10  1  0.373213  0.373325  0.126446  1
  Ga  Ga11  1  0.626715  0.626785  0.873603  1
  Ga  Ga12  1  0.126579  0.126790  0.626610  1
  Ga  Ga13  1  0.873002  0.873234  0.373539  1
  Sb  Sb14  1  0.793757  0.206001  0.000166  1
  Sb  Sb15  1  0.205663  0.793375  0.999114  1
  Sb  Sb16  1  0.707116  0.294952  0.500673  1
  Sb  Sb17  1  0.293843  0.705092  0.500441  1
