# generated using pymatgen
data_Y5In4CuPt
_symmetry_space_group_name_H-M   'P 1'
_cell_length_a   3.65535600
_cell_length_b   8.10278804
_cell_length_c   18.20389608
_cell_angle_alpha   90.00006956
_cell_angle_beta   90.00000000
_cell_angle_gamma   90.00000000
_symmetry_Int_Tables_number   1
_chemical_formula_structural   Y5In4CuPt
_chemical_formula_sum   'Y10 In8 Cu2 Pt2'
_cell_volume   539.17345903
_cell_formula_units_Z   2
loop_
 _symmetry_equiv_pos_site_id
 _symmetry_equiv_pos_as_xyz
  1  'x, y, z'
loop_
 _atom_site_type_symbol
 _atom_site_label
 _atom_site_symmetry_multiplicity
 _atom_site_fract_x
 _atom_site_fract_y
 _atom_site_fract_z
 _atom_site_occupancy
  Y  Y0  1  0.000000  0.117316  0.416637  1
  Y  Y1  1  0.000000  0.882684  0.583363  1
  Y  Y2  1  0.000000  0.381527  0.916045  1
  Y  Y3  1  0.000000  0.618473  0.083955  1
  Y  Y4  1  0.000000  0.248177  0.219125  1
  Y  Y5  1  0.000000  0.751823  0.780875  1
  Y  Y6  1  0.000000  0.261312  0.719111  1
  Y  Y7  1  0.000000  0.738688  0.280889  1
  Y  Y8  1  0.000000  0.000000  0.000000  1
  Y  Y9  1  0.000000  0.500000  0.500000  1
  In  In10  1  0.500000  0.419961  0.352062  1
  In  In11  1  0.500000  0.580039  0.647938  1
  In  In12  1  0.500000  0.073473  0.848528  1
  In  In13  1  0.500000  0.926527  0.151472  1
  In  In14  1  0.500000  0.292119  0.066759  1
  In  In15  1  0.500000  0.707881  0.933241  1
  In  In16  1  0.500000  0.206881  0.568442  1
  In  In17  1  0.500000  0.793119  0.431558  1
  Cu  Cu18  1  0.500000  0.027668  0.302512  1
  Cu  Cu19  1  0.500000  0.972332  0.697488  1
  Pt  Pt20  1  0.500000  0.471548  0.802416  1
  Pt  Pt21  1  0.500000  0.528452  0.197584  1
