# generated using pymatgen
data_Ce3MnVC6
_symmetry_space_group_name_H-M   'P 1'
_cell_length_a   8.27174000
_cell_length_b   8.27174002
_cell_length_c   5.09507500
_cell_angle_alpha   90.00000000
_cell_angle_beta   90.00000000
_cell_angle_gamma   119.99999991
_symmetry_Int_Tables_number   1
_chemical_formula_structural   Ce3MnVC6
_chemical_formula_sum   'Ce6 Mn2 V2 C12'
_cell_volume   301.90823882
_cell_formula_units_Z   2
loop_
 _symmetry_equiv_pos_site_id
 _symmetry_equiv_pos_as_xyz
  1  'x, y, z'
loop_
 _atom_site_type_symbol
 _atom_site_label
 _atom_site_symmetry_multiplicity
 _atom_site_fract_x
 _atom_site_fract_y
 _atom_site_fract_z
 _atom_site_occupancy
  Ce  Ce0  1  0.623218  0.686122  0.750000  1
  Ce  Ce1  1  0.937095  0.623218  0.250000  1
  Ce  Ce2  1  0.686122  0.062905  0.250000  1
  Ce  Ce3  1  0.313878  0.937095  0.750000  1
  Ce  Ce4  1  0.062905  0.376782  0.750000  1
  Ce  Ce5  1  0.376782  0.313878  0.250000  1
  Mn  Mn6  1  0.666667  0.333333  0.750000  1
  Mn  Mn7  1  0.333333  0.666667  0.250000  1
  V  V8  1  0.000000  0.000000  0.500000  1
  V  V9  1  0.000000  0.000000  0.000000  1
  C  C10  1  0.959650  0.766252  0.750000  1
  C  C11  1  0.193399  0.959650  0.250000  1
  C  C12  1  0.766252  0.806601  0.250000  1
  C  C13  1  0.233748  0.193399  0.750000  1
  C  C14  1  0.806601  0.040350  0.750000  1
  C  C15  1  0.040350  0.233748  0.250000  1
  C  C16  1  0.862216  0.573132  0.750000  1
  C  C17  1  0.289084  0.862216  0.250000  1
  C  C18  1  0.573132  0.710916  0.250000  1
  C  C19  1  0.426868  0.289084  0.750000  1
  C  C20  1  0.137784  0.426868  0.250000  1
  C  C21  1  0.710916  0.137784  0.750000  1
