# generated using pymatgen
data_Y11ErTc3Pt
_symmetry_space_group_name_H-M   'P 1'
_cell_length_a   6.34033792
_cell_length_b   7.44309818
_cell_length_c   9.23634544
_cell_angle_alpha   90.02887750
_cell_angle_beta   90.13202897
_cell_angle_gamma   90.14203067
_symmetry_Int_Tables_number   1
_chemical_formula_structural   Y11ErTc3Pt
_chemical_formula_sum   'Y11 Er1 Tc3 Pt1'
_cell_volume   435.87682238
_cell_formula_units_Z   1
loop_
 _symmetry_equiv_pos_site_id
 _symmetry_equiv_pos_as_xyz
  1  'x, y, z'
loop_
 _atom_site_type_symbol
 _atom_site_label
 _atom_site_symmetry_multiplicity
 _atom_site_fract_x
 _atom_site_fract_y
 _atom_site_fract_z
 _atom_site_occupancy
  Y  Y0  1  0.124382  0.039569  0.249524  1
  Y  Y1  1  0.629644  0.454895  0.750510  1
  Y  Y2  1  0.371907  0.542722  0.249677  1
  Y  Y3  1  0.869520  0.964180  0.750488  1
  Y  Y4  1  0.168019  0.319205  0.941296  1
  Y  Y5  1  0.829019  0.675306  0.432842  1
  Y  Y6  1  0.336692  0.827469  0.560332  1
  Y  Y7  1  0.337389  0.827787  0.939819  1
  Y  Y8  1  0.828691  0.675480  0.067297  1
  Y  Y9  1  0.168399  0.319517  0.559219  1
  Y  Y10  1  0.665443  0.176877  0.435347  1
  Er  Er11  1  0.665472  0.176090  0.064493  1
  Tc  Tc12  1  0.961893  0.385780  0.249080  1
  Tc  Tc13  1  0.458499  0.114471  0.751086  1
  Tc  Tc14  1  0.539458  0.886983  0.249106  1
  Pt  Pt15  1  0.045572  0.613666  0.749884  1
