# generated using pymatgen
data_HfSc7S12
_symmetry_space_group_name_H-M   'P 1'
_cell_length_a   12.17741090
_cell_length_b   11.61742596
_cell_length_c   6.39242564
_cell_angle_alpha   79.31498303
_cell_angle_beta   69.63144070
_cell_angle_gamma   31.10744587
_symmetry_Int_Tables_number   1
_chemical_formula_structural   HfSc7S12
_chemical_formula_sum   'Hf1 Sc7 S12'
_cell_volume   426.00681498
_cell_formula_units_Z   1
loop_
 _symmetry_equiv_pos_site_id
 _symmetry_equiv_pos_as_xyz
  1  'x, y, z'
loop_
 _atom_site_type_symbol
 _atom_site_label
 _atom_site_symmetry_multiplicity
 _atom_site_fract_x
 _atom_site_fract_y
 _atom_site_fract_z
 _atom_site_occupancy
  Hf  Hf0  1  0.165662  0.165662  0.334338  1
  Sc  Sc1  1  0.334896  0.334896  0.165104  1
  Sc  Sc2  1  0.082652  0.082652  0.917348  1
  Sc  Sc3  1  0.916410  0.916410  0.083590  1
  Sc  Sc4  1  0.501601  0.501601  0.998399  1
  Sc  Sc5  1  0.997327  0.997327  0.502673  1
  Sc  Sc6  1  0.748635  0.748635  0.251365  1
  Sc  Sc7  1  0.252910  0.252910  0.747090  1
  S  S8  1  0.489292  0.007844  0.010221  1
  S  S9  1  0.007844  0.489292  0.492643  1
  S  S10  1  0.758186  0.242366  0.241633  1
  S  S11  1  0.242366  0.758186  0.757815  1
  S  S12  1  0.584199  0.077427  0.409283  1
  S  S13  1  0.929423  0.407432  0.081353  1
  S  S14  1  0.407432  0.929423  0.581791  1
  S  S15  1  0.077427  0.584199  0.929091  1
  S  S16  1  0.665137  0.172864  0.840708  1
  S  S17  1  0.322651  0.843085  0.173085  1
  S  S18  1  0.843085  0.322651  0.661180  1
  S  S19  1  0.172864  0.665137  0.321292  1
