# generated using pymatgen
data_Na3Dy2P12Ir11Ru8
_symmetry_space_group_name_H-M   'P 1'
_cell_length_a   12.54779217
_cell_length_b   12.53019520
_cell_length_c   3.99412100
_cell_angle_alpha   90.00000000
_cell_angle_beta   90.00000000
_cell_angle_gamma   119.99241223
_symmetry_Int_Tables_number   1
_chemical_formula_structural   Na3Dy2P12Ir11Ru8
_chemical_formula_sum   'Na3 Dy2 P12 Ir11 Ru8'
_cell_volume   543.88890980
_cell_formula_units_Z   1
loop_
 _symmetry_equiv_pos_site_id
 _symmetry_equiv_pos_as_xyz
  1  'x, y, z'
loop_
 _atom_site_type_symbol
 _atom_site_label
 _atom_site_symmetry_multiplicity
 _atom_site_fract_x
 _atom_site_fract_y
 _atom_site_fract_z
 _atom_site_occupancy
  Na  Na0  1  0.818141  0.000567  0.500000  1
  Na  Na1  1  0.178896  0.180386  0.500000  1
  Na  Na2  1  0.999299  0.819769  0.500000  1
  Dy  Dy3  1  0.667001  0.331552  0.000000  1
  Dy  Dy4  1  0.334970  0.669068  0.000000  1
  P  P5  1  0.633320  0.998155  0.000000  1
  P  P6  1  0.362699  0.362610  0.000000  1
  P  P7  1  0.000379  0.637505  0.000000  1
  P  P8  1  0.690186  0.521213  0.500000  1
  P  P9  1  0.831863  0.305722  0.500000  1
  P  P10  1  0.315300  0.836346  0.500000  1
  P  P11  1  0.524073  0.692457  0.500000  1
  P  P12  1  0.177496  0.999155  0.000000  1
  P  P13  1  0.819577  0.818204  0.000000  1
  P  P14  1  0.997947  0.183291  0.000000  1
  P  P15  1  0.475635  0.165033  0.500000  1
  P  P16  1  0.168714  0.479109  0.500000  1
  Ir  Ir17  1  0.622949  0.804350  0.000000  1
  Ir  Ir18  1  0.185530  0.380336  0.000000  1
  Ir  Ir19  1  0.376234  0.182757  0.000000  1
  Ir  Ir20  1  0.193189  0.816743  0.000000  1
  Ir  Ir21  1  0.805268  0.620038  0.000000  1
  Ir  Ir22  1  0.870097  0.505184  0.500000  1
  Ir  Ir23  1  0.493325  0.361401  0.500000  1
  Ir  Ir24  1  0.635400  0.128707  0.500000  1
  Ir  Ir25  1  0.132719  0.639743  0.500000  1
  Ir  Ir26  1  0.364101  0.494105  0.500000  1
  Ir  Ir27  1  0.997979  0.001297  0.000000  1
  Ru  Ru28  1  0.511337  0.872403  0.500000  1
  Ru  Ru29  1  0.716544  0.714380  0.500000  1
  Ru  Ru30  1  0.002846  0.286084  0.500000  1
  Ru  Ru31  1  0.451211  0.998754  0.000000  1
  Ru  Ru32  1  0.545991  0.543149  0.000000  1
  Ru  Ru33  1  0.002348  0.456439  0.000000  1
  Ru  Ru34  1  0.815587  0.194434  0.000000  1
  Ru  Ru35  1  0.281848  0.999552  0.500000  1
