# generated using pymatgen
data_Y4Si8Tc5W
_symmetry_space_group_name_H-M   'P 1'
_cell_length_a   6.84165383
_cell_length_b   6.75060062
_cell_length_c   6.82105672
_cell_angle_alpha   70.21472694
_cell_angle_beta   89.99351143
_cell_angle_gamma   89.99638165
_symmetry_Int_Tables_number   1
_chemical_formula_structural   Y4Si8Tc5W
_chemical_formula_sum   'Y4 Si8 Tc5 W1'
_cell_volume   296.43531023
_cell_formula_units_Z   1
loop_
 _symmetry_equiv_pos_site_id
 _symmetry_equiv_pos_as_xyz
  1  'x, y, z'
loop_
 _atom_site_type_symbol
 _atom_site_label
 _atom_site_symmetry_multiplicity
 _atom_site_fract_x
 _atom_site_fract_y
 _atom_site_fract_z
 _atom_site_occupancy
  Y  Y0  1  0.668684  0.440303  0.192271  1
  Y  Y1  1  0.168134  0.058804  0.810007  1
  Y  Y2  1  0.332039  0.559841  0.809304  1
  Y  Y3  1  0.831079  0.939422  0.194234  1
  Si  Si4  1  0.451972  0.125053  0.097669  1
  Si  Si5  1  0.948613  0.380900  0.894375  1
  Si  Si6  1  0.551183  0.877765  0.897811  1
  Si  Si7  1  0.045405  0.622014  0.098261  1
  Si  Si8  1  0.859075  0.132075  0.513524  1
  Si  Si9  1  0.361990  0.364020  0.489632  1
  Si  Si10  1  0.137553  0.871986  0.491061  1
  Si  Si11  1  0.641428  0.627732  0.515040  1
  Tc  Tc12  1  0.500043  0.997283  0.498378  1
  Tc  Tc13  1  0.001377  0.499028  0.499429  1
  Tc  Tc14  1  0.156321  0.246028  0.235299  1
  Tc  Tc15  1  0.653637  0.255268  0.762002  1
  Tc  Tc16  1  0.848665  0.759209  0.757744  1
  W  W17  1  0.342804  0.743270  0.243960  1
