# generated using pymatgen
data_Hf18Re6POsW2
_symmetry_space_group_name_H-M   'P 1'
_cell_length_a   8.62942900
_cell_length_b   8.62942948
_cell_length_c   8.56691100
_cell_angle_alpha   90.00000000
_cell_angle_beta   90.00000000
_cell_angle_gamma   120.00000199
_symmetry_Int_Tables_number   1
_chemical_formula_structural   Hf18Re6POsW2
_chemical_formula_sum   'Hf18 Re6 P1 Os1 W2'
_cell_volume   552.48313073
_cell_formula_units_Z   1
loop_
 _symmetry_equiv_pos_site_id
 _symmetry_equiv_pos_as_xyz
  1  'x, y, z'
loop_
 _atom_site_type_symbol
 _atom_site_label
 _atom_site_symmetry_multiplicity
 _atom_site_fract_x
 _atom_site_fract_y
 _atom_site_fract_z
 _atom_site_occupancy
  Hf  Hf0  1  0.197717  0.802283  0.447701  1
  Hf  Hf1  1  0.197717  0.395432  0.447701  1
  Hf  Hf2  1  0.604568  0.802283  0.447701  1
  Hf  Hf3  1  0.804052  0.195948  0.549138  1
  Hf  Hf4  1  0.804052  0.608105  0.549138  1
  Hf  Hf5  1  0.391895  0.195948  0.549138  1
  Hf  Hf6  1  0.804052  0.195948  0.950862  1
  Hf  Hf7  1  0.804052  0.608105  0.950862  1
  Hf  Hf8  1  0.391895  0.195948  0.950862  1
  Hf  Hf9  1  0.197717  0.802283  0.052299  1
  Hf  Hf10  1  0.197717  0.395432  0.052299  1
  Hf  Hf11  1  0.604568  0.802283  0.052299  1
  Hf  Hf12  1  0.540570  0.459430  0.250000  1
  Hf  Hf13  1  0.540570  0.081141  0.250000  1
  Hf  Hf14  1  0.918859  0.459430  0.250000  1
  Hf  Hf15  1  0.460133  0.539867  0.750000  1
  Hf  Hf16  1  0.460133  0.920266  0.750000  1
  Hf  Hf17  1  0.079734  0.539867  0.750000  1
  Re  Re18  1  0.888431  0.111569  0.250000  1
  Re  Re19  1  0.888431  0.776861  0.250000  1
  Re  Re20  1  0.223139  0.111569  0.250000  1
  Re  Re21  1  0.110554  0.889446  0.750000  1
  Re  Re22  1  0.110554  0.221110  0.750000  1
  Re  Re23  1  0.778890  0.889446  0.750000  1
  P  P24  1  0.666667  0.333333  0.750000  1
  Os  Os25  1  0.333333  0.666667  0.250000  1
  W  W26  1  0.000000  0.000000  0.499081  1
  W  W27  1  0.000000  0.000000  0.000919  1
