# generated using pymatgen
data_La8Y11ErPt16
_symmetry_space_group_name_H-M   'P 1'
_cell_length_a   7.66192816
_cell_length_b   7.81641764
_cell_length_c   14.84072900
_cell_angle_alpha   90.01138378
_cell_angle_beta   90.06649425
_cell_angle_gamma   89.92620119
_symmetry_Int_Tables_number   1
_chemical_formula_structural   La8Y11ErPt16
_chemical_formula_sum   'La8 Y11 Er1 Pt16'
_cell_volume   888.79254889
_cell_formula_units_Z   1
loop_
 _symmetry_equiv_pos_site_id
 _symmetry_equiv_pos_as_xyz
  1  'x, y, z'
loop_
 _atom_site_type_symbol
 _atom_site_label
 _atom_site_symmetry_multiplicity
 _atom_site_fract_x
 _atom_site_fract_y
 _atom_site_fract_z
 _atom_site_occupancy
  La  La0  1  0.494365  0.324034  0.902063  1
  La  La1  1  0.993231  0.176845  0.597908  1
  La  La2  1  0.506574  0.676475  0.402431  1
  La  La3  1  0.006050  0.823457  0.097690  1
  La  La4  1  0.505722  0.676846  0.096695  1
  La  La5  1  0.006583  0.822736  0.402458  1
  La  La6  1  0.493334  0.322855  0.598020  1
  La  La7  1  0.994427  0.176255  0.902540  1
  Y  Y8  1  0.838030  0.667801  0.622990  1
  Y  Y9  1  0.661937  0.167721  0.377353  1
  Y  Y10  1  0.162320  0.331924  0.122048  1
  Y  Y11  1  0.661310  0.167598  0.122133  1
  Y  Y12  1  0.161938  0.331662  0.377596  1
  Y  Y13  1  0.338270  0.831839  0.622539  1
  Y  Y14  1  0.838843  0.668178  0.877947  1
  Y  Y15  1  0.173083  0.495750  0.750417  1
  Y  Y16  1  0.672713  0.004846  0.750443  1
  Y  Y17  1  0.827341  0.504534  0.249708  1
  Y  Y18  1  0.327234  0.994958  0.249783  1
  Er  Er19  1  0.337990  0.832528  0.876702  1
  Pt  Pt20  1  0.324044  0.032462  0.042881  1
  Pt  Pt21  1  0.825375  0.466212  0.455236  1
  Pt  Pt22  1  0.674575  0.966726  0.545269  1
  Pt  Pt23  1  0.177478  0.536787  0.955228  1
  Pt  Pt24  1  0.671458  0.966268  0.954380  1
  Pt  Pt25  1  0.174221  0.532923  0.545412  1
  Pt  Pt26  1  0.325733  0.032888  0.454902  1
  Pt  Pt27  1  0.826099  0.466413  0.044713  1
  Pt  Pt28  1  0.540665  0.627332  0.751150  1
  Pt  Pt29  1  0.042914  0.874041  0.751019  1
  Pt  Pt30  1  0.458456  0.374479  0.249719  1
  Pt  Pt31  1  0.958487  0.125326  0.249613  1
  Pt  Pt32  1  0.302839  0.136312  0.750867  1
  Pt  Pt33  1  0.802785  0.363203  0.750507  1
  Pt  Pt34  1  0.696534  0.862707  0.249764  1
  Pt  Pt35  1  0.197043  0.637079  0.249876  1
