# generated using pymatgen
data_Th2MgPdAu
_symmetry_space_group_name_H-M   'P 1'
_cell_length_a   3.91538900
_cell_length_b   8.02151426
_cell_length_c   8.02151426
_cell_angle_alpha   88.71256122
_cell_angle_beta   90.00000000
_cell_angle_gamma   90.00000000
_symmetry_Int_Tables_number   1
_chemical_formula_structural   Th2MgPdAu
_chemical_formula_sum   'Th4 Mg2 Pd2 Au2'
_cell_volume   251.87089660
_cell_formula_units_Z   2
loop_
 _symmetry_equiv_pos_site_id
 _symmetry_equiv_pos_as_xyz
  1  'x, y, z'
loop_
 _atom_site_type_symbol
 _atom_site_label
 _atom_site_symmetry_multiplicity
 _atom_site_fract_x
 _atom_site_fract_y
 _atom_site_fract_z
 _atom_site_occupancy
  Th  Th0  1  0.500000  0.167335  0.667335  1
  Th  Th1  1  0.500000  0.832665  0.332665  1
  Th  Th2  1  0.500000  0.321095  0.178905  1
  Th  Th3  1  0.500000  0.678905  0.821095  1
  Mg  Mg4  1  0.000000  0.000000  0.000000  1
  Mg  Mg5  1  0.000000  0.500000  0.500000  1
  Pd  Pd6  1  0.000000  0.868910  0.631090  1
  Pd  Pd7  1  0.000000  0.131090  0.368910  1
  Au  Au8  1  0.000000  0.630924  0.130924  1
  Au  Au9  1  0.000000  0.369076  0.869076  1
