# generated using pymatgen
data_Ba2Bi2O7
_symmetry_space_group_name_H-M   'P 1'
_cell_length_a   8.08907841
_cell_length_b   8.08907913
_cell_length_c   8.08907838
_cell_angle_alpha   119.53765338
_cell_angle_beta   118.07567367
_cell_angle_gamma   92.08415698
_symmetry_Int_Tables_number   1
_chemical_formula_structural   Ba2Bi2O7
_chemical_formula_sum   'Ba4 Bi4 O14'
_cell_volume   380.67163571
_cell_formula_units_Z   2
loop_
 _symmetry_equiv_pos_site_id
 _symmetry_equiv_pos_as_xyz
  1  'x, y, z'
loop_
 _atom_site_type_symbol
 _atom_site_label
 _atom_site_symmetry_multiplicity
 _atom_site_fract_x
 _atom_site_fract_y
 _atom_site_fract_z
 _atom_site_occupancy
  Ba  Ba0  1  0.500000  0.500000  0.500000  1
  Ba  Ba1  1  0.500000  0.000000  0.000000  1
  Ba  Ba2  1  0.500000  0.500000  0.000000  1
  Ba  Ba3  1  0.000000  0.000000  0.000000  1
  Bi  Bi4  1  0.000000  0.500000  0.000000  1
  Bi  Bi5  1  0.000000  0.000000  0.500000  1
  Bi  Bi6  1  0.000000  0.500000  0.500000  1
  Bi  Bi7  1  0.500000  0.000000  0.500000  1
  O  O8  1  0.946378  0.587058  0.771143  1
  O  O9  1  0.053622  0.824766  0.640680  1
  O  O10  1  0.684086  0.912942  0.359320  1
  O  O11  1  0.315914  0.675234  0.228857  1
  O  O12  1  0.053622  0.412942  0.228857  1
  O  O13  1  0.946378  0.175234  0.359320  1
  O  O14  1  0.315914  0.087058  0.640680  1
  O  O15  1  0.684086  0.324766  0.771143  1
  O  O16  1  0.102296  0.250000  0.852296  1
  O  O17  1  0.897704  0.750000  0.147704  1
  O  O18  1  0.691013  0.407807  0.283206  1
  O  O19  1  0.308987  0.592193  0.716794  1
  O  O20  1  0.375398  0.092193  0.283206  1
  O  O21  1  0.624602  0.907807  0.716794  1
