# generated using pymatgen
data_Cs6Y3Sb7S18
_symmetry_space_group_name_H-M   'P 1'
_cell_length_a   13.69695092
_cell_length_b   13.69695045
_cell_length_c   9.47403936
_cell_angle_alpha   84.33631769
_cell_angle_beta   84.33631311
_cell_angle_gamma   140.18257498
_symmetry_Int_Tables_number   1
_chemical_formula_structural   Cs6Y3Sb7S18
_chemical_formula_sum   'Cs6 Y3 Sb7 S18'
_cell_volume   1089.29399715
_cell_formula_units_Z   1
loop_
 _symmetry_equiv_pos_site_id
 _symmetry_equiv_pos_as_xyz
  1  'x, y, z'
loop_
 _atom_site_type_symbol
 _atom_site_label
 _atom_site_symmetry_multiplicity
 _atom_site_fract_x
 _atom_site_fract_y
 _atom_site_fract_z
 _atom_site_occupancy
  Cs  Cs0  1  0.420352  0.579648  0.500000  1
  Cs  Cs1  1  0.580753  0.419247  0.500000  1
  Cs  Cs2  1  0.017421  0.453341  0.238133  1
  Cs  Cs3  1  0.448707  0.016622  0.240776  1
  Cs  Cs4  1  0.983378  0.551293  0.759224  1
  Cs  Cs5  1  0.546659  0.982579  0.761867  1
  Y  Y6  1  0.423313  0.576687  0.000000  1
  Y  Y7  1  0.577173  0.422827  0.000000  1
  Y  Y8  1  0.923670  0.076330  0.500000  1
  Sb  Sb9  1  0.071616  0.928384  0.500000  1
  Sb  Sb10  1  0.035059  0.277686  0.838678  1
  Sb  Sb11  1  0.279198  0.034011  0.837383  1
  Sb  Sb12  1  0.965989  0.720802  0.162617  1
  Sb  Sb13  1  0.722314  0.964941  0.161322  1
  Sb  Sb14  1  0.872270  0.873208  0.879829  1
  Sb  Sb15  1  0.126792  0.127730  0.120171  1
  S  S16  1  0.125478  0.124625  0.619163  1
  S  S17  1  0.875375  0.874522  0.380837  1
  S  S18  1  0.809307  0.190693  0.000000  1
  S  S19  1  0.191804  0.808196  0.000000  1
  S  S20  1  0.247076  0.554387  0.843985  1
  S  S21  1  0.556037  0.248022  0.846628  1
  S  S22  1  0.751978  0.443963  0.153372  1
  S  S23  1  0.445613  0.752924  0.156015  1
  S  S24  1  0.995580  0.307907  0.600253  1
  S  S25  1  0.315749  0.998159  0.602333  1
  S  S26  1  0.001841  0.684251  0.397667  1
  S  S27  1  0.692093  0.004420  0.399747  1
  S  S28  1  0.366157  0.366361  0.886825  1
  S  S29  1  0.633639  0.633843  0.113175  1
  S  S30  1  0.696734  0.847307  0.771869  1
  S  S31  1  0.845893  0.697709  0.773919  1
  S  S32  1  0.302291  0.154107  0.226081  1
  S  S33  1  0.152693  0.303266  0.228131  1
