# generated using pymatgen
data_Dy6AlCoRu
_symmetry_space_group_name_H-M   'P 1'
_cell_length_a   8.33533063
_cell_length_b   8.33533137
_cell_length_c   8.33533040
_cell_angle_alpha   112.24634046
_cell_angle_beta   111.05692835
_cell_angle_gamma   105.19560430
_symmetry_Int_Tables_number   1
_chemical_formula_structural   Dy6AlCoRu
_chemical_formula_sum   'Dy12 Al2 Co2 Ru2'
_cell_volume   443.91113931
_cell_formula_units_Z   2
loop_
 _symmetry_equiv_pos_site_id
 _symmetry_equiv_pos_as_xyz
  1  'x, y, z'
loop_
 _atom_site_type_symbol
 _atom_site_label
 _atom_site_symmetry_multiplicity
 _atom_site_fract_x
 _atom_site_fract_y
 _atom_site_fract_z
 _atom_site_occupancy
  Dy  Dy0  1  0.437576  0.242760  0.194817  1
  Dy  Dy1  1  0.562424  0.757240  0.805183  1
  Dy  Dy2  1  0.047943  0.242760  0.805183  1
  Dy  Dy3  1  0.952057  0.757240  0.194817  1
  Dy  Dy4  1  0.182554  0.282529  0.465083  1
  Dy  Dy5  1  0.817446  0.717471  0.534917  1
  Dy  Dy6  1  0.182554  0.717471  0.900026  1
  Dy  Dy7  1  0.817446  0.282529  0.099974  1
  Dy  Dy8  1  0.322661  0.637130  0.314470  1
  Dy  Dy9  1  0.677339  0.362870  0.685530  1
  Dy  Dy10  1  0.322661  0.008190  0.685530  1
  Dy  Dy11  1  0.677339  0.991810  0.314470  1
  Al  Al12  1  0.500000  0.500000  0.000000  1
  Al  Al13  1  0.000000  0.000000  0.000000  1
  Co  Co14  1  0.111748  0.611748  0.500000  1
  Co  Co15  1  0.888252  0.388252  0.500000  1
  Ru  Ru16  1  0.322780  0.000000  0.322780  1
  Ru  Ru17  1  0.677220  0.000000  0.677220  1
