# generated using pymatgen
data_Pa2Si2(Ni5H)3
_symmetry_space_group_name_H-M   'P 1'
_cell_length_a   6.23865522
_cell_length_b   6.26641006
_cell_length_c   6.26641100
_cell_angle_alpha   83.97780796
_cell_angle_beta   83.45760626
_cell_angle_gamma   83.45760349
_symmetry_Int_Tables_number   1
_chemical_formula_structural   Pa2Si2(Ni5H)3
_chemical_formula_sum   'Pa2 Si2 Ni15 H3'
_cell_volume   240.74747884
_cell_formula_units_Z   1
loop_
 _symmetry_equiv_pos_site_id
 _symmetry_equiv_pos_as_xyz
  1  'x, y, z'
loop_
 _atom_site_type_symbol
 _atom_site_label
 _atom_site_symmetry_multiplicity
 _atom_site_fract_x
 _atom_site_fract_y
 _atom_site_fract_z
 _atom_site_occupancy
  Pa  Pa0  1  0.647506  0.662654  0.662654  1
  Pa  Pa1  1  0.352494  0.337346  0.337346  1
  Si  Si2  1  0.000000  0.000000  0.500000  1
  Si  Si3  1  0.000000  0.500000  0.000000  1
  Ni  Ni4  1  0.500000  0.000000  0.000000  1
  Ni  Ni5  1  0.288798  0.705879  0.001886  1
  Ni  Ni6  1  0.711202  0.998114  0.294121  1
  Ni  Ni7  1  0.000000  0.294632  0.705368  1
  Ni  Ni8  1  0.288798  0.001886  0.705879  1
  Ni  Ni9  1  0.000000  0.705368  0.294632  1
  Ni  Ni10  1  0.711202  0.294121  0.998114  1
  Ni  Ni11  1  0.346162  0.346620  0.849241  1
  Ni  Ni12  1  0.346162  0.849241  0.346620  1
  Ni  Ni13  1  0.857937  0.344788  0.344788  1
  Ni  Ni14  1  0.653838  0.653380  0.150759  1
  Ni  Ni15  1  0.653838  0.150759  0.653380  1
  Ni  Ni16  1  0.142063  0.655212  0.655212  1
  Ni  Ni17  1  0.896416  0.898017  0.898017  1
  Ni  Ni18  1  0.103584  0.101983  0.101983  1
  H  H19  1  0.500000  0.500000  0.000000  1
  H  H20  1  0.500000  0.000000  0.500000  1
  H  H21  1  0.000000  0.500000  0.500000  1
