# generated using pymatgen
data_V2Ga(Ni10B3)2
_symmetry_space_group_name_H-M   'P 1'
_cell_length_a   7.40760242
_cell_length_b   7.40760209
_cell_length_c   7.40760200
_cell_angle_alpha   60.00000042
_cell_angle_beta   60.00000188
_cell_angle_gamma   60.00000495
_symmetry_Int_Tables_number   1
_chemical_formula_structural   V2Ga(Ni10B3)2
_chemical_formula_sum   'V2 Ga1 Ni20 B6'
_cell_volume   287.42065652
_cell_formula_units_Z   1
loop_
 _symmetry_equiv_pos_site_id
 _symmetry_equiv_pos_as_xyz
  1  'x, y, z'
loop_
 _atom_site_type_symbol
 _atom_site_label
 _atom_site_symmetry_multiplicity
 _atom_site_fract_x
 _atom_site_fract_y
 _atom_site_fract_z
 _atom_site_occupancy
  V  V0  1  0.000000  0.000000  0.000000  1
  V  V1  1  0.250000  0.250000  0.250000  1
  Ga  Ga2  1  0.750000  0.750000  0.750000  1
  Ni  Ni3  1  0.617255  0.617255  0.148233  1
  Ni  Ni4  1  0.617255  0.148233  0.617255  1
  Ni  Ni5  1  0.148233  0.617255  0.617255  1
  Ni  Ni6  1  0.617255  0.617255  0.617255  1
  Ni  Ni7  1  0.381145  0.381145  0.856565  1
  Ni  Ni8  1  0.381145  0.856565  0.381145  1
  Ni  Ni9  1  0.856565  0.381145  0.381145  1
  Ni  Ni10  1  0.381145  0.381145  0.381145  1
  Ni  Ni11  1  0.001847  0.001847  0.336870  1
  Ni  Ni12  1  0.659437  0.001847  0.336870  1
  Ni  Ni13  1  0.001847  0.659437  0.336870  1
  Ni  Ni14  1  0.659437  0.336870  0.001847  1
  Ni  Ni15  1  0.001847  0.336870  0.001847  1
  Ni  Ni16  1  0.001847  0.336870  0.659437  1
  Ni  Ni17  1  0.336870  0.659437  0.001847  1
  Ni  Ni18  1  0.336870  0.001847  0.659437  1
  Ni  Ni19  1  0.336870  0.001847  0.001847  1
  Ni  Ni20  1  0.001847  0.001847  0.659437  1
  Ni  Ni21  1  0.001847  0.659437  0.001847  1
  Ni  Ni22  1  0.659437  0.001847  0.001847  1
  B  B23  1  0.729200  0.729200  0.270800  1
  B  B24  1  0.270800  0.729200  0.270800  1
  B  B25  1  0.729200  0.270800  0.270800  1
  B  B26  1  0.270800  0.270800  0.729200  1
  B  B27  1  0.729200  0.270800  0.729200  1
  B  B28  1  0.270800  0.729200  0.729200  1
