# generated using pymatgen
data_UPa3Ge4Ir3Rh
_symmetry_space_group_name_H-M   'P 1'
_cell_length_a   4.33568000
_cell_length_b   6.95712265
_cell_length_c   7.64341011
_cell_angle_alpha   90.12323246
_cell_angle_beta   90.00000000
_cell_angle_gamma   90.00000000
_symmetry_Int_Tables_number   1
_chemical_formula_structural   UPa3Ge4Ir3Rh
_chemical_formula_sum   'U1 Pa3 Ge4 Ir3 Rh1'
_cell_volume   230.55420038
_cell_formula_units_Z   1
loop_
 _symmetry_equiv_pos_site_id
 _symmetry_equiv_pos_as_xyz
  1  'x, y, z'
loop_
 _atom_site_type_symbol
 _atom_site_label
 _atom_site_symmetry_multiplicity
 _atom_site_fract_x
 _atom_site_fract_y
 _atom_site_fract_z
 _atom_site_occupancy
  U  U0  1  0.750000  0.007103  0.706987  1
  Pa  Pa1  1  0.250000  0.490042  0.203355  1
  Pa  Pa2  1  0.750000  0.508621  0.794393  1
  Pa  Pa3  1  0.250000  0.992450  0.297641  1
  Ge  Ge4  1  0.250000  0.817538  0.915647  1
  Ge  Ge5  1  0.750000  0.187895  0.083871  1
  Ge  Ge6  1  0.250000  0.317566  0.585565  1
  Ge  Ge7  1  0.750000  0.681169  0.414201  1
  Ir  Ir8  1  0.250000  0.223959  0.911461  1
  Ir  Ir9  1  0.750000  0.266857  0.414751  1
  Ir  Ir10  1  0.250000  0.730879  0.586371  1
  Rh  Rh11  1  0.750000  0.775921  0.085755  1
