# generated using pymatgen
data_Ho4UP12Ru19
_symmetry_space_group_name_H-M   'P 1'
_cell_length_a   12.54953026
_cell_length_b   12.51913617
_cell_length_c   3.95343200
_cell_angle_alpha   90.00000000
_cell_angle_beta   90.00000000
_cell_angle_gamma   119.91991485
_symmetry_Int_Tables_number   1
_chemical_formula_structural   Ho4UP12Ru19
_chemical_formula_sum   'Ho4 U1 P12 Ru19'
_cell_volume   538.33999297
_cell_formula_units_Z   1
loop_
 _symmetry_equiv_pos_site_id
 _symmetry_equiv_pos_as_xyz
  1  'x, y, z'
loop_
 _atom_site_type_symbol
 _atom_site_label
 _atom_site_symmetry_multiplicity
 _atom_site_fract_x
 _atom_site_fract_y
 _atom_site_fract_z
 _atom_site_occupancy
  Ho  Ho0  1  0.813081  0.812037  0.500000  1
  Ho  Ho1  1  0.186919  0.998955  0.500000  1
  Ho  Ho2  1  0.667644  0.333200  0.000000  1
  Ho  Ho3  1  0.332356  0.665557  0.000000  1
  U  U4  1  0.000000  0.178820  0.500000  1
  P  P5  1  0.000000  0.817650  0.000000  1
  P  P6  1  0.187798  0.182869  0.000000  1
  P  P7  1  0.812202  0.995071  0.000000  1
  P  P8  1  0.692225  0.171613  0.500000  1
  P  P9  1  0.828251  0.522436  0.500000  1
  P  P10  1  0.478855  0.307685  0.500000  1
  P  P11  1  0.171749  0.694185  0.500000  1
  P  P12  1  0.521145  0.828830  0.500000  1
  P  P13  1  0.307775  0.479389  0.500000  1
  P  P14  1  0.000000  0.374007  0.000000  1
  P  P15  1  0.626661  0.626704  0.000000  1
  P  P16  1  0.373339  0.000043  0.000000  1
  Ru  Ru17  1  0.000000  0.555454  0.000000  1
  Ru  Ru18  1  0.442342  0.446056  0.000000  1
  Ru  Ru19  1  0.557658  0.003714  0.000000  1
  Ru  Ru20  1  0.000000  0.718227  0.500000  1
  Ru  Ru21  1  0.281348  0.283258  0.500000  1
  Ru  Ru22  1  0.718652  0.001910  0.500000  1
  Ru  Ru23  1  0.815208  0.184228  0.000000  1
  Ru  Ru24  1  0.815306  0.622742  0.000000  1
  Ru  Ru25  1  0.378138  0.193458  0.000000  1
  Ru  Ru26  1  0.184694  0.807436  0.000000  1
  Ru  Ru27  1  0.621862  0.815320  0.000000  1
  Ru  Ru28  1  0.184792  0.369020  0.000000  1
  Ru  Ru29  1  0.873395  0.364722  0.500000  1
  Ru  Ru30  1  0.633531  0.509080  0.500000  1
  Ru  Ru31  1  0.491942  0.127202  0.500000  1
  Ru  Ru32  1  0.366469  0.875549  0.500000  1
  Ru  Ru33  1  0.508058  0.635260  0.500000  1
  Ru  Ru34  1  0.126605  0.491328  0.500000  1
  Ru  Ru35  1  0.000000  0.006983  0.000000  1
