# generated using pymatgen
data_SmDyLu2Tl2(TeO6)3
_symmetry_space_group_name_H-M   'P 1'
_cell_length_a   9.14241549
_cell_length_b   9.14572876
_cell_length_c   5.19637591
_cell_angle_alpha   89.99745881
_cell_angle_beta   89.74728607
_cell_angle_gamma   119.91597507
_symmetry_Int_Tables_number   1
_chemical_formula_structural   SmDyLu2Tl2(TeO6)3
_chemical_formula_sum   'Sm1 Dy1 Lu2 Tl2 Te3 O18'
_cell_volume   376.59268038
_cell_formula_units_Z   1
loop_
 _symmetry_equiv_pos_site_id
 _symmetry_equiv_pos_as_xyz
  1  'x, y, z'
loop_
 _atom_site_type_symbol
 _atom_site_label
 _atom_site_symmetry_multiplicity
 _atom_site_fract_x
 _atom_site_fract_y
 _atom_site_fract_z
 _atom_site_occupancy
  Sm  Sm0  1  0.385708  0.383202  0.998148  1
  Dy  Dy1  1  0.617397  0.997151  0.001204  1
  Lu  Lu2  1  0.285746  0.001934  0.498042  1
  Lu  Lu3  1  0.714446  0.716294  0.502151  1
  Tl  Tl4  1  0.999724  0.624648  0.999396  1
  Tl  Tl5  1  0.000234  0.284042  0.500095  1
  Te  Te6  1  0.334193  0.670353  0.502489  1
  Te  Te7  1  0.998251  0.996205  0.000202  1
  Te  Te8  1  0.667423  0.332908  0.497277  1
  O  O9  1  0.082763  0.882015  0.780337  1
  O  O10  1  0.229448  0.768920  0.287612  1
  O  O11  1  0.136033  0.542071  0.727632  1
  O  O12  1  0.410164  0.873124  0.708567  1
  O  O13  1  0.241583  0.466464  0.293138  1
  O  O14  1  0.119932  0.197796  0.785716  1
  O  O15  1  0.200813  0.112726  0.206673  1
  O  O16  1  0.537824  0.773281  0.285205  1
  O  O17  1  0.463640  0.599679  0.712866  1
  O  O18  1  0.793795  0.909314  0.797294  1
  O  O19  1  0.461970  0.232534  0.707237  1
  O  O20  1  0.595069  0.464038  0.295614  1
  O  O21  1  0.540028  0.134642  0.279677  1
  O  O22  1  0.768661  0.535937  0.715969  1
  O  O23  1  0.914650  0.796941  0.217417  1
  O  O24  1  0.757239  0.220541  0.711170  1
  O  O25  1  0.867221  0.406077  0.276158  1
  O  O26  1  0.876046  0.077161  0.212714  1
