# generated using pymatgen
data_Ho3Zr(TcB2)4
_symmetry_space_group_name_H-M   'P 1'
_cell_length_a   5.27518600
_cell_length_b   5.89467424
_cell_length_c   6.38646987
_cell_angle_alpha   89.67092409
_cell_angle_beta   90.00000000
_cell_angle_gamma   90.00000000
_symmetry_Int_Tables_number   1
_chemical_formula_structural   Ho3Zr(TcB2)4
_chemical_formula_sum   'Ho3 Zr1 Tc4 B8'
_cell_volume   198.58721798
_cell_formula_units_Z   1
loop_
 _symmetry_equiv_pos_site_id
 _symmetry_equiv_pos_as_xyz
  1  'x, y, z'
loop_
 _atom_site_type_symbol
 _atom_site_label
 _atom_site_symmetry_multiplicity
 _atom_site_fract_x
 _atom_site_fract_y
 _atom_site_fract_z
 _atom_site_occupancy
  Ho  Ho0  1  0.250000  0.012251  0.339476  1
  Ho  Ho1  1  0.250000  0.513839  0.162298  1
  Ho  Ho2  1  0.750000  0.984769  0.662456  1
  Zr  Zr3  1  0.750000  0.479609  0.831129  1
  Tc  Tc4  1  0.250000  0.185002  0.816032  1
  Tc  Tc5  1  0.250000  0.678178  0.690835  1
  Tc  Tc6  1  0.750000  0.814894  0.178981  1
  Tc  Tc7  1  0.750000  0.321170  0.314978  1
  B  B8  1  0.076394  0.368970  0.537791  1
  B  B9  1  0.422180  0.869420  0.963393  1
  B  B10  1  0.580526  0.631758  0.467645  1
  B  B11  1  0.919369  0.134996  0.033080  1
  B  B12  1  0.919474  0.631758  0.467645  1
  B  B13  1  0.580631  0.134996  0.033080  1
  B  B14  1  0.423606  0.368970  0.537791  1
  B  B15  1  0.077820  0.869420  0.963393  1
