# generated using pymatgen
data_La14NiIr2Au3
_symmetry_space_group_name_H-M   'P 1'
_cell_length_a   6.57473719
_cell_length_b   10.43182819
_cell_length_c   10.43182800
_cell_angle_alpha   119.97874302
_cell_angle_beta   89.73714255
_cell_angle_gamma   90.26285887
_symmetry_Int_Tables_number   1
_chemical_formula_structural   La14NiIr2Au3
_chemical_formula_sum   'La14 Ni1 Ir2 Au3'
_cell_volume   619.75032534
_cell_formula_units_Z   1
loop_
 _symmetry_equiv_pos_site_id
 _symmetry_equiv_pos_as_xyz
  1  'x, y, z'
loop_
 _atom_site_type_symbol
 _atom_site_label
 _atom_site_symmetry_multiplicity
 _atom_site_fract_x
 _atom_site_fract_y
 _atom_site_fract_z
 _atom_site_occupancy
  La  La0  1  0.467247  0.337300  0.662700  1
  La  La1  1  0.951885  0.672556  0.327444  1
  La  La2  1  0.237861  0.131047  0.868953  1
  La  La3  1  0.257170  0.745042  0.883570  1
  La  La4  1  0.257170  0.116430  0.254958  1
  La  La5  1  0.752774  0.876328  0.123672  1
  La  La6  1  0.737878  0.254132  0.139414  1
  La  La7  1  0.737878  0.860586  0.745868  1
  La  La8  1  0.448489  0.531172  0.468828  1
  La  La9  1  0.439640  0.923573  0.448999  1
  La  La10  1  0.439640  0.551001  0.076427  1
  La  La11  1  0.942167  0.457975  0.542025  1
  La  La12  1  0.938959  0.075191  0.525495  1
  La  La13  1  0.938959  0.474505  0.924809  1
  Ni  Ni14  1  0.194015  0.810065  0.189935  1
  Ir  Ir15  1  0.692448  0.625741  0.814495  1
  Ir  Ir16  1  0.692448  0.185505  0.374259  1
  Au  Au17  1  0.191319  0.376158  0.190577  1
  Au  Au18  1  0.191319  0.809423  0.623842  1
  Au  Au19  1  0.692735  0.186271  0.813729  1
