# generated using pymatgen
data_Cs(CeSe2)2
_symmetry_space_group_name_H-M   'P 1'
_cell_length_a   7.10016400
_cell_length_b   8.19797700
_cell_length_c   19.33320200
_cell_angle_alpha   90.00000000
_cell_angle_beta   90.00000000
_cell_angle_gamma   90.00000000
_symmetry_Int_Tables_number   1
_chemical_formula_structural   Cs(CeSe2)2
_chemical_formula_sum   'Cs4 Ce8 Se16'
_cell_volume   1125.32732474
_cell_formula_units_Z   4
loop_
 _symmetry_equiv_pos_site_id
 _symmetry_equiv_pos_as_xyz
  1  'x, y, z'
loop_
 _atom_site_type_symbol
 _atom_site_label
 _atom_site_symmetry_multiplicity
 _atom_site_fract_x
 _atom_site_fract_y
 _atom_site_fract_z
 _atom_site_occupancy
  Cs  Cs0  1  0.362266  0.000000  0.000000  1
  Cs  Cs1  1  0.637734  0.500000  0.500000  1
  Cs  Cs2  1  0.042280  0.000000  0.500000  1
  Cs  Cs3  1  0.957720  0.500000  0.000000  1
  Ce  Ce4  1  0.999283  0.000000  0.247962  1
  Ce  Ce5  1  0.999283  0.000000  0.752038  1
  Ce  Ce6  1  0.000717  0.500000  0.252038  1
  Ce  Ce7  1  0.000717  0.500000  0.747962  1
  Ce  Ce8  1  0.500000  0.250000  0.250000  1
  Ce  Ce9  1  0.500000  0.750000  0.750000  1
  Ce  Ce10  1  0.500000  0.750000  0.250000  1
  Ce  Ce11  1  0.500000  0.250000  0.750000  1
  Se  Se12  1  0.831371  0.247655  0.337857  1
  Se  Se13  1  0.831371  0.752345  0.662143  1
  Se  Se14  1  0.168629  0.747655  0.162143  1
  Se  Se15  1  0.168629  0.252345  0.837857  1
  Se  Se16  1  0.168629  0.252345  0.162143  1
  Se  Se17  1  0.168629  0.747655  0.837857  1
  Se  Se18  1  0.831371  0.752345  0.337857  1
  Se  Se19  1  0.831371  0.247655  0.662143  1
  Se  Se20  1  0.661716  0.000000  0.163371  1
  Se  Se21  1  0.661716  0.000000  0.836629  1
  Se  Se22  1  0.338284  0.500000  0.336629  1
  Se  Se23  1  0.338284  0.500000  0.663371  1
  Se  Se24  1  0.332996  0.000000  0.335187  1
  Se  Se25  1  0.332996  0.000000  0.664813  1
  Se  Se26  1  0.667004  0.500000  0.164813  1
  Se  Se27  1  0.667004  0.500000  0.835187  1
