# generated using pymatgen
data_Tm3Zn3Ge2Pt
_symmetry_space_group_name_H-M   'P 1'
_cell_length_a   6.87075500
_cell_length_b   6.87075493
_cell_length_c   4.25661800
_cell_angle_alpha   90.00000000
_cell_angle_beta   90.00000000
_cell_angle_gamma   120.00000517
_symmetry_Int_Tables_number   1
_chemical_formula_structural   Tm3Zn3Ge2Pt
_chemical_formula_sum   'Tm3 Zn3 Ge2 Pt1'
_cell_volume   174.02202052
_cell_formula_units_Z   1
loop_
 _symmetry_equiv_pos_site_id
 _symmetry_equiv_pos_as_xyz
  1  'x, y, z'
loop_
 _atom_site_type_symbol
 _atom_site_label
 _atom_site_symmetry_multiplicity
 _atom_site_fract_x
 _atom_site_fract_y
 _atom_site_fract_z
 _atom_site_occupancy
  Tm  Tm0  1  0.413345  0.000000  0.000000  1
  Tm  Tm1  1  0.000000  0.413345  0.000000  1
  Tm  Tm2  1  0.586655  0.586655  0.000000  1
  Zn  Zn3  1  0.761860  0.000000  0.499999  1
  Zn  Zn4  1  0.238140  0.238139  0.499999  1
  Zn  Zn5  1  0.000000  0.761861  0.499999  1
  Ge  Ge6  1  0.666666  0.333333  0.499999  1
  Ge  Ge7  1  0.333333  0.666667  0.499999  1
  Pt  Pt8  1  0.000000  0.000000  0.000000  1
