# generated using pymatgen
data_Y9Ho(TlBi)3
_symmetry_space_group_name_H-M   'P 1'
_cell_length_a   9.07329005
_cell_length_b   9.09414844
_cell_length_c   6.48494400
_cell_angle_alpha   90.00208540
_cell_angle_beta   89.99421567
_cell_angle_gamma   119.89970573
_symmetry_Int_Tables_number   1
_chemical_formula_structural   Y9Ho(TlBi)3
_chemical_formula_sum   'Y9 Ho1 Tl3 Bi3'
_cell_volume   463.87580148
_cell_formula_units_Z   1
loop_
 _symmetry_equiv_pos_site_id
 _symmetry_equiv_pos_as_xyz
  1  'x, y, z'
loop_
 _atom_site_type_symbol
 _atom_site_label
 _atom_site_symmetry_multiplicity
 _atom_site_fract_x
 _atom_site_fract_y
 _atom_site_fract_z
 _atom_site_occupancy
  Y  Y0  1  0.764745  0.756697  0.250030  1
  Y  Y1  1  0.008094  0.241802  0.250058  1
  Y  Y2  1  0.767355  0.006734  0.749981  1
  Y  Y3  1  0.235044  0.000652  0.249999  1
  Y  Y4  1  0.671803  0.338487  0.498171  1
  Y  Y5  1  0.998528  0.760428  0.749911  1
  Y  Y6  1  0.324576  0.657112  0.001784  1
  Y  Y7  1  0.233444  0.241766  0.750031  1
  Y  Y8  1  0.672333  0.338870  0.002003  1
  Ho  Ho9  1  0.322834  0.655411  0.497636  1
  Tl  Tl10  1  0.997166  0.395830  0.749554  1
  Tl  Tl11  1  0.395942  0.392531  0.250590  1
  Tl  Tl12  1  0.001155  0.605760  0.250705  1
  Bi  Bi13  1  0.607030  0.611073  0.749390  1
  Bi  Bi14  1  0.392146  0.999935  0.749437  1
  Bi  Bi15  1  0.607804  0.996914  0.250720  1
