# generated using pymatgen
data_Dy7Lu7Th2(CdNi)4
_symmetry_space_group_name_H-M   'P 1'
_cell_length_a   9.48010767
_cell_length_b   9.48010722
_cell_length_c   9.48646600
_cell_angle_alpha   59.97780930
_cell_angle_beta   59.97781085
_cell_angle_gamma   60.18200948
_symmetry_Int_Tables_number   1
_chemical_formula_structural   Dy7Lu7Th2(CdNi)4
_chemical_formula_sum   'Dy7 Lu7 Th2 Cd4 Ni4'
_cell_volume   603.48107876
_cell_formula_units_Z   1
loop_
 _symmetry_equiv_pos_site_id
 _symmetry_equiv_pos_as_xyz
  1  'x, y, z'
loop_
 _atom_site_type_symbol
 _atom_site_label
 _atom_site_symmetry_multiplicity
 _atom_site_fract_x
 _atom_site_fract_y
 _atom_site_fract_z
 _atom_site_occupancy
  Dy  Dy0  1  0.064478  0.064478  0.435522  1
  Dy  Dy1  1  0.187534  0.813258  0.815893  1
  Dy  Dy2  1  0.813258  0.187534  0.183314  1
  Dy  Dy3  1  0.813258  0.187534  0.815893  1
  Dy  Dy4  1  0.187534  0.813258  0.183314  1
  Dy  Dy5  1  0.813673  0.813673  0.186327  1
  Dy  Dy6  1  0.188065  0.188065  0.811935  1
  Lu  Lu7  1  0.598119  0.200175  0.600854  1
  Lu  Lu8  1  0.200175  0.598119  0.600854  1
  Lu  Lu9  1  0.064079  0.439793  0.435221  1
  Lu  Lu10  1  0.439793  0.064079  0.060909  1
  Lu  Lu11  1  0.439793  0.064079  0.435221  1
  Lu  Lu12  1  0.064079  0.439793  0.060909  1
  Lu  Lu13  1  0.434906  0.434906  0.065094  1
  Th  Th14  1  0.592791  0.592791  0.602626  1
  Th  Th15  1  0.592791  0.592791  0.211793  1
  Cd  Cd16  1  0.833121  0.833121  0.828833  1
  Cd  Cd17  1  0.833121  0.833121  0.504924  1
  Cd  Cd18  1  0.834675  0.506010  0.829657  1
  Cd  Cd19  1  0.506010  0.834675  0.829657  1
  Ni  Ni20  1  0.390050  0.390050  0.395999  1
  Ni  Ni21  1  0.390050  0.390050  0.823903  1
  Ni  Ni22  1  0.396386  0.822266  0.390675  1
  Ni  Ni23  1  0.822266  0.396386  0.390675  1
