# generated using pymatgen
data_Y17Er3(SnPb)8
_symmetry_space_group_name_H-M   'P 1'
_cell_length_a   8.12372100
_cell_length_b   8.19858708
_cell_length_c   15.56192200
_cell_angle_alpha   90.00000000
_cell_angle_beta   90.00000000
_cell_angle_gamma   90.00821847
_symmetry_Int_Tables_number   1
_chemical_formula_structural   Y17Er3(SnPb)8
_chemical_formula_sum   'Y17 Er3 Sn8 Pb8'
_cell_volume   1036.47121046
_cell_formula_units_Z   1
loop_
 _symmetry_equiv_pos_site_id
 _symmetry_equiv_pos_as_xyz
  1  'x, y, z'
loop_
 _atom_site_type_symbol
 _atom_site_label
 _atom_site_symmetry_multiplicity
 _atom_site_fract_x
 _atom_site_fract_y
 _atom_site_fract_z
 _atom_site_occupancy
  Y  Y0  1  0.378236  0.839792  0.877010  1
  Y  Y1  1  0.878049  0.660145  0.622915  1
  Y  Y2  1  0.621816  0.160309  0.377017  1
  Y  Y3  1  0.121952  0.339921  0.122926  1
  Y  Y4  1  0.621816  0.160309  0.122983  1
  Y  Y5  1  0.121952  0.339921  0.377074  1
  Y  Y6  1  0.378236  0.839792  0.622990  1
  Y  Y7  1  0.878049  0.660145  0.877085  1
  Y  Y8  1  0.535027  0.323336  0.897378  1
  Y  Y9  1  0.034831  0.176605  0.602600  1
  Y  Y10  1  0.465051  0.676652  0.397364  1
  Y  Y11  1  0.965159  0.823361  0.102589  1
  Y  Y12  1  0.465051  0.676652  0.102636  1
  Y  Y13  1  0.965159  0.823361  0.397411  1
  Y  Y14  1  0.535027  0.323336  0.602622  1
  Y  Y15  1  0.034831  0.176605  0.897400  1
  Y  Y16  1  0.209132  0.503704  0.750000  1
  Er  Er17  1  0.709420  0.996259  0.750000  1
  Er  Er18  1  0.790526  0.496323  0.250000  1
  Er  Er19  1  0.290513  0.003659  0.250000  1
  Sn  Sn20  1  0.575195  0.622761  0.750000  1
  Sn  Sn21  1  0.074306  0.877970  0.750000  1
  Sn  Sn22  1  0.425641  0.377415  0.250000  1
  Sn  Sn23  1  0.925484  0.122525  0.250000  1
  Sn  Sn24  1  0.343276  0.148255  0.750000  1
  Sn  Sn25  1  0.842347  0.350705  0.750000  1
  Sn  Sn26  1  0.657045  0.850891  0.250000  1
  Sn  Sn27  1  0.156954  0.649063  0.250000  1
  Pb  Pb28  1  0.281888  0.033372  0.042003  1
  Pb  Pb29  1  0.781941  0.466661  0.458015  1
  Pb  Pb30  1  0.718043  0.966697  0.541826  1
  Pb  Pb31  1  0.218086  0.533386  0.958450  1
  Pb  Pb32  1  0.718043  0.966697  0.958174  1
  Pb  Pb33  1  0.218086  0.533386  0.541550  1
  Pb  Pb34  1  0.281888  0.033372  0.457997  1
  Pb  Pb35  1  0.781941  0.466661  0.041985  1
