# generated using pymatgen
data_Hf6Be4Ir9Ru
_symmetry_space_group_name_H-M   'P 1'
_cell_length_a   9.49629510
_cell_length_b   9.48542810
_cell_length_c   3.30617100
_cell_angle_alpha   90.00000000
_cell_angle_beta   90.00000000
_cell_angle_gamma   90.01637219
_symmetry_Int_Tables_number   1
_chemical_formula_structural   Hf6Be4Ir9Ru
_chemical_formula_sum   'Hf6 Be4 Ir9 Ru1'
_cell_volume   297.80804974
_cell_formula_units_Z   1
loop_
 _symmetry_equiv_pos_site_id
 _symmetry_equiv_pos_as_xyz
  1  'x, y, z'
loop_
 _atom_site_type_symbol
 _atom_site_label
 _atom_site_symmetry_multiplicity
 _atom_site_fract_x
 _atom_site_fract_y
 _atom_site_fract_z
 _atom_site_occupancy
  Hf  Hf0  1  0.175587  0.678813  0.000000  1
  Hf  Hf1  1  0.323032  0.171676  0.000000  1
  Hf  Hf2  1  0.825172  0.324647  0.000000  1
  Hf  Hf3  1  0.499743  0.499954  0.000000  1
  Hf  Hf4  1  0.674560  0.824998  0.000000  1
  Hf  Hf5  1  0.003520  0.998901  0.000000  1
  Be  Be6  1  0.378930  0.881876  0.000000  1
  Be  Be7  1  0.119200  0.380980  0.000000  1
  Be  Be8  1  0.880771  0.619474  0.000000  1
  Be  Be9  1  0.619481  0.118724  0.000000  1
  Ir  Ir10  1  0.926065  0.783605  0.500000  1
  Ir  Ir11  1  0.428507  0.715972  0.500000  1
  Ir  Ir12  1  0.572402  0.283456  0.500000  1
  Ir  Ir13  1  0.716308  0.571565  0.500000  1
  Ir  Ir14  1  0.283414  0.427686  0.500000  1
  Ir  Ir15  1  0.071469  0.217395  0.500000  1
  Ir  Ir16  1  0.999735  0.500420  0.500000  1
  Ir  Ir17  1  0.501156  0.999702  0.500000  1
  Ir  Ir18  1  0.784674  0.072562  0.500000  1
  Ru  Ru19  1  0.216273  0.927596  0.500000  1
