# generated using pymatgen
data_LaPr13Nd2Cd4IrRu3
_symmetry_space_group_name_H-M   'P 1'
_cell_length_a   10.00455786
_cell_length_b   10.03274708
_cell_length_c   10.03034700
_cell_angle_alpha   60.00790989
_cell_angle_beta   59.91468907
_cell_angle_gamma   59.89857722
_symmetry_Int_Tables_number   1
_chemical_formula_structural   LaPr13Nd2Cd4IrRu3
_chemical_formula_sum   'La1 Pr13 Nd2 Cd4 Ir1 Ru3'
_cell_volume   710.93558235
_cell_formula_units_Z   1
loop_
 _symmetry_equiv_pos_site_id
 _symmetry_equiv_pos_as_xyz
  1  'x, y, z'
loop_
 _atom_site_type_symbol
 _atom_site_label
 _atom_site_symmetry_multiplicity
 _atom_site_fract_x
 _atom_site_fract_y
 _atom_site_fract_z
 _atom_site_occupancy
  La  La0  1  0.342559  0.964029  0.346705  1
  Pr  Pr1  1  0.960029  0.346863  0.346554  1
  Pr  Pr2  1  0.811129  0.191141  0.190124  1
  Pr  Pr3  1  0.191502  0.808784  0.810129  1
  Pr  Pr4  1  0.191502  0.808784  0.189585  1
  Pr  Pr5  1  0.811129  0.191141  0.807608  1
  Pr  Pr6  1  0.191534  0.190222  0.809122  1
  Pr  Pr7  1  0.811832  0.807461  0.190354  1
  Pr  Pr8  1  0.939103  0.561203  0.560932  1
  Pr  Pr9  1  0.560509  0.938970  0.938658  1
  Pr  Pr10  1  0.560509  0.938970  0.561861  1
  Pr  Pr11  1  0.939103  0.561203  0.938764  1
  Pr  Pr12  1  0.560079  0.562217  0.938852  1
  Pr  Pr13  1  0.938631  0.939353  0.561008  1
  Nd  Nd14  1  0.344705  0.347612  0.347776  1
  Nd  Nd15  1  0.344705  0.347612  0.959904  1
  Cd  Cd16  1  0.579799  0.578322  0.580447  1
  Cd  Cd17  1  0.579799  0.578322  0.261431  1
  Cd  Cd18  1  0.579103  0.260848  0.580024  1
  Cd  Cd19  1  0.261392  0.577892  0.580359  1
  Ir  Ir20  1  0.577801  0.140707  0.140747  1
  Ru  Ru21  1  0.141334  0.137117  0.138434  1
  Ru  Ru22  1  0.141334  0.137117  0.583114  1
  Ru  Ru23  1  0.140877  0.584107  0.137507  1
