# generated using pymatgen
data_Tb8InHg3Pd8
_symmetry_space_group_name_H-M   'P 1'
_cell_length_a   7.72258400
_cell_length_b   7.72258400
_cell_length_c   7.51041400
_cell_angle_alpha   90.00000000
_cell_angle_beta   90.00000000
_cell_angle_gamma   90.00000000
_symmetry_Int_Tables_number   1
_chemical_formula_structural   Tb8InHg3Pd8
_chemical_formula_sum   'Tb8 In1 Hg3 Pd8'
_cell_volume   447.90835057
_cell_formula_units_Z   1
loop_
 _symmetry_equiv_pos_site_id
 _symmetry_equiv_pos_as_xyz
  1  'x, y, z'
loop_
 _atom_site_type_symbol
 _atom_site_label
 _atom_site_symmetry_multiplicity
 _atom_site_fract_x
 _atom_site_fract_y
 _atom_site_fract_z
 _atom_site_occupancy
  Tb  Tb0  1  0.669058  0.670415  0.499639  1
  Tb  Tb1  1  0.820317  0.177205  0.499575  1
  Tb  Tb2  1  0.677205  0.679683  0.000425  1
  Tb  Tb3  1  0.829585  0.169058  0.000361  1
  Tb  Tb4  1  0.179683  0.822795  0.499575  1
  Tb  Tb5  1  0.322795  0.320317  0.000425  1
  Tb  Tb6  1  0.170415  0.830942  0.000361  1
  Tb  Tb7  1  0.330942  0.329585  0.499639  1
  In  In8  1  0.000000  0.500000  0.750000  1
  Hg  Hg9  1  0.000000  0.500000  0.250000  1
  Hg  Hg10  1  0.500000  0.000000  0.750000  1
  Hg  Hg11  1  0.500000  0.000000  0.250000  1
  Pd  Pd12  1  0.626367  0.372469  0.240663  1
  Pd  Pd13  1  0.368376  0.623128  0.759423  1
  Pd  Pd14  1  0.876872  0.868376  0.740577  1
  Pd  Pd15  1  0.631624  0.376872  0.759423  1
  Pd  Pd16  1  0.373633  0.627531  0.240663  1
  Pd  Pd17  1  0.127531  0.126367  0.259337  1
  Pd  Pd18  1  0.872469  0.873633  0.259337  1
  Pd  Pd19  1  0.123128  0.131624  0.740577  1
