# generated using pymatgen
data_DyEr9(Hg2Pt)4
_symmetry_space_group_name_H-M   'P 1'
_cell_length_a   3.63193900
_cell_length_b   7.93214150
_cell_length_c   18.05496043
_cell_angle_alpha   89.92948798
_cell_angle_beta   90.00000000
_cell_angle_gamma   90.00000000
_symmetry_Int_Tables_number   1
_chemical_formula_structural   DyEr9(Hg2Pt)4
_chemical_formula_sum   'Dy1 Er9 Hg8 Pt4'
_cell_volume   520.14593709
_cell_formula_units_Z   1
loop_
 _symmetry_equiv_pos_site_id
 _symmetry_equiv_pos_as_xyz
  1  'x, y, z'
loop_
 _atom_site_type_symbol
 _atom_site_label
 _atom_site_symmetry_multiplicity
 _atom_site_fract_x
 _atom_site_fract_y
 _atom_site_fract_z
 _atom_site_occupancy
  Dy  Dy0  1  0.000000  0.000000  0.000000  1
  Er  Er1  1  0.000000  0.111434  0.413780  1
  Er  Er2  1  0.000000  0.888566  0.586220  1
  Er  Er3  1  0.000000  0.388406  0.913698  1
  Er  Er4  1  0.000000  0.611594  0.086302  1
  Er  Er5  1  0.000000  0.237058  0.216134  1
  Er  Er6  1  0.000000  0.762942  0.783866  1
  Er  Er7  1  0.000000  0.262873  0.716068  1
  Er  Er8  1  0.000000  0.737127  0.283932  1
  Er  Er9  1  0.000000  0.500000  0.500000  1
  Hg  Hg10  1  0.500000  0.421025  0.355271  1
  Hg  Hg11  1  0.500000  0.578975  0.644729  1
  Hg  Hg12  1  0.500000  0.079053  0.854985  1
  Hg  Hg13  1  0.500000  0.920947  0.145015  1
  Hg  Hg14  1  0.500000  0.288403  0.062030  1
  Hg  Hg15  1  0.500000  0.711597  0.937970  1
  Hg  Hg16  1  0.500000  0.212561  0.561812  1
  Hg  Hg17  1  0.500000  0.787439  0.438188  1
  Pt  Pt18  1  0.500000  0.025074  0.302944  1
  Pt  Pt19  1  0.500000  0.974926  0.697056  1
  Pt  Pt20  1  0.500000  0.475020  0.802854  1
  Pt  Pt21  1  0.500000  0.524980  0.197146  1
