# generated using pymatgen
data_MgCdPdO4
_symmetry_space_group_name_H-M   'P 1'
_cell_length_a   6.30656161
_cell_length_b   6.16975427
_cell_length_c   6.30655600
_cell_angle_alpha   60.75247518
_cell_angle_beta   88.85188512
_cell_angle_gamma   119.24738852
_symmetry_Int_Tables_number   1
_chemical_formula_structural   MgCdPdO4
_chemical_formula_sum   'Mg2 Cd2 Pd2 O8'
_cell_volume   175.68911395
_cell_formula_units_Z   2
loop_
 _symmetry_equiv_pos_site_id
 _symmetry_equiv_pos_as_xyz
  1  'x, y, z'
loop_
 _atom_site_type_symbol
 _atom_site_label
 _atom_site_symmetry_multiplicity
 _atom_site_fract_x
 _atom_site_fract_y
 _atom_site_fract_z
 _atom_site_occupancy
  Mg  Mg0  1  0.374989  0.249993  0.375022  1
  Mg  Mg1  1  0.374994  0.750007  0.374986  1
  Cd  Cd2  1  0.978758  0.999994  0.978763  1
  Cd  Cd3  1  0.771273  0.499997  0.771271  1
  Pd  Pd4  1  0.875117  0.250077  0.374989  1
  Pd  Pd5  1  0.374973  0.749939  0.875066  1
  O  O6  1  0.135831  0.285798  0.135431  1
  O  O7  1  0.614678  0.215306  0.183465  1
  O  O8  1  0.566532  0.715291  0.135263  1
  O  O9  1  0.135429  0.714192  0.135820  1
  O  O10  1  0.614139  0.214199  0.614574  1
  O  O11  1  0.135243  0.284713  0.566530  1
  O  O12  1  0.183472  0.784701  0.614694  1
  O  O13  1  0.614575  0.785793  0.614130  1
