# generated using pymatgen
data_Y6P13IrRh19
_symmetry_space_group_name_H-M   'P 1'
_cell_length_a   13.35030900
_cell_length_b   13.35030984
_cell_length_c   3.92559100
_cell_angle_alpha   90.00000000
_cell_angle_beta   90.00000000
_cell_angle_gamma   119.99999544
_symmetry_Int_Tables_number   1
_chemical_formula_structural   Y6P13IrRh19
_chemical_formula_sum   'Y6 P13 Ir1 Rh19'
_cell_volume   605.92429165
_cell_formula_units_Z   1
loop_
 _symmetry_equiv_pos_site_id
 _symmetry_equiv_pos_as_xyz
  1  'x, y, z'
loop_
 _atom_site_type_symbol
 _atom_site_label
 _atom_site_symmetry_multiplicity
 _atom_site_fract_x
 _atom_site_fract_y
 _atom_site_fract_z
 _atom_site_occupancy
  Y  Y0  1  0.529249  0.716606  0.247826  1
  Y  Y1  1  0.283394  0.812641  0.247826  1
  Y  Y2  1  0.187359  0.470751  0.247826  1
  Y  Y3  1  0.470186  0.282871  0.752431  1
  Y  Y4  1  0.717129  0.187315  0.752431  1
  Y  Y5  1  0.812685  0.529814  0.752431  1
  P  P6  1  0.525606  0.139141  0.250438  1
  P  P7  1  0.860859  0.386466  0.250438  1
  P  P8  1  0.613534  0.474394  0.250438  1
  P  P9  1  0.945746  0.715226  0.254988  1
  P  P10  1  0.284774  0.230520  0.254988  1
  P  P11  1  0.769480  0.054254  0.254988  1
  P  P12  1  0.386078  0.525477  0.749400  1
  P  P13  1  0.474523  0.860601  0.749400  1
  P  P14  1  0.139399  0.613922  0.749400  1
  P  P15  1  0.715296  0.769601  0.745177  1
  P  P16  1  0.230399  0.945695  0.745177  1
  P  P17  1  0.054305  0.284704  0.745177  1
  P  P18  1  0.000000  0.000000  0.001520  1
  Ir  Ir19  1  0.333333  0.666667  0.752138  1
  Rh  Rh20  1  0.921555  0.249857  0.255411  1
  Rh  Rh21  1  0.750143  0.671698  0.255411  1
  Rh  Rh22  1  0.328302  0.078445  0.255411  1
  Rh  Rh23  1  0.439375  0.023815  0.751944  1
  Rh  Rh24  1  0.976185  0.415562  0.751944  1
  Rh  Rh25  1  0.584438  0.560625  0.751944  1
  Rh  Rh26  1  0.666667  0.333333  0.247146  1
  Rh  Rh27  1  0.093927  0.186468  0.245838  1
  Rh  Rh28  1  0.813532  0.907460  0.245838  1
  Rh  Rh29  1  0.092540  0.906073  0.245838  1
  Rh  Rh30  1  0.023325  0.584178  0.247902  1
  Rh  Rh31  1  0.415822  0.439146  0.247902  1
  Rh  Rh32  1  0.560854  0.976675  0.247902  1
  Rh  Rh33  1  0.671566  0.921374  0.744419  1
  Rh  Rh34  1  0.078626  0.750191  0.744419  1
  Rh  Rh35  1  0.249809  0.328434  0.744419  1
  Rh  Rh36  1  0.906037  0.813653  0.753957  1
  Rh  Rh37  1  0.186347  0.092383  0.753957  1
  Rh  Rh38  1  0.907617  0.093963  0.753957  1
