# generated using pymatgen
data_Nd9Lu(Sn3Cl)2
_symmetry_space_group_name_H-M   'P 1'
_cell_length_a   9.40809500
_cell_length_b   9.40809402
_cell_length_c   6.72417900
_cell_angle_alpha   90.00000000
_cell_angle_beta   90.00000000
_cell_angle_gamma   119.99999291
_symmetry_Int_Tables_number   1
_chemical_formula_structural   Nd9Lu(Sn3Cl)2
_chemical_formula_sum   'Nd9 Lu1 Sn6 Cl2'
_cell_volume   515.43424756
_cell_formula_units_Z   1
loop_
 _symmetry_equiv_pos_site_id
 _symmetry_equiv_pos_as_xyz
  1  'x, y, z'
loop_
 _atom_site_type_symbol
 _atom_site_label
 _atom_site_symmetry_multiplicity
 _atom_site_fract_x
 _atom_site_fract_y
 _atom_site_fract_z
 _atom_site_occupancy
  Nd  Nd0  1  0.333333  0.666667  0.500000  1
  Nd  Nd1  1  0.666667  0.333333  0.500000  1
  Nd  Nd2  1  0.333333  0.666667  0.000000  1
  Nd  Nd3  1  0.738772  0.000158  0.750970  1
  Nd  Nd4  1  0.738772  0.738614  0.249030  1
  Nd  Nd5  1  0.999842  0.261228  0.249030  1
  Nd  Nd6  1  0.999842  0.738614  0.750970  1
  Nd  Nd7  1  0.261386  0.261228  0.750970  1
  Nd  Nd8  1  0.261386  0.000158  0.249030  1
  Lu  Lu9  1  0.666667  0.333333  0.000000  1
  Sn  Sn10  1  0.612705  0.608582  0.753656  1
  Sn  Sn11  1  0.995877  0.608582  0.246344  1
  Sn  Sn12  1  0.612705  0.004123  0.246344  1
  Sn  Sn13  1  0.391418  0.004123  0.753656  1
  Sn  Sn14  1  0.995877  0.387295  0.753656  1
  Sn  Sn15  1  0.391418  0.387295  0.246344  1
  Cl  Cl16  1  0.000000  0.000000  0.500000  1
  Cl  Cl17  1  0.000000  0.000000  0.000000  1
