# generated using pymatgen
data_As(OsCl6)2
_symmetry_space_group_name_H-M   'P 1'
_cell_length_a   11.37316500
_cell_length_b   9.59579161
_cell_length_c   9.90072134
_cell_angle_alpha   89.53401652
_cell_angle_beta   90.00000000
_cell_angle_gamma   90.00000000
_symmetry_Int_Tables_number   1
_chemical_formula_structural   As(OsCl6)2
_chemical_formula_sum   'As2 Os4 Cl24'
_cell_volume   1080.47474852
_cell_formula_units_Z   2
loop_
 _symmetry_equiv_pos_site_id
 _symmetry_equiv_pos_as_xyz
  1  'x, y, z'
loop_
 _atom_site_type_symbol
 _atom_site_label
 _atom_site_symmetry_multiplicity
 _atom_site_fract_x
 _atom_site_fract_y
 _atom_site_fract_z
 _atom_site_occupancy
  As  As0  1  0.250000  0.826098  0.964790  1
  As  As1  1  0.750000  0.173902  0.035210  1
  Os  Os2  1  0.250000  0.154015  0.605682  1
  Os  Os3  1  0.750000  0.654194  0.592742  1
  Os  Os4  1  0.750000  0.845985  0.394318  1
  Os  Os5  1  0.250000  0.345806  0.407258  1
  Cl  Cl6  1  0.891915  0.627052  0.752762  1
  Cl  Cl7  1  0.602404  0.188333  0.891207  1
  Cl  Cl8  1  0.250000  0.575028  0.458451  1
  Cl  Cl9  1  0.108085  0.372948  0.247238  1
  Cl  Cl10  1  0.108598  0.989811  0.643488  1
  Cl  Cl11  1  0.750000  0.424972  0.541549  1
  Cl  Cl12  1  0.409706  0.314890  0.566381  1
  Cl  Cl13  1  0.102404  0.811667  0.108793  1
  Cl  Cl14  1  0.397596  0.811667  0.108793  1
  Cl  Cl15  1  0.250000  0.610766  0.890096  1
  Cl  Cl16  1  0.250000  0.220761  0.824536  1
  Cl  Cl17  1  0.909706  0.685110  0.433619  1
  Cl  Cl18  1  0.391915  0.372948  0.247238  1
  Cl  Cl19  1  0.750000  0.389234  0.109904  1
  Cl  Cl20  1  0.391402  0.989811  0.643488  1
  Cl  Cl21  1  0.090294  0.314890  0.566381  1
  Cl  Cl22  1  0.750000  0.779239  0.175464  1
  Cl  Cl23  1  0.250000  0.097189  0.368363  1
  Cl  Cl24  1  0.608598  0.010189  0.356512  1
  Cl  Cl25  1  0.897596  0.188333  0.891207  1
  Cl  Cl26  1  0.750000  0.902811  0.631637  1
  Cl  Cl27  1  0.590294  0.685110  0.433619  1
  Cl  Cl28  1  0.608085  0.627052  0.752762  1
  Cl  Cl29  1  0.891402  0.010189  0.356512  1
