# generated using pymatgen
data_Ta2AlCr3
_symmetry_space_group_name_H-M   'P 1'
_cell_length_a   4.86317000
_cell_length_b   4.86317021
_cell_length_c   8.31910300
_cell_angle_alpha   90.00000000
_cell_angle_beta   90.00000000
_cell_angle_gamma   119.99999860
_symmetry_Int_Tables_number   1
_chemical_formula_structural   Ta2AlCr3
_chemical_formula_sum   'Ta4 Al2 Cr6'
_cell_volume   170.39076789
_cell_formula_units_Z   2
loop_
 _symmetry_equiv_pos_site_id
 _symmetry_equiv_pos_as_xyz
  1  'x, y, z'
loop_
 _atom_site_type_symbol
 _atom_site_label
 _atom_site_symmetry_multiplicity
 _atom_site_fract_x
 _atom_site_fract_y
 _atom_site_fract_z
 _atom_site_occupancy
  Ta  Ta0  1  0.333333  0.666667  0.433809  1
  Ta  Ta1  1  0.666667  0.333333  0.566191  1
  Ta  Ta2  1  0.666667  0.333333  0.933809  1
  Ta  Ta3  1  0.333333  0.666667  0.066191  1
  Al  Al4  1  0.000000  0.000000  0.500000  1
  Al  Al5  1  0.000000  0.000000  0.000000  1
  Cr  Cr6  1  0.827575  0.172425  0.250000  1
  Cr  Cr7  1  0.827575  0.655151  0.250000  1
  Cr  Cr8  1  0.344849  0.172425  0.250000  1
  Cr  Cr9  1  0.172425  0.827575  0.750000  1
  Cr  Cr10  1  0.172425  0.344849  0.750000  1
  Cr  Cr11  1  0.655151  0.827575  0.750000  1
