# generated using pymatgen
data_SrAc6TcI12
_symmetry_space_group_name_H-M   'P 1'
_cell_length_a   10.51735572
_cell_length_b   10.51735595
_cell_length_c   10.51735400
_cell_angle_alpha   106.43280001
_cell_angle_beta   106.43279470
_cell_angle_gamma   106.43279826
_symmetry_Int_Tables_number   1
_chemical_formula_structural   SrAc6TcI12
_chemical_formula_sum   'Sr1 Ac6 Tc1 I12'
_cell_volume   983.47561464
_cell_formula_units_Z   1
loop_
 _symmetry_equiv_pos_site_id
 _symmetry_equiv_pos_as_xyz
  1  'x, y, z'
loop_
 _atom_site_type_symbol
 _atom_site_label
 _atom_site_symmetry_multiplicity
 _atom_site_fract_x
 _atom_site_fract_y
 _atom_site_fract_z
 _atom_site_occupancy
  Sr  Sr0  1  0.500000  0.500000  0.500000  1
  Ac  Ac1  1  0.900176  0.697108  0.977870  1
  Ac  Ac2  1  0.977870  0.900176  0.697108  1
  Ac  Ac3  1  0.697108  0.977870  0.900176  1
  Ac  Ac4  1  0.099824  0.302892  0.022130  1
  Ac  Ac5  1  0.022130  0.099824  0.302892  1
  Ac  Ac6  1  0.302892  0.022130  0.099824  1
  Tc  Tc7  1  0.000000  0.000000  0.000000  1
  I  I8  1  0.622839  0.842229  0.542851  1
  I  I9  1  0.542851  0.622839  0.842229  1
  I  I10  1  0.842229  0.542851  0.622839  1
  I  I11  1  0.377161  0.157771  0.457149  1
  I  I12  1  0.457149  0.377161  0.157771  1
  I  I13  1  0.157771  0.457149  0.377161  1
  I  I14  1  0.677870  0.074031  0.225008  1
  I  I15  1  0.225008  0.677870  0.074031  1
  I  I16  1  0.074031  0.225008  0.677870  1
  I  I17  1  0.322130  0.925969  0.774992  1
  I  I18  1  0.774992  0.322130  0.925969  1
  I  I19  1  0.925969  0.774992  0.322130  1
