# generated using pymatgen
data_Dy17Ho3(IrRu)6
_symmetry_space_group_name_H-M   'P 1'
_cell_length_a   10.83287449
_cell_length_b   10.82831201
_cell_length_c   6.39600201
_cell_angle_alpha   89.99610891
_cell_angle_beta   89.94390507
_cell_angle_gamma   89.99970179
_symmetry_Int_Tables_number   1
_chemical_formula_structural   Dy17Ho3(IrRu)6
_chemical_formula_sum   'Dy17 Ho3 Ir6 Ru6'
_cell_volume   750.26183461
_cell_formula_units_Z   1
loop_
 _symmetry_equiv_pos_site_id
 _symmetry_equiv_pos_as_xyz
  1  'x, y, z'
loop_
 _atom_site_type_symbol
 _atom_site_label
 _atom_site_symmetry_multiplicity
 _atom_site_fract_x
 _atom_site_fract_y
 _atom_site_fract_z
 _atom_site_occupancy
  Dy  Dy0  1  0.292943  0.086250  0.378432  1
  Dy  Dy1  1  0.292903  0.913769  0.878490  1
  Dy  Dy2  1  0.707954  0.086386  0.877525  1
  Dy  Dy3  1  0.707879  0.913601  0.377433  1
  Dy  Dy4  1  0.587395  0.793346  0.878629  1
  Dy  Dy5  1  0.587406  0.206668  0.378606  1
  Dy  Dy6  1  0.413601  0.793460  0.377698  1
  Dy  Dy7  1  0.413591  0.206509  0.877700  1
  Dy  Dy8  1  0.206452  0.413608  0.621569  1
  Dy  Dy9  1  0.206431  0.586397  0.121556  1
  Dy  Dy10  1  0.793256  0.412662  0.122008  1
  Dy  Dy11  1  0.793236  0.587335  0.622019  1
  Dy  Dy12  1  0.913491  0.707317  0.121554  1
  Dy  Dy13  1  0.913477  0.292744  0.621628  1
  Dy  Dy14  1  0.086049  0.707849  0.622623  1
  Dy  Dy15  1  0.086025  0.292094  0.122548  1
  Dy  Dy16  1  0.998543  0.000676  0.499776  1
  Ho  Ho17  1  0.998617  0.999339  0.999815  1
  Ho  Ho18  1  0.499895  0.500327  0.000186  1
  Ho  Ho19  1  0.499897  0.499674  0.500180  1
  Ir  Ir20  1  0.153724  0.153448  0.750485  1
  Ir  Ir21  1  0.153740  0.846569  0.250002  1
  Ir  Ir22  1  0.652142  0.348279  0.749672  1
  Ir  Ir23  1  0.652128  0.651735  0.249670  1
  Ir  Ir24  1  0.347642  0.347099  0.250396  1
  Ir  Ir25  1  0.347626  0.652889  0.750412  1
  Ru  Ru26  1  0.847212  0.152826  0.249558  1
  Ru  Ru27  1  0.847252  0.847147  0.749879  1
  Ru  Ru28  1  0.500203  0.000241  0.122658  1
  Ru  Ru29  1  0.500199  0.999758  0.622683  1
  Ru  Ru30  1  0.999543  0.500333  0.877319  1
  Ru  Ru31  1  0.999546  0.499666  0.377291  1
