# generated using pymatgen
data_Tb10Y2IrPd3
_symmetry_space_group_name_H-M   'P 1'
_cell_length_a   6.46500912
_cell_length_b   7.12251385
_cell_length_c   9.64921300
_cell_angle_alpha   90.00000000
_cell_angle_beta   90.00000000
_cell_angle_gamma   90.12440001
_symmetry_Int_Tables_number   1
_chemical_formula_structural   Tb10Y2IrPd3
_chemical_formula_sum   'Tb10 Y2 Ir1 Pd3'
_cell_volume   444.31739233
_cell_formula_units_Z   1
loop_
 _symmetry_equiv_pos_site_id
 _symmetry_equiv_pos_as_xyz
  1  'x, y, z'
loop_
 _atom_site_type_symbol
 _atom_site_label
 _atom_site_symmetry_multiplicity
 _atom_site_fract_x
 _atom_site_fract_y
 _atom_site_fract_z
 _atom_site_occupancy
  Tb  Tb0  1  0.327504  0.681191  0.057623  1
  Tb  Tb1  1  0.171477  0.179367  0.440311  1
  Tb  Tb2  1  0.672256  0.324210  0.563132  1
  Tb  Tb3  1  0.822308  0.815899  0.937481  1
  Tb  Tb4  1  0.672256  0.324210  0.936868  1
  Tb  Tb5  1  0.822308  0.815899  0.562519  1
  Tb  Tb6  1  0.327504  0.681191  0.442377  1
  Tb  Tb7  1  0.171477  0.179367  0.059689  1
  Tb  Tb8  1  0.140120  0.476259  0.750000  1
  Tb  Tb9  1  0.371820  0.964856  0.750000  1
  Y  Y10  1  0.867074  0.524694  0.250000  1
  Y  Y11  1  0.633771  0.026896  0.250000  1
  Ir  Ir12  1  0.556235  0.615809  0.750000  1
  Pd  Pd13  1  0.060820  0.887577  0.250000  1
  Pd  Pd14  1  0.437567  0.389756  0.250000  1
  Pd  Pd15  1  0.945501  0.112821  0.750000  1
