# generated using pymatgen
data_Pa6Sb8(PdPt)3
_symmetry_space_group_name_H-M   'P 1'
_cell_length_a   8.48367138
_cell_length_b   8.48224059
_cell_length_c   8.48223892
_cell_angle_alpha   109.49304130
_cell_angle_beta   109.70501119
_cell_angle_gamma   109.20916190
_symmetry_Int_Tables_number   1
_chemical_formula_structural   Pa6Sb8(PdPt)3
_chemical_formula_sum   'Pa6 Sb8 Pd3 Pt3'
_cell_volume   469.90649367
_cell_formula_units_Z   1
loop_
 _symmetry_equiv_pos_site_id
 _symmetry_equiv_pos_as_xyz
  1  'x, y, z'
loop_
 _atom_site_type_symbol
 _atom_site_label
 _atom_site_symmetry_multiplicity
 _atom_site_fract_x
 _atom_site_fract_y
 _atom_site_fract_z
 _atom_site_occupancy
  Pa  Pa0  1  0.871856  0.247222  0.122574  1
  Pa  Pa1  1  0.628144  0.750718  0.375366  1
  Pa  Pa2  1  0.250000  0.128038  0.878038  1
  Pa  Pa3  1  0.750000  0.372383  0.622383  1
  Pa  Pa4  1  0.121855  0.874639  0.249254  1
  Pa  Pa5  1  0.378145  0.627399  0.752784  1
  Sb  Sb6  1  0.676367  0.499645  0.997022  1
  Sb  Sb7  1  0.496237  0.996575  0.672967  1
  Sb  Sb8  1  0.003763  0.676730  0.500338  1
  Sb  Sb9  1  0.823633  0.820655  0.823278  1
  Sb  Sb10  1  0.496191  0.999165  0.176039  1
  Sb  Sb11  1  0.176486  0.503434  0.000309  1
  Sb  Sb12  1  0.003809  0.179847  0.502974  1
  Sb  Sb13  1  0.323514  0.323823  0.326948  1
  Pd  Pd14  1  0.375010  0.248905  0.626061  1
  Pd  Pd15  1  0.124990  0.751051  0.873896  1
  Pd  Pd16  1  0.250000  0.623103  0.373103  1
  Pt  Pt17  1  0.750000  0.876686  0.126686  1
  Pt  Pt18  1  0.624957  0.375646  0.249295  1
  Pt  Pt19  1  0.875043  0.124337  0.750689  1
