# generated using pymatgen
data_Y3Tm5(CdIr)2
_symmetry_space_group_name_H-M   'P 1'
_cell_length_a   9.57404372
_cell_length_b   9.57404319
_cell_length_c   9.57404300
_cell_angle_alpha   59.99999720
_cell_angle_beta   59.99999904
_cell_angle_gamma   59.99999353
_symmetry_Int_Tables_number   1
_chemical_formula_structural   Y3Tm5(CdIr)2
_chemical_formula_sum   'Y6 Tm10 Cd4 Ir4'
_cell_volume   620.54192841
_cell_formula_units_Z   2
loop_
 _symmetry_equiv_pos_site_id
 _symmetry_equiv_pos_as_xyz
  1  'x, y, z'
loop_
 _atom_site_type_symbol
 _atom_site_label
 _atom_site_symmetry_multiplicity
 _atom_site_fract_x
 _atom_site_fract_y
 _atom_site_fract_z
 _atom_site_occupancy
  Y  Y0  1  0.939587  0.560413  0.560413  1
  Y  Y1  1  0.560413  0.939587  0.939587  1
  Y  Y2  1  0.560413  0.939587  0.560413  1
  Y  Y3  1  0.939587  0.560413  0.939587  1
  Y  Y4  1  0.560413  0.560413  0.939587  1
  Y  Y5  1  0.939587  0.939587  0.560413  1
  Tm  Tm6  1  0.348361  0.348361  0.348361  1
  Tm  Tm7  1  0.348361  0.348361  0.954916  1
  Tm  Tm8  1  0.348361  0.954916  0.348361  1
  Tm  Tm9  1  0.954916  0.348361  0.348361  1
  Tm  Tm10  1  0.811252  0.188748  0.188748  1
  Tm  Tm11  1  0.188748  0.811252  0.811252  1
  Tm  Tm12  1  0.188748  0.811252  0.188748  1
  Tm  Tm13  1  0.811252  0.188748  0.811252  1
  Tm  Tm14  1  0.188748  0.188748  0.811252  1
  Tm  Tm15  1  0.811252  0.811252  0.188748  1
  Cd  Cd16  1  0.580640  0.580640  0.580640  1
  Cd  Cd17  1  0.580640  0.580640  0.258081  1
  Cd  Cd18  1  0.580640  0.258081  0.580640  1
  Cd  Cd19  1  0.258081  0.580640  0.580640  1
  Ir  Ir20  1  0.141646  0.141646  0.141646  1
  Ir  Ir21  1  0.141646  0.141646  0.575062  1
  Ir  Ir22  1  0.141646  0.575062  0.141646  1
  Ir  Ir23  1  0.575062  0.141646  0.141646  1
