# generated using pymatgen
data_Er4Al24Pt7Rh2
_symmetry_space_group_name_H-M   'P 1'
_cell_length_a   7.50686766
_cell_length_b   7.50147035
_cell_length_c   13.16396274
_cell_angle_alpha   84.52749717
_cell_angle_beta   100.90635029
_cell_angle_gamma   119.77736656
_symmetry_Int_Tables_number   1
_chemical_formula_structural   Er4Al24Pt7Rh2
_chemical_formula_sum   'Er4 Al24 Pt7 Rh2'
_cell_volume   631.79434220
_cell_formula_units_Z   1
loop_
 _symmetry_equiv_pos_site_id
 _symmetry_equiv_pos_as_xyz
  1  'x, y, z'
loop_
 _atom_site_type_symbol
 _atom_site_label
 _atom_site_symmetry_multiplicity
 _atom_site_fract_x
 _atom_site_fract_y
 _atom_site_fract_z
 _atom_site_occupancy
  Er  Er0  1  0.732644  0.999223  0.191184  1
  Er  Er1  1  0.267244  0.001023  0.808651  1
  Er  Er2  1  0.062217  0.668317  0.191589  1
  Er  Er3  1  0.937757  0.331581  0.808553  1
  Al  Al4  1  0.810987  0.871318  0.818128  1
  Al  Al5  1  0.189299  0.128238  0.181865  1
  Al  Al6  1  0.986231  0.669207  0.946128  1
  Al  Al7  1  0.020341  0.334166  0.053507  1
  Al  Al8  1  0.396038  0.663636  0.819348  1
  Al  Al9  1  0.600924  0.335622  0.182670  1
  Al  Al10  1  0.882443  0.665053  0.672356  1
  Al  Al11  1  0.118086  0.334812  0.327313  1
  Al  Al12  1  0.603404  0.458878  0.816897  1
  Al  Al13  1  0.396521  0.544688  0.181096  1
  Al  Al14  1  0.230612  0.339974  0.670321  1
  Al  Al15  1  0.769489  0.660060  0.329716  1
  Al  Al16  1  0.853270  0.333553  0.558939  1
  Al  Al17  1  0.186241  0.999545  0.558941  1
  Al  Al18  1  0.814097  0.000001  0.441067  1
  Al  Al19  1  0.348572  0.995605  0.053849  1
  Al  Al20  1  0.648229  0.997817  0.946562  1
  Al  Al21  1  0.556606  0.992047  0.672695  1
  Al  Al22  1  0.443557  0.007266  0.327548  1
  Al  Al23  1  0.521326  0.668164  0.561726  1
  Al  Al24  1  0.478715  0.331892  0.438206  1
  Al  Al25  1  0.683149  0.671838  0.043806  1
  Al  Al26  1  0.313508  0.331472  0.956201  1
  Al  Al27  1  0.147138  0.666134  0.441156  1
  Pt  Pt28  1  0.545833  0.324298  0.637031  1
  Pt  Pt29  1  0.454394  0.675127  0.362820  1
  Pt  Pt30  1  0.888012  0.008299  0.638425  1
  Pt  Pt31  1  0.112186  0.991532  0.361594  1
  Pt  Pt32  1  0.671822  0.328314  0.999948  1
  Pt  Pt33  1  0.204100  0.666808  0.638580  1
  Pt  Pt34  1  0.796497  0.333036  0.361566  1
  Rh  Rh35  1  0.328479  0.671504  0.000021  1
  Rh  Rh36  1  0.000034  0.999951  0.999999  1
