# generated using pymatgen
data_Pr3MgCd2AgPb2
_symmetry_space_group_name_H-M   'P 1'
_cell_length_a   7.73120613
_cell_length_b   7.69842558
_cell_length_c   4.77622600
_cell_angle_alpha   90.00000000
_cell_angle_beta   90.00000000
_cell_angle_gamma   119.85983789
_symmetry_Int_Tables_number   1
_chemical_formula_structural   Pr3MgCd2AgPb2
_chemical_formula_sum   'Pr3 Mg1 Cd2 Ag1 Pb2'
_cell_volume   246.53371533
_cell_formula_units_Z   1
loop_
 _symmetry_equiv_pos_site_id
 _symmetry_equiv_pos_as_xyz
  1  'x, y, z'
loop_
 _atom_site_type_symbol
 _atom_site_label
 _atom_site_symmetry_multiplicity
 _atom_site_fract_x
 _atom_site_fract_y
 _atom_site_fract_z
 _atom_site_occupancy
  Pr  Pr0  1  0.415293  0.412024  0.500000  1
  Pr  Pr1  1  0.584707  0.996731  0.500000  1
  Pr  Pr2  1  0.000000  0.593445  0.500000  1
  Mg  Mg3  1  0.000000  0.223277  0.000000  1
  Cd  Cd4  1  0.768511  0.769941  0.000000  1
  Cd  Cd5  1  0.231489  0.001429  0.000000  1
  Ag  Ag6  1  0.000000  0.010141  0.500000  1
  Pb  Pb7  1  0.672057  0.332534  0.000000  1
  Pb  Pb8  1  0.327943  0.660478  0.000000  1
