# generated using pymatgen
data_Nd6Co3Ni16P13Pt
_symmetry_space_group_name_H-M   'P 1'
_cell_length_a   12.85188800
_cell_length_b   12.85188880
_cell_length_c   3.82197900
_cell_angle_alpha   90.00000000
_cell_angle_beta   90.00000000
_cell_angle_gamma   119.99999278
_symmetry_Int_Tables_number   1
_chemical_formula_structural   Nd6Co3Ni16P13Pt
_chemical_formula_sum   'Nd6 Co3 Ni16 P13 Pt1'
_cell_volume   546.70475503
_cell_formula_units_Z   1
loop_
 _symmetry_equiv_pos_site_id
 _symmetry_equiv_pos_as_xyz
  1  'x, y, z'
loop_
 _atom_site_type_symbol
 _atom_site_label
 _atom_site_symmetry_multiplicity
 _atom_site_fract_x
 _atom_site_fract_y
 _atom_site_fract_z
 _atom_site_occupancy
  Nd  Nd0  1  0.796504  0.948209  0.000000  1
  Nd  Nd1  1  0.051791  0.848296  0.000000  1
  Nd  Nd2  1  0.151704  0.203496  0.000000  1
  Nd  Nd3  1  0.518621  0.134219  0.500000  1
  Nd  Nd4  1  0.865781  0.384402  0.500000  1
  Nd  Nd5  1  0.615598  0.481379  0.500000  1
  Co  Co6  1  0.524175  0.770136  0.000000  1
  Co  Co7  1  0.229864  0.754039  0.000000  1
  Co  Co8  1  0.245961  0.475825  0.000000  1
  Ni  Ni9  1  0.401679  0.811565  0.500000  1
  Ni  Ni10  1  0.188435  0.590114  0.500000  1
  Ni  Ni11  1  0.409886  0.598321  0.500000  1
  Ni  Ni12  1  0.666667  0.333333  0.000000  1
  Ni  Ni13  1  0.769761  0.688077  0.000000  1
  Ni  Ni14  1  0.311923  0.081685  0.000000  1
  Ni  Ni15  1  0.918315  0.230239  0.000000  1
  Ni  Ni16  1  0.642500  0.735146  0.500000  1
  Ni  Ni17  1  0.264854  0.907354  0.500000  1
  Ni  Ni18  1  0.092646  0.357500  0.500000  1
  Ni  Ni19  1  0.359002  0.260269  0.500000  1
  Ni  Ni20  1  0.739731  0.098733  0.500000  1
  Ni  Ni21  1  0.901267  0.640998  0.500000  1
  Ni  Ni22  1  0.572558  0.985247  0.000000  1
  Ni  Ni23  1  0.014753  0.587311  0.000000  1
  Ni  Ni24  1  0.412689  0.427442  0.000000  1
  P  P25  1  0.846024  0.789350  0.500000  1
  P  P26  1  0.210650  0.056674  0.500000  1
  P  P27  1  0.943326  0.153976  0.500000  1
  P  P28  1  0.601333  0.893535  0.500000  1
  P  P29  1  0.106465  0.707797  0.500000  1
  P  P30  1  0.292203  0.398667  0.500000  1
  P  P31  1  0.468887  0.282402  0.000000  1
  P  P32  1  0.717598  0.186484  0.000000  1
  P  P33  1  0.813516  0.531113  0.000000  1
  P  P34  1  0.375388  0.942118  0.000000  1
  P  P35  1  0.057882  0.433270  0.000000  1
  P  P36  1  0.566730  0.624612  0.000000  1
  P  P37  1  0.333333  0.666667  0.000000  1
  Pt  Pt38  1  0.000000  0.000000  0.500000  1
