# generated using pymatgen
data_La2Tb5MnI12
_symmetry_space_group_name_H-M   'P 1'
_cell_length_a   9.94327629
_cell_length_b   9.74071019
_cell_length_c   9.93637824
_cell_angle_alpha   106.03836643
_cell_angle_beta   106.58918166
_cell_angle_gamma   106.97785026
_symmetry_Int_Tables_number   1
_chemical_formula_structural   La2Tb5MnI12
_chemical_formula_sum   'La2 Tb5 Mn1 I12'
_cell_volume   811.38862546
_cell_formula_units_Z   1
loop_
 _symmetry_equiv_pos_site_id
 _symmetry_equiv_pos_as_xyz
  1  'x, y, z'
loop_
 _atom_site_type_symbol
 _atom_site_label
 _atom_site_symmetry_multiplicity
 _atom_site_fract_x
 _atom_site_fract_y
 _atom_site_fract_z
 _atom_site_occupancy
  La  La0  1  0.914220  0.729577  0.981277  1
  La  La1  1  0.500290  0.501346  0.499212  1
  Tb  Tb2  1  0.979824  0.907502  0.706237  1
  Tb  Tb3  1  0.705044  0.978377  0.906206  1
  Tb  Tb4  1  0.087798  0.272786  0.019990  1
  Tb  Tb5  1  0.019993  0.093413  0.294406  1
  Tb  Tb6  1  0.295561  0.018395  0.093332  1
  Mn  Mn7  1  0.992771  0.976849  0.999492  1
  I  I8  1  0.782695  0.319079  0.929067  1
  I  I9  1  0.929085  0.782567  0.333261  1
  I  I10  1  0.320984  0.930338  0.777026  1
  I  I11  1  0.237945  0.684463  0.078227  1
  I  I12  1  0.076515  0.230729  0.689211  1
  I  I13  1  0.680642  0.075860  0.223214  1
  I  I14  1  0.530792  0.620722  0.843280  1
  I  I15  1  0.848348  0.540683  0.610060  1
  I  I16  1  0.624052  0.857661  0.545117  1
  I  I17  1  0.450111  0.377277  0.145635  1
  I  I18  1  0.147716  0.455914  0.370369  1
  I  I19  1  0.375614  0.146463  0.455380  1
