# generated using pymatgen
data_NiPdCl6
_symmetry_space_group_name_H-M   'P 1'
_cell_length_a   6.08980411
_cell_length_b   6.08926997
_cell_length_c   19.55213601
_cell_angle_alpha   90.01673083
_cell_angle_beta   90.01182766
_cell_angle_gamma   119.99843591
_symmetry_Int_Tables_number   1
_chemical_formula_structural   NiPdCl6
_chemical_formula_sum   'Ni3 Pd3 Cl18'
_cell_volume   627.91402468
_cell_formula_units_Z   3
loop_
 _symmetry_equiv_pos_site_id
 _symmetry_equiv_pos_as_xyz
  1  'x, y, z'
loop_
 _atom_site_type_symbol
 _atom_site_label
 _atom_site_symmetry_multiplicity
 _atom_site_fract_x
 _atom_site_fract_y
 _atom_site_fract_z
 _atom_site_occupancy
  Ni  Ni0  1  0.555325  0.110919  0.166578  1
  Ni  Ni1  1  0.890246  0.445417  0.500208  1
  Ni  Ni2  1  0.555549  0.444809  0.833424  1
  Pd  Pd3  1  0.222035  0.444443  0.166597  1
  Pd  Pd4  1  0.555883  0.778005  0.500053  1
  Pd  Pd5  1  0.222148  0.777612  0.833333  1
  Cl  Cl6  1  0.528923  0.755386  0.765231  1
  Cl  Cl7  1  0.892933  0.755316  0.901517  1
  Cl  Cl8  1  0.529067  0.106654  0.901482  1
  Cl  Cl9  1  0.862596  0.755566  0.431859  1
  Cl  Cl10  1  0.226706  0.470865  0.431937  1
  Cl  Cl11  1  0.892738  0.137276  0.098393  1
  Cl  Cl12  1  0.528989  0.773550  0.234679  1
  Cl  Cl13  1  0.892954  0.470474  0.765160  1
  Cl  Cl14  1  0.244323  0.470748  0.901441  1
  Cl  Cl15  1  0.577982  0.471039  0.568189  1
  Cl  Cl16  1  0.862806  0.107140  0.568249  1
  Cl  Cl17  1  0.226967  0.756039  0.568183  1
  Cl  Cl18  1  0.244320  0.137595  0.234788  1
  Cl  Cl19  1  0.577829  0.106924  0.431935  1
  Cl  Cl20  1  0.892951  0.422274  0.234742  1
  Cl  Cl21  1  0.528857  0.422331  0.098432  1
  Cl  Cl22  1  0.244075  0.106455  0.765125  1
  Cl  Cl23  1  0.243797  0.773161  0.098468  1
