# generated using pymatgen
data_Th4Ga24IrPt8
_symmetry_space_group_name_H-M   'P 1'
_cell_length_a   7.62635225
_cell_length_b   7.63953618
_cell_length_c   13.22763300
_cell_angle_alpha   84.53632386
_cell_angle_beta   78.96043351
_cell_angle_gamma   59.95445590
_symmetry_Int_Tables_number   1
_chemical_formula_structural   Th4Ga24IrPt8
_chemical_formula_sum   'Th4 Ga24 Ir1 Pt8'
_cell_volume   654.76456472
_cell_formula_units_Z   1
loop_
 _symmetry_equiv_pos_site_id
 _symmetry_equiv_pos_as_xyz
  1  'x, y, z'
loop_
 _atom_site_type_symbol
 _atom_site_label
 _atom_site_symmetry_multiplicity
 _atom_site_fract_x
 _atom_site_fract_y
 _atom_site_fract_z
 _atom_site_occupancy
  Th  Th0  1  0.396499  0.167555  0.807654  1
  Th  Th1  1  0.603501  0.832445  0.192346  1
  Th  Th2  1  0.731948  0.499340  0.807400  1
  Th  Th3  1  0.268052  0.500660  0.192600  1
  Ga  Ga4  1  0.689164  0.831182  0.941412  1
  Ga  Ga5  1  0.310836  0.168818  0.058588  1
  Ga  Ga6  1  0.146137  0.833533  0.561205  1
  Ga  Ga7  1  0.853863  0.166467  0.438795  1
  Ga  Ga8  1  0.481371  0.166493  0.557507  1
  Ga  Ga9  1  0.518629  0.833507  0.442493  1
  Ga  Ga10  1  0.213854  0.166069  0.331853  1
  Ga  Ga11  1  0.786146  0.833931  0.668147  1
  Ga  Ga12  1  0.435584  0.508734  0.668338  1
  Ga  Ga13  1  0.564416  0.491266  0.331662  1
  Ga  Ga14  1  0.110989  0.157725  0.667141  1
  Ga  Ga15  1  0.889011  0.842275  0.332859  1
  Ga  Ga16  1  0.349767  0.501046  0.941419  1
  Ga  Ga17  1  0.650233  0.498954  0.058581  1
  Ga  Ga18  1  0.016991  0.169784  0.948752  1
  Ga  Ga19  1  0.983009  0.830216  0.051248  1
  Ga  Ga20  1  0.185992  0.499906  0.443104  1
  Ga  Ga21  1  0.814008  0.500094  0.556896  1
  Ga  Ga22  1  0.740713  0.161691  0.182510  1
  Ga  Ga23  1  0.259287  0.838309  0.817490  1
  Ga  Ga24  1  0.060086  0.634657  0.817995  1
  Ga  Ga25  1  0.939914  0.365343  0.182005  1
  Ga  Ga26  1  0.861431  0.037164  0.817035  1
  Ga  Ga27  1  0.138569  0.962836  0.182966  1
  Ir  Ir28  1  0.000000  0.500000  0.000000  1
  Pt  Pt29  1  0.119814  0.492083  0.640362  1
  Pt  Pt30  1  0.880186  0.507917  0.359638  1
  Pt  Pt31  1  0.658654  0.170750  0.999949  1
  Pt  Pt32  1  0.341346  0.829250  0.000051  1
  Pt  Pt33  1  0.537496  0.167467  0.360502  1
  Pt  Pt34  1  0.462504  0.832533  0.639498  1
  Pt  Pt35  1  0.778859  0.174343  0.637976  1
  Pt  Pt36  1  0.221141  0.825657  0.362024  1
