# generated using pymatgen
data_Nd11In9NiAu3
_symmetry_space_group_name_H-M   'P 1'
_cell_length_a   13.60474041
_cell_length_b   13.61953080
_cell_length_c   3.80797500
_cell_angle_alpha   90.00000000
_cell_angle_beta   90.00000000
_cell_angle_gamma   111.47351518
_symmetry_Int_Tables_number   1
_chemical_formula_structural   Nd11In9NiAu3
_chemical_formula_sum   'Nd11 In9 Ni1 Au3'
_cell_volume   656.60384361
_cell_formula_units_Z   1
loop_
 _symmetry_equiv_pos_site_id
 _symmetry_equiv_pos_as_xyz
  1  'x, y, z'
loop_
 _atom_site_type_symbol
 _atom_site_label
 _atom_site_symmetry_multiplicity
 _atom_site_fract_x
 _atom_site_fract_y
 _atom_site_fract_z
 _atom_site_occupancy
  Nd  Nd0  1  0.064669  0.414931  0.000000  1
  Nd  Nd1  1  0.935090  0.585939  0.000000  1
  Nd  Nd2  1  0.414262  0.061556  0.000000  1
  Nd  Nd3  1  0.581973  0.924042  0.000000  1
  Nd  Nd4  1  0.629924  0.371628  0.000000  1
  Nd  Nd5  1  0.382681  0.636785  0.000000  1
  Nd  Nd6  1  0.838280  0.159467  0.000000  1
  Nd  Nd7  1  0.163162  0.838158  0.000000  1
  Nd  Nd8  1  0.999425  0.999654  0.000000  1
  Nd  Nd9  1  0.306207  0.306938  0.000000  1
  Nd  Nd10  1  0.683905  0.697595  0.000000  1
  In  In11  1  0.840630  0.366815  0.500000  1
  In  In12  1  0.162184  0.633130  0.500000  1
  In  In13  1  0.368499  0.837070  0.500000  1
  In  In14  1  0.631863  0.156272  0.500000  1
  In  In15  1  0.072312  0.216609  0.500000  1
  In  In16  1  0.924753  0.783161  0.500000  1
  In  In17  1  0.216397  0.072219  0.500000  1
  In  In18  1  0.780320  0.923768  0.500000  1
  In  In19  1  0.500638  0.504463  0.500000  1
  Ni  Ni20  1  0.550679  0.754808  0.500000  1
  Au  Au21  1  0.250475  0.454297  0.500000  1
  Au  Au22  1  0.751163  0.552958  0.500000  1
  Au  Au23  1  0.450508  0.247736  0.500000  1
