# generated using pymatgen
data_Sc8Al15Ir5Rh2
_symmetry_space_group_name_H-M   'P 1'
_cell_length_a   8.88321220
_cell_length_b   8.88321106
_cell_length_c   8.88321217
_cell_angle_alpha   120.13806288
_cell_angle_beta   119.88557039
_cell_angle_gamma   89.97967755
_symmetry_Int_Tables_number   1
_chemical_formula_structural   Sc8Al15Ir5Rh2
_chemical_formula_sum   'Sc8 Al15 Ir5 Rh2'
_cell_volume   495.58117023
_cell_formula_units_Z   1
loop_
 _symmetry_equiv_pos_site_id
 _symmetry_equiv_pos_as_xyz
  1  'x, y, z'
loop_
 _atom_site_type_symbol
 _atom_site_label
 _atom_site_symmetry_multiplicity
 _atom_site_fract_x
 _atom_site_fract_y
 _atom_site_fract_z
 _atom_site_occupancy
  Sc  Sc0  1  0.787817  0.284910  0.063049  1
  Sc  Sc1  1  0.221861  0.284910  0.497094  1
  Sc  Sc2  1  0.210205  0.710205  0.500000  1
  Sc  Sc3  1  0.221861  0.724767  0.936951  1
  Sc  Sc4  1  0.787817  0.724767  0.502906  1
  Sc  Sc5  1  0.773591  0.273591  0.500000  1
  Sc  Sc6  1  0.378376  0.119326  0.740950  1
  Sc  Sc7  1  0.378376  0.637425  0.259050  1
  Al  Al8  1  0.992140  0.492140  0.500000  1
  Al  Al9  1  0.158457  0.336656  0.178197  1
  Al  Al10  1  0.158457  0.980259  0.821803  1
  Al  Al11  1  0.153793  0.343108  0.810684  1
  Al  Al12  1  0.532423  0.343108  0.189316  1
  Al  Al13  1  0.841997  0.656917  0.814921  1
  Al  Al14  1  0.841997  0.027076  0.185079  1
  Al  Al15  1  0.838069  0.659722  0.178347  1
  Al  Al16  1  0.481374  0.659722  0.821653  1
  Al  Al17  1  0.379325  0.122899  0.256426  1
  Al  Al18  1  0.866474  0.122899  0.743574  1
  Al  Al19  1  0.621816  0.875039  0.253224  1
  Al  Al20  1  0.621816  0.368592  0.746776  1
  Al  Al21  1  0.621529  0.876759  0.744770  1
  Al  Al22  1  0.131988  0.876759  0.255230  1
  Ir  Ir23  1  0.994807  0.998339  0.498117  1
  Ir  Ir24  1  0.500222  0.998339  0.003532  1
  Ir  Ir25  1  0.501534  0.501534  0.000000  1
  Ir  Ir26  1  0.500222  0.496689  0.501883  1
  Ir  Ir27  1  0.994807  0.496689  0.996468  1
  Rh  Rh28  1  0.999905  0.999905  0.000000  1
  Rh  Rh29  1  0.506947  0.006947  0.500000  1
