# generated using pymatgen
data_Np3GaF12
_symmetry_space_group_name_H-M   'P 1'
_cell_length_a   6.87854876
_cell_length_b   6.87854966
_cell_length_c   6.87854900
_cell_angle_alpha   108.83870637
_cell_angle_beta   108.83870892
_cell_angle_gamma   110.74380092
_symmetry_Int_Tables_number   1
_chemical_formula_structural   Np3GaF12
_chemical_formula_sum   'Np3 Ga1 F12'
_cell_volume   250.44217579
_cell_formula_units_Z   1
loop_
 _symmetry_equiv_pos_site_id
 _symmetry_equiv_pos_as_xyz
  1  'x, y, z'
loop_
 _atom_site_type_symbol
 _atom_site_label
 _atom_site_symmetry_multiplicity
 _atom_site_fract_x
 _atom_site_fract_y
 _atom_site_fract_z
 _atom_site_occupancy
  Np  Np0  1  0.250933  0.750462  0.499544  1
  Np  Np1  1  0.500000  0.500000  0.000000  1
  Np  Np2  1  0.749067  0.249538  0.500456  1
  Ga  Ga3  1  0.000000  0.000000  0.000000  1
  F  F4  1  0.553247  0.373616  0.274756  1
  F  F5  1  0.275612  0.555519  0.182047  1
  F  F6  1  0.374167  0.095473  0.817267  1
  F  F7  1  0.098004  0.280123  0.727973  1
  F  F8  1  0.338732  0.026609  0.364862  1
  F  F9  1  0.977026  0.338282  0.316522  1
  F  F10  1  0.022974  0.661718  0.683478  1
  F  F11  1  0.661268  0.973391  0.635138  1
  F  F12  1  0.901996  0.719877  0.272027  1
  F  F13  1  0.625833  0.904527  0.182733  1
  F  F14  1  0.724388  0.444481  0.817953  1
  F  F15  1  0.446753  0.626384  0.725244  1
