# generated using pymatgen
data_Cs2NaNbSe4
_symmetry_space_group_name_H-M   'P 1'
_cell_length_a   14.78955041
_cell_length_b   13.23264162
_cell_length_c   8.23304580
_cell_angle_alpha   83.63516318
_cell_angle_beta   62.77467229
_cell_angle_gamma   33.59016898
_symmetry_Int_Tables_number   1
_chemical_formula_structural   Cs2NaNbSe4
_chemical_formula_sum   'Cs4 Na2 Nb2 Se8'
_cell_volume   662.36242893
_cell_formula_units_Z   2
loop_
 _symmetry_equiv_pos_site_id
 _symmetry_equiv_pos_as_xyz
  1  'x, y, z'
loop_
 _atom_site_type_symbol
 _atom_site_label
 _atom_site_symmetry_multiplicity
 _atom_site_fract_x
 _atom_site_fract_y
 _atom_site_fract_z
 _atom_site_occupancy
  Cs  Cs0  1  0.821586  0.821586  0.178414  1
  Cs  Cs1  1  0.178414  0.178414  0.821586  1
  Cs  Cs2  1  0.428414  0.428414  0.071586  1
  Cs  Cs3  1  0.071586  0.071586  0.428414  1
  Na  Na4  1  0.500000  0.500000  0.500000  1
  Na  Na5  1  0.750000  0.750000  0.750000  1
  Nb  Nb6  1  0.250000  0.250000  0.250000  1
  Nb  Nb7  1  0.000000  0.000000  0.000000  1
  Se  Se8  1  0.760885  0.348373  0.046675  1
  Se  Se9  1  0.405932  0.203325  0.901627  1
  Se  Se10  1  0.901627  0.489115  0.405932  1
  Se  Se11  1  0.203325  0.405932  0.489115  1
  Se  Se12  1  0.046675  0.844068  0.760885  1
  Se  Se13  1  0.348373  0.760885  0.844068  1
  Se  Se14  1  0.489115  0.901627  0.203325  1
  Se  Se15  1  0.844068  0.046675  0.348373  1
