# generated using pymatgen
data_Tb7Ce(HfIr3)2
_symmetry_space_group_name_H-M   'P 1'
_cell_length_a   10.88469274
_cell_length_b   10.96350300
_cell_length_c   6.26579094
_cell_angle_alpha   90.00000000
_cell_angle_beta   89.37629372
_cell_angle_gamma   90.00000000
_symmetry_Int_Tables_number   1
_chemical_formula_structural   Tb7Ce(HfIr3)2
_chemical_formula_sum   'Tb14 Ce2 Hf4 Ir12'
_cell_volume   747.67985986
_cell_formula_units_Z   2
loop_
 _symmetry_equiv_pos_site_id
 _symmetry_equiv_pos_as_xyz
  1  'x, y, z'
loop_
 _atom_site_type_symbol
 _atom_site_label
 _atom_site_symmetry_multiplicity
 _atom_site_fract_x
 _atom_site_fract_y
 _atom_site_fract_z
 _atom_site_occupancy
  Tb  Tb0  1  0.709288  0.085791  0.874725  1
  Tb  Tb1  1  0.709288  0.914209  0.374725  1
  Tb  Tb2  1  0.587821  0.787344  0.874909  1
  Tb  Tb3  1  0.587821  0.212656  0.374909  1
  Tb  Tb4  1  0.415924  0.784554  0.376109  1
  Tb  Tb5  1  0.415924  0.215446  0.876109  1
  Tb  Tb6  1  0.210915  0.415127  0.624630  1
  Tb  Tb7  1  0.210915  0.584873  0.124630  1
  Tb  Tb8  1  0.789004  0.414652  0.123941  1
  Tb  Tb9  1  0.789004  0.585348  0.623941  1
  Tb  Tb10  1  0.914354  0.711461  0.123783  1
  Tb  Tb11  1  0.914354  0.288539  0.623783  1
  Tb  Tb12  1  0.085289  0.711456  0.623312  1
  Tb  Tb13  1  0.085289  0.288544  0.123312  1
  Ce  Ce14  1  0.289959  0.087545  0.378714  1
  Ce  Ce15  1  0.289959  0.912455  0.878714  1
  Hf  Hf16  1  0.997739  0.999089  0.499783  1
  Hf  Hf17  1  0.997739  0.000911  0.999783  1
  Hf  Hf18  1  0.501274  0.500010  0.002128  1
  Hf  Hf19  1  0.501274  0.499990  0.502128  1
  Ir  Ir20  1  0.857093  0.141518  0.250142  1
  Ir  Ir21  1  0.857093  0.858482  0.750142  1
  Ir  Ir22  1  0.144763  0.140061  0.744695  1
  Ir  Ir23  1  0.144763  0.859939  0.244695  1
  Ir  Ir24  1  0.642738  0.358202  0.749959  1
  Ir  Ir25  1  0.642738  0.641798  0.249959  1
  Ir  Ir26  1  0.358778  0.358554  0.253468  1
  Ir  Ir27  1  0.358778  0.641446  0.753468  1
  Ir  Ir28  1  0.495219  0.000712  0.119239  1
  Ir  Ir29  1  0.495219  0.999288  0.619239  1
  Ir  Ir30  1  0.999843  0.499245  0.880461  1
  Ir  Ir31  1  0.999843  0.500755  0.380461  1
