# generated using pymatgen
data_Tb15Tm(CoHg)4
_symmetry_space_group_name_H-M   'P 1'
_cell_length_a   9.51175868
_cell_length_b   9.51138067
_cell_length_c   9.54008835
_cell_angle_alpha   60.11236077
_cell_angle_beta   60.11442036
_cell_angle_gamma   59.98632914
_symmetry_Int_Tables_number   1
_chemical_formula_structural   Tb15Tm(CoHg)4
_chemical_formula_sum   'Tb15 Tm1 Co4 Hg4'
_cell_volume   611.27826849
_cell_formula_units_Z   1
loop_
 _symmetry_equiv_pos_site_id
 _symmetry_equiv_pos_as_xyz
  1  'x, y, z'
loop_
 _atom_site_type_symbol
 _atom_site_label
 _atom_site_symmetry_multiplicity
 _atom_site_fract_x
 _atom_site_fract_y
 _atom_site_fract_z
 _atom_site_occupancy
  Tb  Tb0  1  0.596620  0.596945  0.598650  1
  Tb  Tb1  1  0.189654  0.810906  0.811693  1
  Tb  Tb2  1  0.060611  0.060283  0.436618  1
  Tb  Tb3  1  0.437544  0.062012  0.060510  1
  Tb  Tb4  1  0.810936  0.189747  0.811570  1
  Tb  Tb5  1  0.438640  0.061495  0.438128  1
  Tb  Tb6  1  0.598310  0.205737  0.599423  1
  Tb  Tb7  1  0.810494  0.810386  0.191093  1
  Tb  Tb8  1  0.205935  0.598452  0.599299  1
  Tb  Tb9  1  0.808938  0.190189  0.188754  1
  Tb  Tb10  1  0.061640  0.438656  0.438180  1
  Tb  Tb11  1  0.190131  0.808958  0.188713  1
  Tb  Tb12  1  0.598756  0.599021  0.203801  1
  Tb  Tb13  1  0.189286  0.189305  0.809400  1
  Tb  Tb14  1  0.062157  0.437470  0.060367  1
  Tm  Tm15  1  0.439771  0.439768  0.059542  1
  Co  Co16  1  0.390536  0.390529  0.390914  1
  Co  Co17  1  0.827120  0.392296  0.392348  1
  Co  Co18  1  0.392256  0.827094  0.392336  1
  Co  Co19  1  0.392234  0.392262  0.828572  1
  Hg  Hg20  1  0.834939  0.834935  0.495836  1
  Hg  Hg21  1  0.833331  0.833319  0.834000  1
  Hg  Hg22  1  0.496413  0.833766  0.835131  1
  Hg  Hg23  1  0.833748  0.496467  0.835124  1
