# generated using pymatgen
data_LiPr17(ZrIr6)2
_symmetry_space_group_name_H-M   'P 1'
_cell_length_a   11.28338400
_cell_length_b   11.28338400
_cell_length_c   6.43012600
_cell_angle_alpha   90.00000000
_cell_angle_beta   90.00000000
_cell_angle_gamma   90.00000000
_symmetry_Int_Tables_number   1
_chemical_formula_structural   LiPr17(ZrIr6)2
_chemical_formula_sum   'Li1 Pr17 Zr2 Ir12'
_cell_volume   818.64991304
_cell_formula_units_Z   1
loop_
 _symmetry_equiv_pos_site_id
 _symmetry_equiv_pos_as_xyz
  1  'x, y, z'
loop_
 _atom_site_type_symbol
 _atom_site_label
 _atom_site_symmetry_multiplicity
 _atom_site_fract_x
 _atom_site_fract_y
 _atom_site_fract_z
 _atom_site_occupancy
  Li  Li0  1  0.500000  0.500000  0.000000  1
  Pr  Pr1  1  0.286420  0.088579  0.379964  1
  Pr  Pr2  1  0.287275  0.915698  0.876862  1
  Pr  Pr3  1  0.712725  0.084302  0.876862  1
  Pr  Pr4  1  0.713580  0.911421  0.379964  1
  Pr  Pr5  1  0.581757  0.777160  0.881169  1
  Pr  Pr6  1  0.587014  0.207302  0.379439  1
  Pr  Pr7  1  0.412986  0.792698  0.379439  1
  Pr  Pr8  1  0.418243  0.222840  0.881169  1
  Pr  Pr9  1  0.207302  0.412986  0.620561  1
  Pr  Pr10  1  0.222840  0.581757  0.118831  1
  Pr  Pr11  1  0.777160  0.418243  0.118831  1
  Pr  Pr12  1  0.792698  0.587014  0.620561  1
  Pr  Pr13  1  0.915698  0.712725  0.123138  1
  Pr  Pr14  1  0.911421  0.286420  0.620036  1
  Pr  Pr15  1  0.088579  0.713580  0.620036  1
  Pr  Pr16  1  0.084302  0.287275  0.123138  1
  Pr  Pr17  1  0.500000  0.500000  0.500000  1
  Zr  Zr18  1  0.000000  0.000000  0.500000  1
  Zr  Zr19  1  0.000000  0.000000  0.000000  1
  Ir  Ir20  1  0.863576  0.135643  0.248421  1
  Ir  Ir21  1  0.864357  0.863576  0.751579  1
  Ir  Ir22  1  0.135643  0.136424  0.751579  1
  Ir  Ir23  1  0.136424  0.864357  0.248421  1
  Ir  Ir24  1  0.657921  0.345079  0.740503  1
  Ir  Ir25  1  0.654921  0.657921  0.259497  1
  Ir  Ir26  1  0.345079  0.342079  0.259497  1
  Ir  Ir27  1  0.342079  0.654921  0.740503  1
  Ir  Ir28  1  0.500000  0.000000  0.108599  1
  Ir  Ir29  1  0.500000  0.000000  0.618754  1
  Ir  Ir30  1  0.000000  0.500000  0.891401  1
  Ir  Ir31  1  0.000000  0.500000  0.381246  1
