# generated using pymatgen
data_K4Sr2ZrAs4
_symmetry_space_group_name_H-M   'P 1'
_cell_length_a   10.53612625
_cell_length_b   10.53612608
_cell_length_c   7.87681131
_cell_angle_alpha   88.35460440
_cell_angle_beta   88.35460312
_cell_angle_gamma   119.71621665
_symmetry_Int_Tables_number   1
_chemical_formula_structural   K4Sr2ZrAs4
_chemical_formula_sum   'K8 Sr4 Zr2 As8'
_cell_volume   758.17004532
_cell_formula_units_Z   2
loop_
 _symmetry_equiv_pos_site_id
 _symmetry_equiv_pos_as_xyz
  1  'x, y, z'
loop_
 _atom_site_type_symbol
 _atom_site_label
 _atom_site_symmetry_multiplicity
 _atom_site_fract_x
 _atom_site_fract_y
 _atom_site_fract_z
 _atom_site_occupancy
  K  K0  1  0.473745  0.941047  0.384158  1
  K  K1  1  0.941047  0.473745  0.884158  1
  K  K2  1  0.865265  0.721597  0.175551  1
  K  K3  1  0.271405  0.129483  0.228503  1
  K  K4  1  0.856794  0.138599  0.197747  1
  K  K5  1  0.129483  0.271405  0.728503  1
  K  K6  1  0.721597  0.865265  0.675551  1
  K  K7  1  0.138599  0.856794  0.697747  1
  Sr  Sr8  1  0.069050  0.532459  0.391612  1
  Sr  Sr9  1  0.474314  0.532210  0.378866  1
  Sr  Sr10  1  0.532459  0.069050  0.891612  1
  Sr  Sr11  1  0.532210  0.474314  0.878866  1
  Zr  Zr12  1  0.664464  0.334308  0.490331  1
  Zr  Zr13  1  0.334308  0.664464  0.990331  1
  As  As14  1  0.643762  0.328223  0.155760  1
  As  As15  1  0.328223  0.643762  0.655760  1
  As  As16  1  0.208156  0.398228  0.131936  1
  As  As17  1  0.607897  0.797598  0.079406  1
  As  As18  1  0.205577  0.805933  0.100161  1
  As  As19  1  0.797598  0.607897  0.579406  1
  As  As20  1  0.398228  0.208156  0.631936  1
  As  As21  1  0.805933  0.205577  0.600161  1
