# generated using pymatgen
data_KMnFe2CoSb12
_symmetry_space_group_name_H-M   'P 1'
_cell_length_a   8.01907213
_cell_length_b   8.00982028
_cell_length_c   8.02593286
_cell_angle_alpha   109.61566263
_cell_angle_beta   109.63802352
_cell_angle_gamma   109.65815644
_symmetry_Int_Tables_number   1
_chemical_formula_structural   KMnFe2CoSb12
_chemical_formula_sum   'K1 Mn1 Fe2 Co1 Sb12'
_cell_volume   394.38585106
_cell_formula_units_Z   1
loop_
 _symmetry_equiv_pos_site_id
 _symmetry_equiv_pos_as_xyz
  1  'x, y, z'
loop_
 _atom_site_type_symbol
 _atom_site_label
 _atom_site_symmetry_multiplicity
 _atom_site_fract_x
 _atom_site_fract_y
 _atom_site_fract_z
 _atom_site_occupancy
  K  K0  1  0.000000  0.000000  0.000000  1
  Mn  Mn1  1  0.500000  0.500000  0.500000  1
  Fe  Fe2  1  0.500000  0.000000  0.000000  1
  Fe  Fe3  1  0.000000  0.500000  0.000000  1
  Co  Co4  1  0.000000  0.000000  0.500000  1
  Sb  Sb5  1  0.849317  0.665104  0.499084  1
  Sb  Sb6  1  0.150683  0.334896  0.500916  1
  Sb  Sb7  1  0.162718  0.666492  0.829073  1
  Sb  Sb8  1  0.837282  0.333508  0.170927  1
  Sb  Sb9  1  0.666854  0.499214  0.849592  1
  Sb  Sb10  1  0.333146  0.500786  0.150408  1
  Sb  Sb11  1  0.663933  0.826870  0.160633  1
  Sb  Sb12  1  0.336067  0.173130  0.839367  1
  Sb  Sb13  1  0.499114  0.849365  0.667058  1
  Sb  Sb14  1  0.500886  0.150635  0.332942  1
  Sb  Sb15  1  0.172904  0.836526  0.333408  1
  Sb  Sb16  1  0.827096  0.163474  0.666592  1
