# generated using pymatgen
data_Tb2Ho3ReRuO12
_symmetry_space_group_name_H-M   'P 1'
_cell_length_a   6.85453983
_cell_length_b   6.85454029
_cell_length_c   7.50712517
_cell_angle_alpha   73.71825364
_cell_angle_beta   73.71825277
_cell_angle_gamma   48.86168013
_symmetry_Int_Tables_number   1
_chemical_formula_structural   Tb2Ho3ReRuO12
_chemical_formula_sum   'Tb2 Ho3 Re1 Ru1 O12'
_cell_volume   252.73382538
_cell_formula_units_Z   1
loop_
 _symmetry_equiv_pos_site_id
 _symmetry_equiv_pos_as_xyz
  1  'x, y, z'
loop_
 _atom_site_type_symbol
 _atom_site_label
 _atom_site_symmetry_multiplicity
 _atom_site_fract_x
 _atom_site_fract_y
 _atom_site_fract_z
 _atom_site_occupancy
  Tb  Tb0  1  0.310029  0.319124  0.825794  1
  Tb  Tb1  1  0.680876  0.689971  0.174206  1
  Ho  Ho2  1  0.991283  0.008717  0.500000  1
  Ho  Ho3  1  0.683002  0.712117  0.641742  1
  Ho  Ho4  1  0.287883  0.316998  0.358258  1
  Re  Re5  1  0.796729  0.203271  0.000000  1
  Ru  Ru6  1  0.231109  0.768891  0.000000  1
  O  O7  1  0.511821  0.484866  0.176179  1
  O  O8  1  0.515134  0.488179  0.823821  1
  O  O9  1  0.999651  0.004829  0.202926  1
  O  O10  1  0.995171  0.000349  0.797074  1
  O  O11  1  0.909631  0.406956  0.914917  1
  O  O12  1  0.593044  0.090369  0.085083  1
  O  O13  1  0.087707  0.565419  0.086986  1
  O  O14  1  0.592656  0.106609  0.566649  1
  O  O15  1  0.893391  0.407344  0.433351  1
  O  O16  1  0.398797  0.912491  0.424967  1
  O  O17  1  0.087509  0.601203  0.575033  1
  O  O18  1  0.434581  0.912293  0.913014  1
