# generated using pymatgen
data_Lu6U2Re3B24W
_symmetry_space_group_name_H-M   'P 1'
_cell_length_a   3.64126100
_cell_length_b   9.07990175
_cell_length_c   11.43055003
_cell_angle_alpha   90.30431160
_cell_angle_beta   90.00000000
_cell_angle_gamma   90.00000000
_symmetry_Int_Tables_number   1
_chemical_formula_structural   Lu6U2Re3B24W
_chemical_formula_sum   'Lu6 U2 Re3 B24 W1'
_cell_volume   377.91485403
_cell_formula_units_Z   1
loop_
 _symmetry_equiv_pos_site_id
 _symmetry_equiv_pos_as_xyz
  1  'x, y, z'
loop_
 _atom_site_type_symbol
 _atom_site_label
 _atom_site_symmetry_multiplicity
 _atom_site_fract_x
 _atom_site_fract_y
 _atom_site_fract_z
 _atom_site_occupancy
  Lu  Lu0  1  0.000000  0.822722  0.085997  1
  Lu  Lu1  1  0.000000  0.177130  0.914628  1
  Lu  Lu2  1  0.000000  0.946198  0.372481  1
  Lu  Lu3  1  0.000000  0.055037  0.627804  1
  Lu  Lu4  1  0.000000  0.443719  0.125734  1
  Lu  Lu5  1  0.000000  0.556044  0.873255  1
  U  U6  1  0.000000  0.321609  0.413513  1
  U  U7  1  0.000000  0.678369  0.586340  1
  Re  Re8  1  0.000000  0.363592  0.675925  1
  Re  Re9  1  0.000000  0.141302  0.181538  1
  Re  Re10  1  0.000000  0.858880  0.818131  1
  B  B11  1  0.500000  0.552016  0.435449  1
  B  B12  1  0.500000  0.446494  0.566364  1
  B  B13  1  0.500000  0.053405  0.066562  1
  B  B14  1  0.500000  0.946607  0.933538  1
  B  B15  1  0.500000  0.751370  0.421712  1
  B  B16  1  0.500000  0.249895  0.579839  1
  B  B17  1  0.500000  0.249419  0.079558  1
  B  B18  1  0.500000  0.750601  0.920456  1
  B  B19  1  0.500000  0.795091  0.263719  1
  B  B20  1  0.500000  0.206794  0.735361  1
  B  B21  1  0.500000  0.293163  0.234661  1
  B  B22  1  0.500000  0.706404  0.765232  1
  B  B23  1  0.500000  0.631257  0.182959  1
  B  B24  1  0.500000  0.368674  0.815674  1
  B  B25  1  0.500000  0.132206  0.315227  1
  B  B26  1  0.500000  0.867823  0.684624  1
  B  B27  1  0.500000  0.981535  0.211861  1
  B  B28  1  0.500000  0.018825  0.788117  1
  B  B29  1  0.500000  0.479107  0.286433  1
  B  B30  1  0.500000  0.518172  0.713293  1
  B  B31  1  0.500000  0.602486  0.028159  1
  B  B32  1  0.500000  0.397228  0.971015  1
  B  B33  1  0.500000  0.107041  0.470564  1
  B  B34  1  0.500000  0.893539  0.530051  1
  W  W35  1  0.000000  0.636245  0.324228  1
