# generated using pymatgen
data_Eu2HoEr3(SbO7)2
_symmetry_space_group_name_H-M   'P 1'
_cell_length_a   6.46880419
_cell_length_b   6.46645852
_cell_length_c   7.54931300
_cell_angle_alpha   90.00000000
_cell_angle_beta   90.00000000
_cell_angle_gamma   108.79519312
_symmetry_Int_Tables_number   1
_chemical_formula_structural   Eu2HoEr3(SbO7)2
_chemical_formula_sum   'Eu2 Ho1 Er3 Sb2 O14'
_cell_volume   298.95060418
_cell_formula_units_Z   1
loop_
 _symmetry_equiv_pos_site_id
 _symmetry_equiv_pos_as_xyz
  1  'x, y, z'
loop_
 _atom_site_type_symbol
 _atom_site_label
 _atom_site_symmetry_multiplicity
 _atom_site_fract_x
 _atom_site_fract_y
 _atom_site_fract_z
 _atom_site_occupancy
  Eu  Eu0  1  0.499835  0.499656  0.499803  1
  Eu  Eu1  1  0.499835  0.499656  0.000197  1
  Ho  Ho2  1  0.531341  0.000057  0.750000  1
  Er  Er3  1  0.000108  0.531196  0.250000  1
  Er  Er4  1  0.468750  0.999727  0.250000  1
  Er  Er5  1  0.999801  0.468819  0.750000  1
  Sb  Sb6  1  0.999921  0.999924  0.499723  1
  Sb  Sb7  1  0.999921  0.999924  0.000277  1
  O  O8  1  0.678936  0.933191  0.468706  1
  O  O9  1  0.934039  0.678978  0.530748  1
  O  O10  1  0.678936  0.933191  0.031294  1
  O  O11  1  0.934039  0.678978  0.969252  1
  O  O12  1  0.321352  0.067383  0.529797  1
  O  O13  1  0.065986  0.321257  0.469210  1
  O  O14  1  0.321352  0.067383  0.970203  1
  O  O15  1  0.065986  0.321257  0.030790  1
  O  O16  1  0.929491  0.071562  0.750000  1
  O  O17  1  0.071222  0.928365  0.250000  1
  O  O18  1  0.363523  0.634072  0.750000  1
  O  O19  1  0.635818  0.364356  0.250000  1
  O  O20  1  0.641211  0.360170  0.750000  1
  O  O21  1  0.358598  0.640898  0.250000  1
