# generated using pymatgen
data_Er11Al9Ni4
_symmetry_space_group_name_H-M   'P 1'
_cell_length_a   12.49919110
_cell_length_b   12.49919005
_cell_length_c   3.50189500
_cell_angle_alpha   90.00000000
_cell_angle_beta   90.00000000
_cell_angle_gamma   112.79703650
_symmetry_Int_Tables_number   1
_chemical_formula_structural   Er11Al9Ni4
_chemical_formula_sum   'Er11 Al9 Ni4'
_cell_volume   504.36251038
_cell_formula_units_Z   1
loop_
 _symmetry_equiv_pos_site_id
 _symmetry_equiv_pos_as_xyz
  1  'x, y, z'
loop_
 _atom_site_type_symbol
 _atom_site_label
 _atom_site_symmetry_multiplicity
 _atom_site_fract_x
 _atom_site_fract_y
 _atom_site_fract_z
 _atom_site_occupancy
  Er  Er0  1  0.413269  0.071263  0.000000  1
  Er  Er1  1  0.586731  0.928737  0.000000  1
  Er  Er2  1  0.071263  0.413269  0.000000  1
  Er  Er3  1  0.928737  0.586731  0.000000  1
  Er  Er4  1  0.162140  0.837860  0.000000  1
  Er  Er5  1  0.837860  0.162140  0.000000  1
  Er  Er6  1  0.374220  0.625780  0.000000  1
  Er  Er7  1  0.625780  0.374220  0.000000  1
  Er  Er8  1  0.310239  0.310239  0.000000  1
  Er  Er9  1  0.689761  0.689761  0.000000  1
  Er  Er10  1  0.000000  0.000000  0.000000  1
  Al  Al11  1  0.367609  0.833802  0.500000  1
  Al  Al12  1  0.632391  0.166198  0.500000  1
  Al  Al13  1  0.833802  0.367609  0.500000  1
  Al  Al14  1  0.166198  0.632391  0.500000  1
  Al  Al15  1  0.218991  0.080979  0.500000  1
  Al  Al16  1  0.781009  0.919021  0.500000  1
  Al  Al17  1  0.080979  0.218991  0.500000  1
  Al  Al18  1  0.919021  0.781009  0.500000  1
  Al  Al19  1  0.500000  0.500000  0.500000  1
  Ni  Ni20  1  0.447376  0.243078  0.500000  1
  Ni  Ni21  1  0.552624  0.756922  0.500000  1
  Ni  Ni22  1  0.243078  0.447376  0.500000  1
  Ni  Ni23  1  0.756922  0.552624  0.500000  1
