# generated using pymatgen
data_K3PrIr2O9
_symmetry_space_group_name_H-M   'P 1'
_cell_length_a   6.07124904
_cell_length_b   6.06883940
_cell_length_c   14.95514900
_cell_angle_alpha   90.00000000
_cell_angle_beta   90.00000000
_cell_angle_gamma   119.99992823
_symmetry_Int_Tables_number   1
_chemical_formula_structural   K3PrIr2O9
_chemical_formula_sum   'K6 Pr2 Ir4 O18'
_cell_volume   477.20543688
_cell_formula_units_Z   2
loop_
 _symmetry_equiv_pos_site_id
 _symmetry_equiv_pos_as_xyz
  1  'x, y, z'
loop_
 _atom_site_type_symbol
 _atom_site_label
 _atom_site_symmetry_multiplicity
 _atom_site_fract_x
 _atom_site_fract_y
 _atom_site_fract_z
 _atom_site_occupancy
  K  K0  1  0.333349  0.666679  0.105264  1
  K  K1  1  0.999976  0.999969  0.250000  1
  K  K2  1  0.333349  0.666679  0.394736  1
  K  K3  1  0.666643  0.333301  0.605207  1
  K  K4  1  0.000011  0.000008  0.750000  1
  K  K5  1  0.666643  0.333301  0.894793  1
  Pr  Pr6  1  0.999991  0.000009  0.999997  1
  Pr  Pr7  1  0.999991  0.000009  0.500003  1
  Ir  Ir8  1  0.666658  0.333346  0.161293  1
  Ir  Ir9  1  0.666658  0.333346  0.338707  1
  Ir  Ir10  1  0.333362  0.666716  0.661220  1
  Ir  Ir11  1  0.333362  0.666716  0.838780  1
  O  O12  1  0.817646  0.635270  0.091019  1
  O  O13  1  0.817586  0.182336  0.091008  1
  O  O14  1  0.364770  0.182386  0.091002  1
  O  O15  1  0.523500  0.046980  0.250000  1
  O  O16  1  0.952813  0.476429  0.250000  1
  O  O17  1  0.523629  0.476548  0.250000  1
  O  O18  1  0.817586  0.182336  0.408992  1
  O  O19  1  0.364770  0.182386  0.408998  1
  O  O20  1  0.817646  0.635270  0.408982  1
  O  O21  1  0.182322  0.364643  0.591025  1
  O  O22  1  0.635301  0.817631  0.591011  1
  O  O23  1  0.182379  0.817690  0.591017  1
  O  O24  1  0.476444  0.523397  0.750000  1
  O  O25  1  0.047065  0.523524  0.750000  1
  O  O26  1  0.476558  0.953139  0.750000  1
  O  O27  1  0.182379  0.817690  0.908982  1
  O  O28  1  0.635301  0.817631  0.908989  1
  O  O29  1  0.182322  0.364643  0.908975  1
