# generated using pymatgen
data_Ba2Ga6FeOs
_symmetry_space_group_name_H-M   'P 1'
_cell_length_a   6.78185276
_cell_length_b   6.78185172
_cell_length_c   6.78185200
_cell_angle_alpha   59.99999866
_cell_angle_beta   60.00000373
_cell_angle_gamma   89.99999455
_symmetry_Int_Tables_number   1
_chemical_formula_structural   Ba2Ga6FeOs
_chemical_formula_sum   'Ba2 Ga6 Fe1 Os1'
_cell_volume   220.56164577
_cell_formula_units_Z   1
loop_
 _symmetry_equiv_pos_site_id
 _symmetry_equiv_pos_as_xyz
  1  'x, y, z'
loop_
 _atom_site_type_symbol
 _atom_site_label
 _atom_site_symmetry_multiplicity
 _atom_site_fract_x
 _atom_site_fract_y
 _atom_site_fract_z
 _atom_site_occupancy
  Ba  Ba0  1  0.250002  0.750000  0.499999  1
  Ba  Ba1  1  0.750001  0.249999  0.500001  1
  Ga  Ga2  1  0.242535  0.242535  0.000000  1
  Ga  Ga3  1  0.757463  0.242537  0.000000  1
  Ga  Ga4  1  0.242535  0.757465  0.000000  1
  Ga  Ga5  1  0.757465  0.757465  0.000000  1
  Ga  Ga6  1  0.242536  0.242536  0.514928  1
  Ga  Ga7  1  0.757464  0.757464  0.485073  1
  Fe  Fe8  1  0.000000  0.000000  0.000000  1
  Os  Os9  1  0.500000  0.500000  0.000000  1
