# generated using pymatgen
data_KSm6(CI6)2
_symmetry_space_group_name_H-M   'P 1'
_cell_length_a   9.59706054
_cell_length_b   9.57164992
_cell_length_c   10.07070331
_cell_angle_alpha   72.20186459
_cell_angle_beta   71.01481852
_cell_angle_gamma   72.81365383
_symmetry_Int_Tables_number   1
_chemical_formula_structural   KSm6(CI6)2
_chemical_formula_sum   'K1 Sm6 C2 I12'
_cell_volume   812.91848242
_cell_formula_units_Z   1
loop_
 _symmetry_equiv_pos_site_id
 _symmetry_equiv_pos_as_xyz
  1  'x, y, z'
loop_
 _atom_site_type_symbol
 _atom_site_label
 _atom_site_symmetry_multiplicity
 _atom_site_fract_x
 _atom_site_fract_y
 _atom_site_fract_z
 _atom_site_occupancy
  K  K0  1  0.999999  0.500002  0.999999  1
  Sm  Sm1  1  0.475754  0.107986  0.194160  1
  Sm  Sm2  1  0.768592  0.031141  0.411271  1
  Sm  Sm3  1  0.588942  0.733349  0.476046  1
  Sm  Sm4  1  0.411058  0.266650  0.523954  1
  Sm  Sm5  1  0.231409  0.968859  0.588729  1
  Sm  Sm6  1  0.524248  0.892014  0.805840  1
  C  C7  1  0.493994  0.024508  0.427805  1
  C  C8  1  0.506008  0.975491  0.572195  1
  I  I9  1  0.801503  0.160401  0.078527  1
  I  I10  1  0.587442  0.777853  0.141929  1
  I  I11  1  0.351331  0.435356  0.220714  1
  I  I12  1  0.135983  0.069924  0.292197  1
  I  I13  1  0.927616  0.717944  0.354312  1
  I  I14  1  0.718368  0.366322  0.430188  1
  I  I15  1  0.281632  0.633678  0.569813  1
  I  I16  1  0.072384  0.282054  0.645689  1
  I  I17  1  0.864017  0.930075  0.707802  1
  I  I18  1  0.648667  0.564645  0.779287  1
  I  I19  1  0.412558  0.222147  0.858071  1
  I  I20  1  0.198499  0.839598  0.921471  1
