# generated using pymatgen
data_Y7Er(ReI4)2
_symmetry_space_group_name_H-M   'P 1'
_cell_length_a   11.42072383
_cell_length_b   11.43254841
_cell_length_c   6.19494300
_cell_angle_alpha   90.02603545
_cell_angle_beta   90.04035535
_cell_angle_gamma   88.31622571
_symmetry_Int_Tables_number   1
_chemical_formula_structural   Y7Er(ReI4)2
_chemical_formula_sum   'Y7 Er1 Re2 I8'
_cell_volume   808.51165601
_cell_formula_units_Z   1
loop_
 _symmetry_equiv_pos_site_id
 _symmetry_equiv_pos_as_xyz
  1  'x, y, z'
loop_
 _atom_site_type_symbol
 _atom_site_label
 _atom_site_symmetry_multiplicity
 _atom_site_fract_x
 _atom_site_fract_y
 _atom_site_fract_z
 _atom_site_occupancy
  Y  Y0  1  0.084037  0.801763  0.499031  1
  Y  Y1  1  0.078517  0.196214  0.000303  1
  Y  Y2  1  0.195796  0.078811  0.500305  1
  Y  Y3  1  0.920991  0.803985  0.999674  1
  Y  Y4  1  0.914958  0.198605  0.500885  1
  Y  Y5  1  0.198351  0.915752  0.000981  1
  Y  Y6  1  0.803266  0.921694  0.499643  1
  Er  Er7  1  0.805327  0.082725  0.998935  1
  Re  Re8  1  0.999557  0.000241  0.249814  1
  Re  Re9  1  0.999789  0.000015  0.750180  1
  I  I10  1  0.644161  0.152470  0.509825  1
  I  I11  1  0.858007  0.648428  0.505418  1
  I  I12  1  0.351542  0.141874  0.994575  1
  I  I13  1  0.141933  0.351628  0.494569  1
  I  I14  1  0.648560  0.858891  0.005384  1
  I  I15  1  0.355609  0.847608  0.490441  1
  I  I16  1  0.152431  0.644456  0.009594  1
  I  I17  1  0.847168  0.354839  0.990442  1
