# generated using pymatgen
data_Hf3TiRe2
_symmetry_space_group_name_H-M   'P 1'
_cell_length_a   8.62491986
_cell_length_b   8.62404138
_cell_length_c   8.62398501
_cell_angle_alpha   59.99486722
_cell_angle_beta   60.00064837
_cell_angle_gamma   60.00052643
_symmetry_Int_Tables_number   1
_chemical_formula_structural   Hf3TiRe2
_chemical_formula_sum   'Hf12 Ti4 Re8'
_cell_volume   453.57164960
_cell_formula_units_Z   4
loop_
 _symmetry_equiv_pos_site_id
 _symmetry_equiv_pos_as_xyz
  1  'x, y, z'
loop_
 _atom_site_type_symbol
 _atom_site_label
 _atom_site_symmetry_multiplicity
 _atom_site_fract_x
 _atom_site_fract_y
 _atom_site_fract_z
 _atom_site_occupancy
  Hf  Hf0  1  0.806573  0.806570  0.193424  1
  Hf  Hf1  1  0.193440  0.193421  0.806566  1
  Hf  Hf2  1  0.806574  0.193425  0.806568  1
  Hf  Hf3  1  0.193440  0.806568  0.193421  1
  Hf  Hf4  1  0.193433  0.806573  0.806570  1
  Hf  Hf5  1  0.806575  0.193426  0.193425  1
  Hf  Hf6  1  0.443427  0.443430  0.056576  1
  Hf  Hf7  1  0.056560  0.056579  0.443434  1
  Hf  Hf8  1  0.443426  0.056575  0.443432  1
  Hf  Hf9  1  0.056560  0.443432  0.056579  1
  Hf  Hf10  1  0.056567  0.443427  0.443430  1
  Hf  Hf11  1  0.443425  0.056574  0.056575  1
  Ti  Ti12  1  0.125000  0.625000  0.625000  1
  Ti  Ti13  1  0.625000  0.125000  0.625000  1
  Ti  Ti14  1  0.625000  0.625000  0.125000  1
  Ti  Ti15  1  0.625000  0.625000  0.625000  1
  Re  Re16  1  0.751385  0.416204  0.416205  1
  Re  Re17  1  0.416211  0.751350  0.416219  1
  Re  Re18  1  0.416211  0.416220  0.751348  1
  Re  Re19  1  0.416206  0.416215  0.416217  1
  Re  Re20  1  0.498615  0.833796  0.833795  1
  Re  Re21  1  0.833789  0.498650  0.833781  1
  Re  Re22  1  0.833789  0.833780  0.498652  1
  Re  Re23  1  0.833794  0.833785  0.833783  1
