# generated using pymatgen
data_CeTh3Co2(RuC)10
_symmetry_space_group_name_H-M   'P 1'
_cell_length_a   8.99499202
_cell_length_b   8.99499202
_cell_length_c   4.17827500
_cell_angle_alpha   90.00000000
_cell_angle_beta   90.00000000
_cell_angle_gamma   90.14311540
_symmetry_Int_Tables_number   1
_chemical_formula_structural   CeTh3Co2(RuC)10
_chemical_formula_sum   'Ce1 Th3 Co2 Ru10 C10'
_cell_volume   338.06267989
_cell_formula_units_Z   1
loop_
 _symmetry_equiv_pos_site_id
 _symmetry_equiv_pos_as_xyz
  1  'x, y, z'
loop_
 _atom_site_type_symbol
 _atom_site_label
 _atom_site_symmetry_multiplicity
 _atom_site_fract_x
 _atom_site_fract_y
 _atom_site_fract_z
 _atom_site_occupancy
  Ce  Ce0  1  0.320916  0.820916  0.500000  1
  Th  Th1  1  0.820716  0.679692  0.500000  1
  Th  Th2  1  0.179692  0.320716  0.500000  1
  Th  Th3  1  0.679061  0.179061  0.500000  1
  Co  Co4  1  0.498977  0.998977  0.000000  1
  Co  Co5  1  0.000322  0.500322  0.000000  1
  Ru  Ru6  1  0.718423  0.437503  0.000000  1
  Ru  Ru7  1  0.437229  0.281392  0.000000  1
  Ru  Ru8  1  0.000330  0.999643  0.500000  1
  Ru  Ru9  1  0.499643  0.500330  0.500000  1
  Ru  Ru10  1  0.781392  0.937229  0.000000  1
  Ru  Ru11  1  0.937503  0.218423  0.000000  1
  Ru  Ru12  1  0.064246  0.781901  0.000000  1
  Ru  Ru13  1  0.218939  0.061304  0.000000  1
  Ru  Ru14  1  0.561304  0.718939  0.000000  1
  Ru  Ru15  1  0.281901  0.564246  0.000000  1
  C  C16  1  0.499622  0.500519  0.000000  1
  C  C17  1  0.000519  0.999622  0.000000  1
  C  C18  1  0.885296  0.385296  0.671723  1
  C  C19  1  0.116197  0.616197  0.671201  1
  C  C20  1  0.885296  0.385296  0.328277  1
  C  C21  1  0.384585  0.113554  0.328540  1
  C  C22  1  0.613554  0.884585  0.328540  1
  C  C23  1  0.116197  0.616197  0.328799  1
  C  C24  1  0.613554  0.884585  0.671460  1
  C  C25  1  0.384585  0.113554  0.671460  1
