# generated using pymatgen
data_Ti8Re4Ir3Os
_symmetry_space_group_name_H-M   'P 1'
_cell_length_a   6.21896300
_cell_length_b   4.40164600
_cell_length_c   8.79885900
_cell_angle_alpha   90.00002603
_cell_angle_beta   90.00109056
_cell_angle_gamma   90.00000000
_symmetry_Int_Tables_number   1
_chemical_formula_structural   Ti8Re4Ir3Os
_chemical_formula_sum   'Ti8 Re4 Ir3 Os1'
_cell_volume   240.85709441
_cell_formula_units_Z   1
loop_
 _symmetry_equiv_pos_site_id
 _symmetry_equiv_pos_as_xyz
  1  'x, y, z'
loop_
 _atom_site_type_symbol
 _atom_site_label
 _atom_site_symmetry_multiplicity
 _atom_site_fract_x
 _atom_site_fract_y
 _atom_site_fract_z
 _atom_site_occupancy
  Ti  Ti0  1  0.998722  0.749999  0.123185  1
  Ti  Ti1  1  0.501288  0.749999  0.123180  1
  Ti  Ti2  1  0.000135  0.249999  0.375003  1
  Ti  Ti3  1  0.499909  0.249999  0.375007  1
  Ti  Ti4  1  0.501271  0.749999  0.626829  1
  Ti  Ti5  1  0.998700  0.749999  0.626835  1
  Ti  Ti6  1  0.502883  0.249999  0.874997  1
  Ti  Ti7  1  0.997093  0.249999  0.875011  1
  Re  Re8  1  0.750023  0.249999  0.126182  1
  Re  Re9  1  0.249983  0.749999  0.374981  1
  Re  Re10  1  0.750004  0.249999  0.623819  1
  Re  Re11  1  0.249981  0.750000  0.875001  1
  Ir  Ir12  1  0.250015  0.249999  0.125337  1
  Ir  Ir13  1  0.750021  0.749999  0.375004  1
  Ir  Ir14  1  0.249976  0.249999  0.624641  1
  Os  Os15  1  0.749995  0.750000  0.874990  1
