# generated using pymatgen
data_NaTb5PrRuBr12
_symmetry_space_group_name_H-M   'P 1'
_cell_length_a   9.32336342
_cell_length_b   9.40497728
_cell_length_c   9.35221176
_cell_angle_alpha   106.90669220
_cell_angle_beta   106.72919268
_cell_angle_gamma   107.42656489
_symmetry_Int_Tables_number   1
_chemical_formula_structural   NaTb5PrRuBr12
_chemical_formula_sum   'Na1 Tb5 Pr1 Ru1 Br12'
_cell_volume   682.54300711
_cell_formula_units_Z   1
loop_
 _symmetry_equiv_pos_site_id
 _symmetry_equiv_pos_as_xyz
  1  'x, y, z'
loop_
 _atom_site_type_symbol
 _atom_site_label
 _atom_site_symmetry_multiplicity
 _atom_site_fract_x
 _atom_site_fract_y
 _atom_site_fract_z
 _atom_site_occupancy
  Na  Na0  1  0.500041  0.500451  0.499682  1
  Tb  Tb1  1  0.110868  0.313087  0.029818  1
  Tb  Tb2  1  0.316164  0.031205  0.110172  1
  Tb  Tb3  1  0.030336  0.111860  0.315855  1
  Tb  Tb4  1  0.970877  0.892217  0.685927  1
  Tb  Tb5  1  0.683826  0.967666  0.889680  1
  Pr  Pr6  1  0.886986  0.677889  0.970386  1
  Ru  Ru7  1  0.000111  0.999013  0.001246  1
  Br  Br8  1  0.228128  0.686776  0.076944  1
  Br  Br9  1  0.451698  0.368358  0.149366  1
  Br  Br10  1  0.683856  0.073386  0.214816  1
  Br  Br11  1  0.929789  0.792689  0.328508  1
  Br  Br12  1  0.148919  0.449902  0.366490  1
  Br  Br13  1  0.367753  0.149652  0.449650  1
  Br  Br14  1  0.632453  0.851550  0.550860  1
  Br  Br15  1  0.850115  0.550497  0.620801  1
  Br  Br16  1  0.073684  0.216317  0.684954  1
  Br  Br17  1  0.316489  0.927940  0.785916  1
  Br  Br18  1  0.535638  0.632580  0.843866  1
  Br  Br19  1  0.782274  0.306967  0.925069  1
