# generated using pymatgen
data_Pr8Ho7Tm5Ga16
_symmetry_space_group_name_H-M   'P 1'
_cell_length_a   7.68558752
_cell_length_b   7.97544236
_cell_length_c   15.15172200
_cell_angle_alpha   90.01190393
_cell_angle_beta   89.97895464
_cell_angle_gamma   89.96875386
_symmetry_Int_Tables_number   1
_chemical_formula_structural   Pr8Ho7Tm5Ga16
_chemical_formula_sum   'Pr8 Ho7 Tm5 Ga16'
_cell_volume   928.73912850
_cell_formula_units_Z   1
loop_
 _symmetry_equiv_pos_site_id
 _symmetry_equiv_pos_as_xyz
  1  'x, y, z'
loop_
 _atom_site_type_symbol
 _atom_site_label
 _atom_site_symmetry_multiplicity
 _atom_site_fract_x
 _atom_site_fract_y
 _atom_site_fract_z
 _atom_site_occupancy
  Pr  Pr0  1  0.975959  0.821649  0.095205  1
  Pr  Pr1  1  0.476066  0.678238  0.404418  1
  Pr  Pr2  1  0.524132  0.321762  0.904603  1
  Pr  Pr3  1  0.023916  0.178343  0.595877  1
  Pr  Pr4  1  0.023727  0.178120  0.904741  1
  Pr  Pr5  1  0.524001  0.321609  0.595777  1
  Pr  Pr6  1  0.476310  0.678378  0.094998  1
  Pr  Pr7  1  0.976147  0.821700  0.404479  1
  Ho  Ho8  1  0.180616  0.676462  0.622099  1
  Ho  Ho9  1  0.819329  0.323328  0.121777  1
  Ho  Ho10  1  0.319348  0.176452  0.377995  1
  Ho  Ho11  1  0.319396  0.176418  0.121653  1
  Ho  Ho12  1  0.819275  0.323421  0.378009  1
  Ho  Ho13  1  0.180439  0.676802  0.878141  1
  Ho  Ho14  1  0.680655  0.823521  0.622120  1
  Tm  Tm15  1  0.652293  0.989922  0.249888  1
  Tm  Tm16  1  0.152215  0.510252  0.249853  1
  Tm  Tm17  1  0.847741  0.490357  0.750309  1
  Tm  Tm18  1  0.347875  0.009861  0.750276  1
  Tm  Tm19  1  0.680640  0.823769  0.877929  1
  Ga  Ga20  1  0.769006  0.621370  0.249831  1
  Ga  Ga21  1  0.269173  0.878574  0.249843  1
  Ga  Ga22  1  0.730608  0.121047  0.750488  1
  Ga  Ga23  1  0.231089  0.378704  0.750221  1
  Ga  Ga24  1  0.023533  0.111284  0.249853  1
  Ga  Ga25  1  0.523569  0.388516  0.249764  1
  Ga  Ga26  1  0.476772  0.611989  0.750418  1
  Ga  Ga27  1  0.975958  0.888235  0.750520  1
  Ga  Ga28  1  0.850314  0.531280  0.958309  1
  Ga  Ga29  1  0.351043  0.969450  0.541688  1
  Ga  Ga30  1  0.649384  0.030004  0.040998  1
  Ga  Ga31  1  0.148789  0.469531  0.458324  1
  Ga  Ga32  1  0.148530  0.469542  0.041459  1
  Ga  Ga33  1  0.648689  0.030519  0.458377  1
  Ga  Ga34  1  0.352251  0.969189  0.958069  1
  Ga  Ga35  1  0.851211  0.530401  0.541688  1
