# generated using pymatgen
data_Hf2ZrAsN
_symmetry_space_group_name_H-M   'P 1'
_cell_length_a   5.87212403
_cell_length_b   5.87212386
_cell_length_c   8.49459000
_cell_angle_alpha   90.00000000
_cell_angle_beta   90.00000000
_cell_angle_gamma   145.82020658
_symmetry_Int_Tables_number   1
_chemical_formula_structural   Hf2ZrAsN
_chemical_formula_sum   'Hf4 Zr2 As2 N2'
_cell_volume   164.55388250
_cell_formula_units_Z   2
loop_
 _symmetry_equiv_pos_site_id
 _symmetry_equiv_pos_as_xyz
  1  'x, y, z'
loop_
 _atom_site_type_symbol
 _atom_site_label
 _atom_site_symmetry_multiplicity
 _atom_site_fract_x
 _atom_site_fract_y
 _atom_site_fract_z
 _atom_site_occupancy
  Hf  Hf0  1  0.369016  0.630984  0.054811  1
  Hf  Hf1  1  0.630984  0.369016  0.554811  1
  Hf  Hf2  1  0.943191  0.056809  0.749843  1
  Hf  Hf3  1  0.056809  0.943191  0.249843  1
  Zr  Zr4  1  0.632588  0.367412  0.944499  1
  Zr  Zr5  1  0.367412  0.632588  0.444499  1
  As  As6  1  0.257571  0.742429  0.749297  1
  As  As7  1  0.742429  0.257571  0.249297  1
  N  N8  1  0.995883  0.004117  0.001551  1
  N  N9  1  0.004117  0.995883  0.501551  1
