# generated using pymatgen
data_Y4Tm6IrRu3
_symmetry_space_group_name_H-M   'P 1'
_cell_length_a   6.29553834
_cell_length_b   7.30034874
_cell_length_c   8.40835195
_cell_angle_alpha   97.10191628
_cell_angle_beta   111.83406214
_cell_angle_gamma   90.17082994
_symmetry_Int_Tables_number   1
_chemical_formula_structural   Y4Tm6IrRu3
_chemical_formula_sum   'Y4 Tm6 Ir1 Ru3'
_cell_volume   355.46760427
_cell_formula_units_Z   1
loop_
 _symmetry_equiv_pos_site_id
 _symmetry_equiv_pos_as_xyz
  1  'x, y, z'
loop_
 _atom_site_type_symbol
 _atom_site_label
 _atom_site_symmetry_multiplicity
 _atom_site_fract_x
 _atom_site_fract_y
 _atom_site_fract_z
 _atom_site_occupancy
  Y  Y0  1  0.789664  0.080580  0.811392  1
  Y  Y1  1  0.978534  0.416440  0.190456  1
  Y  Y2  1  0.211377  0.917077  0.189184  1
  Y  Y3  1  0.024536  0.584191  0.811344  1
  Tm  Tm4  1  0.201565  0.183945  0.565004  1
  Tm  Tm5  1  0.638566  0.315495  0.433693  1
  Tm  Tm6  1  0.796723  0.814919  0.434134  1
  Tm  Tm7  1  0.360064  0.686320  0.564160  1
  Tm  Tm8  1  0.420345  0.249649  0.000193  1
  Tm  Tm9  1  0.579081  0.751375  0.000794  1
  Ir  Ir10  1  0.593562  0.423769  0.776710  1
  Ru  Ru11  1  0.817920  0.076139  0.222208  1
  Ru  Ru12  1  0.404601  0.575308  0.223198  1
  Ru  Ru13  1  0.183463  0.924794  0.777530  1
