# generated using pymatgen
data_Ho5Er(Lu3Co2)2
_symmetry_space_group_name_H-M   'P 1'
_cell_length_a   6.14685054
_cell_length_b   6.88532567
_cell_length_c   9.21807001
_cell_angle_alpha   89.97351970
_cell_angle_beta   90.65002990
_cell_angle_gamma   90.02346345
_symmetry_Int_Tables_number   1
_chemical_formula_structural   Ho5Er(Lu3Co2)2
_chemical_formula_sum   'Ho5 Er1 Lu6 Co4'
_cell_volume   390.11182130
_cell_formula_units_Z   1
loop_
 _symmetry_equiv_pos_site_id
 _symmetry_equiv_pos_as_xyz
  1  'x, y, z'
loop_
 _atom_site_type_symbol
 _atom_site_label
 _atom_site_symmetry_multiplicity
 _atom_site_fract_x
 _atom_site_fract_y
 _atom_site_fract_z
 _atom_site_occupancy
  Ho  Ho0  1  0.320012  0.675388  0.068287  1
  Ho  Ho1  1  0.861727  0.539924  0.251168  1
  Ho  Ho2  1  0.637592  0.040859  0.248642  1
  Ho  Ho3  1  0.135926  0.458969  0.749683  1
  Ho  Ho4  1  0.365108  0.959069  0.750014  1
  Er  Er5  1  0.180359  0.176269  0.432089  1
  Lu  Lu6  1  0.678129  0.323831  0.567093  1
  Lu  Lu7  1  0.822538  0.823681  0.931991  1
  Lu  Lu8  1  0.674531  0.325248  0.931223  1
  Lu  Lu9  1  0.826036  0.825496  0.567324  1
  Lu  Lu10  1  0.326225  0.674815  0.435284  1
  Lu  Lu11  1  0.173025  0.174131  0.065519  1
  Co  Co12  1  0.047106  0.887529  0.251793  1
  Co  Co13  1  0.451488  0.387767  0.250872  1
  Co  Co14  1  0.951542  0.113498  0.756279  1
  Co  Co15  1  0.548656  0.613528  0.742741  1
