# generated using pymatgen
data_Sc8Mn8Si13Ge
_symmetry_space_group_name_H-M   'P 1'
_cell_length_a   5.12424520
_cell_length_b   9.62293199
_cell_length_c   9.63877069
_cell_angle_alpha   86.03519776
_cell_angle_beta   74.59893167
_cell_angle_gamma   74.52243668
_symmetry_Int_Tables_number   1
_chemical_formula_structural   Sc8Mn8Si13Ge
_chemical_formula_sum   'Sc8 Mn8 Si13 Ge1'
_cell_volume   441.60465535
_cell_formula_units_Z   1
loop_
 _symmetry_equiv_pos_site_id
 _symmetry_equiv_pos_as_xyz
  1  'x, y, z'
loop_
 _atom_site_type_symbol
 _atom_site_label
 _atom_site_symmetry_multiplicity
 _atom_site_fract_x
 _atom_site_fract_y
 _atom_site_fract_z
 _atom_site_occupancy
  Sc  Sc0  1  0.195697  0.804342  0.804318  1
  Sc  Sc1  1  0.804258  0.195718  0.195708  1
  Sc  Sc2  1  0.999870  0.196679  0.803469  1
  Sc  Sc3  1  0.999927  0.803515  0.196673  1
  Sc  Sc4  1  0.361327  0.000386  0.276771  1
  Sc  Sc5  1  0.638593  0.999846  0.723035  1
  Sc  Sc6  1  0.638521  0.723117  0.999854  1
  Sc  Sc7  1  0.361463  0.276723  0.000374  1
  Mn  Mn8  1  0.397724  0.500107  0.204848  1
  Mn  Mn9  1  0.604501  0.498137  0.797777  1
  Mn  Mn10  1  0.099609  0.498175  0.797732  1
  Mn  Mn11  1  0.604540  0.797748  0.498263  1
  Mn  Mn12  1  0.897316  0.500120  0.204884  1
  Mn  Mn13  1  0.397610  0.204856  0.500167  1
  Mn  Mn14  1  0.897368  0.204862  0.500136  1
  Mn  Mn15  1  0.099431  0.797875  0.498147  1
  Si  Si16  1  0.592984  0.406797  0.406938  1
  Si  Si17  1  0.000549  0.409155  0.589668  1
  Si  Si18  1  0.000860  0.589745  0.409211  1
  Si  Si19  1  0.249160  0.000006  0.000011  1
  Si  Si20  1  0.750796  0.000006  0.000003  1
  Si  Si21  1  0.202639  0.297384  0.297498  1
  Si  Si22  1  0.796626  0.703474  0.703386  1
  Si  Si23  1  0.499761  0.703996  0.295832  1
  Si  Si24  1  0.500334  0.295684  0.703833  1
  Si  Si25  1  0.209483  0.000380  0.580617  1
  Si  Si26  1  0.790052  0.001493  0.418506  1
  Si  Si27  1  0.789905  0.418455  0.001410  1
  Si  Si28  1  0.209677  0.580665  0.000396  1
  Ge  Ge29  1  0.409419  0.590554  0.590535  1
