# generated using pymatgen
data_Nb6Ga4CoNiC2
_symmetry_space_group_name_H-M   'P 1'
_cell_length_a   8.23997490
_cell_length_b   8.23220914
_cell_length_c   8.23997478
_cell_angle_alpha   60.03117896
_cell_angle_beta   60.10595626
_cell_angle_gamma   60.03117808
_symmetry_Int_Tables_number   1
_chemical_formula_structural   Nb6Ga4CoNiC2
_chemical_formula_sum   'Nb12 Ga8 Co2 Ni2 C4'
_cell_volume   395.73509315
_cell_formula_units_Z   2
loop_
 _symmetry_equiv_pos_site_id
 _symmetry_equiv_pos_as_xyz
  1  'x, y, z'
loop_
 _atom_site_type_symbol
 _atom_site_label
 _atom_site_symmetry_multiplicity
 _atom_site_fract_x
 _atom_site_fract_y
 _atom_site_fract_z
 _atom_site_occupancy
  Nb  Nb0  1  0.688847  0.311153  0.688847  1
  Nb  Nb1  1  0.937350  0.559843  0.564203  1
  Nb  Nb2  1  0.564203  0.938603  0.937350  1
  Nb  Nb3  1  0.936169  0.563831  0.936169  1
  Nb  Nb4  1  0.564203  0.559843  0.937350  1
  Nb  Nb5  1  0.937350  0.938603  0.564203  1
  Nb  Nb6  1  0.685797  0.690157  0.312650  1
  Nb  Nb7  1  0.312650  0.690157  0.685797  1
  Nb  Nb8  1  0.685797  0.311397  0.312650  1
  Nb  Nb9  1  0.312650  0.311397  0.685797  1
  Nb  Nb10  1  0.561153  0.938847  0.561153  1
  Nb  Nb11  1  0.313831  0.686169  0.313831  1
  Ga  Ga12  1  0.333233  0.332122  0.333233  1
  Ga  Ga13  1  0.251858  0.916469  0.915203  1
  Ga  Ga14  1  0.916767  0.248587  0.916767  1
  Ga  Ga15  1  0.915203  0.916469  0.251858  1
  Ga  Ga16  1  0.333233  0.001413  0.333233  1
  Ga  Ga17  1  0.334797  0.333531  0.998142  1
  Ga  Ga18  1  0.998142  0.333531  0.334797  1
  Ga  Ga19  1  0.916767  0.917878  0.916767  1
  Co  Co20  1  0.625000  0.125000  0.125000  1
  Co  Co21  1  0.125000  0.125000  0.625000  1
  Ni  Ni22  1  0.125000  0.125000  0.125000  1
  Ni  Ni23  1  0.125000  0.625000  0.125000  1
  C  C24  1  0.625000  0.625000  0.625000  1
  C  C25  1  0.125000  0.625000  0.625000  1
  C  C26  1  0.625000  0.125000  0.625000  1
  C  C27  1  0.625000  0.625000  0.125000  1
