# generated using pymatgen
data_Ho16In6IrRh
_symmetry_space_group_name_H-M   'P 1'
_cell_length_a   10.39401400
_cell_length_b   10.39401385
_cell_length_c   7.01335600
_cell_angle_alpha   90.00000000
_cell_angle_beta   90.00000000
_cell_angle_gamma   120.00000047
_symmetry_Int_Tables_number   1
_chemical_formula_structural   Ho16In6IrRh
_chemical_formula_sum   'Ho16 In6 Ir1 Rh1'
_cell_volume   656.18017150
_cell_formula_units_Z   1
loop_
 _symmetry_equiv_pos_site_id
 _symmetry_equiv_pos_as_xyz
  1  'x, y, z'
loop_
 _atom_site_type_symbol
 _atom_site_label
 _atom_site_symmetry_multiplicity
 _atom_site_fract_x
 _atom_site_fract_y
 _atom_site_fract_z
 _atom_site_occupancy
  Ho  Ho0  1  0.533125  0.066249  0.506748  1
  Ho  Ho1  1  0.933751  0.466875  0.506748  1
  Ho  Ho2  1  0.533125  0.466875  0.506748  1
  Ho  Ho3  1  0.467067  0.934135  0.007396  1
  Ho  Ho4  1  0.065865  0.532933  0.007396  1
  Ho  Ho5  1  0.467067  0.532933  0.007396  1
  Ho  Ho6  1  0.176349  0.352698  0.713164  1
  Ho  Ho7  1  0.647302  0.823651  0.713164  1
  Ho  Ho8  1  0.176349  0.823651  0.713164  1
  Ho  Ho9  1  0.823428  0.646856  0.213581  1
  Ho  Ho10  1  0.353144  0.176572  0.213581  1
  Ho  Ho11  1  0.823428  0.176572  0.213581  1
  Ho  Ho12  1  0.666667  0.333333  0.887072  1
  Ho  Ho13  1  0.333333  0.666667  0.387082  1
  Ho  Ho14  1  0.000000  0.000000  0.493401  1
  Ho  Ho15  1  0.000000  0.000000  0.993285  1
  In  In16  1  0.837410  0.674818  0.751544  1
  In  In17  1  0.325182  0.162590  0.751544  1
  In  In18  1  0.837410  0.162590  0.751544  1
  In  In19  1  0.162666  0.325333  0.251341  1
  In  In20  1  0.674667  0.837334  0.251341  1
  In  In21  1  0.162666  0.837334  0.251341  1
  Ir  Ir22  1  0.666667  0.333333  0.283445  1
  Rh  Rh23  1  0.333333  0.666667  0.782435  1
