# generated using pymatgen
data_Dy6Tm2Sc12Si15Hg
_symmetry_space_group_name_H-M   'P 1'
_cell_length_a   7.11364721
_cell_length_b   7.38472518
_cell_length_c   14.05467152
_cell_angle_alpha   89.88781027
_cell_angle_beta   89.58248458
_cell_angle_gamma   90.17909829
_symmetry_Int_Tables_number   1
_chemical_formula_structural   Dy6Tm2Sc12Si15Hg
_chemical_formula_sum   'Dy6 Tm2 Sc12 Si15 Hg1'
_cell_volume   738.29997918
_cell_formula_units_Z   1
loop_
 _symmetry_equiv_pos_site_id
 _symmetry_equiv_pos_as_xyz
  1  'x, y, z'
loop_
 _atom_site_type_symbol
 _atom_site_label
 _atom_site_symmetry_multiplicity
 _atom_site_fract_x
 _atom_site_fract_y
 _atom_site_fract_z
 _atom_site_occupancy
  Dy  Dy0  1  0.012004  0.175974  0.097228  1
  Dy  Dy1  1  0.987683  0.824780  0.904443  1
  Dy  Dy2  1  0.487578  0.676952  0.904274  1
  Dy  Dy3  1  0.988347  0.830383  0.597875  1
  Dy  Dy4  1  0.511863  0.323528  0.096245  1
  Dy  Dy5  1  0.007723  0.171847  0.398662  1
  Tm  Tm6  1  0.511146  0.321852  0.399145  1
  Tm  Tm7  1  0.496550  0.682149  0.599884  1
  Sc  Sc8  1  0.162313  0.501598  0.753864  1
  Sc  Sc9  1  0.837097  0.498194  0.250375  1
  Sc  Sc10  1  0.338092  0.001433  0.249158  1
  Sc  Sc11  1  0.664230  0.996256  0.751322  1
  Sc  Sc12  1  0.341549  0.168408  0.628741  1
  Sc  Sc13  1  0.664375  0.824482  0.372886  1
  Sc  Sc14  1  0.167294  0.677474  0.370790  1
  Sc  Sc15  1  0.669511  0.823875  0.124759  1
  Sc  Sc16  1  0.825482  0.325321  0.626028  1
  Sc  Sc17  1  0.329206  0.174893  0.875914  1
  Sc  Sc18  1  0.829845  0.322883  0.875952  1
  Sc  Sc19  1  0.169309  0.676647  0.125251  1
  Si  Si20  1  0.034929  0.119406  0.751405  1
  Si  Si21  1  0.964986  0.884754  0.248136  1
  Si  Si22  1  0.466559  0.614072  0.248235  1
  Si  Si23  1  0.533310  0.387052  0.751745  1
  Si  Si24  1  0.285025  0.871212  0.751183  1
  Si  Si25  1  0.712414  0.128779  0.248367  1
  Si  Si26  1  0.214046  0.370824  0.248544  1
  Si  Si27  1  0.787647  0.628544  0.752130  1
  Si  Si28  1  0.830798  0.537647  0.458956  1
  Si  Si29  1  0.339653  0.963107  0.459745  1
  Si  Si30  1  0.843502  0.535317  0.038955  1
  Si  Si31  1  0.659010  0.036903  0.537476  1
  Si  Si32  1  0.156450  0.464020  0.962339  1
  Si  Si33  1  0.656453  0.034870  0.960869  1
  Si  Si34  1  0.342934  0.965024  0.039925  1
  Hg  Hg35  1  0.171088  0.459540  0.539195  1
