# generated using pymatgen
data_Y4HoHf3(Co4P3)4
_symmetry_space_group_name_H-M   'P 1'
_cell_length_a   12.30663309
_cell_length_b   12.30410618
_cell_length_c   3.71430100
_cell_angle_alpha   90.00000000
_cell_angle_beta   90.00000000
_cell_angle_gamma   119.99321690
_symmetry_Int_Tables_number   1
_chemical_formula_structural   Y4HoHf3(Co4P3)4
_chemical_formula_sum   'Y4 Ho1 Hf3 Co16 P12'
_cell_volume   487.10964659
_cell_formula_units_Z   1
loop_
 _symmetry_equiv_pos_site_id
 _symmetry_equiv_pos_as_xyz
  1  'x, y, z'
loop_
 _atom_site_type_symbol
 _atom_site_label
 _atom_site_symmetry_multiplicity
 _atom_site_fract_x
 _atom_site_fract_y
 _atom_site_fract_z
 _atom_site_occupancy
  Y  Y0  1  0.666672  0.333277  0.000000  1
  Y  Y1  1  0.333328  0.666607  0.000000  1
  Y  Y2  1  0.817393  0.817383  0.500000  1
  Y  Y3  1  0.182607  0.999991  0.500000  1
  Ho  Ho4  1  0.000000  0.182821  0.500000  1
  Hf  Hf5  1  0.440769  0.440804  0.000000  1
  Hf  Hf6  1  0.559231  0.000035  0.000000  1
  Hf  Hf7  1  0.000000  0.558957  0.000000  1
  Co  Co8  1  0.875737  0.355949  0.500000  1
  Co  Co9  1  0.643971  0.519634  0.500000  1
  Co  Co10  1  0.480373  0.124331  0.500000  1
  Co  Co11  1  0.356029  0.875663  0.500000  1
  Co  Co12  1  0.519627  0.643958  0.500000  1
  Co  Co13  1  0.124263  0.480212  0.500000  1
  Co  Co14  1  0.804595  0.178118  0.000000  1
  Co  Co15  1  0.821958  0.626203  0.000000  1
  Co  Co16  1  0.373765  0.195717  0.000000  1
  Co  Co17  1  0.178042  0.804246  0.000000  1
  Co  Co18  1  0.626235  0.821953  0.000000  1
  Co  Co19  1  0.195405  0.373524  0.000000  1
  Co  Co20  1  0.278571  0.278742  0.500000  1
  Co  Co21  1  0.721429  0.000171  0.500000  1
  Co  Co22  1  0.000000  0.721165  0.500000  1
  Co  Co23  1  0.000000  0.000454  0.000000  1
  P  P24  1  0.692685  0.171151  0.500000  1
  P  P25  1  0.828851  0.521455  0.500000  1
  P  P26  1  0.478437  0.307327  0.500000  1
  P  P27  1  0.171149  0.692604  0.500000  1
  P  P28  1  0.521563  0.828890  0.500000  1
  P  P29  1  0.307315  0.478467  0.500000  1
  P  P30  1  0.178009  0.178488  0.000000  1
  P  P31  1  0.821991  0.000479  0.000000  1
  P  P32  1  0.000000  0.821689  0.000000  1
  P  P33  1  0.647633  0.647636  0.000000  1
  P  P34  1  0.352367  0.000002  0.000000  1
  P  P35  1  0.000000  0.351895  0.000000  1
