# generated using pymatgen
data_YLu15(C2Cl3)4
_symmetry_space_group_name_H-M   'P 1'
_cell_length_a   3.57874500
_cell_length_b   10.19522914
_cell_length_c   19.28244287
_cell_angle_alpha   89.91035956
_cell_angle_beta   90.00000000
_cell_angle_gamma   90.00000000
_symmetry_Int_Tables_number   1
_chemical_formula_structural   YLu15(C2Cl3)4
_chemical_formula_sum   'Y1 Lu15 C8 Cl12'
_cell_volume   703.54076544
_cell_formula_units_Z   1
loop_
 _symmetry_equiv_pos_site_id
 _symmetry_equiv_pos_as_xyz
  1  'x, y, z'
loop_
 _atom_site_type_symbol
 _atom_site_label
 _atom_site_symmetry_multiplicity
 _atom_site_fract_x
 _atom_site_fract_y
 _atom_site_fract_z
 _atom_site_occupancy
  Y  Y0  1  0.250000  0.137649  0.572824  1
  Lu  Lu1  1  0.250000  0.638106  0.924966  1
  Lu  Lu2  1  0.750000  0.861861  0.424912  1
  Lu  Lu3  1  0.750000  0.361840  0.075092  1
  Lu  Lu4  1  0.250000  0.636726  0.756802  1
  Lu  Lu5  1  0.250000  0.136745  0.743619  1
  Lu  Lu6  1  0.750000  0.362845  0.243037  1
  Lu  Lu7  1  0.750000  0.863652  0.256916  1
  Lu  Lu8  1  0.250000  0.100159  0.330529  1
  Lu  Lu9  1  0.250000  0.600281  0.169485  1
  Lu  Lu10  1  0.750000  0.900101  0.669688  1
  Lu  Lu11  1  0.750000  0.399296  0.830389  1
  Lu  Lu12  1  0.250000  0.126211  0.165658  1
  Lu  Lu13  1  0.250000  0.626821  0.334327  1
  Lu  Lu14  1  0.750000  0.873833  0.834203  1
  Lu  Lu15  1  0.750000  0.373224  0.665786  1
  C  C16  1  0.250000  0.864511  0.347180  1
  C  C17  1  0.250000  0.365266  0.152505  1
  C  C18  1  0.750000  0.135439  0.655664  1
  C  C19  1  0.750000  0.634853  0.847744  1
  C  C20  1  0.250000  0.388842  0.750312  1
  C  C21  1  0.250000  0.885285  0.750717  1
  C  C22  1  0.750000  0.612749  0.250042  1
  C  C23  1  0.750000  0.113081  0.249539  1
  Cl  Cl24  1  0.250000  0.377515  0.953201  1
  Cl  Cl25  1  0.250000  0.871957  0.546518  1
  Cl  Cl26  1  0.750000  0.622632  0.046843  1
  Cl  Cl27  1  0.750000  0.122649  0.450465  1
  Cl  Cl28  1  0.250000  0.886902  0.944560  1
  Cl  Cl29  1  0.250000  0.393222  0.556217  1
  Cl  Cl30  1  0.750000  0.112914  0.055562  1
  Cl  Cl31  1  0.750000  0.612484  0.444032  1
  Cl  Cl32  1  0.250000  0.361362  0.353328  1
  Cl  Cl33  1  0.250000  0.861211  0.146413  1
  Cl  Cl34  1  0.750000  0.639100  0.646651  1
  Cl  Cl35  1  0.750000  0.138677  0.854273  1
