# generated using pymatgen
data_Tm2MnCr2O8
_symmetry_space_group_name_H-M   'P 1'
_cell_length_a   6.19021050
_cell_length_b   6.19021051
_cell_length_c   5.09511011
_cell_angle_alpha   72.07810164
_cell_angle_beta   72.07810427
_cell_angle_gamma   58.07080314
_symmetry_Int_Tables_number   1
_chemical_formula_structural   Tm2MnCr2O8
_chemical_formula_sum   'Tm2 Mn1 Cr2 O8'
_cell_volume   155.09710465
_cell_formula_units_Z   1
loop_
 _symmetry_equiv_pos_site_id
 _symmetry_equiv_pos_as_xyz
  1  'x, y, z'
loop_
 _atom_site_type_symbol
 _atom_site_label
 _atom_site_symmetry_multiplicity
 _atom_site_fract_x
 _atom_site_fract_y
 _atom_site_fract_z
 _atom_site_occupancy
  Tm  Tm0  1  0.722875  0.722794  0.337993  1
  Tm  Tm1  1  0.277206  0.277125  0.662007  1
  Mn  Mn2  1  0.743080  0.256920  0.000000  1
  Cr  Cr3  1  0.998641  0.001359  0.500000  1
  Cr  Cr4  1  0.258200  0.741800  0.000000  1
  O  O5  1  0.406844  0.383365  0.933362  1
  O  O6  1  0.616635  0.593156  0.066638  1
  O  O7  1  0.889244  0.905078  0.918038  1
  O  O8  1  0.094922  0.110756  0.081962  1
  O  O9  1  0.340399  0.894324  0.594212  1
  O  O10  1  0.885837  0.339561  0.608159  1
  O  O11  1  0.105676  0.659601  0.405788  1
  O  O12  1  0.660439  0.114163  0.391841  1
