# generated using pymatgen
data_Ce4AlB4Ir7Rh2
_symmetry_space_group_name_H-M   'P 1'
_cell_length_a   10.79951952
_cell_length_b   10.79747403
_cell_length_c   10.79747425
_cell_angle_alpha   29.75008544
_cell_angle_beta   29.77762606
_cell_angle_gamma   29.77762745
_symmetry_Int_Tables_number   1
_chemical_formula_structural   Ce4AlB4Ir7Rh2
_chemical_formula_sum   'Ce4 Al1 B4 Ir7 Rh2'
_cell_volume   274.82631810
_cell_formula_units_Z   1
loop_
 _symmetry_equiv_pos_site_id
 _symmetry_equiv_pos_as_xyz
  1  'x, y, z'
loop_
 _atom_site_type_symbol
 _atom_site_label
 _atom_site_symmetry_multiplicity
 _atom_site_fract_x
 _atom_site_fract_y
 _atom_site_fract_z
 _atom_site_occupancy
  Ce  Ce0  1  0.148299  0.149121  0.149121  1
  Ce  Ce1  1  0.948255  0.948193  0.948193  1
  Ce  Ce2  1  0.851701  0.850879  0.850879  1
  Ce  Ce3  1  0.051745  0.051807  0.051807  1
  Al  Al4  1  0.500000  0.500000  0.500000  1
  B  B5  1  0.617844  0.614711  0.614711  1
  B  B6  1  0.719960  0.716859  0.716859  1
  B  B7  1  0.382156  0.385289  0.385289  1
  B  B8  1  0.280040  0.283141  0.283141  1
  Ir  Ir9  1  0.402175  0.902071  0.402156  1
  Ir  Ir10  1  0.901683  0.401826  0.401826  1
  Ir  Ir11  1  0.000000  0.500000  0.500000  1
  Ir  Ir12  1  0.597825  0.097929  0.597844  1
  Ir  Ir13  1  0.597825  0.597844  0.097929  1
  Ir  Ir14  1  0.098317  0.598174  0.598174  1
  Ir  Ir15  1  0.402175  0.402156  0.902071  1
  Rh  Rh16  1  0.500000  0.500000  0.000000  1
  Rh  Rh17  1  0.500000  0.000000  0.500000  1
