# generated using pymatgen
data_TbYZr2(Co5P3)4
_symmetry_space_group_name_H-M   'P 1'
_cell_length_a   3.63037200
_cell_length_b   10.22258423
_cell_length_c   11.68643227
_cell_angle_alpha   89.97551617
_cell_angle_beta   90.00000000
_cell_angle_gamma   90.00000000
_symmetry_Int_Tables_number   1
_chemical_formula_structural   TbYZr2(Co5P3)4
_chemical_formula_sum   'Tb1 Y1 Zr2 Co20 P12'
_cell_volume   433.70430537
_cell_formula_units_Z   1
loop_
 _symmetry_equiv_pos_site_id
 _symmetry_equiv_pos_as_xyz
  1  'x, y, z'
loop_
 _atom_site_type_symbol
 _atom_site_label
 _atom_site_symmetry_multiplicity
 _atom_site_fract_x
 _atom_site_fract_y
 _atom_site_fract_z
 _atom_site_occupancy
  Tb  Tb0  1  0.750000  0.082648  0.796932  1
  Y  Y1  1  0.750000  0.417374  0.296962  1
  Zr  Zr2  1  0.250000  0.582085  0.701412  1
  Zr  Zr3  1  0.250000  0.917901  0.201469  1
  Co  Co4  1  0.250000  0.718079  0.993219  1
  Co  Co5  1  0.250000  0.781861  0.493224  1
  Co  Co6  1  0.750000  0.282536  0.009025  1
  Co  Co7  1  0.750000  0.217470  0.509086  1
  Co  Co8  1  0.250000  0.409731  0.490696  1
  Co  Co9  1  0.250000  0.090385  0.990808  1
  Co  Co10  1  0.750000  0.593661  0.515349  1
  Co  Co11  1  0.750000  0.906304  0.015408  1
  Co  Co12  1  0.250000  0.221308  0.177565  1
  Co  Co13  1  0.250000  0.278859  0.677566  1
  Co  Co14  1  0.750000  0.776264  0.822722  1
  Co  Co15  1  0.750000  0.723666  0.322719  1
  Co  Co16  1  0.250000  0.880208  0.698587  1
  Co  Co17  1  0.250000  0.619695  0.198636  1
  Co  Co18  1  0.750000  0.113783  0.299472  1
  Co  Co19  1  0.750000  0.386213  0.799535  1
  Co  Co20  1  0.250000  0.470381  0.928838  1
  Co  Co21  1  0.250000  0.029615  0.428780  1
  Co  Co22  1  0.750000  0.534910  0.066722  1
  Co  Co23  1  0.750000  0.964989  0.566680  1
  P  P24  1  0.250000  0.419042  0.110455  1
  P  P25  1  0.250000  0.080935  0.610317  1
  P  P26  1  0.750000  0.581553  0.884549  1
  P  P27  1  0.750000  0.918454  0.384535  1
  P  P28  1  0.250000  0.270747  0.871833  1
  P  P29  1  0.250000  0.229510  0.371792  1
  P  P30  1  0.750000  0.732521  0.131409  1
  P  P31  1  0.750000  0.767474  0.631407  1
  P  P32  1  0.250000  0.602188  0.390997  1
  P  P33  1  0.250000  0.897604  0.891039  1
  P  P34  1  0.750000  0.400366  0.610154  1
  P  P35  1  0.750000  0.099679  0.110104  1
