# generated using pymatgen
data_Tb7Dy5Os4
_symmetry_space_group_name_H-M   'P 1'
_cell_length_a   7.40356211
_cell_length_b   9.11296866
_cell_length_c   6.33547755
_cell_angle_alpha   90.04365149
_cell_angle_beta   89.98034557
_cell_angle_gamma   89.99710276
_symmetry_Int_Tables_number   1
_chemical_formula_structural   Tb7Dy5Os4
_chemical_formula_sum   'Tb7 Dy5 Os4'
_cell_volume   427.44457102
_cell_formula_units_Z   1
loop_
 _symmetry_equiv_pos_site_id
 _symmetry_equiv_pos_as_xyz
  1  'x, y, z'
loop_
 _atom_site_type_symbol
 _atom_site_label
 _atom_site_symmetry_multiplicity
 _atom_site_fract_x
 _atom_site_fract_y
 _atom_site_fract_z
 _atom_site_occupancy
  Tb  Tb0  1  0.461443  0.749862  0.130873  1
  Tb  Tb1  1  0.175137  0.063059  0.167836  1
  Tb  Tb2  1  0.175171  0.436972  0.167919  1
  Tb  Tb3  1  0.675213  0.063281  0.332287  1
  Tb  Tb4  1  0.961247  0.749890  0.369212  1
  Tb  Tb5  1  0.038375  0.250091  0.631496  1
  Tb  Tb6  1  0.538568  0.250159  0.868478  1
  Dy  Dy7  1  0.674918  0.436808  0.332298  1
  Dy  Dy8  1  0.325182  0.563596  0.667839  1
  Dy  Dy9  1  0.324978  0.936282  0.667968  1
  Dy  Dy10  1  0.824878  0.563599  0.831973  1
  Dy  Dy11  1  0.824946  0.936253  0.831972  1
  Os  Os12  1  0.882904  0.250226  0.040821  1
  Os  Os13  1  0.383398  0.250195  0.459304  1
  Os  Os14  1  0.616890  0.749678  0.541466  1
  Os  Os15  1  0.116753  0.750048  0.958258  1
