# generated using pymatgen
data_DyNiHgPt3
_symmetry_space_group_name_H-M   'P 1'
_cell_length_a   5.19486202
_cell_length_b   5.19486293
_cell_length_c   5.19486340
_cell_angle_alpha   62.72405435
_cell_angle_beta   62.72404342
_cell_angle_gamma   62.72404733
_symmetry_Int_Tables_number   1
_chemical_formula_structural   DyNiHgPt3
_chemical_formula_sum   'Dy1 Ni1 Hg1 Pt3'
_cell_volume   105.13814503
_cell_formula_units_Z   1
loop_
 _symmetry_equiv_pos_site_id
 _symmetry_equiv_pos_as_xyz
  1  'x, y, z'
loop_
 _atom_site_type_symbol
 _atom_site_label
 _atom_site_symmetry_multiplicity
 _atom_site_fract_x
 _atom_site_fract_y
 _atom_site_fract_z
 _atom_site_occupancy
  Dy  Dy0  1  0.249397  0.249397  0.249397  1
  Ni  Ni1  1  0.626308  0.626308  0.626308  1
  Hg  Hg2  1  0.998184  0.998184  0.998184  1
  Pt  Pt3  1  0.625704  0.625704  0.124706  1
  Pt  Pt4  1  0.625704  0.124706  0.625704  1
  Pt  Pt5  1  0.124706  0.625704  0.625704  1
