# generated using pymatgen
data_DyYAlCdPt2
_symmetry_space_group_name_H-M   'P 1'
_cell_length_a   4.36687400
_cell_length_b   6.96786472
_cell_length_c   8.22796525
_cell_angle_alpha   92.50830662
_cell_angle_beta   90.00000000
_cell_angle_gamma   90.00000000
_symmetry_Int_Tables_number   1
_chemical_formula_structural   DyYAlCdPt2
_chemical_formula_sum   'Dy2 Y2 Al2 Cd2 Pt4'
_cell_volume   250.11890432
_cell_formula_units_Z   2
loop_
 _symmetry_equiv_pos_site_id
 _symmetry_equiv_pos_as_xyz
  1  'x, y, z'
loop_
 _atom_site_type_symbol
 _atom_site_label
 _atom_site_symmetry_multiplicity
 _atom_site_fract_x
 _atom_site_fract_y
 _atom_site_fract_z
 _atom_site_occupancy
  Dy  Dy0  1  0.750000  0.036418  0.676645  1
  Dy  Dy1  1  0.250000  0.963582  0.323355  1
  Y  Y2  1  0.250000  0.463315  0.185876  1
  Y  Y3  1  0.750000  0.536685  0.814124  1
  Al  Al4  1  0.750000  0.639266  0.443080  1
  Al  Al5  1  0.250000  0.360734  0.556920  1
  Cd  Cd6  1  0.250000  0.857938  0.935462  1
  Cd  Cd7  1  0.750000  0.142062  0.064538  1
  Pt  Pt8  1  0.250000  0.731688  0.599959  1
  Pt  Pt9  1  0.750000  0.268312  0.400041  1
  Pt  Pt10  1  0.750000  0.740032  0.144238  1
  Pt  Pt11  1  0.250000  0.259968  0.855762  1
