# generated using pymatgen
data_Li2Tm2Ni15
_symmetry_space_group_name_H-M   'P 1'
_cell_length_a   6.23207452
_cell_length_b   6.23207468
_cell_length_c   6.23207511
_cell_angle_alpha   83.23542786
_cell_angle_beta   96.76457027
_cell_angle_gamma   96.76456226
_symmetry_Int_Tables_number   1
_chemical_formula_structural   Li2Tm2Ni15
_chemical_formula_sum   'Li2 Tm2 Ni15'
_cell_volume   237.35882940
_cell_formula_units_Z   1
loop_
 _symmetry_equiv_pos_site_id
 _symmetry_equiv_pos_as_xyz
  1  'x, y, z'
loop_
 _atom_site_type_symbol
 _atom_site_label
 _atom_site_symmetry_multiplicity
 _atom_site_fract_x
 _atom_site_fract_y
 _atom_site_fract_z
 _atom_site_occupancy
  Li  Li0  1  0.906714  0.093285  0.093285  1
  Li  Li1  1  0.093284  0.906715  0.906715  1
  Tm  Tm2  1  0.656687  0.343312  0.343312  1
  Tm  Tm3  1  0.343311  0.656688  0.656688  1
  Ni  Ni4  1  0.500000  0.000000  0.000000  1
  Ni  Ni5  1  0.307880  0.307881  0.000000  1
  Ni  Ni6  1  0.000000  0.500000  0.000000  1
  Ni  Ni7  1  0.692120  0.692120  0.000000  1
  Ni  Ni8  1  0.343226  0.656774  0.159781  1
  Ni  Ni9  1  0.000000  0.692120  0.307879  1
  Ni  Ni10  1  0.307880  0.000000  0.307880  1
  Ni  Ni11  1  0.656773  0.840219  0.343226  1
  Ni  Ni12  1  0.159780  0.343227  0.343227  1
  Ni  Ni13  1  0.000000  0.000000  0.500000  1
  Ni  Ni14  1  0.343226  0.159781  0.656773  1
  Ni  Ni15  1  0.840219  0.656774  0.656774  1
  Ni  Ni16  1  0.000000  0.307881  0.692119  1
  Ni  Ni17  1  0.692120  0.000000  0.692120  1
  Ni  Ni18  1  0.656773  0.343227  0.840220  1
