# generated using pymatgen
data_BaNa2Sr(Cd2Au3)2
_symmetry_space_group_name_H-M   'P 1'
_cell_length_a   4.61726100
_cell_length_b   8.32622000
_cell_length_c   9.18362800
_cell_angle_alpha   90.00000000
_cell_angle_beta   90.00000000
_cell_angle_gamma   90.00000000
_symmetry_Int_Tables_number   1
_chemical_formula_structural   BaNa2Sr(Cd2Au3)2
_chemical_formula_sum   'Ba1 Na2 Sr1 Cd4 Au6'
_cell_volume   353.05843354
_cell_formula_units_Z   1
loop_
 _symmetry_equiv_pos_site_id
 _symmetry_equiv_pos_as_xyz
  1  'x, y, z'
loop_
 _atom_site_type_symbol
 _atom_site_label
 _atom_site_symmetry_multiplicity
 _atom_site_fract_x
 _atom_site_fract_y
 _atom_site_fract_z
 _atom_site_occupancy
  Ba  Ba0  1  0.500000  0.000000  0.722343  1
  Na  Na1  1  0.000000  0.000000  0.345621  1
  Na  Na2  1  0.500000  0.500000  0.661130  1
  Sr  Sr3  1  0.000000  0.500000  0.274309  1
  Cd  Cd4  1  0.000000  0.316962  0.891916  1
  Cd  Cd5  1  0.500000  0.185029  0.110008  1
  Cd  Cd6  1  0.000000  0.683038  0.891916  1
  Cd  Cd7  1  0.500000  0.814971  0.110008  1
  Au  Au8  1  0.000000  0.732034  0.587115  1
  Au  Au9  1  0.500000  0.744861  0.406744  1
  Au  Au10  1  0.500000  0.500000  0.994596  1
  Au  Au11  1  0.000000  0.000000  0.010435  1
  Au  Au12  1  0.500000  0.255139  0.406744  1
  Au  Au13  1  0.000000  0.267966  0.587115  1
