# generated using pymatgen
data_Co2Sn16PdRh
_symmetry_space_group_name_H-M   'P 1'
_cell_length_a   12.69141423
_cell_length_b   12.69141331
_cell_length_c   12.69433011
_cell_angle_alpha   151.18437053
_cell_angle_beta   151.18436399
_cell_angle_gamma   41.17057372
_symmetry_Int_Tables_number   1
_chemical_formula_structural   Co2Sn16PdRh
_chemical_formula_sum   'Co2 Sn16 Pd1 Rh1'
_cell_volume   474.03687781
_cell_formula_units_Z   1
loop_
 _symmetry_equiv_pos_site_id
 _symmetry_equiv_pos_as_xyz
  1  'x, y, z'
loop_
 _atom_site_type_symbol
 _atom_site_label
 _atom_site_symmetry_multiplicity
 _atom_site_fract_x
 _atom_site_fract_y
 _atom_site_fract_z
 _atom_site_occupancy
  Co  Co0  1  0.250000  0.250000  0.000000  1
  Co  Co1  1  0.000000  0.500000  0.500000  1
  Sn  Sn2  1  0.138986  0.624211  0.135778  1
  Sn  Sn3  1  0.623298  0.487628  0.484479  1
  Sn  Sn4  1  0.885043  0.875712  0.636687  1
  Sn  Sn5  1  0.376790  0.739575  0.991263  1
  Sn  Sn6  1  0.624288  0.614957  0.363313  1
  Sn  Sn7  1  0.114473  0.751686  0.991263  1
  Sn  Sn8  1  0.875789  0.361014  0.864222  1
  Sn  Sn9  1  0.361182  0.496852  0.484479  1
  Sn  Sn10  1  0.003148  0.138818  0.515521  1
  Sn  Sn11  1  0.488432  0.003209  0.864222  1
  Sn  Sn12  1  0.748314  0.385527  0.008737  1
  Sn  Sn13  1  0.239026  0.248356  0.363313  1
  Sn  Sn14  1  0.760425  0.123210  0.008737  1
  Sn  Sn15  1  0.251644  0.260974  0.636687  1
  Sn  Sn16  1  0.012372  0.876702  0.515521  1
  Sn  Sn17  1  0.496791  0.011568  0.135778  1
  Pd  Pd18  1  0.750000  0.750000  0.000000  1
  Rh  Rh19  1  0.500000  0.000000  0.500000  1
