# generated using pymatgen
data_Ho20Co2(PdAu)3
_symmetry_space_group_name_H-M   'P 1'
_cell_length_a   9.27704300
_cell_length_b   9.27703231
_cell_length_c   9.27265800
_cell_angle_alpha   90.00000000
_cell_angle_beta   90.00000000
_cell_angle_gamma   120.00020570
_symmetry_Int_Tables_number   1
_chemical_formula_structural   Ho20Co2(PdAu)3
_chemical_formula_sum   'Ho20 Co2 Pd3 Au3'
_cell_volume   691.11864967
_cell_formula_units_Z   1
loop_
 _symmetry_equiv_pos_site_id
 _symmetry_equiv_pos_as_xyz
  1  'x, y, z'
loop_
 _atom_site_type_symbol
 _atom_site_label
 _atom_site_symmetry_multiplicity
 _atom_site_fract_x
 _atom_site_fract_y
 _atom_site_fract_z
 _atom_site_occupancy
  Ho  Ho0  1  0.999987  0.999898  0.519092  1
  Ho  Ho1  1  0.999987  0.999898  0.980908  1
  Ho  Ho2  1  0.543616  0.456541  0.250000  1
  Ho  Ho3  1  0.543547  0.087093  0.250000  1
  Ho  Ho4  1  0.913110  0.456729  0.250000  1
  Ho  Ho5  1  0.457735  0.542398  0.750000  1
  Ho  Ho6  1  0.457778  0.915353  0.750000  1
  Ho  Ho7  1  0.084634  0.542332  0.750000  1
  Ho  Ho8  1  0.208006  0.791974  0.439275  1
  Ho  Ho9  1  0.207882  0.415991  0.439150  1
  Ho  Ho10  1  0.584003  0.792047  0.439161  1
  Ho  Ho11  1  0.790847  0.209266  0.560962  1
  Ho  Ho12  1  0.790749  0.581526  0.560989  1
  Ho  Ho13  1  0.418496  0.209259  0.561055  1
  Ho  Ho14  1  0.790847  0.209266  0.939038  1
  Ho  Ho15  1  0.790749  0.581526  0.939011  1
  Ho  Ho16  1  0.418496  0.209259  0.938945  1
  Ho  Ho17  1  0.208006  0.791974  0.060725  1
  Ho  Ho18  1  0.207882  0.415991  0.060850  1
  Ho  Ho19  1  0.584003  0.792047  0.060839  1
  Co  Co20  1  0.333040  0.666472  0.250000  1
  Co  Co21  1  0.666783  0.333248  0.750000  1
  Pd  Pd22  1  0.123561  0.876571  0.750000  1
  Pd  Pd23  1  0.123483  0.246965  0.750000  1
  Pd  Pd24  1  0.752970  0.876517  0.750000  1
  Au  Au25  1  0.883205  0.116668  0.250000  1
  Au  Au26  1  0.883091  0.766410  0.250000  1
  Au  Au27  1  0.233512  0.116782  0.250000  1
