# generated using pymatgen
data_LuAl2Pd4Au
_symmetry_space_group_name_H-M   'P 1'
_cell_length_a   7.83396473
_cell_length_b   7.83396490
_cell_length_c   7.83396499
_cell_angle_alpha   148.68889473
_cell_angle_beta   148.68890301
_cell_angle_gamma   44.86943474
_symmetry_Int_Tables_number   1
_chemical_formula_structural   LuAl2Pd4Au
_chemical_formula_sum   'Lu1 Al2 Pd4 Au1'
_cell_volume   129.44372578
_cell_formula_units_Z   1
loop_
 _symmetry_equiv_pos_site_id
 _symmetry_equiv_pos_as_xyz
  1  'x, y, z'
loop_
 _atom_site_type_symbol
 _atom_site_label
 _atom_site_symmetry_multiplicity
 _atom_site_fract_x
 _atom_site_fract_y
 _atom_site_fract_z
 _atom_site_occupancy
  Lu  Lu0  1  0.000000  0.000000  0.000000  1
  Al  Al1  1  0.252869  0.252869  0.000000  1
  Al  Al2  1  0.747131  0.747131  0.000000  1
  Pd  Pd3  1  0.643047  0.143047  0.500000  1
  Pd  Pd4  1  0.356953  0.856953  0.500000  1
  Pd  Pd5  1  0.143047  0.643047  0.500000  1
  Pd  Pd6  1  0.856953  0.356953  0.500000  1
  Au  Au7  1  0.500000  0.500000  0.000000  1
