# generated using pymatgen
data_CaNd3(AlAu)4
_symmetry_space_group_name_H-M   'P 1'
_cell_length_a   4.58004600
_cell_length_b   7.46476002
_cell_length_c   7.84287103
_cell_angle_alpha   89.99033350
_cell_angle_beta   90.00000000
_cell_angle_gamma   90.00000000
_symmetry_Int_Tables_number   1
_chemical_formula_structural   CaNd3(AlAu)4
_chemical_formula_sum   'Ca1 Nd3 Al4 Au4'
_cell_volume   268.13947692
_cell_formula_units_Z   1
loop_
 _symmetry_equiv_pos_site_id
 _symmetry_equiv_pos_as_xyz
  1  'x, y, z'
loop_
 _atom_site_type_symbol
 _atom_site_label
 _atom_site_symmetry_multiplicity
 _atom_site_fract_x
 _atom_site_fract_y
 _atom_site_fract_z
 _atom_site_occupancy
  Ca  Ca0  1  0.750000  0.492454  0.803621  1
  Nd  Nd1  1  0.250000  0.013147  0.308904  1
  Nd  Nd2  1  0.250000  0.506083  0.189208  1
  Nd  Nd3  1  0.750000  0.992028  0.696511  1
  Al  Al4  1  0.750000  0.823622  0.080540  1
  Al  Al5  1  0.250000  0.168247  0.922862  1
  Al  Al6  1  0.250000  0.671797  0.577282  1
  Al  Al7  1  0.750000  0.335970  0.424253  1
  Au  Au8  1  0.250000  0.793002  0.901645  1
  Au  Au9  1  0.750000  0.203131  0.091648  1
  Au  Au10  1  0.750000  0.705349  0.403670  1
  Au  Au11  1  0.250000  0.295169  0.599857  1
