# generated using pymatgen
data_PH3S
_symmetry_space_group_name_H-M   'P 1'
_cell_length_a   4.93108375
_cell_length_b   15.47741600
_cell_length_c   9.77755730
_cell_angle_alpha   90.00000000
_cell_angle_beta   81.59722187
_cell_angle_gamma   90.00000000
_symmetry_Int_Tables_number   1
_chemical_formula_structural   PH3S
_chemical_formula_sum   'P8 H24 S8'
_cell_volume   738.21685535
_cell_formula_units_Z   8
loop_
 _symmetry_equiv_pos_site_id
 _symmetry_equiv_pos_as_xyz
  1  'x, y, z'
loop_
 _atom_site_type_symbol
 _atom_site_label
 _atom_site_symmetry_multiplicity
 _atom_site_fract_x
 _atom_site_fract_y
 _atom_site_fract_z
 _atom_site_occupancy
  P  P0  1  0.428958  0.860220  0.110212  1
  P  P1  1  0.804129  0.584082  0.149652  1
  P  P2  1  0.195906  0.084041  0.350344  1
  P  P3  1  0.571049  0.360232  0.389786  1
  P  P4  1  0.428958  0.639780  0.610211  1
  P  P5  1  0.804129  0.915917  0.649651  1
  P  P6  1  0.195905  0.415959  0.850344  1
  P  P7  1  0.571048  0.139769  0.889785  1
  H  H8  1  0.555476  0.779361  0.074080  1
  H  H9  1  0.525680  0.600163  0.134360  1
  H  H10  1  0.708096  0.121820  0.004435  1
  H  H11  1  0.834461  0.494177  0.121632  1
  H  H12  1  0.207180  0.837816  0.213286  1
  H  H13  1  0.202086  0.086313  0.204629  1
  H  H14  1  0.798016  0.586348  0.295383  1
  H  H15  1  0.792848  0.337825  0.286751  1
  H  H16  1  0.165527  0.994142  0.378343  1
  H  H17  1  0.291819  0.621826  0.495575  1
  H  H18  1  0.474293  0.100124  0.365694  1
  H  H19  1  0.444456  0.279392  0.425905  1
  H  H20  1  0.555476  0.720639  0.574079  1
  H  H21  1  0.525680  0.899837  0.634361  1
  H  H22  1  0.708096  0.378180  0.504435  1
  H  H23  1  0.834461  0.005824  0.621633  1
  H  H24  1  0.207180  0.662184  0.713285  1
  H  H25  1  0.202087  0.413687  0.704630  1
  H  H26  1  0.798016  0.913652  0.795384  1
  H  H27  1  0.792848  0.162175  0.786752  1
  H  H28  1  0.165529  0.505859  0.878343  1
  H  H29  1  0.291819  0.878174  0.995575  1
  H  H30  1  0.474292  0.399876  0.865693  1
  H  H31  1  0.444456  0.220608  0.925905  1
  S  S32  1  0.926715  0.339946  0.960776  1
  S  S33  1  0.679020  0.950211  0.157514  1
  S  S34  1  0.321021  0.450241  0.342428  1
  S  S35  1  0.073266  0.839918  0.539214  1
  S  S36  1  0.926715  0.160055  0.460777  1
  S  S37  1  0.679019  0.549789  0.657513  1
  S  S38  1  0.321021  0.049759  0.842427  1
  S  S39  1  0.073266  0.660083  0.039214  1
