# generated using pymatgen
data_Cs2YbTa6Cl18
_symmetry_space_group_name_H-M   'P 1'
_cell_length_a   10.37417883
_cell_length_b   10.37417940
_cell_length_c   10.37417802
_cell_angle_alpha   55.08009132
_cell_angle_beta   55.08008872
_cell_angle_gamma   55.08009094
_symmetry_Int_Tables_number   1
_chemical_formula_structural   Cs2YbTa6Cl18
_chemical_formula_sum   'Cs2 Yb1 Ta6 Cl18'
_cell_volume   699.14491574
_cell_formula_units_Z   1
loop_
 _symmetry_equiv_pos_site_id
 _symmetry_equiv_pos_as_xyz
  1  'x, y, z'
loop_
 _atom_site_type_symbol
 _atom_site_label
 _atom_site_symmetry_multiplicity
 _atom_site_fract_x
 _atom_site_fract_y
 _atom_site_fract_z
 _atom_site_occupancy
  Cs  Cs0  1  0.276576  0.276576  0.276576  1
  Cs  Cs1  1  0.723424  0.723424  0.723424  1
  Yb  Yb2  1  0.000000  0.000000  0.000000  1
  Ta  Ta3  1  0.415457  0.303504  0.646210  1
  Ta  Ta4  1  0.353790  0.584543  0.696496  1
  Ta  Ta5  1  0.696496  0.353790  0.584543  1
  Ta  Ta6  1  0.646210  0.415457  0.303504  1
  Ta  Ta7  1  0.584543  0.696496  0.353790  1
  Ta  Ta8  1  0.303504  0.646210  0.415457  1
  Cl  Cl9  1  0.634414  0.092186  0.772992  1
  Cl  Cl10  1  0.772992  0.634414  0.092186  1
  Cl  Cl11  1  0.092186  0.772992  0.634414  1
  Cl  Cl12  1  0.829877  0.306373  0.049045  1
  Cl  Cl13  1  0.164412  0.439653  0.574519  1
  Cl  Cl14  1  0.693627  0.950955  0.170123  1
  Cl  Cl15  1  0.907814  0.227008  0.365586  1
  Cl  Cl16  1  0.560347  0.425481  0.835588  1
  Cl  Cl17  1  0.425481  0.835588  0.560347  1
  Cl  Cl18  1  0.950955  0.170123  0.693627  1
  Cl  Cl19  1  0.170123  0.693627  0.950955  1
  Cl  Cl20  1  0.049045  0.829877  0.306373  1
  Cl  Cl21  1  0.306373  0.049045  0.829877  1
  Cl  Cl22  1  0.227008  0.365586  0.907814  1
  Cl  Cl23  1  0.574519  0.164412  0.439653  1
  Cl  Cl24  1  0.439653  0.574519  0.164412  1
  Cl  Cl25  1  0.365586  0.907814  0.227008  1
  Cl  Cl26  1  0.835588  0.560347  0.425481  1
