# generated using pymatgen
data_Dy7Y3Cd3Ir
_symmetry_space_group_name_H-M   'P 1'
_cell_length_a   9.64215400
_cell_length_b   9.64215510
_cell_length_c   9.87715500
_cell_angle_alpha   90.00000000
_cell_angle_beta   90.00000000
_cell_angle_gamma   120.00000310
_symmetry_Int_Tables_number   1
_chemical_formula_structural   Dy7Y3Cd3Ir
_chemical_formula_sum   'Dy14 Y6 Cd6 Ir2'
_cell_volume   795.26279230
_cell_formula_units_Z   2
loop_
 _symmetry_equiv_pos_site_id
 _symmetry_equiv_pos_as_xyz
  1  'x, y, z'
loop_
 _atom_site_type_symbol
 _atom_site_label
 _atom_site_symmetry_multiplicity
 _atom_site_fract_x
 _atom_site_fract_y
 _atom_site_fract_z
 _atom_site_occupancy
  Dy  Dy0  1  0.000000  0.000000  0.500000  1
  Dy  Dy1  1  0.000000  0.000000  0.000000  1
  Dy  Dy2  1  0.209646  0.790354  0.440062  1
  Dy  Dy3  1  0.209646  0.419294  0.440062  1
  Dy  Dy4  1  0.580706  0.790354  0.440062  1
  Dy  Dy5  1  0.790354  0.209646  0.559938  1
  Dy  Dy6  1  0.790354  0.580706  0.559938  1
  Dy  Dy7  1  0.419294  0.209646  0.559938  1
  Dy  Dy8  1  0.790354  0.209646  0.940062  1
  Dy  Dy9  1  0.790354  0.580706  0.940062  1
  Dy  Dy10  1  0.419294  0.209646  0.940062  1
  Dy  Dy11  1  0.209646  0.790354  0.059938  1
  Dy  Dy12  1  0.209646  0.419294  0.059938  1
  Dy  Dy13  1  0.580706  0.790354  0.059938  1
  Y  Y14  1  0.541322  0.458678  0.250000  1
  Y  Y15  1  0.541322  0.082644  0.250000  1
  Y  Y16  1  0.917356  0.458678  0.250000  1
  Y  Y17  1  0.458678  0.541322  0.750000  1
  Y  Y18  1  0.458678  0.917356  0.750000  1
  Y  Y19  1  0.082644  0.541322  0.750000  1
  Cd  Cd20  1  0.885442  0.114558  0.250000  1
  Cd  Cd21  1  0.885442  0.770885  0.250000  1
  Cd  Cd22  1  0.229115  0.114558  0.250000  1
  Cd  Cd23  1  0.114558  0.885442  0.750000  1
  Cd  Cd24  1  0.114558  0.229115  0.750000  1
  Cd  Cd25  1  0.770885  0.885442  0.750000  1
  Ir  Ir26  1  0.333333  0.666667  0.250000  1
  Ir  Ir27  1  0.666667  0.333333  0.750000  1
