# generated using pymatgen
data_La3Pu(P4O13)2
_symmetry_space_group_name_H-M   'P 1'
_cell_length_a   9.74368120
_cell_length_b   9.76093026
_cell_length_c   8.88358800
_cell_angle_alpha   90.15770119
_cell_angle_beta   89.87770140
_cell_angle_gamma   135.70266069
_symmetry_Int_Tables_number   1
_chemical_formula_structural   La3Pu(P4O13)2
_chemical_formula_sum   'La3 Pu1 P8 O26'
_cell_volume   590.05717492
_cell_formula_units_Z   1
loop_
 _symmetry_equiv_pos_site_id
 _symmetry_equiv_pos_as_xyz
  1  'x, y, z'
loop_
 _atom_site_type_symbol
 _atom_site_label
 _atom_site_symmetry_multiplicity
 _atom_site_fract_x
 _atom_site_fract_y
 _atom_site_fract_z
 _atom_site_occupancy
  La  La0  1  0.896872  0.604705  0.858091  1
  La  La1  1  0.605182  0.898034  0.141763  1
  La  La2  1  0.103884  0.395720  0.359419  1
  Pu  Pu3  1  0.395273  0.103727  0.640746  1
  P  P4  1  0.415565  0.099451  0.998564  1
  P  P5  1  0.100465  0.415518  0.998390  1
  P  P6  1  0.582008  0.903972  0.502487  1
  P  P7  1  0.900263  0.583917  0.499668  1
  P  P8  1  0.272555  0.142944  0.267365  1
  P  P9  1  0.147657  0.271163  0.733443  1
  P  P10  1  0.727330  0.855278  0.765162  1
  P  P11  1  0.854660  0.727272  0.234462  1
  O  O12  1  0.479984  0.030155  0.100222  1
  O  O13  1  0.031524  0.479418  0.895558  1
  O  O14  1  0.517965  0.972561  0.606871  1
  O  O15  1  0.969006  0.519940  0.395980  1
  O  O16  1  0.231255  0.935987  0.903407  1
  O  O17  1  0.936008  0.232291  0.093886  1
  O  O18  1  0.766016  0.068418  0.407637  1
  O  O19  1  0.065430  0.767220  0.595534  1
  O  O20  1  0.571839  0.261307  0.886042  1
  O  O21  1  0.262843  0.572888  0.110539  1
  O  O22  1  0.424228  0.741856  0.390595  1
  O  O23  1  0.736235  0.425380  0.610587  1
  O  O24  1  0.087651  0.911431  0.248605  1
  O  O25  1  0.915206  0.086679  0.749023  1
  O  O26  1  0.799393  0.631575  0.398213  1
  O  O27  1  0.628431  0.801700  0.602854  1
  O  O28  1  0.202588  0.368483  0.896837  1
  O  O29  1  0.371159  0.201185  0.104191  1
  O  O30  1  0.752770  0.789235  0.214201  1
  O  O31  1  0.784194  0.748811  0.784280  1
  O  O32  1  0.250920  0.210694  0.712394  1
  O  O33  1  0.213114  0.246776  0.290375  1
  O  O34  1  0.823777  0.597942  0.115139  1
  O  O35  1  0.601228  0.828568  0.885523  1
  O  O36  1  0.177248  0.399438  0.614353  1
  O  O37  1  0.398276  0.168359  0.387593  1
