# generated using pymatgen
data_AlPCl8
_symmetry_space_group_name_H-M   'P 1'
_cell_length_a   7.24260630
_cell_length_b   7.42711595
_cell_length_c   7.18692996
_cell_angle_alpha   100.35725391
_cell_angle_beta   86.53642159
_cell_angle_gamma   97.50248144
_symmetry_Int_Tables_number   1
_chemical_formula_structural   AlPCl8
_chemical_formula_sum   'Al1 P1 Cl8'
_cell_volume   376.77155876
_cell_formula_units_Z   1
loop_
 _symmetry_equiv_pos_site_id
 _symmetry_equiv_pos_as_xyz
  1  'x, y, z'
loop_
 _atom_site_type_symbol
 _atom_site_label
 _atom_site_symmetry_multiplicity
 _atom_site_fract_x
 _atom_site_fract_y
 _atom_site_fract_z
 _atom_site_occupancy
  Al  Al0  1  0.358669  0.429788  0.659946  1
  P  P1  1  0.852696  0.784379  0.228147  1
  Cl  Cl2  1  0.924518  0.712001  0.459823  1
  Cl  Cl3  1  0.767079  0.567461  0.041958  1
  Cl  Cl4  1  0.259914  0.355684  0.376129  1
  Cl  Cl5  1  0.067525  0.924663  0.119553  1
  Cl  Cl6  1  0.407655  0.727375  0.734901  1
  Cl  Cl7  1  0.162028  0.321924  0.860899  1
  Cl  Cl8  1  0.621443  0.318987  0.665556  1
  Cl  Cl9  1  0.652756  0.942033  0.291324  1
