# generated using pymatgen
data_NdEr3(MoO6)2
_symmetry_space_group_name_H-M   'P 1'
_cell_length_a   5.39979000
_cell_length_b   7.72808180
_cell_length_c   11.48118627
_cell_angle_alpha   75.50321633
_cell_angle_beta   90.00000000
_cell_angle_gamma   90.00000000
_symmetry_Int_Tables_number   1
_chemical_formula_structural   NdEr3(MoO6)2
_chemical_formula_sum   'Nd2 Er6 Mo4 O24'
_cell_volume   463.85606469
_cell_formula_units_Z   2
loop_
 _symmetry_equiv_pos_site_id
 _symmetry_equiv_pos_as_xyz
  1  'x, y, z'
loop_
 _atom_site_type_symbol
 _atom_site_label
 _atom_site_symmetry_multiplicity
 _atom_site_fract_x
 _atom_site_fract_y
 _atom_site_fract_z
 _atom_site_occupancy
  Nd  Nd0  1  0.683613  0.500000  0.750000  1
  Nd  Nd1  1  0.316387  0.500000  0.250000  1
  Er  Er2  1  0.740007  0.000000  0.750000  1
  Er  Er3  1  0.259993  0.000000  0.250000  1
  Er  Er4  1  0.185871  0.801148  0.577452  1
  Er  Er5  1  0.814129  0.801148  0.077452  1
  Er  Er6  1  0.185871  0.198852  0.922548  1
  Er  Er7  1  0.814129  0.198852  0.422548  1
  Mo  Mo8  1  0.252747  0.725870  0.885780  1
  Mo  Mo9  1  0.747253  0.725870  0.385780  1
  Mo  Mo10  1  0.252747  0.274130  0.614220  1
  Mo  Mo11  1  0.747253  0.274130  0.114220  1
  O  O12  1  0.034739  0.941209  0.897025  1
  O  O13  1  0.529867  0.847571  0.930010  1
  O  O14  1  0.965261  0.941209  0.397025  1
  O  O15  1  0.461424  0.793354  0.724875  1
  O  O16  1  0.470133  0.847571  0.430010  1
  O  O17  1  0.988521  0.720535  0.768023  1
  O  O18  1  0.538576  0.793354  0.224875  1
  O  O19  1  0.854097  0.640713  0.546101  1
  O  O20  1  0.345221  0.492991  0.888430  1
  O  O21  1  0.011479  0.720535  0.268023  1
  O  O22  1  0.345221  0.507009  0.611570  1
  O  O23  1  0.854097  0.359287  0.953899  1
  O  O24  1  0.145903  0.640713  0.046101  1
  O  O25  1  0.654779  0.492991  0.388430  1
  O  O26  1  0.988521  0.279465  0.731977  1
  O  O27  1  0.654779  0.507009  0.111570  1
  O  O28  1  0.145903  0.359287  0.453899  1
  O  O29  1  0.461424  0.206646  0.775125  1
  O  O30  1  0.011479  0.279465  0.231977  1
  O  O31  1  0.529867  0.152429  0.569990  1
  O  O32  1  0.538576  0.206646  0.275125  1
  O  O33  1  0.034739  0.058791  0.602975  1
  O  O34  1  0.470133  0.152429  0.069990  1
  O  O35  1  0.965261  0.058791  0.102975  1
