# generated using pymatgen
data_Tm2Lu6B24Ir3Rh
_symmetry_space_group_name_H-M   'P 1'
_cell_length_a   3.58956500
_cell_length_b   9.08093388
_cell_length_c   11.41565219
_cell_angle_alpha   90.06294747
_cell_angle_beta   90.00000000
_cell_angle_gamma   90.00000000
_symmetry_Int_Tables_number   1
_chemical_formula_structural   Tm2Lu6B24Ir3Rh
_chemical_formula_sum   'Tm2 Lu6 B24 Ir3 Rh1'
_cell_volume   372.11125097
_cell_formula_units_Z   1
loop_
 _symmetry_equiv_pos_site_id
 _symmetry_equiv_pos_as_xyz
  1  'x, y, z'
loop_
 _atom_site_type_symbol
 _atom_site_label
 _atom_site_symmetry_multiplicity
 _atom_site_fract_x
 _atom_site_fract_y
 _atom_site_fract_z
 _atom_site_occupancy
  Tm  Tm0  1  0.500000  0.322153  0.413205  1
  Tm  Tm1  1  0.500000  0.678411  0.585641  1
  Lu  Lu2  1  0.500000  0.179536  0.913639  1
  Lu  Lu3  1  0.500000  0.820250  0.087454  1
  Lu  Lu4  1  0.500000  0.445161  0.126286  1
  Lu  Lu5  1  0.500000  0.555359  0.874707  1
  Lu  Lu6  1  0.500000  0.055418  0.625503  1
  Lu  Lu7  1  0.500000  0.943527  0.373894  1
  B  B8  1  0.000000  0.107187  0.470609  1
  B  B9  1  0.000000  0.892510  0.529134  1
  B  B10  1  0.000000  0.392066  0.970750  1
  B  B11  1  0.000000  0.608316  0.029487  1
  B  B12  1  0.000000  0.131810  0.316379  1
  B  B13  1  0.000000  0.868094  0.683193  1
  B  B14  1  0.000000  0.367647  0.817183  1
  B  B15  1  0.000000  0.632727  0.183056  1
  B  B16  1  0.000000  0.053854  0.065000  1
  B  B17  1  0.000000  0.946310  0.935016  1
  B  B18  1  0.000000  0.446147  0.565275  1
  B  B19  1  0.000000  0.553595  0.434815  1
  B  B20  1  0.000000  0.481510  0.286532  1
  B  B21  1  0.000000  0.518436  0.713810  1
  B  B22  1  0.000000  0.018861  0.786667  1
  B  B23  1  0.000000  0.981169  0.213282  1
  B  B24  1  0.000000  0.250684  0.078565  1
  B  B25  1  0.000000  0.749451  0.921610  1
  B  B26  1  0.000000  0.249477  0.578890  1
  B  B27  1  0.000000  0.750160  0.420661  1
  B  B28  1  0.000000  0.294685  0.235430  1
  B  B29  1  0.000000  0.705643  0.764608  1
  B  B30  1  0.000000  0.205264  0.736057  1
  B  B31  1  0.000000  0.794778  0.263456  1
  Ir  Ir32  1  0.500000  0.138936  0.178109  1
  Ir  Ir33  1  0.500000  0.861329  0.821614  1
  Ir  Ir34  1  0.500000  0.359870  0.680334  1
  Rh  Rh35  1  0.500000  0.639669  0.320149  1
