# generated using pymatgen
data_Nd8GaHg2Os
_symmetry_space_group_name_H-M   'P 1'
_cell_length_a   10.49046600
_cell_length_b   10.49632394
_cell_length_c   7.39411498
_cell_angle_alpha   89.84540376
_cell_angle_beta   90.00000000
_cell_angle_gamma   119.98154642
_symmetry_Int_Tables_number   1
_chemical_formula_structural   Nd8GaHg2Os
_chemical_formula_sum   'Nd16 Ga2 Hg4 Os2'
_cell_volume   705.22460727
_cell_formula_units_Z   2
loop_
 _symmetry_equiv_pos_site_id
 _symmetry_equiv_pos_as_xyz
  1  'x, y, z'
loop_
 _atom_site_type_symbol
 _atom_site_label
 _atom_site_symmetry_multiplicity
 _atom_site_fract_x
 _atom_site_fract_y
 _atom_site_fract_z
 _atom_site_occupancy
  Nd  Nd0  1  0.829711  0.659421  0.484045  1
  Nd  Nd1  1  0.340018  0.166818  0.484194  1
  Nd  Nd2  1  0.826801  0.166818  0.484194  1
  Nd  Nd3  1  0.171358  0.342717  0.982590  1
  Nd  Nd4  1  0.658181  0.829918  0.980761  1
  Nd  Nd5  1  0.171736  0.829918  0.980761  1
  Nd  Nd6  1  0.666620  0.333239  0.179520  1
  Nd  Nd7  1  0.336346  0.672694  0.670500  1
  Nd  Nd8  1  0.537952  0.075903  0.792662  1
  Nd  Nd9  1  0.926516  0.464616  0.790132  1
  Nd  Nd10  1  0.538102  0.464616  0.790132  1
  Nd  Nd11  1  0.459547  0.919096  0.295512  1
  Nd  Nd12  1  0.078934  0.540953  0.293604  1
  Nd  Nd13  1  0.462018  0.540953  0.293604  1
  Nd  Nd14  1  0.996041  0.992082  0.772438  1
  Nd  Nd15  1  0.997330  0.994661  0.277804  1
  Ga  Ga16  1  0.669395  0.833072  0.546695  1
  Ga  Ga17  1  0.163675  0.833072  0.546695  1
  Hg  Hg18  1  0.831953  0.663905  0.043574  1
  Hg  Hg19  1  0.335880  0.168278  0.045030  1
  Hg  Hg20  1  0.832400  0.168278  0.045030  1
  Hg  Hg21  1  0.168305  0.336613  0.545694  1
  Os  Os22  1  0.667152  0.334304  0.553492  1
  Os  Os23  1  0.334027  0.668055  0.047579  1
