# generated using pymatgen
data_Pr3ZnNi3
_symmetry_space_group_name_H-M   'P 1'
_cell_length_a   4.25033300
_cell_length_b   5.52323031
_cell_length_c   13.61950000
_cell_angle_alpha   90.00000000
_cell_angle_beta   90.00000000
_cell_angle_gamma   67.37063124
_symmetry_Int_Tables_number   1
_chemical_formula_structural   Pr3ZnNi3
_chemical_formula_sum   'Pr6 Zn2 Ni6'
_cell_volume   295.11082810
_cell_formula_units_Z   2
loop_
 _symmetry_equiv_pos_site_id
 _symmetry_equiv_pos_as_xyz
  1  'x, y, z'
loop_
 _atom_site_type_symbol
 _atom_site_label
 _atom_site_symmetry_multiplicity
 _atom_site_fract_x
 _atom_site_fract_y
 _atom_site_fract_z
 _atom_site_occupancy
  Pr  Pr0  1  0.711171  0.577656  0.103265  1
  Pr  Pr1  1  0.995680  0.008637  0.250000  1
  Pr  Pr2  1  0.711171  0.577656  0.396735  1
  Pr  Pr3  1  0.288829  0.422343  0.603265  1
  Pr  Pr4  1  0.004319  0.991363  0.750000  1
  Pr  Pr5  1  0.288829  0.422343  0.896735  1
  Zn  Zn6  1  0.000000  0.000000  0.000000  1
  Zn  Zn7  1  0.000000  0.000000  0.500000  1
  Ni  Ni8  1  0.421033  0.157936  0.088356  1
  Ni  Ni9  1  0.294359  0.411282  0.250000  1
  Ni  Ni10  1  0.421033  0.157936  0.411643  1
  Ni  Ni11  1  0.578967  0.842064  0.588357  1
  Ni  Ni12  1  0.705640  0.588717  0.750000  1
  Ni  Ni13  1  0.578967  0.842064  0.911644  1
