# generated using pymatgen
data_Nd4DyEr3(ReB6)4
_symmetry_space_group_name_H-M   'P 1'
_cell_length_a   3.72397000
_cell_length_b   9.24160102
_cell_length_c   11.70150102
_cell_angle_alpha   90.00677341
_cell_angle_beta   90.00000000
_cell_angle_gamma   90.00000000
_symmetry_Int_Tables_number   1
_chemical_formula_structural   Nd4DyEr3(ReB6)4
_chemical_formula_sum   'Nd4 Dy1 Er3 Re4 B24'
_cell_volume   402.71236122
_cell_formula_units_Z   1
loop_
 _symmetry_equiv_pos_site_id
 _symmetry_equiv_pos_as_xyz
  1  'x, y, z'
loop_
 _atom_site_type_symbol
 _atom_site_label
 _atom_site_symmetry_multiplicity
 _atom_site_fract_x
 _atom_site_fract_y
 _atom_site_fract_z
 _atom_site_occupancy
  Nd  Nd0  1  0.000000  0.322755  0.414334  1
  Nd  Nd1  1  0.000000  0.677140  0.585781  1
  Nd  Nd2  1  0.000000  0.822610  0.085511  1
  Nd  Nd3  1  0.000000  0.177374  0.914293  1
  Dy  Dy4  1  0.000000  0.943173  0.369708  1
  Er  Er5  1  0.000000  0.057093  0.630991  1
  Er  Er6  1  0.000000  0.443055  0.130392  1
  Er  Er7  1  0.000000  0.556934  0.869471  1
  Re  Re8  1  0.000000  0.639020  0.318870  1
  Re  Re9  1  0.000000  0.360372  0.681184  1
  Re  Re10  1  0.000000  0.140164  0.180597  1
  Re  Re11  1  0.000000  0.860191  0.819066  1
  B  B12  1  0.500000  0.554891  0.430401  1
  B  B13  1  0.500000  0.444755  0.569709  1
  B  B14  1  0.500000  0.055234  0.069433  1
  B  B15  1  0.500000  0.944834  0.930308  1
  B  B16  1  0.500000  0.749348  0.415701  1
  B  B17  1  0.500000  0.249764  0.584272  1
  B  B18  1  0.500000  0.250394  0.084085  1
  B  B19  1  0.500000  0.749743  0.915764  1
  B  B20  1  0.500000  0.791104  0.265811  1
  B  B21  1  0.500000  0.208279  0.734055  1
  B  B22  1  0.500000  0.292132  0.233930  1
  B  B23  1  0.500000  0.708166  0.765986  1
  B  B24  1  0.500000  0.629257  0.185907  1
  B  B25  1  0.500000  0.370556  0.813912  1
  B  B26  1  0.500000  0.130096  0.313430  1
  B  B27  1  0.500000  0.870529  0.686161  1
  B  B28  1  0.500000  0.984283  0.212853  1
  B  B29  1  0.500000  0.016138  0.786727  1
  B  B30  1  0.500000  0.483611  0.286581  1
  B  B31  1  0.500000  0.516222  0.713334  1
  B  B32  1  0.500000  0.595816  0.026441  1
  B  B33  1  0.500000  0.404204  0.973492  1
  B  B34  1  0.500000  0.096629  0.474208  1
  B  B35  1  0.500000  0.904134  0.527304  1
