# generated using pymatgen
data_Pr3Y3RuI10
_symmetry_space_group_name_H-M   'P 1'
_cell_length_a   7.88032720
_cell_length_b   9.92614009
_cell_length_c   9.94942591
_cell_angle_alpha   107.18765013
_cell_angle_beta   96.16539021
_cell_angle_gamma   104.92878265
_symmetry_Int_Tables_number   1
_chemical_formula_structural   Pr3Y3RuI10
_chemical_formula_sum   'Pr3 Y3 Ru1 I10'
_cell_volume   704.06396035
_cell_formula_units_Z   1
loop_
 _symmetry_equiv_pos_site_id
 _symmetry_equiv_pos_as_xyz
  1  'x, y, z'
loop_
 _atom_site_type_symbol
 _atom_site_label
 _atom_site_symmetry_multiplicity
 _atom_site_fract_x
 _atom_site_fract_y
 _atom_site_fract_z
 _atom_site_occupancy
  Pr  Pr0  1  0.115613  0.042122  0.758655  1
  Pr  Pr1  1  0.881817  0.957118  0.239865  1
  Pr  Pr2  1  0.969398  0.285038  0.084692  1
  Y  Y3  1  0.647789  0.871450  0.832974  1
  Y  Y4  1  0.352038  0.124456  0.166387  1
  Y  Y5  1  0.030837  0.724054  0.917570  1
  Ru  Ru6  1  0.999442  0.000878  0.000055  1
  I  I7  1  0.359148  0.446123  0.272729  1
  I  I8  1  0.657222  0.555046  0.732486  1
  I  I9  1  0.732504  0.910007  0.545132  1
  I  I10  1  0.087511  0.376139  0.817537  1
  I  I11  1  0.916716  0.630239  0.174773  1
  I  I12  1  0.446958  0.816603  0.086147  1
  I  I13  1  0.546109  0.178322  0.909967  1
  I  I14  1  0.769526  0.256713  0.347233  1
  I  I15  1  0.223476  0.738320  0.659460  1
  I  I16  1  0.263895  0.087372  0.454338  1
