# generated using pymatgen
data_PrNdTaIr3
_symmetry_space_group_name_H-M   'P 1'
_cell_length_a   5.32611224
_cell_length_b   5.32611053
_cell_length_c   5.32611160
_cell_angle_alpha   65.93585852
_cell_angle_beta   65.93588314
_cell_angle_gamma   65.93586988
_symmetry_Int_Tables_number   1
_chemical_formula_structural   PrNdTaIr3
_chemical_formula_sum   'Pr1 Nd1 Ta1 Ir3'
_cell_volume   120.56730499
_cell_formula_units_Z   1
loop_
 _symmetry_equiv_pos_site_id
 _symmetry_equiv_pos_as_xyz
  1  'x, y, z'
loop_
 _atom_site_type_symbol
 _atom_site_label
 _atom_site_symmetry_multiplicity
 _atom_site_fract_x
 _atom_site_fract_y
 _atom_site_fract_z
 _atom_site_occupancy
  Pr  Pr0  1  0.000755  0.000755  0.000755  1
  Nd  Nd1  1  0.249915  0.249915  0.249915  1
  Ta  Ta2  1  0.624889  0.624889  0.624889  1
  Ir  Ir3  1  0.624695  0.624695  0.125053  1
  Ir  Ir4  1  0.624695  0.125053  0.624695  1
  Ir  Ir5  1  0.125053  0.624695  0.624695  1
