# generated using pymatgen
data_La2SmY3RuI10
_symmetry_space_group_name_H-M   'P 1'
_cell_length_a   7.90968089
_cell_length_b   10.01374970
_cell_length_c   9.85757817
_cell_angle_alpha   106.58648962
_cell_angle_beta   95.60120827
_cell_angle_gamma   105.33896788
_symmetry_Int_Tables_number   1
_chemical_formula_structural   La2SmY3RuI10
_chemical_formula_sum   'La2 Sm1 Y3 Ru1 I10'
_cell_volume   708.85962789
_cell_formula_units_Z   1
loop_
 _symmetry_equiv_pos_site_id
 _symmetry_equiv_pos_as_xyz
  1  'x, y, z'
loop_
 _atom_site_type_symbol
 _atom_site_label
 _atom_site_symmetry_multiplicity
 _atom_site_fract_x
 _atom_site_fract_y
 _atom_site_fract_z
 _atom_site_occupancy
  La  La0  1  0.113309  0.042510  0.770437  1
  La  La1  1  0.885914  0.957080  0.229014  1
  Sm  Sm2  1  0.969374  0.291404  0.087985  1
  Y  Y3  1  0.647475  0.871495  0.832057  1
  Y  Y4  1  0.352581  0.126499  0.167661  1
  Y  Y5  1  0.030097  0.712153  0.912916  1
  Ru  Ru6  1  0.000001  0.000036  0.999859  1
  I  I7  1  0.351475  0.443950  0.269999  1
  I  I8  1  0.655266  0.555884  0.731909  1
  I  I9  1  0.732344  0.910064  0.544472  1
  I  I10  1  0.085238  0.378715  0.820995  1
  I  I11  1  0.916746  0.625570  0.175463  1
  I  I12  1  0.448755  0.818963  0.088080  1
  I  I13  1  0.548689  0.178935  0.910428  1
  I  I14  1  0.771187  0.258428  0.344425  1
  I  I15  1  0.225202  0.739451  0.658826  1
  I  I16  1  0.266344  0.088861  0.455475  1
