# generated using pymatgen
data_Ho4Ga2SiGe
_symmetry_space_group_name_H-M   'P 1'
_cell_length_a   3.96407300
_cell_length_b   4.29563600
_cell_length_c   10.70681700
_cell_angle_alpha   90.00000000
_cell_angle_beta   90.00000000
_cell_angle_gamma   90.00000000
_symmetry_Int_Tables_number   1
_chemical_formula_structural   Ho4Ga2SiGe
_chemical_formula_sum   'Ho4 Ga2 Si1 Ge1'
_cell_volume   182.31797847
_cell_formula_units_Z   1
loop_
 _symmetry_equiv_pos_site_id
 _symmetry_equiv_pos_as_xyz
  1  'x, y, z'
loop_
 _atom_site_type_symbol
 _atom_site_label
 _atom_site_symmetry_multiplicity
 _atom_site_fract_x
 _atom_site_fract_y
 _atom_site_fract_z
 _atom_site_occupancy
  Ho  Ho0  1  0.000000  0.000000  0.138773  1
  Ho  Ho1  1  0.000000  0.500000  0.640168  1
  Ho  Ho2  1  0.500000  0.500000  0.358239  1
  Ho  Ho3  1  0.500000  0.000000  0.861908  1
  Ga  Ga4  1  0.000000  0.500000  0.925657  1
  Ga  Ga5  1  0.500000  0.000000  0.579210  1
  Si  Si6  1  0.500000  0.500000  0.078367  1
  Ge  Ge7  1  0.000000  0.000000  0.417680  1
