# generated using pymatgen
data_Ca2Zn2PdRh
_symmetry_space_group_name_H-M   'P 1'
_cell_length_a   4.37718500
_cell_length_b   7.13177593
_cell_length_c   7.73878781
_cell_angle_alpha   89.68060366
_cell_angle_beta   90.00000000
_cell_angle_gamma   90.00000000
_symmetry_Int_Tables_number   1
_chemical_formula_structural   Ca2Zn2PdRh
_chemical_formula_sum   'Ca4 Zn4 Pd2 Rh2'
_cell_volume   241.57877980
_cell_formula_units_Z   2
loop_
 _symmetry_equiv_pos_site_id
 _symmetry_equiv_pos_as_xyz
  1  'x, y, z'
loop_
 _atom_site_type_symbol
 _atom_site_label
 _atom_site_symmetry_multiplicity
 _atom_site_fract_x
 _atom_site_fract_y
 _atom_site_fract_z
 _atom_site_occupancy
  Ca  Ca0  1  0.250000  0.509177  0.186538  1
  Ca  Ca1  1  0.750000  0.490823  0.813462  1
  Ca  Ca2  1  0.750000  0.987939  0.696697  1
  Ca  Ca3  1  0.250000  0.012061  0.303303  1
  Zn  Zn4  1  0.250000  0.669394  0.585161  1
  Zn  Zn5  1  0.750000  0.330606  0.414839  1
  Zn  Zn6  1  0.750000  0.834469  0.073741  1
  Zn  Zn7  1  0.250000  0.165531  0.926259  1
  Pd  Pd8  1  0.750000  0.707228  0.397389  1
  Pd  Pd9  1  0.250000  0.292772  0.602611  1
  Rh  Rh10  1  0.250000  0.797978  0.897427  1
  Rh  Rh11  1  0.750000  0.202022  0.102573  1
