# generated using pymatgen
data_Zr2PaTi3(GaPt)6
_symmetry_space_group_name_H-M   'P 1'
_cell_length_a   7.14608300
_cell_length_b   7.12771346
_cell_length_c   6.91241200
_cell_angle_alpha   90.00000000
_cell_angle_beta   90.00000000
_cell_angle_gamma   120.05597950
_symmetry_Int_Tables_number   1
_chemical_formula_structural   Zr2PaTi3(GaPt)6
_chemical_formula_sum   'Zr2 Pa1 Ti3 Ga6 Pt6'
_cell_volume   304.74267792
_cell_formula_units_Z   1
loop_
 _symmetry_equiv_pos_site_id
 _symmetry_equiv_pos_as_xyz
  1  'x, y, z'
loop_
 _atom_site_type_symbol
 _atom_site_label
 _atom_site_symmetry_multiplicity
 _atom_site_fract_x
 _atom_site_fract_y
 _atom_site_fract_z
 _atom_site_occupancy
  Zr  Zr0  1  0.400953  0.402123  0.250000  1
  Zr  Zr1  1  0.997412  0.597191  0.250000  1
  Pa  Pa2  1  0.595052  0.999723  0.250000  1
  Ti  Ti3  1  0.620066  0.999950  0.750000  1
  Ti  Ti4  1  0.379464  0.381252  0.750000  1
  Ti  Ti5  1  0.998740  0.618941  0.750000  1
  Ga  Ga6  1  0.266604  0.999910  0.983331  1
  Ga  Ga7  1  0.266604  0.999910  0.516669  1
  Ga  Ga8  1  0.007632  0.279435  0.510422  1
  Ga  Ga9  1  0.007632  0.279435  0.989578  1
  Ga  Ga10  1  0.728295  0.720883  0.989344  1
  Ga  Ga11  1  0.728295  0.720883  0.510656  1
  Pt  Pt12  1  0.667152  0.330701  0.537314  1
  Pt  Pt13  1  0.995067  0.000165  0.750000  1
  Pt  Pt14  1  0.667152  0.330701  0.962686  1
  Pt  Pt15  1  0.336633  0.669362  0.962937  1
  Pt  Pt16  1  0.336633  0.669362  0.537063  1
  Pt  Pt17  1  0.000610  0.000072  0.250000  1
