# generated using pymatgen
data_LuTh2(InRh)3
_symmetry_space_group_name_H-M   'P 1'
_cell_length_a   7.60573300
_cell_length_b   7.71222380
_cell_length_c   3.91449800
_cell_angle_alpha   90.00000000
_cell_angle_beta   90.00000000
_cell_angle_gamma   119.54427911
_symmetry_Int_Tables_number   1
_chemical_formula_structural   LuTh2(InRh)3
_chemical_formula_sum   'Lu1 Th2 In3 Rh3'
_cell_volume   199.75768170
_cell_formula_units_Z   1
loop_
 _symmetry_equiv_pos_site_id
 _symmetry_equiv_pos_as_xyz
  1  'x, y, z'
loop_
 _atom_site_type_symbol
 _atom_site_label
 _atom_site_symmetry_multiplicity
 _atom_site_fract_x
 _atom_site_fract_y
 _atom_site_fract_z
 _atom_site_occupancy
  Lu  Lu0  1  0.407135  0.000000  0.500000  1
  Th  Th1  1  0.001932  0.413943  0.500000  1
  Th  Th2  1  0.587990  0.586057  0.500000  1
  In  In3  1  0.253708  0.238821  0.000000  1
  In  In4  1  0.014886  0.761179  0.000000  1
  In  In5  1  0.731725  0.000000  0.000000  1
  Rh  Rh6  1  0.331082  0.649297  0.000000  1
  Rh  Rh7  1  0.989753  0.000000  0.500000  1
  Rh  Rh8  1  0.681787  0.350703  0.000000  1
