# generated using pymatgen
data_Tm4NbMoOs6
_symmetry_space_group_name_H-M   'P 1'
_cell_length_a   5.46547100
_cell_length_b   5.46534965
_cell_length_c   8.57458100
_cell_angle_alpha   89.99734596
_cell_angle_beta   90.00094752
_cell_angle_gamma   120.00005525
_symmetry_Int_Tables_number   1
_chemical_formula_structural   Tm4NbMoOs6
_chemical_formula_sum   'Tm4 Nb1 Mo1 Os6'
_cell_volume   221.81394343
_cell_formula_units_Z   1
loop_
 _symmetry_equiv_pos_site_id
 _symmetry_equiv_pos_as_xyz
  1  'x, y, z'
loop_
 _atom_site_type_symbol
 _atom_site_label
 _atom_site_symmetry_multiplicity
 _atom_site_fract_x
 _atom_site_fract_y
 _atom_site_fract_z
 _atom_site_occupancy
  Tm  Tm0  1  0.666651  0.333317  0.567720  1
  Tm  Tm1  1  0.333349  0.666683  0.432280  1
  Tm  Tm2  1  0.333351  0.666667  0.062706  1
  Tm  Tm3  1  0.666649  0.333333  0.937294  1
  Nb  Nb4  1  0.000000  0.000000  0.500000  1
  Mo  Mo5  1  0.000000  0.000000  0.000000  1
  Os  Os6  1  0.173439  0.346929  0.752141  1
  Os  Os7  1  0.173417  0.826540  0.752179  1
  Os  Os8  1  0.653134  0.826568  0.752144  1
  Os  Os9  1  0.826561  0.653071  0.247859  1
  Os  Os10  1  0.826583  0.173460  0.247821  1
  Os  Os11  1  0.346866  0.173432  0.247856  1
