# generated using pymatgen
data_Tm5Co(P2Ru3)6
_symmetry_space_group_name_H-M   'P 1'
_cell_length_a   12.44597500
_cell_length_b   12.44597480
_cell_length_c   3.95145600
_cell_angle_alpha   90.00000000
_cell_angle_beta   90.00000000
_cell_angle_gamma   120.00000320
_symmetry_Int_Tables_number   1
_chemical_formula_structural   Tm5Co(P2Ru3)6
_chemical_formula_sum   'Tm5 Co1 P12 Ru18'
_cell_volume   530.08511532
_cell_formula_units_Z   1
loop_
 _symmetry_equiv_pos_site_id
 _symmetry_equiv_pos_as_xyz
  1  'x, y, z'
loop_
 _atom_site_type_symbol
 _atom_site_label
 _atom_site_symmetry_multiplicity
 _atom_site_fract_x
 _atom_site_fract_y
 _atom_site_fract_z
 _atom_site_occupancy
  Tm  Tm0  1  0.666667  0.333333  0.000000  1
  Tm  Tm1  1  0.333333  0.666667  0.000000  1
  Tm  Tm2  1  0.182438  0.182438  0.500000  1
  Tm  Tm3  1  0.817562  0.000000  0.500000  1
  Tm  Tm4  1  0.000000  0.817562  0.500000  1
  Co  Co5  1  0.000000  0.000000  0.000000  1
  P  P6  1  0.372147  0.372147  0.000000  1
  P  P7  1  0.627853  0.000000  0.000000  1
  P  P8  1  0.000000  0.627853  0.000000  1
  P  P9  1  0.830532  0.307185  0.500000  1
  P  P10  1  0.692815  0.523348  0.500000  1
  P  P11  1  0.476652  0.169468  0.500000  1
  P  P12  1  0.307185  0.830532  0.500000  1
  P  P13  1  0.523348  0.692815  0.500000  1
  P  P14  1  0.169468  0.476652  0.500000  1
  P  P15  1  0.823857  0.823857  0.000000  1
  P  P16  1  0.176143  0.000000  0.000000  1
  P  P17  1  0.000000  0.176143  0.000000  1
  Ru  Ru18  1  0.815870  0.190328  0.000000  1
  Ru  Ru19  1  0.809672  0.625542  0.000000  1
  Ru  Ru20  1  0.374458  0.184130  0.000000  1
  Ru  Ru21  1  0.190328  0.815870  0.000000  1
  Ru  Ru22  1  0.625542  0.809672  0.000000  1
  Ru  Ru23  1  0.184130  0.374458  0.000000  1
  Ru  Ru24  1  0.555907  0.555907  0.000000  1
  Ru  Ru25  1  0.444093  0.000000  0.000000  1
  Ru  Ru26  1  0.000000  0.444093  0.000000  1
  Ru  Ru27  1  0.635258  0.126835  0.500000  1
  Ru  Ru28  1  0.873165  0.508424  0.500000  1
  Ru  Ru29  1  0.491576  0.364742  0.500000  1
  Ru  Ru30  1  0.126835  0.635258  0.500000  1
  Ru  Ru31  1  0.508424  0.873165  0.500000  1
  Ru  Ru32  1  0.364742  0.491576  0.500000  1
  Ru  Ru33  1  0.721538  0.721538  0.500000  1
  Ru  Ru34  1  0.278462  0.000000  0.500000  1
  Ru  Ru35  1  0.000000  0.278462  0.500000  1
