# generated using pymatgen
data_Tm5Fe3(P3Ru4)4
_symmetry_space_group_name_H-M   'P 1'
_cell_length_a   12.44863800
_cell_length_b   12.44863872
_cell_length_c   3.87709600
_cell_angle_alpha   90.00000000
_cell_angle_beta   90.00000000
_cell_angle_gamma   120.00000341
_symmetry_Int_Tables_number   1
_chemical_formula_structural   Tm5Fe3(P3Ru4)4
_chemical_formula_sum   'Tm5 Fe3 P12 Ru16'
_cell_volume   520.33240378
_cell_formula_units_Z   1
loop_
 _symmetry_equiv_pos_site_id
 _symmetry_equiv_pos_as_xyz
  1  'x, y, z'
loop_
 _atom_site_type_symbol
 _atom_site_label
 _atom_site_symmetry_multiplicity
 _atom_site_fract_x
 _atom_site_fract_y
 _atom_site_fract_z
 _atom_site_occupancy
  Tm  Tm0  1  0.000000  0.181548  0.500000  1
  Tm  Tm1  1  0.818452  0.818452  0.500000  1
  Tm  Tm2  1  0.181548  0.000000  0.500000  1
  Tm  Tm3  1  0.666667  0.333333  0.000000  1
  Tm  Tm4  1  0.333333  0.666667  0.000000  1
  Fe  Fe5  1  0.000000  0.716950  0.500000  1
  Fe  Fe6  1  0.283050  0.283050  0.500000  1
  Fe  Fe7  1  0.716950  0.000000  0.500000  1
  P  P8  1  0.000000  0.813934  0.000000  1
  P  P9  1  0.186066  0.186066  0.000000  1
  P  P10  1  0.813934  0.000000  0.000000  1
  P  P11  1  0.689807  0.163197  0.500000  1
  P  P12  1  0.836803  0.526609  0.500000  1
  P  P13  1  0.473391  0.310193  0.500000  1
  P  P14  1  0.163197  0.689807  0.500000  1
  P  P15  1  0.526609  0.836803  0.500000  1
  P  P16  1  0.310193  0.473391  0.500000  1
  P  P17  1  0.000000  0.372867  0.000000  1
  P  P18  1  0.627133  0.627133  0.000000  1
  P  P19  1  0.372867  0.000000  0.000000  1
  Ru  Ru20  1  0.000000  0.558025  0.000000  1
  Ru  Ru21  1  0.441975  0.441975  0.000000  1
  Ru  Ru22  1  0.558025  0.000000  0.000000  1
  Ru  Ru23  1  0.807313  0.181903  0.000000  1
  Ru  Ru24  1  0.818097  0.625411  0.000000  1
  Ru  Ru25  1  0.374589  0.192687  0.000000  1
  Ru  Ru26  1  0.181903  0.807313  0.000000  1
  Ru  Ru27  1  0.625411  0.818097  0.000000  1
  Ru  Ru28  1  0.192687  0.374589  0.000000  1
  Ru  Ru29  1  0.873119  0.363168  0.500000  1
  Ru  Ru30  1  0.636832  0.509952  0.500000  1
  Ru  Ru31  1  0.490048  0.126881  0.500000  1
  Ru  Ru32  1  0.363168  0.873119  0.500000  1
  Ru  Ru33  1  0.509952  0.636832  0.500000  1
  Ru  Ru34  1  0.126881  0.490048  0.500000  1
  Ru  Ru35  1  0.000000  0.000000  0.000000  1
