# generated using pymatgen
data_Hf7Zr3Zn2(SnSb)3
_symmetry_space_group_name_H-M   'P 1'
_cell_length_a   8.64840900
_cell_length_b   8.64124520
_cell_length_c   5.81809900
_cell_angle_alpha   90.00000000
_cell_angle_beta   90.00000000
_cell_angle_gamma   120.02742385
_symmetry_Int_Tables_number   1
_chemical_formula_structural   Hf7Zr3Zn2(SnSb)3
_chemical_formula_sum   'Hf7 Zr3 Zn2 Sn3 Sb3'
_cell_volume   376.44731828
_cell_formula_units_Z   1
loop_
 _symmetry_equiv_pos_site_id
 _symmetry_equiv_pos_as_xyz
  1  'x, y, z'
loop_
 _atom_site_type_symbol
 _atom_site_label
 _atom_site_symmetry_multiplicity
 _atom_site_fract_x
 _atom_site_fract_y
 _atom_site_fract_z
 _atom_site_occupancy
  Hf  Hf0  1  0.999924  0.730892  0.750000  1
  Hf  Hf1  1  0.269032  0.269108  0.750000  1
  Hf  Hf2  1  0.269018  0.000000  0.250000  1
  Hf  Hf3  1  0.333094  0.666612  0.499927  1
  Hf  Hf4  1  0.666483  0.333388  0.000073  1
  Hf  Hf5  1  0.666483  0.333388  0.499927  1
  Hf  Hf6  1  0.333094  0.666612  0.000073  1
  Zr  Zr7  1  0.730875  0.731166  0.250000  1
  Zr  Zr8  1  0.731015  0.000000  0.750000  1
  Zr  Zr9  1  0.999710  0.268834  0.250000  1
  Zn  Zn10  1  0.002755  0.000000  0.999913  1
  Zn  Zn11  1  0.002755  0.000000  0.500087  1
  Sn  Sn12  1  0.383033  0.000000  0.750000  1
  Sn  Sn13  1  0.384381  0.383477  0.250000  1
  Sn  Sn14  1  0.000903  0.616523  0.250000  1
  Sb  Sb15  1  0.001159  0.387451  0.750000  1
  Sb  Sb16  1  0.613708  0.612549  0.750000  1
  Sb  Sb17  1  0.612580  0.000000  0.250000  1
