# generated using pymatgen
data_Er3ThAl12(GaIr)6
_symmetry_space_group_name_H-M   'P 1'
_cell_length_a   7.55071387
_cell_length_b   7.56091023
_cell_length_c   9.55934000
_cell_angle_alpha   90.00000000
_cell_angle_beta   90.00000000
_cell_angle_gamma   119.75844853
_symmetry_Int_Tables_number   1
_chemical_formula_structural   Er3ThAl12(GaIr)6
_chemical_formula_sum   'Er3 Th1 Al12 Ga6 Ir6'
_cell_volume   473.77548459
_cell_formula_units_Z   1
loop_
 _symmetry_equiv_pos_site_id
 _symmetry_equiv_pos_as_xyz
  1  'x, y, z'
loop_
 _atom_site_type_symbol
 _atom_site_label
 _atom_site_symmetry_multiplicity
 _atom_site_fract_x
 _atom_site_fract_y
 _atom_site_fract_z
 _atom_site_occupancy
  Er  Er0  1  0.002328  0.330969  0.250000  1
  Er  Er1  1  0.670221  0.997298  0.750000  1
  Er  Er2  1  0.330501  0.002415  0.250000  1
  Th  Th3  1  0.997129  0.668987  0.750000  1
  Al  Al4  1  0.001657  0.329577  0.569945  1
  Al  Al5  1  0.998509  0.665527  0.420224  1
  Al  Al6  1  0.998509  0.665527  0.079776  1
  Al  Al7  1  0.339075  0.005734  0.930056  1
  Al  Al8  1  0.001657  0.329577  0.930055  1
  Al  Al9  1  0.665734  0.999586  0.074381  1
  Al  Al10  1  0.665734  0.999586  0.425619  1
  Al  Al11  1  0.339075  0.005734  0.569944  1
  Al  Al12  1  0.333267  0.333154  0.061484  1
  Al  Al13  1  0.661809  0.665788  0.947518  1
  Al  Al14  1  0.661809  0.665788  0.552482  1
  Al  Al15  1  0.333267  0.333154  0.438516  1
  Ga  Ga16  1  0.129392  0.132543  0.750000  1
  Ga  Ga17  1  0.873896  0.876301  0.250000  1
  Ga  Ga18  1  0.343840  0.547317  0.750000  1
  Ga  Ga19  1  0.659179  0.450000  0.250000  1
  Ga  Ga20  1  0.541521  0.334642  0.750000  1
  Ga  Ga21  1  0.451556  0.662159  0.250000  1
  Ir  Ir22  1  0.673200  0.329644  0.500561  1
  Ir  Ir23  1  0.326464  0.671143  0.500398  1
  Ir  Ir24  1  0.326464  0.671143  0.999602  1
  Ir  Ir25  1  0.673200  0.329644  0.999439  1
  Ir  Ir26  1  0.000503  0.998533  0.500807  1
  Ir  Ir27  1  0.000503  0.998533  0.999193  1
