# generated using pymatgen
data_Tb10Si5Sb
_symmetry_space_group_name_H-M   'P 1'
_cell_length_a   8.56462500
_cell_length_b   8.59907151
_cell_length_c   6.40025800
_cell_angle_alpha   90.00000000
_cell_angle_beta   90.00000000
_cell_angle_gamma   119.86757223
_symmetry_Int_Tables_number   1
_chemical_formula_structural   Tb10Si5Sb
_chemical_formula_sum   'Tb10 Si5 Sb1'
_cell_volume   408.75776526
_cell_formula_units_Z   1
loop_
 _symmetry_equiv_pos_site_id
 _symmetry_equiv_pos_as_xyz
  1  'x, y, z'
loop_
 _atom_site_type_symbol
 _atom_site_label
 _atom_site_symmetry_multiplicity
 _atom_site_fract_x
 _atom_site_fract_y
 _atom_site_fract_z
 _atom_site_occupancy
  Tb  Tb0  1  0.987929  0.746983  0.750000  1
  Tb  Tb1  1  0.999070  0.244088  0.250000  1
  Tb  Tb2  1  0.754982  0.755912  0.250000  1
  Tb  Tb3  1  0.764480  0.000000  0.750000  1
  Tb  Tb4  1  0.240946  0.253017  0.750000  1
  Tb  Tb5  1  0.241869  0.000000  0.250000  1
  Tb  Tb6  1  0.331653  0.657356  0.496260  1
  Tb  Tb7  1  0.674298  0.342644  0.003740  1
  Tb  Tb8  1  0.674298  0.342644  0.496260  1
  Tb  Tb9  1  0.331653  0.657356  0.003740  1
  Si  Si10  1  0.393117  0.391342  0.250000  1
  Si  Si11  1  0.001775  0.608658  0.250000  1
  Si  Si12  1  0.999058  0.393875  0.750000  1
  Si  Si13  1  0.605183  0.606125  0.750000  1
  Si  Si14  1  0.607395  0.000000  0.250000  1
  Sb  Sb15  1  0.392292  0.000000  0.750000  1
