# generated using pymatgen
data_U3Sb4Pt2Rh
_symmetry_space_group_name_H-M   'P 1'
_cell_length_a   8.40968396
_cell_length_b   8.40968418
_cell_length_c   8.40968524
_cell_angle_alpha   109.44384740
_cell_angle_beta   109.48490672
_cell_angle_gamma   109.48491125
_symmetry_Int_Tables_number   1
_chemical_formula_structural   U3Sb4Pt2Rh
_chemical_formula_sum   'U6 Sb8 Pt4 Rh2'
_cell_volume   457.84358935
_cell_formula_units_Z   2
loop_
 _symmetry_equiv_pos_site_id
 _symmetry_equiv_pos_as_xyz
  1  'x, y, z'
loop_
 _atom_site_type_symbol
 _atom_site_label
 _atom_site_symmetry_multiplicity
 _atom_site_fract_x
 _atom_site_fract_y
 _atom_site_fract_z
 _atom_site_occupancy
  U  U0  1  0.377440  0.250000  0.627440  1
  U  U1  1  0.122560  0.750000  0.872560  1
  U  U2  1  0.622560  0.372560  0.250000  1
  U  U3  1  0.877440  0.127440  0.750000  1
  U  U4  1  0.250000  0.625000  0.375000  1
  U  U5  1  0.750000  0.875000  0.125000  1
  Sb  Sb6  1  0.497383  0.002027  0.822982  1
  Sb  Sb7  1  0.820955  0.497973  0.995356  1
  Sb  Sb8  1  0.002617  0.825600  0.504644  1
  Sb  Sb9  1  0.679045  0.674400  0.677018  1
  Sb  Sb10  1  0.320955  0.495356  0.997973  1
  Sb  Sb11  1  0.502617  0.004644  0.325600  1
  Sb  Sb12  1  0.997383  0.322982  0.502027  1
  Sb  Sb13  1  0.179045  0.177018  0.174400  1
  Pt  Pt14  1  0.875334  0.250000  0.125334  1
  Pt  Pt15  1  0.624666  0.750000  0.374666  1
  Pt  Pt16  1  0.124666  0.874666  0.250000  1
  Pt  Pt17  1  0.375334  0.625334  0.750000  1
  Rh  Rh18  1  0.250000  0.125000  0.875000  1
  Rh  Rh19  1  0.750000  0.375000  0.625000  1
