# generated using pymatgen
data_Nd4In2Cu3Rh
_symmetry_space_group_name_H-M   'P 1'
_cell_length_a   7.79304741
_cell_length_b   7.79304741
_cell_length_c   3.81991500
_cell_angle_alpha   90.00000000
_cell_angle_beta   90.00000000
_cell_angle_gamma   89.79546263
_symmetry_Int_Tables_number   1
_chemical_formula_structural   Nd4In2Cu3Rh
_chemical_formula_sum   'Nd4 In2 Cu3 Rh1'
_cell_volume   231.98802576
_cell_formula_units_Z   1
loop_
 _symmetry_equiv_pos_site_id
 _symmetry_equiv_pos_as_xyz
  1  'x, y, z'
loop_
 _atom_site_type_symbol
 _atom_site_label
 _atom_site_symmetry_multiplicity
 _atom_site_fract_x
 _atom_site_fract_y
 _atom_site_fract_z
 _atom_site_occupancy
  Nd  Nd0  1  0.680260  0.165971  0.500000  1
  Nd  Nd1  1  0.334029  0.819740  0.500000  1
  Nd  Nd2  1  0.816147  0.683853  0.500000  1
  Nd  Nd3  1  0.175024  0.324976  0.500000  1
  In  In4  1  0.499308  0.496519  0.000000  1
  In  In5  1  0.003481  0.000692  0.000000  1
  Cu  Cu6  1  0.376521  0.123479  0.000000  1
  Cu  Cu7  1  0.115851  0.619456  0.000000  1
  Cu  Cu8  1  0.880544  0.384149  0.000000  1
  Rh  Rh9  1  0.618833  0.881167  0.000000  1
