# generated using pymatgen
data_Sm4In2Ag3Ru
_symmetry_space_group_name_H-M   'P 1'
_cell_length_a   8.02049398
_cell_length_b   8.02049527
_cell_length_c   3.84843600
_cell_angle_alpha   90.00000000
_cell_angle_beta   90.00000000
_cell_angle_gamma   89.23442977
_symmetry_Int_Tables_number   1
_chemical_formula_structural   Sm4In2Ag3Ru
_chemical_formula_sum   'Sm4 In2 Ag3 Ru1'
_cell_volume   247.54137732
_cell_formula_units_Z   1
loop_
 _symmetry_equiv_pos_site_id
 _symmetry_equiv_pos_as_xyz
  1  'x, y, z'
loop_
 _atom_site_type_symbol
 _atom_site_label
 _atom_site_symmetry_multiplicity
 _atom_site_fract_x
 _atom_site_fract_y
 _atom_site_fract_z
 _atom_site_occupancy
  Sm  Sm0  1  0.672632  0.172632  0.500000  1
  Sm  Sm1  1  0.305160  0.805160  0.500000  1
  Sm  Sm2  1  0.183434  0.356053  0.500000  1
  Sm  Sm3  1  0.856053  0.683434  0.500000  1
  In  In4  1  0.498601  0.501193  0.000000  1
  In  In5  1  0.001193  0.998601  0.000000  1
  Ag  Ag6  1  0.873813  0.373813  0.000000  1
  Ag  Ag7  1  0.617396  0.866837  0.000000  1
  Ag  Ag8  1  0.366837  0.117396  0.000000  1
  Ru  Ru9  1  0.124881  0.624881  0.000000  1
