# generated using pymatgen
data_AlZn2(GaRh2)3
_symmetry_space_group_name_H-M   'P 1'
_cell_length_a   4.26085400
_cell_length_b   6.05996000
_cell_length_c   12.86024500
_cell_angle_alpha   90.00053205
_cell_angle_beta   89.99751086
_cell_angle_gamma   90.00002291
_symmetry_Int_Tables_number   1
_chemical_formula_structural   AlZn2(GaRh2)3
_chemical_formula_sum   'Al2 Zn4 Ga6 Rh12'
_cell_volume   332.05930369
_cell_formula_units_Z   2
loop_
 _symmetry_equiv_pos_site_id
 _symmetry_equiv_pos_as_xyz
  1  'x, y, z'
loop_
 _atom_site_type_symbol
 _atom_site_label
 _atom_site_symmetry_multiplicity
 _atom_site_fract_x
 _atom_site_fract_y
 _atom_site_fract_z
 _atom_site_occupancy
  Al  Al0  1  0.999984  0.500054  0.999591  1
  Al  Al1  1  0.499795  0.999947  0.167075  1
  Zn  Zn2  1  0.999788  0.499993  0.333520  1
  Zn  Zn3  1  0.499997  0.000009  0.500082  1
  Zn  Zn4  1  0.000218  0.499987  0.666584  1
  Zn  Zn5  1  0.500201  0.000011  0.833151  1
  Ga  Ga6  1  0.999992  0.999991  0.998439  1
  Ga  Ga7  1  0.499806  0.500008  0.168225  1
  Ga  Ga8  1  0.999798  0.999982  0.336078  1
  Ga  Ga9  1  0.500001  0.500022  0.501339  1
  Ga  Ga10  1  0.000206  0.999981  0.665327  1
  Ga  Ga11  1  0.500194  0.500017  0.830594  1
  Rh  Rh12  1  0.499988  0.252594  0.002455  1
  Rh  Rh13  1  0.499988  0.747407  0.002461  1
  Rh  Rh14  1  0.999836  0.247405  0.164211  1
  Rh  Rh15  1  0.999836  0.752593  0.164206  1
  Rh  Rh16  1  0.499810  0.247630  0.329796  1
  Rh  Rh17  1  0.499810  0.752373  0.329797  1
  Rh  Rh18  1  0.000000  0.251318  0.499157  1
  Rh  Rh19  1  0.000000  0.748684  0.499157  1
  Rh  Rh20  1  0.500197  0.248683  0.667509  1
  Rh  Rh21  1  0.500199  0.751317  0.667504  1
  Rh  Rh22  1  0.000177  0.252367  0.836870  1
  Rh  Rh23  1  0.000176  0.747627  0.836873  1
