# generated using pymatgen
data_Dy3Ho17IrRu11
_symmetry_space_group_name_H-M   'P 1'
_cell_length_a   10.78576628
_cell_length_b   10.78627677
_cell_length_c   6.35378002
_cell_angle_alpha   89.96609711
_cell_angle_beta   89.97732472
_cell_angle_gamma   89.99463504
_symmetry_Int_Tables_number   1
_chemical_formula_structural   Dy3Ho17IrRu11
_chemical_formula_sum   'Dy3 Ho17 Ir1 Ru11'
_cell_volume   739.18752301
_cell_formula_units_Z   1
loop_
 _symmetry_equiv_pos_site_id
 _symmetry_equiv_pos_as_xyz
  1  'x, y, z'
loop_
 _atom_site_type_symbol
 _atom_site_label
 _atom_site_symmetry_multiplicity
 _atom_site_fract_x
 _atom_site_fract_y
 _atom_site_fract_z
 _atom_site_occupancy
  Dy  Dy0  1  0.291968  0.086406  0.376444  1
  Dy  Dy1  1  0.291857  0.914519  0.876626  1
  Dy  Dy2  1  0.708271  0.086547  0.876489  1
  Ho  Ho3  1  0.708237  0.913442  0.376485  1
  Ho  Ho4  1  0.586533  0.792323  0.876768  1
  Ho  Ho5  1  0.586418  0.207470  0.376399  1
  Ho  Ho6  1  0.414129  0.792561  0.376605  1
  Ho  Ho7  1  0.413612  0.208506  0.876653  1
  Ho  Ho8  1  0.207512  0.413579  0.623360  1
  Ho  Ho9  1  0.207287  0.585958  0.123413  1
  Ho  Ho10  1  0.792592  0.413702  0.123658  1
  Ho  Ho11  1  0.791655  0.586401  0.623307  1
  Ho  Ho12  1  0.913705  0.707916  0.123521  1
  Ho  Ho13  1  0.913568  0.291926  0.623318  1
  Ho  Ho14  1  0.085338  0.707933  0.623242  1
  Ho  Ho15  1  0.086376  0.291857  0.123452  1
  Ho  Ho16  1  0.000103  0.000114  0.499917  1
  Ho  Ho17  1  0.999792  0.999791  0.000083  1
  Ho  Ho18  1  0.501246  0.499615  0.000848  1
  Ho  Ho19  1  0.500417  0.498806  0.499207  1
  Ir  Ir20  1  0.346164  0.653707  0.749908  1
  Ru  Ru21  1  0.847063  0.153053  0.250248  1
  Ru  Ru22  1  0.846920  0.846494  0.749616  1
  Ru  Ru23  1  0.153274  0.153290  0.750457  1
  Ru  Ru24  1  0.154036  0.845683  0.250161  1
  Ru  Ru25  1  0.652726  0.347364  0.749924  1
  Ru  Ru26  1  0.652033  0.653392  0.250359  1
  Ru  Ru27  1  0.346622  0.348090  0.249605  1
  Ru  Ru28  1  0.500111  0.999522  0.124507  1
  Ru  Ru29  1  0.500117  0.000098  0.624789  1
  Ru  Ru30  1  0.999858  0.499967  0.875051  1
  Ru  Ru31  1  0.000460  0.499971  0.375579  1
