# generated using pymatgen
data_Dy2Ho8BiPb5
_symmetry_space_group_name_H-M   'P 1'
_cell_length_a   9.06721028
_cell_length_b   9.06341818
_cell_length_c   6.55127400
_cell_angle_alpha   90.00000000
_cell_angle_beta   90.00000000
_cell_angle_gamma   119.98548370
_symmetry_Int_Tables_number   1
_chemical_formula_structural   Dy2Ho8BiPb5
_chemical_formula_sum   'Dy2 Ho8 Bi1 Pb5'
_cell_volume   466.32168302
_cell_formula_units_Z   1
loop_
 _symmetry_equiv_pos_site_id
 _symmetry_equiv_pos_as_xyz
  1  'x, y, z'
loop_
 _atom_site_type_symbol
 _atom_site_label
 _atom_site_symmetry_multiplicity
 _atom_site_fract_x
 _atom_site_fract_y
 _atom_site_fract_z
 _atom_site_occupancy
  Dy  Dy0  1  0.236093  0.999960  0.250000  1
  Dy  Dy1  1  0.003242  0.239534  0.250000  1
  Ho  Ho2  1  0.331701  0.664678  0.999756  1
  Ho  Ho3  1  0.667031  0.335345  0.500245  1
  Ho  Ho4  1  0.667031  0.335345  0.999755  1
  Ho  Ho5  1  0.331701  0.664678  0.500244  1
  Ho  Ho6  1  0.237328  0.237949  0.750000  1
  Ho  Ho7  1  0.999335  0.762116  0.750000  1
  Ho  Ho8  1  0.763713  0.760366  0.250000  1
  Ho  Ho9  1  0.762584  0.999955  0.750000  1
  Bi  Bi10  1  0.606369  0.999889  0.250000  1
  Pb  Pb11  1  0.605452  0.606457  0.750000  1
  Pb  Pb12  1  0.998990  0.393524  0.750000  1
  Pb  Pb13  1  0.000069  0.605103  0.250000  1
  Pb  Pb14  1  0.395274  0.395082  0.250000  1
  Pb  Pb15  1  0.394086  0.000018  0.750000  1
