# generated using pymatgen
data_Ac7Ho13Pt16
_symmetry_space_group_name_H-M   'P 1'
_cell_length_a   7.74979614
_cell_length_b   7.84492974
_cell_length_c   15.16827600
_cell_angle_alpha   90.03679525
_cell_angle_beta   89.95746693
_cell_angle_gamma   89.95784936
_symmetry_Int_Tables_number   1
_chemical_formula_structural   Ac7Ho13Pt16
_chemical_formula_sum   'Ac7 Ho13 Pt16'
_cell_volume   922.17900868
_cell_formula_units_Z   1
loop_
 _symmetry_equiv_pos_site_id
 _symmetry_equiv_pos_as_xyz
  1  'x, y, z'
loop_
 _atom_site_type_symbol
 _atom_site_label
 _atom_site_symmetry_multiplicity
 _atom_site_fract_x
 _atom_site_fract_y
 _atom_site_fract_z
 _atom_site_occupancy
  Ac  Ac0  1  0.499569  0.676680  0.097950  1
  Ac  Ac1  1  0.500181  0.323317  0.595862  1
  Ac  Ac2  1  0.000048  0.177560  0.904117  1
  Ac  Ac3  1  0.999991  0.172882  0.592817  1
  Ac  Ac4  1  0.499660  0.323300  0.903768  1
  Ac  Ac5  1  0.499829  0.679875  0.405182  1
  Ac  Ac6  1  0.999829  0.822701  0.096857  1
  Ho  Ho7  1  0.680675  0.996841  0.253418  1
  Ho  Ho8  1  0.176318  0.505452  0.253052  1
  Ho  Ho9  1  0.823202  0.497544  0.748821  1
  Ho  Ho10  1  0.322394  0.001761  0.749511  1
  Ho  Ho11  1  0.657825  0.832199  0.624228  1
  Ho  Ho12  1  0.157288  0.667635  0.874064  1
  Ho  Ho13  1  0.843678  0.333124  0.374905  1
  Ho  Ho14  1  0.342708  0.168277  0.127454  1
  Ho  Ho15  1  0.337218  0.163587  0.376179  1
  Ho  Ho16  1  0.844464  0.331018  0.127160  1
  Ho  Ho17  1  0.152751  0.671521  0.621540  1
  Ho  Ho18  1  0.656288  0.831709  0.874710  1
  Ho  Ho19  1  0.993883  0.818614  0.400621  1
  Pt  Pt20  1  0.818039  0.637097  0.255541  1
  Pt  Pt21  1  0.308682  0.868735  0.252764  1
  Pt  Pt22  1  0.688832  0.131172  0.749153  1
  Pt  Pt23  1  0.187933  0.369380  0.748697  1
  Pt  Pt24  1  0.546993  0.369383  0.251019  1
  Pt  Pt25  1  0.044472  0.125505  0.252768  1
  Pt  Pt26  1  0.953704  0.867975  0.749514  1
  Pt  Pt27  1  0.453859  0.632358  0.748653  1
  Pt  Pt28  1  0.826757  0.545284  0.542002  1
  Pt  Pt29  1  0.324610  0.959052  0.954618  1
  Pt  Pt30  1  0.690149  0.031612  0.452787  1
  Pt  Pt31  1  0.175497  0.459056  0.045092  1
  Pt  Pt32  1  0.169376  0.468901  0.452167  1
  Pt  Pt33  1  0.675329  0.040644  0.045263  1
  Pt  Pt34  1  0.323646  0.957956  0.542498  1
  Pt  Pt35  1  0.824324  0.540298  0.955241  1
