# generated using pymatgen
data_NdTh3Al3(Ga5Ir2)3
_symmetry_space_group_name_H-M   'P 1'
_cell_length_a   7.69195416
_cell_length_b   7.69642865
_cell_length_c   9.50999732
_cell_angle_alpha   89.97965480
_cell_angle_beta   89.99158934
_cell_angle_gamma   119.69839256
_symmetry_Int_Tables_number   1
_chemical_formula_structural   NdTh3Al3(Ga5Ir2)3
_chemical_formula_sum   'Nd1 Th3 Al3 Ga15 Ir6'
_cell_volume   489.04497795
_cell_formula_units_Z   1
loop_
 _symmetry_equiv_pos_site_id
 _symmetry_equiv_pos_as_xyz
  1  'x, y, z'
loop_
 _atom_site_type_symbol
 _atom_site_label
 _atom_site_symmetry_multiplicity
 _atom_site_fract_x
 _atom_site_fract_y
 _atom_site_fract_z
 _atom_site_occupancy
  Nd  Nd0  1  0.329654  0.002433  0.749089  1
  Th  Th1  1  0.998747  0.671006  0.250079  1
  Th  Th2  1  0.000975  0.330814  0.748856  1
  Th  Th3  1  0.670382  0.998172  0.250013  1
  Al  Al4  1  0.660892  0.660892  0.450728  1
  Al  Al5  1  0.664703  0.664654  0.049742  1
  Al  Al6  1  0.334754  0.332589  0.949061  1
  Ga  Ga7  1  0.134776  0.133060  0.249519  1
  Ga  Ga8  1  0.870204  0.869656  0.749585  1
  Ga  Ga9  1  0.004267  0.335449  0.078649  1
  Ga  Ga10  1  0.999382  0.668277  0.920626  1
  Ga  Ga11  1  0.998694  0.668425  0.579183  1
  Ga  Ga12  1  0.335659  0.004984  0.422545  1
  Ga  Ga13  1  0.005894  0.335589  0.419331  1
  Ga  Ga14  1  0.661193  0.995339  0.579243  1
  Ga  Ga15  1  0.661475  0.996152  0.920535  1
  Ga  Ga16  1  0.335415  0.003424  0.075357  1
  Ga  Ga17  1  0.333002  0.330220  0.563199  1
  Ga  Ga18  1  0.350038  0.547747  0.250007  1
  Ga  Ga19  1  0.653712  0.450896  0.750157  1
  Ga  Ga20  1  0.548008  0.348231  0.250003  1
  Ga  Ga21  1  0.452972  0.656655  0.750056  1
  Ir  Ir22  1  0.671680  0.331516  0.000844  1
  Ir  Ir23  1  0.329223  0.666968  0.000855  1
  Ir  Ir24  1  0.328830  0.670437  0.497825  1
  Ir  Ir25  1  0.675324  0.331338  0.497908  1
  Ir  Ir26  1  0.997584  0.999962  0.001397  1
  Ir  Ir27  1  0.992561  0.995113  0.495607  1
