# generated using pymatgen
data_Dy4Tm8Co4CuPb
_symmetry_space_group_name_H-M   'P 1'
_cell_length_a   8.26326446
_cell_length_b   8.26326440
_cell_length_c   8.26326332
_cell_angle_alpha   110.43004086
_cell_angle_beta   110.98376238
_cell_angle_gamma   107.02764240
_symmetry_Int_Tables_number   1
_chemical_formula_structural   Dy4Tm8Co4CuPb
_chemical_formula_sum   'Dy4 Tm8 Co4 Cu1 Pb1'
_cell_volume   433.74328073
_cell_formula_units_Z   1
loop_
 _symmetry_equiv_pos_site_id
 _symmetry_equiv_pos_as_xyz
  1  'x, y, z'
loop_
 _atom_site_type_symbol
 _atom_site_label
 _atom_site_symmetry_multiplicity
 _atom_site_fract_x
 _atom_site_fract_y
 _atom_site_fract_z
 _atom_site_occupancy
  Dy  Dy0  1  0.288500  0.185418  0.473918  1
  Dy  Dy1  1  0.711500  0.814582  0.526082  1
  Dy  Dy2  1  0.288500  0.814582  0.103081  1
  Dy  Dy3  1  0.711500  0.185418  0.896919  1
  Tm  Tm4  1  0.621179  0.313859  0.307319  1
  Tm  Tm5  1  0.378821  0.686141  0.692681  1
  Tm  Tm6  1  0.006540  0.313859  0.692681  1
  Tm  Tm7  1  0.993460  0.686141  0.307319  1
  Tm  Tm8  1  0.214831  0.415249  0.200420  1
  Tm  Tm9  1  0.785169  0.584751  0.799580  1
  Tm  Tm10  1  0.214831  0.014411  0.799580  1
  Tm  Tm11  1  0.785169  0.985589  0.200420  1
  Co  Co12  1  0.000000  0.377447  0.377447  1
  Co  Co13  1  0.000000  0.622553  0.622553  1
  Co  Co14  1  0.386696  0.886696  0.500000  1
  Co  Co15  1  0.613304  0.113304  0.500000  1
  Cu  Cu16  1  0.000000  0.000000  0.000000  1
  Pb  Pb17  1  0.500000  0.500000  0.000000  1
