# generated using pymatgen
data_Th(CrRe2)4
_symmetry_space_group_name_H-M   'P 1'
_cell_length_a   6.86968984
_cell_length_b   6.86963323
_cell_length_c   6.86968922
_cell_angle_alpha   97.05862192
_cell_angle_beta   97.06864146
_cell_angle_gamma   138.94365160
_symmetry_Int_Tables_number   1
_chemical_formula_structural   Th(CrRe2)4
_chemical_formula_sum   'Th1 Cr4 Re8'
_cell_volume   199.41025358
_cell_formula_units_Z   1
loop_
 _symmetry_equiv_pos_site_id
 _symmetry_equiv_pos_as_xyz
  1  'x, y, z'
loop_
 _atom_site_type_symbol
 _atom_site_label
 _atom_site_symmetry_multiplicity
 _atom_site_fract_x
 _atom_site_fract_y
 _atom_site_fract_z
 _atom_site_occupancy
  Th  Th0  1  0.000000  0.000000  0.000000  1
  Cr  Cr1  1  0.000000  0.000000  0.500000  1
  Cr  Cr2  1  0.000000  0.500000  0.000000  1
  Cr  Cr3  1  0.500000  0.000000  0.000000  1
  Cr  Cr4  1  0.500000  0.500000  0.500000  1
  Re  Re5  1  0.500009  0.277178  0.777169  1
  Re  Re6  1  0.277169  0.500000  0.777169  1
  Re  Re7  1  0.722831  0.500000  0.222831  1
  Re  Re8  1  0.499991  0.722822  0.222831  1
  Re  Re9  1  0.999996  0.356863  0.356867  1
  Re  Re10  1  0.000004  0.643137  0.643133  1
  Re  Re11  1  0.643127  0.000000  0.643127  1
  Re  Re12  1  0.356873  0.000000  0.356873  1
