# generated using pymatgen
data_Hf3Zn5Rh
_symmetry_space_group_name_H-M   'P 1'
_cell_length_a   7.11491300
_cell_length_b   7.11491240
_cell_length_c   7.04013300
_cell_angle_alpha   90.00000000
_cell_angle_beta   90.00000000
_cell_angle_gamma   119.99999814
_symmetry_Int_Tables_number   1
_chemical_formula_structural   Hf3Zn5Rh
_chemical_formula_sum   'Hf6 Zn10 Rh2'
_cell_volume   308.63889467
_cell_formula_units_Z   2
loop_
 _symmetry_equiv_pos_site_id
 _symmetry_equiv_pos_as_xyz
  1  'x, y, z'
loop_
 _atom_site_type_symbol
 _atom_site_label
 _atom_site_symmetry_multiplicity
 _atom_site_fract_x
 _atom_site_fract_y
 _atom_site_fract_z
 _atom_site_occupancy
  Hf  Hf0  1  0.746496  0.058057  0.000000  1
  Hf  Hf1  1  0.311560  0.253504  0.000000  1
  Hf  Hf2  1  0.941943  0.688440  0.000000  1
  Hf  Hf3  1  0.323208  0.258644  0.500000  1
  Hf  Hf4  1  0.741356  0.064564  0.500000  1
  Hf  Hf5  1  0.935436  0.676792  0.500000  1
  Zn  Zn6  1  0.592108  0.656500  0.750088  1
  Zn  Zn7  1  0.064393  0.407892  0.750088  1
  Zn  Zn8  1  0.343500  0.935607  0.750088  1
  Zn  Zn9  1  0.592108  0.656500  0.249912  1
  Zn  Zn10  1  0.064393  0.407892  0.249912  1
  Zn  Zn11  1  0.343500  0.935607  0.249912  1
  Zn  Zn12  1  0.333333  0.666667  0.000000  1
  Zn  Zn13  1  0.333333  0.666667  0.500000  1
  Zn  Zn14  1  0.666667  0.333333  0.757600  1
  Zn  Zn15  1  0.666667  0.333333  0.242400  1
  Rh  Rh16  1  0.000000  0.000000  0.256105  1
  Rh  Rh17  1  0.000000  0.000000  0.743895  1
