# generated using pymatgen
data_Pr2NdHfBi5
_symmetry_space_group_name_H-M   'P 1'
_cell_length_a   9.76669400
_cell_length_b   9.76717230
_cell_length_c   6.55134600
_cell_angle_alpha   90.00000000
_cell_angle_beta   90.00000000
_cell_angle_gamma   120.00161721
_symmetry_Int_Tables_number   1
_chemical_formula_structural   Pr2NdHfBi5
_chemical_formula_sum   'Pr4 Nd2 Hf2 Bi10'
_cell_volume   541.21586789
_cell_formula_units_Z   2
loop_
 _symmetry_equiv_pos_site_id
 _symmetry_equiv_pos_as_xyz
  1  'x, y, z'
loop_
 _atom_site_type_symbol
 _atom_site_label
 _atom_site_symmetry_multiplicity
 _atom_site_fract_x
 _atom_site_fract_y
 _atom_site_fract_z
 _atom_site_occupancy
  Pr  Pr0  1  0.618683  0.000039  0.250000  1
  Pr  Pr1  1  0.000000  0.381227  0.750000  1
  Pr  Pr2  1  0.381317  0.381355  0.250000  1
  Pr  Pr3  1  0.000000  0.618810  0.250000  1
  Nd  Nd4  1  0.618945  0.618988  0.750000  1
  Nd  Nd5  1  0.381055  0.000043  0.750000  1
  Hf  Hf6  1  0.000000  0.999954  0.999596  1
  Hf  Hf7  1  0.000000  0.999954  0.500404  1
  Bi  Bi8  1  0.263185  0.999964  0.250000  1
  Bi  Bi9  1  0.000000  0.262985  0.250000  1
  Bi  Bi10  1  0.000000  0.736891  0.750000  1
  Bi  Bi11  1  0.333650  0.666934  0.500829  1
  Bi  Bi12  1  0.333650  0.666934  0.999171  1
  Bi  Bi13  1  0.263629  0.263104  0.750000  1
  Bi  Bi14  1  0.666350  0.333283  0.500829  1
  Bi  Bi15  1  0.736815  0.736779  0.250000  1
  Bi  Bi16  1  0.736371  0.999475  0.750000  1
  Bi  Bi17  1  0.666350  0.333283  0.999171  1
