# generated using pymatgen
data_CeTh7(CoSi3)4
_symmetry_space_group_name_H-M   'P 1'
_cell_length_a   8.06141600
_cell_length_b   8.06138641
_cell_length_c   8.37650000
_cell_angle_alpha   90.00000000
_cell_angle_beta   90.00000000
_cell_angle_gamma   119.99994909
_symmetry_Int_Tables_number   1
_chemical_formula_structural   CeTh7(CoSi3)4
_chemical_formula_sum   'Ce1 Th7 Co4 Si12'
_cell_volume   471.42707256
_cell_formula_units_Z   1
loop_
 _symmetry_equiv_pos_site_id
 _symmetry_equiv_pos_as_xyz
  1  'x, y, z'
loop_
 _atom_site_type_symbol
 _atom_site_label
 _atom_site_symmetry_multiplicity
 _atom_site_fract_x
 _atom_site_fract_y
 _atom_site_fract_z
 _atom_site_occupancy
  Ce  Ce0  1  0.000000  0.000000  0.750000  1
  Th  Th1  1  0.500164  0.000329  0.250000  1
  Th  Th2  1  0.499840  0.999681  0.750000  1
  Th  Th3  1  0.999671  0.499836  0.250000  1
  Th  Th4  1  0.000319  0.500160  0.750000  1
  Th  Th5  1  0.500165  0.499836  0.250000  1
  Th  Th6  1  0.499840  0.500159  0.750000  1
  Th  Th7  1  0.000000  0.999999  0.250000  1
  Co  Co8  1  0.333333  0.666665  0.001002  1
  Co  Co9  1  0.666666  0.333335  0.999355  1
  Co  Co10  1  0.666666  0.333335  0.500645  1
  Co  Co11  1  0.333333  0.666665  0.498998  1
  Si  Si12  1  0.170515  0.341030  0.998348  1
  Si  Si13  1  0.829513  0.659025  0.997645  1
  Si  Si14  1  0.658969  0.829485  0.998348  1
  Si  Si15  1  0.829513  0.659025  0.502355  1
  Si  Si16  1  0.340975  0.170487  0.997645  1
  Si  Si17  1  0.170515  0.341030  0.501652  1
  Si  Si18  1  0.170517  0.829485  0.998350  1
  Si  Si19  1  0.340975  0.170487  0.502355  1
  Si  Si20  1  0.829511  0.170488  0.997647  1
  Si  Si21  1  0.658969  0.829485  0.501652  1
  Si  Si22  1  0.829511  0.170488  0.502353  1
  Si  Si23  1  0.170517  0.829485  0.501650  1
