# generated using pymatgen
data_ThPaF9
_symmetry_space_group_name_H-M   'P 1'
_cell_length_a   7.38133155
_cell_length_b   7.45685746
_cell_length_c   7.38133000
_cell_angle_alpha   109.48813094
_cell_angle_beta   109.02311560
_cell_angle_gamma   109.48813931
_symmetry_Int_Tables_number   1
_chemical_formula_structural   ThPaF9
_chemical_formula_sum   'Th2 Pa2 F18'
_cell_volume   314.33797614
_cell_formula_units_Z   2
loop_
 _symmetry_equiv_pos_site_id
 _symmetry_equiv_pos_as_xyz
  1  'x, y, z'
loop_
 _atom_site_type_symbol
 _atom_site_label
 _atom_site_symmetry_multiplicity
 _atom_site_fract_x
 _atom_site_fract_y
 _atom_site_fract_z
 _atom_site_occupancy
  Th  Th0  1  0.374875  0.000000  0.996752  1
  Th  Th1  1  0.996752  0.000000  0.374875  1
  Pa  Pa2  1  0.621536  0.627510  0.621536  1
  Pa  Pa3  1  0.994025  0.372490  0.994025  1
  F  F4  1  0.986087  0.761529  0.765359  1
  F  F5  1  0.003830  0.238471  0.224557  1
  F  F6  1  0.229559  0.000000  0.229559  1
  F  F7  1  0.770592  0.000000  0.770592  1
  F  F8  1  0.751968  0.752245  0.416263  1
  F  F9  1  0.664018  0.247755  0.999723  1
  F  F10  1  0.233659  0.642045  0.001662  1
  F  F11  1  0.352704  0.589900  0.352704  1
  F  F12  1  0.656301  0.000000  0.242497  1
  F  F13  1  0.001662  0.642045  0.233659  1
  F  F14  1  0.591613  0.357955  0.359616  1
  F  F15  1  0.416263  0.752245  0.751968  1
  F  F16  1  0.762805  0.410100  0.762805  1
  F  F17  1  0.242497  0.000000  0.656301  1
  F  F18  1  0.999723  0.247755  0.664018  1
  F  F19  1  0.359616  0.357955  0.591613  1
  F  F20  1  0.765359  0.761529  0.986087  1
  F  F21  1  0.224557  0.238471  0.003830  1
