# generated using pymatgen
data_MnSb8
_symmetry_space_group_name_H-M   'P 1'
_cell_length_a   4.28309600
_cell_length_b   4.28309605
_cell_length_c   16.74394700
_cell_angle_alpha   90.00000000
_cell_angle_beta   90.00000000
_cell_angle_gamma   119.99999962
_symmetry_Int_Tables_number   1
_chemical_formula_structural   MnSb8
_chemical_formula_sum   'Mn1 Sb8'
_cell_volume   266.01375665
_cell_formula_units_Z   1
loop_
 _symmetry_equiv_pos_site_id
 _symmetry_equiv_pos_as_xyz
  1  'x, y, z'
loop_
 _atom_site_type_symbol
 _atom_site_label
 _atom_site_symmetry_multiplicity
 _atom_site_fract_x
 _atom_site_fract_y
 _atom_site_fract_z
 _atom_site_occupancy
  Mn  Mn0  1  0.000000  0.000000  0.000000  1
  Sb  Sb1  1  0.333333  0.666667  0.547195  1
  Sb  Sb2  1  0.666667  0.333333  0.452805  1
  Sb  Sb3  1  0.666667  0.333333  0.779912  1
  Sb  Sb4  1  0.333333  0.666667  0.220088  1
  Sb  Sb5  1  0.333333  0.666667  0.931975  1
  Sb  Sb6  1  0.666667  0.333333  0.068025  1
  Sb  Sb7  1  0.000000  0.000000  0.684742  1
  Sb  Sb8  1  0.000000  0.000000  0.315258  1
