# generated using pymatgen
data_Ca7NbVCoN9
_symmetry_space_group_name_H-M   'P 1'
_cell_length_a   6.09965591
_cell_length_b   9.99043600
_cell_length_c   9.08629865
_cell_angle_alpha   90.00000000
_cell_angle_beta   92.73868867
_cell_angle_gamma   90.00000000
_symmetry_Int_Tables_number   1
_chemical_formula_structural   Ca7NbVCoN9
_chemical_formula_sum   'Ca14 Nb2 V2 Co2 N18'
_cell_volume   553.07046665
_cell_formula_units_Z   2
loop_
 _symmetry_equiv_pos_site_id
 _symmetry_equiv_pos_as_xyz
  1  'x, y, z'
loop_
 _atom_site_type_symbol
 _atom_site_label
 _atom_site_symmetry_multiplicity
 _atom_site_fract_x
 _atom_site_fract_y
 _atom_site_fract_z
 _atom_site_occupancy
  Ca  Ca0  1  0.074270  0.418633  0.173762  1
  Ca  Ca1  1  0.925730  0.918632  0.826238  1
  Ca  Ca2  1  0.925730  0.581368  0.826238  1
  Ca  Ca3  1  0.074270  0.081368  0.173762  1
  Ca  Ca4  1  0.248707  0.919905  0.510541  1
  Ca  Ca5  1  0.751293  0.419905  0.489459  1
  Ca  Ca6  1  0.751293  0.080095  0.489459  1
  Ca  Ca7  1  0.248707  0.580095  0.510541  1
  Ca  Ca8  1  0.576457  0.934618  0.162782  1
  Ca  Ca9  1  0.423543  0.434618  0.837218  1
  Ca  Ca10  1  0.423543  0.065382  0.837218  1
  Ca  Ca11  1  0.576457  0.565382  0.162782  1
  Ca  Ca12  1  0.912958  0.250000  0.798177  1
  Ca  Ca13  1  0.087042  0.750000  0.201823  1
  Nb  Nb14  1  0.280801  0.250000  0.559540  1
  Nb  Nb15  1  0.719199  0.750000  0.440460  1
  V  V16  1  0.672246  0.250000  0.068210  1
  V  V17  1  0.327754  0.750000  0.931790  1
  Co  Co18  1  0.455014  0.250000  0.277316  1
  Co  Co19  1  0.544986  0.750000  0.722684  1
  N  N20  1  0.114023  0.402000  0.660236  1
  N  N21  1  0.885977  0.902000  0.339764  1
  N  N22  1  0.885977  0.598000  0.339764  1
  N  N23  1  0.114023  0.098000  0.660236  1
  N  N24  1  0.231735  0.903162  0.019366  1
  N  N25  1  0.768265  0.403162  0.980634  1
  N  N26  1  0.768265  0.096838  0.980634  1
  N  N27  1  0.231735  0.596838  0.019366  1
  N  N28  1  0.355542  0.390704  0.379080  1
  N  N29  1  0.644458  0.890704  0.620920  1
  N  N30  1  0.644458  0.609296  0.620920  1
  N  N31  1  0.355542  0.109296  0.379080  1
  N  N32  1  0.365730  0.250000  0.065176  1
  N  N33  1  0.634270  0.750000  0.934824  1
  N  N34  1  0.557176  0.250000  0.668684  1
  N  N35  1  0.442824  0.750000  0.331316  1
  N  N36  1  0.778821  0.250000  0.263303  1
  N  N37  1  0.221179  0.750000  0.736697  1
