# generated using pymatgen
data_Pr8Y(IrO8)3
_symmetry_space_group_name_H-M   'P 1'
_cell_length_a   5.54700474
_cell_length_b   9.51675153
_cell_length_c   10.41356956
_cell_angle_alpha   89.20448175
_cell_angle_beta   90.05438905
_cell_angle_gamma   90.44586131
_symmetry_Int_Tables_number   1
_chemical_formula_structural   Pr8Y(IrO8)3
_chemical_formula_sum   'Pr8 Y1 Ir3 O24'
_cell_volume   549.65695050
_cell_formula_units_Z   1
loop_
 _symmetry_equiv_pos_site_id
 _symmetry_equiv_pos_as_xyz
  1  'x, y, z'
loop_
 _atom_site_type_symbol
 _atom_site_label
 _atom_site_symmetry_multiplicity
 _atom_site_fract_x
 _atom_site_fract_y
 _atom_site_fract_z
 _atom_site_occupancy
  Pr  Pr0  1  0.043136  0.217007  0.129629  1
  Pr  Pr1  1  0.466739  0.766654  0.631641  1
  Pr  Pr2  1  0.965191  0.716006  0.375066  1
  Pr  Pr3  1  0.530674  0.287765  0.855304  1
  Pr  Pr4  1  0.035734  0.112011  0.537254  1
  Pr  Pr5  1  0.474594  0.900481  0.035506  1
  Pr  Pr6  1  0.985602  0.605115  0.963007  1
  Pr  Pr7  1  0.516570  0.407322  0.463534  1
  Y  Y8  1  0.030847  0.485629  0.651747  1
  Ir  Ir9  1  0.546021  0.000474  0.352925  1
  Ir  Ir10  1  0.958765  0.998796  0.858232  1
  Ir  Ir11  1  0.460663  0.502628  0.145049  1
  O  O12  1  0.433897  0.152522  0.452689  1
  O  O13  1  0.059229  0.856543  0.983689  1
  O  O14  1  0.565499  0.650478  0.030100  1
  O  O15  1  0.901372  0.330359  0.503805  1
  O  O16  1  0.719182  0.387907  0.084445  1
  O  O17  1  0.750615  0.616284  0.547524  1
  O  O18  1  0.281407  0.894428  0.431143  1
  O  O19  1  0.221783  0.109471  0.936792  1
  O  O20  1  0.258225  0.410630  0.009470  1
  O  O21  1  0.252937  0.604230  0.502570  1
  O  O22  1  0.750817  0.919707  0.490670  1
  O  O23  1  0.753138  0.090755  0.990226  1
  O  O24  1  0.194636  0.625861  0.182057  1
  O  O25  1  0.334563  0.326967  0.663549  1
  O  O26  1  0.818290  0.116219  0.308601  1
  O  O27  1  0.691972  0.874481  0.825822  1
  O  O28  1  0.346091  0.055899  0.208417  1
  O  O29  1  0.159360  0.941943  0.724620  1
  O  O30  1  0.658452  0.563289  0.280432  1
  O  O31  1  0.797831  0.462088  0.819545  1
  O  O32  1  0.320843  0.363626  0.256498  1
  O  O33  1  0.215188  0.647980  0.780105  1
  O  O34  1  0.659535  0.855381  0.243420  1
  O  O35  1  0.840605  0.143062  0.744922  1
