# generated using pymatgen
data_Sc3Be2IrRh4
_symmetry_space_group_name_H-M   'P 1'
_cell_length_a   9.53695200
_cell_length_b   9.53695200
_cell_length_c   3.23138500
_cell_angle_alpha   90.00000000
_cell_angle_beta   90.00000000
_cell_angle_gamma   90.00000000
_symmetry_Int_Tables_number   1
_chemical_formula_structural   Sc3Be2IrRh4
_chemical_formula_sum   'Sc6 Be4 Ir2 Rh8'
_cell_volume   293.90562518
_cell_formula_units_Z   2
loop_
 _symmetry_equiv_pos_site_id
 _symmetry_equiv_pos_as_xyz
  1  'x, y, z'
loop_
 _atom_site_type_symbol
 _atom_site_label
 _atom_site_symmetry_multiplicity
 _atom_site_fract_x
 _atom_site_fract_y
 _atom_site_fract_z
 _atom_site_occupancy
  Sc  Sc0  1  0.825144  0.325144  0.000000  1
  Sc  Sc1  1  0.325144  0.174856  0.000000  1
  Sc  Sc2  1  0.674856  0.825144  0.000000  1
  Sc  Sc3  1  0.174856  0.674856  0.000000  1
  Sc  Sc4  1  0.000000  0.000000  0.000000  1
  Sc  Sc5  1  0.500000  0.500000  0.000000  1
  Be  Be6  1  0.622573  0.122573  0.000000  1
  Be  Be7  1  0.122573  0.377427  0.000000  1
  Be  Be8  1  0.877427  0.622573  0.000000  1
  Be  Be9  1  0.377427  0.877427  0.000000  1
  Ir  Ir10  1  0.500000  0.000000  0.500000  1
  Ir  Ir11  1  0.000000  0.500000  0.500000  1
  Rh  Rh12  1  0.071083  0.214952  0.500000  1
  Rh  Rh13  1  0.214952  0.928917  0.500000  1
  Rh  Rh14  1  0.785048  0.071083  0.500000  1
  Rh  Rh15  1  0.928917  0.785048  0.500000  1
  Rh  Rh16  1  0.428917  0.714952  0.500000  1
  Rh  Rh17  1  0.571083  0.285048  0.500000  1
  Rh  Rh18  1  0.714952  0.571083  0.500000  1
  Rh  Rh19  1  0.285048  0.428917  0.500000  1
