# generated using pymatgen
data_Nd2Fe3RhO10
_symmetry_space_group_name_H-M   'P 1'
_cell_length_a   5.94652900
_cell_length_b   7.63009700
_cell_length_c   8.78783100
_cell_angle_alpha   90.00000000
_cell_angle_beta   90.00000000
_cell_angle_gamma   90.00000000
_symmetry_Int_Tables_number   1
_chemical_formula_structural   Nd2Fe3RhO10
_chemical_formula_sum   'Nd4 Fe6 Rh2 O20'
_cell_volume   398.72668005
_cell_formula_units_Z   2
loop_
 _symmetry_equiv_pos_site_id
 _symmetry_equiv_pos_as_xyz
  1  'x, y, z'
loop_
 _atom_site_type_symbol
 _atom_site_label
 _atom_site_symmetry_multiplicity
 _atom_site_fract_x
 _atom_site_fract_y
 _atom_site_fract_z
 _atom_site_occupancy
  Nd  Nd0  1  0.996850  0.362802  0.670126  1
  Nd  Nd1  1  0.996850  0.637198  0.329874  1
  Nd  Nd2  1  0.003150  0.862802  0.829874  1
  Nd  Nd3  1  0.003150  0.137198  0.170126  1
  Fe  Fe4  1  0.505711  0.107084  0.856927  1
  Fe  Fe5  1  0.505711  0.892916  0.143073  1
  Fe  Fe6  1  0.494289  0.607084  0.643073  1
  Fe  Fe7  1  0.494289  0.392916  0.356927  1
  Fe  Fe8  1  0.252128  0.500000  0.000000  1
  Fe  Fe9  1  0.747872  0.000000  0.500000  1
  Rh  Rh10  1  0.745990  0.500000  0.000000  1
  Rh  Rh11  1  0.254010  0.000000  0.500000  1
  O  O12  1  0.245753  0.898692  0.290504  1
  O  O13  1  0.245753  0.101308  0.709496  1
  O  O14  1  0.754247  0.398692  0.209496  1
  O  O15  1  0.754247  0.601308  0.790504  1
  O  O16  1  0.753784  0.098954  0.708302  1
  O  O17  1  0.753784  0.901046  0.291698  1
  O  O18  1  0.246216  0.598954  0.791698  1
  O  O19  1  0.246216  0.401046  0.208302  1
  O  O20  1  0.502133  0.342148  0.929299  1
  O  O21  1  0.502133  0.657852  0.070701  1
  O  O22  1  0.497867  0.842148  0.570701  1
  O  O23  1  0.497867  0.157852  0.429299  1
  O  O24  1  0.278921  0.000000  0.000000  1
  O  O25  1  0.721079  0.500000  0.500000  1
  O  O26  1  0.727559  0.000000  0.000000  1
  O  O27  1  0.272441  0.500000  0.500000  1
  O  O28  1  0.003524  0.164738  0.444561  1
  O  O29  1  0.003524  0.835262  0.555439  1
  O  O30  1  0.996476  0.664738  0.055439  1
  O  O31  1  0.996476  0.335262  0.944561  1
