# generated using pymatgen
data_Ce4HgPt4Au
_symmetry_space_group_name_H-M   'P 1'
_cell_length_a   7.83781500
_cell_length_b   7.83781500
_cell_length_c   3.73707100
_cell_angle_alpha   90.00000000
_cell_angle_beta   90.00000000
_cell_angle_gamma   90.00000000
_symmetry_Int_Tables_number   1
_chemical_formula_structural   Ce4HgPt4Au
_chemical_formula_sum   'Ce4 Hg1 Pt4 Au1'
_cell_volume   229.57329406
_cell_formula_units_Z   1
loop_
 _symmetry_equiv_pos_site_id
 _symmetry_equiv_pos_as_xyz
  1  'x, y, z'
loop_
 _atom_site_type_symbol
 _atom_site_label
 _atom_site_symmetry_multiplicity
 _atom_site_fract_x
 _atom_site_fract_y
 _atom_site_fract_z
 _atom_site_occupancy
  Ce  Ce0  1  0.177920  0.334048  0.500000  1
  Ce  Ce1  1  0.334048  0.822080  0.500000  1
  Ce  Ce2  1  0.822080  0.665952  0.500000  1
  Ce  Ce3  1  0.665952  0.177920  0.500000  1
  Hg  Hg4  1  0.000000  0.000000  0.000000  1
  Pt  Pt5  1  0.631144  0.871290  0.000000  1
  Pt  Pt6  1  0.128710  0.631144  0.000000  1
  Pt  Pt7  1  0.871290  0.368856  0.000000  1
  Pt  Pt8  1  0.368856  0.128710  0.000000  1
  Au  Au9  1  0.500000  0.500000  0.000000  1
