# generated using pymatgen
data_Tm10CoAg3
_symmetry_space_group_name_H-M   'P 1'
_cell_length_a   9.37794800
_cell_length_b   9.37794782
_cell_length_c   9.46439400
_cell_angle_alpha   90.00000000
_cell_angle_beta   90.00000000
_cell_angle_gamma   120.00000062
_symmetry_Int_Tables_number   1
_chemical_formula_structural   Tm10CoAg3
_chemical_formula_sum   'Tm20 Co2 Ag6'
_cell_volume   720.84032355
_cell_formula_units_Z   2
loop_
 _symmetry_equiv_pos_site_id
 _symmetry_equiv_pos_as_xyz
  1  'x, y, z'
loop_
 _atom_site_type_symbol
 _atom_site_label
 _atom_site_symmetry_multiplicity
 _atom_site_fract_x
 _atom_site_fract_y
 _atom_site_fract_z
 _atom_site_occupancy
  Tm  Tm0  1  0.000000  0.000000  0.500000  1
  Tm  Tm1  1  0.000000  0.000000  0.000000  1
  Tm  Tm2  1  0.542713  0.457287  0.250000  1
  Tm  Tm3  1  0.542713  0.085427  0.250000  1
  Tm  Tm4  1  0.914573  0.457287  0.250000  1
  Tm  Tm5  1  0.457287  0.542713  0.750000  1
  Tm  Tm6  1  0.457287  0.914573  0.750000  1
  Tm  Tm7  1  0.085427  0.542713  0.750000  1
  Tm  Tm8  1  0.210922  0.789078  0.437843  1
  Tm  Tm9  1  0.210922  0.421845  0.437843  1
  Tm  Tm10  1  0.578155  0.789078  0.437843  1
  Tm  Tm11  1  0.789078  0.210922  0.562157  1
  Tm  Tm12  1  0.789078  0.578155  0.562157  1
  Tm  Tm13  1  0.421845  0.210922  0.562157  1
  Tm  Tm14  1  0.789078  0.210922  0.937843  1
  Tm  Tm15  1  0.789078  0.578155  0.937843  1
  Tm  Tm16  1  0.421845  0.210922  0.937843  1
  Tm  Tm17  1  0.210922  0.789078  0.062157  1
  Tm  Tm18  1  0.210922  0.421845  0.062157  1
  Tm  Tm19  1  0.578155  0.789078  0.062157  1
  Co  Co20  1  0.333333  0.666667  0.250000  1
  Co  Co21  1  0.666667  0.333333  0.750000  1
  Ag  Ag22  1  0.883610  0.116390  0.250000  1
  Ag  Ag23  1  0.883610  0.767219  0.250000  1
  Ag  Ag24  1  0.232781  0.116390  0.250000  1
  Ag  Ag25  1  0.116390  0.883610  0.750000  1
  Ag  Ag26  1  0.116390  0.232781  0.750000  1
  Ag  Ag27  1  0.767219  0.883610  0.750000  1
