# generated using pymatgen
data_La4Gd5YIr4
_symmetry_space_group_name_H-M   'P 1'
_cell_length_a   6.57339957
_cell_length_b   7.23580261
_cell_length_c   8.84786100
_cell_angle_alpha   96.93997450
_cell_angle_beta   111.76526826
_cell_angle_gamma   90.13293154
_symmetry_Int_Tables_number   1
_chemical_formula_structural   La4Gd5YIr4
_chemical_formula_sum   'La4 Gd5 Y1 Ir4'
_cell_volume   387.46612045
_cell_formula_units_Z   1
loop_
 _symmetry_equiv_pos_site_id
 _symmetry_equiv_pos_as_xyz
  1  'x, y, z'
loop_
 _atom_site_type_symbol
 _atom_site_label
 _atom_site_symmetry_multiplicity
 _atom_site_fract_x
 _atom_site_fract_y
 _atom_site_fract_z
 _atom_site_occupancy
  La  La0  1  0.976942  0.919653  0.192341  1
  La  La1  1  0.784709  0.579590  0.808737  1
  La  La2  1  0.022952  0.079356  0.809566  1
  La  La3  1  0.216088  0.420345  0.192051  1
  Gd  Gd4  1  0.205913  0.685943  0.563627  1
  Gd  Gd5  1  0.360494  0.185959  0.565729  1
  Gd  Gd6  1  0.794555  0.314478  0.435895  1
  Gd  Gd7  1  0.427247  0.751165  0.999997  1
  Gd  Gd8  1  0.572665  0.250090  0.000120  1
  Y  Y9  1  0.638561  0.812624  0.433960  1
  Ir  Ir10  1  0.815959  0.576704  0.226538  1
  Ir  Ir11  1  0.590764  0.923440  0.772789  1
  Ir  Ir12  1  0.183896  0.424162  0.773366  1
  Ir  Ir13  1  0.409256  0.076493  0.225281  1
