# generated using pymatgen
data_Ca2TaAl2SbO10
_symmetry_space_group_name_H-M   'P 1'
_cell_length_a   6.69504751
_cell_length_b   9.04788400
_cell_length_c   7.40739743
_cell_angle_alpha   90.00000000
_cell_angle_beta   113.92187055
_cell_angle_gamma   90.00000000
_symmetry_Int_Tables_number   1
_chemical_formula_structural   Ca2TaAl2SbO10
_chemical_formula_sum   'Ca4 Ta2 Al4 Sb2 O20'
_cell_volume   410.16602295
_cell_formula_units_Z   2
loop_
 _symmetry_equiv_pos_site_id
 _symmetry_equiv_pos_as_xyz
  1  'x, y, z'
loop_
 _atom_site_type_symbol
 _atom_site_label
 _atom_site_symmetry_multiplicity
 _atom_site_fract_x
 _atom_site_fract_y
 _atom_site_fract_z
 _atom_site_occupancy
  Ca  Ca0  1  0.510303  0.162377  0.210664  1
  Ca  Ca1  1  0.989696  0.662377  0.289335  1
  Ca  Ca2  1  0.010304  0.337622  0.710665  1
  Ca  Ca3  1  0.489697  0.837622  0.789336  1
  Ta  Ta4  1  0.500000  0.500000  0.000000  1
  Ta  Ta5  1  0.000000  0.000000  0.500000  1
  Al  Al6  1  0.011848  0.313565  0.247860  1
  Al  Al7  1  0.488152  0.813566  0.252139  1
  Al  Al8  1  0.511848  0.186434  0.747861  1
  Al  Al9  1  0.988153  0.686434  0.752140  1
  Sb  Sb10  1  0.000000  0.000000  0.000000  1
  Sb  Sb11  1  0.500000  0.500000  0.499999  1
  O  O12  1  0.308235  0.934540  0.066636  1
  O  O13  1  0.813580  0.441363  0.099111  1
  O  O14  1  0.598307  0.701170  0.116646  1
  O  O15  1  0.122632  0.197505  0.118681  1
  O  O16  1  0.487662  0.420343  0.245413  1
  O  O17  1  0.012338  0.920343  0.254586  1
  O  O18  1  0.377368  0.697505  0.381319  1
  O  O19  1  0.901693  0.201170  0.383355  1
  O  O20  1  0.686421  0.941362  0.400889  1
  O  O21  1  0.191765  0.434540  0.433365  1
  O  O22  1  0.808235  0.565461  0.566636  1
  O  O23  1  0.313579  0.058637  0.599111  1
  O  O24  1  0.098308  0.798831  0.616645  1
  O  O25  1  0.622631  0.302494  0.618681  1
  O  O26  1  0.987662  0.079657  0.745414  1
  O  O27  1  0.512338  0.579657  0.754587  1
  O  O28  1  0.877368  0.802494  0.881319  1
  O  O29  1  0.401692  0.298830  0.883355  1
  O  O30  1  0.186420  0.558637  0.900889  1
  O  O31  1  0.691765  0.065461  0.933364  1
