# generated using pymatgen
data_Zr6Ti4Si6C
_symmetry_space_group_name_H-M   'P 1'
_cell_length_a   7.70694700
_cell_length_b   7.70694771
_cell_length_c   5.31060000
_cell_angle_alpha   90.00000000
_cell_angle_beta   90.00000000
_cell_angle_gamma   119.99999265
_symmetry_Int_Tables_number   1
_chemical_formula_structural   Zr6Ti4Si6C
_chemical_formula_sum   'Zr6 Ti4 Si6 C1'
_cell_volume   273.17379749
_cell_formula_units_Z   1
loop_
 _symmetry_equiv_pos_site_id
 _symmetry_equiv_pos_as_xyz
  1  'x, y, z'
loop_
 _atom_site_type_symbol
 _atom_site_label
 _atom_site_symmetry_multiplicity
 _atom_site_fract_x
 _atom_site_fract_y
 _atom_site_fract_z
 _atom_site_occupancy
  Zr  Zr0  1  0.000000  0.755109  0.253964  1
  Zr  Zr1  1  0.244891  0.244891  0.253964  1
  Zr  Zr2  1  0.755109  0.000000  0.253964  1
  Zr  Zr3  1  0.000000  0.244891  0.746036  1
  Zr  Zr4  1  0.755109  0.755109  0.746036  1
  Zr  Zr5  1  0.244891  0.000000  0.746036  1
  Ti  Ti6  1  0.333333  0.666667  0.000000  1
  Ti  Ti7  1  0.666667  0.333333  0.000000  1
  Ti  Ti8  1  0.666667  0.333333  0.500000  1
  Ti  Ti9  1  0.333333  0.666667  0.500000  1
  Si  Si10  1  0.000000  0.403726  0.247946  1
  Si  Si11  1  0.596274  0.596274  0.247946  1
  Si  Si12  1  0.403726  0.000000  0.247946  1
  Si  Si13  1  0.000000  0.596274  0.752054  1
  Si  Si14  1  0.403726  0.403726  0.752054  1
  Si  Si15  1  0.596274  0.000000  0.752054  1
  C  C16  1  0.000000  0.000000  0.500000  1
