# generated using pymatgen
data_Sr4Sc2IrRhO12
_symmetry_space_group_name_H-M   'P 1'
_cell_length_a   5.73553954
_cell_length_b   5.68914001
_cell_length_c   8.02579261
_cell_angle_alpha   89.99303300
_cell_angle_beta   90.20376167
_cell_angle_gamma   89.99557687
_symmetry_Int_Tables_number   1
_chemical_formula_structural   Sr4Sc2IrRhO12
_chemical_formula_sum   'Sr4 Sc2 Ir1 Rh1 O12'
_cell_volume   261.88226170
_cell_formula_units_Z   1
loop_
 _symmetry_equiv_pos_site_id
 _symmetry_equiv_pos_as_xyz
  1  'x, y, z'
loop_
 _atom_site_type_symbol
 _atom_site_label
 _atom_site_symmetry_multiplicity
 _atom_site_fract_x
 _atom_site_fract_y
 _atom_site_fract_z
 _atom_site_occupancy
  Sr  Sr0  1  0.504543  0.502657  0.240793  1
  Sr  Sr1  1  0.996318  0.002258  0.242419  1
  Sr  Sr2  1  0.003681  0.997743  0.757581  1
  Sr  Sr3  1  0.495456  0.497342  0.759207  1
  Sc  Sc4  1  0.000000  0.499999  0.000000  1
  Sc  Sc5  1  0.499999  0.000000  0.500000  1
  Ir  Ir6  1  0.999999  0.499999  0.500000  1
  Rh  Rh7  1  0.500001  0.000000  0.000000  1
  O  O8  1  0.742498  0.249468  0.029214  1
  O  O9  1  0.748301  0.756440  0.029336  1
  O  O10  1  0.442942  0.999222  0.246295  1
  O  O11  1  0.056425  0.499356  0.260017  1
  O  O12  1  0.756471  0.260839  0.469302  1
  O  O13  1  0.762433  0.745226  0.469401  1
  O  O14  1  0.237568  0.254775  0.530599  1
  O  O15  1  0.243528  0.739162  0.530698  1
  O  O16  1  0.943574  0.500645  0.739983  1
  O  O17  1  0.557058  0.000779  0.753704  1
  O  O18  1  0.251699  0.243561  0.970664  1
  O  O19  1  0.257501  0.750533  0.970786  1
