# generated using pymatgen
data_Y2Er8In3Fe
_symmetry_space_group_name_H-M   'P 1'
_cell_length_a   9.52544200
_cell_length_b   9.52298338
_cell_length_c   9.54763700
_cell_angle_alpha   90.00000000
_cell_angle_beta   90.00000000
_cell_angle_gamma   119.99207555
_symmetry_Int_Tables_number   1
_chemical_formula_structural   Y2Er8In3Fe
_chemical_formula_sum   'Y4 Er16 In6 Fe2'
_cell_volume   750.10034923
_cell_formula_units_Z   2
loop_
 _symmetry_equiv_pos_site_id
 _symmetry_equiv_pos_as_xyz
  1  'x, y, z'
loop_
 _atom_site_type_symbol
 _atom_site_label
 _atom_site_symmetry_multiplicity
 _atom_site_fract_x
 _atom_site_fract_y
 _atom_site_fract_z
 _atom_site_occupancy
  Y  Y0  1  0.919038  0.459510  0.250000  1
  Y  Y1  1  0.460024  0.539953  0.750000  1
  Y  Y2  1  0.460016  0.920083  0.750000  1
  Y  Y3  1  0.079285  0.539648  0.750000  1
  Er  Er4  1  0.000329  0.000164  0.499753  1
  Er  Er5  1  0.000329  0.000164  0.000247  1
  Er  Er6  1  0.539544  0.459563  0.250000  1
  Er  Er7  1  0.539546  0.079966  0.250000  1
  Er  Er8  1  0.212257  0.789032  0.435125  1
  Er  Er9  1  0.212254  0.423231  0.435141  1
  Er  Er10  1  0.577077  0.788544  0.435071  1
  Er  Er11  1  0.787782  0.211223  0.564055  1
  Er  Er12  1  0.787790  0.576552  0.564040  1
  Er  Er13  1  0.423694  0.211847  0.563437  1
  Er  Er14  1  0.787782  0.211223  0.935945  1
  Er  Er15  1  0.787790  0.576552  0.935960  1
  Er  Er16  1  0.423694  0.211847  0.936563  1
  Er  Er17  1  0.212257  0.789032  0.064875  1
  Er  Er18  1  0.212254  0.423231  0.064859  1
  Er  Er19  1  0.577077  0.788544  0.064929  1
  In  In20  1  0.883041  0.115043  0.250000  1
  In  In21  1  0.883037  0.767992  0.250000  1
  In  In22  1  0.233240  0.116626  0.250000  1
  In  In23  1  0.115847  0.884323  0.750000  1
  In  In24  1  0.115847  0.231533  0.750000  1
  In  In25  1  0.768295  0.884156  0.750000  1
  Fe  Fe26  1  0.333875  0.666917  0.250000  1
  Fe  Fe27  1  0.666998  0.333498  0.750000  1
