# generated using pymatgen
data_Tm2LuCo2Sn3
_symmetry_space_group_name_H-M   'P 1'
_cell_length_a   5.72952268
_cell_length_b   5.72952302
_cell_length_c   14.65595700
_cell_angle_alpha   90.00000000
_cell_angle_beta   90.00000000
_cell_angle_gamma   134.57779896
_symmetry_Int_Tables_number   1
_chemical_formula_structural   Tm2LuCo2Sn3
_chemical_formula_sum   'Tm4 Lu2 Co4 Sn6'
_cell_volume   342.69901622
_cell_formula_units_Z   2
loop_
 _symmetry_equiv_pos_site_id
 _symmetry_equiv_pos_as_xyz
  1  'x, y, z'
loop_
 _atom_site_type_symbol
 _atom_site_label
 _atom_site_symmetry_multiplicity
 _atom_site_fract_x
 _atom_site_fract_y
 _atom_site_fract_z
 _atom_site_occupancy
  Tm  Tm0  1  0.568551  0.431449  0.612026  1
  Tm  Tm1  1  0.431449  0.568551  0.387974  1
  Tm  Tm2  1  0.431449  0.568551  0.112026  1
  Tm  Tm3  1  0.568551  0.431449  0.887974  1
  Lu  Lu4  1  0.147280  0.852720  0.250000  1
  Lu  Lu5  1  0.852720  0.147280  0.750000  1
  Co  Co6  1  0.300266  0.699734  0.609495  1
  Co  Co7  1  0.699734  0.300266  0.390505  1
  Co  Co8  1  0.699734  0.300266  0.109495  1
  Co  Co9  1  0.300266  0.699734  0.890505  1
  Sn  Sn10  1  0.860690  0.139310  0.535082  1
  Sn  Sn11  1  0.139310  0.860690  0.464918  1
  Sn  Sn12  1  0.150482  0.849518  0.750000  1
  Sn  Sn13  1  0.849518  0.150482  0.250000  1
  Sn  Sn14  1  0.860690  0.139310  0.964918  1
  Sn  Sn15  1  0.139310  0.860690  0.035082  1
