# generated using pymatgen
data_Y2Ho6Tc3B24Os
_symmetry_space_group_name_H-M   'P 1'
_cell_length_a   3.66852400
_cell_length_b   9.14126039
_cell_length_c   11.52655300
_cell_angle_alpha   89.95231152
_cell_angle_beta   90.00000000
_cell_angle_gamma   90.00000000
_symmetry_Int_Tables_number   1
_chemical_formula_structural   Y2Ho6Tc3B24Os
_chemical_formula_sum   'Y2 Ho6 Tc3 B24 Os1'
_cell_volume   386.54205015
_cell_formula_units_Z   1
loop_
 _symmetry_equiv_pos_site_id
 _symmetry_equiv_pos_as_xyz
  1  'x, y, z'
loop_
 _atom_site_type_symbol
 _atom_site_label
 _atom_site_symmetry_multiplicity
 _atom_site_fract_x
 _atom_site_fract_y
 _atom_site_fract_z
 _atom_site_occupancy
  Y  Y0  1  0.000000  0.323614  0.413819  1
  Y  Y1  1  0.000000  0.675471  0.584302  1
  Ho  Ho2  1  0.000000  0.823038  0.087279  1
  Ho  Ho3  1  0.000000  0.177772  0.914593  1
  Ho  Ho4  1  0.000000  0.942615  0.369971  1
  Ho  Ho5  1  0.000000  0.058109  0.630080  1
  Ho  Ho6  1  0.000000  0.443008  0.130087  1
  Ho  Ho7  1  0.000000  0.556934  0.869595  1
  Tc  Tc8  1  0.000000  0.638618  0.320302  1
  Tc  Tc9  1  0.000000  0.361383  0.680232  1
  Tc  Tc10  1  0.000000  0.137751  0.178103  1
  B  B11  1  0.500000  0.553260  0.432713  1
  B  B12  1  0.500000  0.446683  0.567049  1
  B  B13  1  0.500000  0.053043  0.066819  1
  B  B14  1  0.500000  0.946321  0.932994  1
  B  B15  1  0.500000  0.748776  0.418542  1
  B  B16  1  0.500000  0.250972  0.581484  1
  B  B17  1  0.500000  0.249133  0.081117  1
  B  B18  1  0.500000  0.751361  0.918598  1
  B  B19  1  0.500000  0.791836  0.265469  1
  B  B20  1  0.500000  0.208358  0.735063  1
  B  B21  1  0.500000  0.291606  0.234369  1
  B  B22  1  0.500000  0.709158  0.765628  1
  B  B23  1  0.500000  0.631182  0.185517  1
  B  B24  1  0.500000  0.368761  0.814971  1
  B  B25  1  0.500000  0.130444  0.313918  1
  B  B26  1  0.500000  0.869133  0.685954  1
  B  B27  1  0.500000  0.981783  0.211780  1
  B  B28  1  0.500000  0.017054  0.788242  1
  B  B29  1  0.500000  0.482396  0.287751  1
  B  B30  1  0.500000  0.517412  0.712037  1
  B  B31  1  0.500000  0.602104  0.028184  1
  B  B32  1  0.500000  0.398896  0.971636  1
  B  B33  1  0.500000  0.101463  0.471841  1
  B  B34  1  0.500000  0.898560  0.528609  1
  Os  Os35  1  0.000000  0.861991  0.821353  1
