# generated using pymatgen
data_AcTbIrO6
_symmetry_space_group_name_H-M   'P 1'
_cell_length_a   5.45328900
_cell_length_b   9.37819800
_cell_length_c   10.10081400
_cell_angle_alpha   90.00000000
_cell_angle_beta   90.00000000
_cell_angle_gamma   90.00000000
_symmetry_Int_Tables_number   1
_chemical_formula_structural   AcTbIrO6
_chemical_formula_sum   'Ac4 Tb4 Ir4 O24'
_cell_volume   516.57607194
_cell_formula_units_Z   4
loop_
 _symmetry_equiv_pos_site_id
 _symmetry_equiv_pos_as_xyz
  1  'x, y, z'
loop_
 _atom_site_type_symbol
 _atom_site_label
 _atom_site_symmetry_multiplicity
 _atom_site_fract_x
 _atom_site_fract_y
 _atom_site_fract_z
 _atom_site_occupancy
  Ac  Ac0  1  0.528530  0.224076  0.356659  1
  Ac  Ac1  1  0.028530  0.275924  0.643341  1
  Ac  Ac2  1  0.471470  0.724076  0.143341  1
  Ac  Ac3  1  0.971470  0.775924  0.856659  1
  Tb  Tb4  1  0.524857  0.101909  0.957866  1
  Tb  Tb5  1  0.024857  0.398091  0.042134  1
  Tb  Tb6  1  0.475143  0.601909  0.542134  1
  Tb  Tb7  1  0.975143  0.898091  0.457866  1
  Ir  Ir8  1  0.461916  0.989787  0.638236  1
  Ir  Ir9  1  0.961916  0.510213  0.361764  1
  Ir  Ir10  1  0.538084  0.489787  0.861764  1
  Ir  Ir11  1  0.038084  0.010213  0.138236  1
  O  O12  1  0.315223  0.135895  0.164052  1
  O  O13  1  0.815223  0.364105  0.835948  1
  O  O14  1  0.684777  0.635895  0.335948  1
  O  O15  1  0.184777  0.864105  0.664052  1
  O  O16  1  0.730118  0.100200  0.560858  1
  O  O17  1  0.230118  0.399800  0.439142  1
  O  O18  1  0.269882  0.600200  0.939142  1
  O  O19  1  0.769882  0.899800  0.060858  1
  O  O20  1  0.662919  0.633936  0.741309  1
  O  O21  1  0.162919  0.866064  0.258691  1
  O  O22  1  0.337081  0.133936  0.758691  1
  O  O23  1  0.837081  0.366064  0.241309  1
  O  O24  1  0.657174  0.944617  0.789712  1
  O  O25  1  0.157174  0.555383  0.210288  1
  O  O26  1  0.342826  0.444617  0.710288  1
  O  O27  1  0.842826  0.055383  0.289712  1
  O  O28  1  0.249593  0.076427  0.499458  1
  O  O29  1  0.749593  0.423573  0.500542  1
  O  O30  1  0.750407  0.576427  0.000542  1
  O  O31  1  0.250407  0.923573  0.999458  1
  O  O32  1  0.092817  0.662472  0.473620  1
  O  O33  1  0.592817  0.837528  0.526380  1
  O  O34  1  0.907183  0.162472  0.026380  1
  O  O35  1  0.407183  0.337528  0.973620  1
