# generated using pymatgen
data_Y6Zn4IrPd12
_symmetry_space_group_name_H-M   'P 1'
_cell_length_a   8.25849407
_cell_length_b   8.25849408
_cell_length_c   8.25849500
_cell_angle_alpha   109.47121800
_cell_angle_beta   109.47121802
_cell_angle_gamma   109.47122669
_symmetry_Int_Tables_number   1
_chemical_formula_structural   Y6Zn4IrPd12
_chemical_formula_sum   'Y6 Zn4 Ir1 Pd12'
_cell_volume   433.59147787
_cell_formula_units_Z   1
loop_
 _symmetry_equiv_pos_site_id
 _symmetry_equiv_pos_as_xyz
  1  'x, y, z'
loop_
 _atom_site_type_symbol
 _atom_site_label
 _atom_site_symmetry_multiplicity
 _atom_site_fract_x
 _atom_site_fract_y
 _atom_site_fract_z
 _atom_site_occupancy
  Y  Y0  1  0.705081  0.705081  0.000000  1
  Y  Y1  1  0.294919  0.000000  0.294919  1
  Y  Y2  1  0.000000  0.294919  0.294919  1
  Y  Y3  1  0.294919  0.294919  0.000000  1
  Y  Y4  1  0.705081  0.000000  0.705081  1
  Y  Y5  1  0.000000  0.705081  0.705081  1
  Zn  Zn6  1  0.000000  0.000000  0.500000  1
  Zn  Zn7  1  0.000000  0.500000  0.000000  1
  Zn  Zn8  1  0.500000  0.000000  0.000000  1
  Zn  Zn9  1  0.500000  0.500000  0.500000  1
  Ir  Ir10  1  0.000000  0.000000  0.000000  1
  Pd  Pd11  1  0.334180  0.334180  0.668362  1
  Pd  Pd12  1  0.665820  0.000000  0.334180  1
  Pd  Pd13  1  0.000000  0.665820  0.334180  1
  Pd  Pd14  1  0.665820  0.334180  0.000000  1
  Pd  Pd15  1  0.334180  0.668362  0.334180  1
  Pd  Pd16  1  0.000000  0.334180  0.665820  1
  Pd  Pd17  1  0.334180  0.665820  0.000000  1
  Pd  Pd18  1  0.334180  0.000000  0.665820  1
  Pd  Pd19  1  0.668362  0.334180  0.334180  1
  Pd  Pd20  1  0.665820  0.665820  0.331638  1
  Pd  Pd21  1  0.665820  0.331638  0.665820  1
  Pd  Pd22  1  0.331638  0.665820  0.665820  1
