# generated using pymatgen
data_Tm5ScFeTe2
_symmetry_space_group_name_H-M   'P 1'
_cell_length_a   8.08380193
_cell_length_b   8.23870627
_cell_length_c   3.93130800
_cell_angle_alpha   90.00000000
_cell_angle_beta   90.00000000
_cell_angle_gamma   120.63593700
_symmetry_Int_Tables_number   1
_chemical_formula_structural   Tm5ScFeTe2
_chemical_formula_sum   'Tm5 Sc1 Fe1 Te2'
_cell_volume   225.28047379
_cell_formula_units_Z   1
loop_
 _symmetry_equiv_pos_site_id
 _symmetry_equiv_pos_as_xyz
  1  'x, y, z'
loop_
 _atom_site_type_symbol
 _atom_site_label
 _atom_site_symmetry_multiplicity
 _atom_site_fract_x
 _atom_site_fract_y
 _atom_site_fract_z
 _atom_site_occupancy
  Tm  Tm0  1  0.230167  0.996102  0.500000  1
  Tm  Tm1  1  0.769833  0.765935  0.500000  1
  Tm  Tm2  1  0.620453  0.002323  0.000000  1
  Tm  Tm3  1  0.379547  0.381870  0.000000  1
  Tm  Tm4  1  0.000000  0.600461  0.000000  1
  Sc  Sc5  1  0.000000  0.231769  0.500000  1
  Fe  Fe6  1  0.000000  0.027830  0.000000  1
  Te  Te7  1  0.329533  0.661622  0.500000  1
  Te  Te8  1  0.670467  0.332088  0.500000  1
