# generated using pymatgen
data_BaZr2NiSe5
_symmetry_space_group_name_H-M   'P 1'
_cell_length_a   7.57339836
_cell_length_b   7.57339907
_cell_length_c   16.33901000
_cell_angle_alpha   90.00000000
_cell_angle_beta   90.00000000
_cell_angle_gamma   149.95345751
_symmetry_Int_Tables_number   1
_chemical_formula_structural   BaZr2NiSe5
_chemical_formula_sum   'Ba2 Zr4 Ni2 Se10'
_cell_volume   469.23225423
_cell_formula_units_Z   2
loop_
 _symmetry_equiv_pos_site_id
 _symmetry_equiv_pos_as_xyz
  1  'x, y, z'
loop_
 _atom_site_type_symbol
 _atom_site_label
 _atom_site_symmetry_multiplicity
 _atom_site_fract_x
 _atom_site_fract_y
 _atom_site_fract_z
 _atom_site_occupancy
  Ba  Ba0  1  0.036595  0.963405  0.250000  1
  Ba  Ba1  1  0.963405  0.036595  0.750000  1
  Zr  Zr2  1  0.211234  0.788766  0.899360  1
  Zr  Zr3  1  0.788766  0.211234  0.399360  1
  Zr  Zr4  1  0.211234  0.788766  0.600640  1
  Zr  Zr5  1  0.788766  0.211234  0.100640  1
  Ni  Ni6  1  0.316326  0.683674  0.250000  1
  Ni  Ni7  1  0.683674  0.316326  0.750000  1
  Se  Se8  1  0.162948  0.837052  0.438827  1
  Se  Se9  1  0.837052  0.162948  0.938827  1
  Se  Se10  1  0.283321  0.716679  0.750000  1
  Se  Se11  1  0.414183  0.585817  0.369285  1
  Se  Se12  1  0.162948  0.837052  0.061173  1
  Se  Se13  1  0.585817  0.414183  0.869285  1
  Se  Se14  1  0.585817  0.414183  0.630715  1
  Se  Se15  1  0.414183  0.585817  0.130715  1
  Se  Se16  1  0.837052  0.162948  0.561173  1
  Se  Se17  1  0.716679  0.283321  0.250000  1
