# generated using pymatgen
data_Pr(In2Pt)2
_symmetry_space_group_name_H-M   'P 1'
_cell_length_a   4.58430300
_cell_length_b   7.30978237
_cell_length_c   18.71700182
_cell_angle_alpha   90.04826640
_cell_angle_beta   90.00000000
_cell_angle_gamma   90.00000000
_symmetry_Int_Tables_number   1
_chemical_formula_structural   Pr(In2Pt)2
_chemical_formula_sum   'Pr4 In16 Pt8'
_cell_volume   627.21132342
_cell_formula_units_Z   4
loop_
 _symmetry_equiv_pos_site_id
 _symmetry_equiv_pos_as_xyz
  1  'x, y, z'
loop_
 _atom_site_type_symbol
 _atom_site_label
 _atom_site_symmetry_multiplicity
 _atom_site_fract_x
 _atom_site_fract_y
 _atom_site_fract_z
 _atom_site_occupancy
  Pr  Pr0  1  0.750000  0.025707  0.139708  1
  Pr  Pr1  1  0.750000  0.474364  0.640098  1
  Pr  Pr2  1  0.250000  0.526042  0.360473  1
  Pr  Pr3  1  0.250000  0.973850  0.859691  1
  In  In4  1  0.250000  0.737790  0.191703  1
  In  In5  1  0.250000  0.762938  0.691628  1
  In  In6  1  0.750000  0.237873  0.308398  1
  In  In7  1  0.250000  0.503111  0.930372  1
  In  In8  1  0.250000  0.174410  0.685881  1
  In  In9  1  0.750000  0.674276  0.813604  1
  In  In10  1  0.750000  0.351294  0.465516  1
  In  In11  1  0.750000  0.262685  0.808295  1
  In  In12  1  0.750000  0.005124  0.569371  1
  In  In13  1  0.250000  0.850605  0.034299  1
  In  In14  1  0.750000  0.825495  0.314401  1
  In  In15  1  0.750000  0.496087  0.069155  1
  In  In16  1  0.250000  0.325191  0.186016  1
  In  In17  1  0.250000  0.649345  0.535185  1
  In  In18  1  0.750000  0.148563  0.965005  1
  In  In19  1  0.250000  0.995346  0.431155  1
  Pt  Pt20  1  0.250000  0.255011  0.540913  1
  Pt  Pt21  1  0.250000  0.465147  0.782519  1
  Pt  Pt22  1  0.750000  0.753893  0.958731  1
  Pt  Pt23  1  0.750000  0.965316  0.717133  1
  Pt  Pt24  1  0.250000  0.245187  0.040689  1
  Pt  Pt25  1  0.750000  0.745546  0.459670  1
  Pt  Pt26  1  0.250000  0.034810  0.283220  1
  Pt  Pt27  1  0.750000  0.534993  0.217171  1
