# generated using pymatgen
data_HoEr15In4Ir3Pd
_symmetry_space_group_name_H-M   'P 1'
_cell_length_a   9.60007712
_cell_length_b   9.60632096
_cell_length_c   9.61169851
_cell_angle_alpha   60.01849809
_cell_angle_beta   59.96717072
_cell_angle_gamma   59.97847545
_symmetry_Int_Tables_number   1
_chemical_formula_structural   HoEr15In4Ir3Pd
_chemical_formula_sum   'Ho1 Er15 In4 Ir3 Pd1'
_cell_volume   626.61250069
_cell_formula_units_Z   1
loop_
 _symmetry_equiv_pos_site_id
 _symmetry_equiv_pos_as_xyz
  1  'x, y, z'
loop_
 _atom_site_type_symbol
 _atom_site_label
 _atom_site_symmetry_multiplicity
 _atom_site_fract_x
 _atom_site_fract_y
 _atom_site_fract_z
 _atom_site_occupancy
  Ho  Ho0  1  0.440577  0.061860  0.435704  1
  Er  Er1  1  0.440846  0.436259  0.061372  1
  Er  Er2  1  0.653725  0.647828  0.050620  1
  Er  Er3  1  0.185928  0.809483  0.195106  1
  Er  Er4  1  0.060828  0.439684  0.059804  1
  Er  Er5  1  0.186081  0.809416  0.809743  1
  Er  Er6  1  0.060850  0.439727  0.439409  1
  Er  Er7  1  0.810506  0.189799  0.190350  1
  Er  Er8  1  0.654232  0.648474  0.647664  1
  Er  Er9  1  0.810432  0.190038  0.809492  1
  Er  Er10  1  0.186081  0.194761  0.809743  1
  Er  Er11  1  0.046584  0.651401  0.650616  1
  Er  Er12  1  0.440846  0.061523  0.061372  1
  Er  Er13  1  0.060850  0.060016  0.439409  1
  Er  Er14  1  0.654232  0.049633  0.647664  1
  Er  Er15  1  0.810506  0.809345  0.190350  1
  In  In16  1  0.416554  0.416891  0.416843  1
  In  In17  1  0.416561  0.416881  0.749679  1
  In  In18  1  0.416554  0.749712  0.416843  1
  In  In19  1  0.749844  0.416747  0.416663  1
  Ir  Ir20  1  0.857096  0.858548  0.858795  1
  Ir  Ir21  1  0.857096  0.425559  0.858795  1
  Ir  Ir22  1  0.857278  0.858561  0.425598  1
  Pd  Pd23  1  0.425916  0.857856  0.858371  1
