# generated using pymatgen
data_Dy19TmIr11Os
_symmetry_space_group_name_H-M   'P 1'
_cell_length_a   10.86784400
_cell_length_b   10.86744400
_cell_length_c   6.39206500
_cell_angle_alpha   90.00000000
_cell_angle_beta   90.00000000
_cell_angle_gamma   89.99955714
_symmetry_Int_Tables_number   1
_chemical_formula_structural   Dy19TmIr11Os
_chemical_formula_sum   'Dy19 Tm1 Ir11 Os1'
_cell_volume   754.93922222
_cell_formula_units_Z   1
loop_
 _symmetry_equiv_pos_site_id
 _symmetry_equiv_pos_as_xyz
  1  'x, y, z'
loop_
 _atom_site_type_symbol
 _atom_site_label
 _atom_site_symmetry_multiplicity
 _atom_site_fract_x
 _atom_site_fract_y
 _atom_site_fract_z
 _atom_site_occupancy
  Dy  Dy0  1  0.292167  0.087244  0.376862  1
  Dy  Dy1  1  0.292951  0.912747  0.880455  1
  Dy  Dy2  1  0.707049  0.087253  0.880455  1
  Dy  Dy3  1  0.707833  0.912756  0.376862  1
  Dy  Dy4  1  0.587279  0.793100  0.880567  1
  Dy  Dy5  1  0.587405  0.207378  0.376736  1
  Dy  Dy6  1  0.412595  0.792622  0.376736  1
  Dy  Dy7  1  0.412721  0.206900  0.880567  1
  Dy  Dy8  1  0.208854  0.411509  0.621331  1
  Dy  Dy9  1  0.208807  0.588158  0.120995  1
  Dy  Dy10  1  0.791193  0.411842  0.120995  1
  Dy  Dy11  1  0.791146  0.588491  0.621331  1
  Dy  Dy12  1  0.911870  0.708956  0.121089  1
  Dy  Dy13  1  0.911695  0.290708  0.621227  1
  Dy  Dy14  1  0.088305  0.709292  0.621227  1
  Dy  Dy15  1  0.088130  0.291044  0.121089  1
  Dy  Dy16  1  0.000000  0.000000  0.999252  1
  Dy  Dy17  1  0.500000  0.500000  0.999271  1
  Dy  Dy18  1  0.500000  0.500000  0.499385  1
  Tm  Tm19  1  0.000000  0.000000  0.499370  1
  Ir  Ir20  1  0.848139  0.153317  0.251101  1
  Ir  Ir21  1  0.848119  0.846995  0.748938  1
  Ir  Ir22  1  0.151881  0.153005  0.748938  1
  Ir  Ir23  1  0.151861  0.846683  0.251101  1
  Ir  Ir24  1  0.653554  0.347564  0.749887  1
  Ir  Ir25  1  0.653886  0.652428  0.250217  1
  Ir  Ir26  1  0.346114  0.347572  0.250217  1
  Ir  Ir27  1  0.346446  0.652436  0.749887  1
  Ir  Ir28  1  0.500000  0.000000  0.624087  1
  Ir  Ir29  1  0.000000  0.500000  0.876811  1
  Ir  Ir30  1  0.000000  0.500000  0.377197  1
  Os  Os31  1  0.500000  0.000000  0.125810  1
