# generated using pymatgen
data_Dy4Lu(SiBi)2
_symmetry_space_group_name_H-M   'P 1'
_cell_length_a   8.64770819
_cell_length_b   8.64770902
_cell_length_c   7.88815500
_cell_angle_alpha   90.00000000
_cell_angle_beta   90.00000000
_cell_angle_gamma   125.88042560
_symmetry_Int_Tables_number   1
_chemical_formula_structural   Dy4Lu(SiBi)2
_chemical_formula_sum   'Dy8 Lu2 Si4 Bi4'
_cell_volume   477.96075531
_cell_formula_units_Z   2
loop_
 _symmetry_equiv_pos_site_id
 _symmetry_equiv_pos_as_xyz
  1  'x, y, z'
loop_
 _atom_site_type_symbol
 _atom_site_label
 _atom_site_symmetry_multiplicity
 _atom_site_fract_x
 _atom_site_fract_y
 _atom_site_fract_z
 _atom_site_occupancy
  Dy  Dy0  1  0.043117  0.287884  0.334865  1
  Dy  Dy1  1  0.956883  0.712116  0.665135  1
  Dy  Dy2  1  0.456883  0.212116  0.834865  1
  Dy  Dy3  1  0.787884  0.543117  0.165135  1
  Dy  Dy4  1  0.543117  0.787884  0.165135  1
  Dy  Dy5  1  0.212116  0.456883  0.834865  1
  Dy  Dy6  1  0.712116  0.956883  0.665135  1
  Dy  Dy7  1  0.287884  0.043117  0.334865  1
  Lu  Lu8  1  0.000000  0.000000  0.000000  1
  Lu  Lu9  1  0.500000  0.500000  0.500000  1
  Si  Si10  1  0.365490  0.365490  0.133464  1
  Si  Si11  1  0.634510  0.634510  0.866536  1
  Si  Si12  1  0.134510  0.134510  0.633464  1
  Si  Si13  1  0.865490  0.865490  0.366536  1
  Bi  Bi14  1  0.793143  0.206857  0.000000  1
  Bi  Bi15  1  0.206857  0.793143  0.000000  1
  Bi  Bi16  1  0.706857  0.293143  0.500000  1
  Bi  Bi17  1  0.293143  0.706857  0.500000  1
