# generated using pymatgen
data_DyEr4ReOsC7
_symmetry_space_group_name_H-M   'P 1'
_cell_length_a   8.20799626
_cell_length_b   8.20799789
_cell_length_c   3.44732600
_cell_angle_alpha   90.00000000
_cell_angle_beta   90.00000000
_cell_angle_gamma   122.10112890
_symmetry_Int_Tables_number   1
_chemical_formula_structural   DyEr4ReOsC7
_chemical_formula_sum   'Dy1 Er4 Re1 Os1 C7'
_cell_volume   196.74209590
_cell_formula_units_Z   1
loop_
 _symmetry_equiv_pos_site_id
 _symmetry_equiv_pos_as_xyz
  1  'x, y, z'
loop_
 _atom_site_type_symbol
 _atom_site_label
 _atom_site_symmetry_multiplicity
 _atom_site_fract_x
 _atom_site_fract_y
 _atom_site_fract_z
 _atom_site_occupancy
  Dy  Dy0  1  0.500707  0.499293  0.000000  1
  Er  Er1  1  0.076102  0.337327  0.500000  1
  Er  Er2  1  0.922194  0.661876  0.500000  1
  Er  Er3  1  0.662673  0.923898  0.500000  1
  Er  Er4  1  0.338124  0.077806  0.500000  1
  Re  Re5  1  0.284465  0.715535  0.000000  1
  Os  Os6  1  0.713848  0.286152  0.000000  1
  C  C7  1  0.631167  0.368833  0.500000  1
  C  C8  1  0.373843  0.626157  0.500000  1
  C  C9  1  0.999478  0.000522  0.000000  1
  C  C10  1  0.170336  0.170991  0.000000  1
  C  C11  1  0.829009  0.829664  0.000000  1
  C  C12  1  0.999224  0.501168  0.000000  1
  C  C13  1  0.498832  0.000776  0.000000  1
