# generated using pymatgen
data_LaSmB2(Pt3Rh)2
_symmetry_space_group_name_H-M   'P 1'
_cell_length_a   5.49677561
_cell_length_b   5.47361565
_cell_length_c   7.64862200
_cell_angle_alpha   90.00000000
_cell_angle_beta   90.00000000
_cell_angle_gamma   119.86072608
_symmetry_Int_Tables_number   1
_chemical_formula_structural   LaSmB2(Pt3Rh)2
_chemical_formula_sum   'La1 Sm1 B2 Pt6 Rh2'
_cell_volume   199.57398267
_cell_formula_units_Z   1
loop_
 _symmetry_equiv_pos_site_id
 _symmetry_equiv_pos_as_xyz
  1  'x, y, z'
loop_
 _atom_site_type_symbol
 _atom_site_label
 _atom_site_symmetry_multiplicity
 _atom_site_fract_x
 _atom_site_fract_y
 _atom_site_fract_z
 _atom_site_occupancy
  La  La0  1  0.000000  0.000000  0.500000  1
  Sm  Sm1  1  0.000000  0.000000  0.000000  1
  B  B2  1  0.330578  0.665290  0.000000  1
  B  B3  1  0.669422  0.334710  0.000000  1
  Pt  Pt4  1  0.311135  0.655568  0.500000  1
  Pt  Pt5  1  0.688865  0.344432  0.500000  1
  Pt  Pt6  1  0.500000  0.000000  0.200796  1
  Pt  Pt7  1  0.500000  0.000000  0.799204  1
  Pt  Pt8  1  0.500000  0.500000  0.200796  1
  Pt  Pt9  1  0.500000  0.500000  0.799204  1
  Rh  Rh10  1  0.000000  0.500000  0.188932  1
  Rh  Rh11  1  0.000000  0.500000  0.811068  1
