# generated using pymatgen
data_Sc2V(Fe3P2)3
_symmetry_space_group_name_H-M   'P 1'
_cell_length_a   3.59351800
_cell_length_b   10.20386200
_cell_length_c   11.71567500
_cell_angle_alpha   90.00000000
_cell_angle_beta   90.00000000
_cell_angle_gamma   90.00000000
_symmetry_Int_Tables_number   1
_chemical_formula_structural   Sc2V(Fe3P2)3
_chemical_formula_sum   'Sc4 V2 Fe18 P12'
_cell_volume   429.58757983
_cell_formula_units_Z   2
loop_
 _symmetry_equiv_pos_site_id
 _symmetry_equiv_pos_as_xyz
  1  'x, y, z'
loop_
 _atom_site_type_symbol
 _atom_site_label
 _atom_site_symmetry_multiplicity
 _atom_site_fract_x
 _atom_site_fract_y
 _atom_site_fract_z
 _atom_site_occupancy
  Sc  Sc0  1  0.250000  0.576253  0.703355  1
  Sc  Sc1  1  0.250000  0.923747  0.203355  1
  Sc  Sc2  1  0.750000  0.418301  0.295564  1
  Sc  Sc3  1  0.750000  0.081699  0.795564  1
  V  V4  1  0.250000  0.702980  0.989567  1
  V  V5  1  0.250000  0.797020  0.489567  1
  Fe  Fe6  1  0.750000  0.295195  0.010690  1
  Fe  Fe7  1  0.750000  0.204805  0.510690  1
  Fe  Fe8  1  0.250000  0.401298  0.489839  1
  Fe  Fe9  1  0.250000  0.098702  0.989839  1
  Fe  Fe10  1  0.750000  0.589180  0.511319  1
  Fe  Fe11  1  0.750000  0.910820  0.011319  1
  Fe  Fe12  1  0.250000  0.223075  0.176106  1
  Fe  Fe13  1  0.250000  0.276925  0.676106  1
  Fe  Fe14  1  0.750000  0.783668  0.822775  1
  Fe  Fe15  1  0.750000  0.716332  0.322775  1
  Fe  Fe16  1  0.250000  0.874572  0.702670  1
  Fe  Fe17  1  0.250000  0.625428  0.202670  1
  Fe  Fe18  1  0.750000  0.123111  0.299180  1
  Fe  Fe19  1  0.750000  0.376889  0.799180  1
  Fe  Fe20  1  0.250000  0.461415  0.932771  1
  Fe  Fe21  1  0.250000  0.038585  0.432771  1
  Fe  Fe22  1  0.750000  0.536528  0.067702  1
  Fe  Fe23  1  0.750000  0.963472  0.567702  1
  P  P24  1  0.250000  0.422744  0.116054  1
  P  P25  1  0.250000  0.077256  0.616054  1
  P  P26  1  0.750000  0.575975  0.882076  1
  P  P27  1  0.750000  0.924025  0.382076  1
  P  P28  1  0.250000  0.262061  0.868344  1
  P  P29  1  0.250000  0.237939  0.368344  1
  P  P30  1  0.750000  0.741944  0.130942  1
  P  P31  1  0.750000  0.758056  0.630942  1
  P  P32  1  0.250000  0.588076  0.393929  1
  P  P33  1  0.250000  0.911924  0.893929  1
  P  P34  1  0.750000  0.396108  0.607114  1
  P  P35  1  0.750000  0.103892  0.107114  1
