# generated using pymatgen
data_Nb9Mo4Ru5
_symmetry_space_group_name_H-M   'P 1'
_cell_length_a   7.83218933
_cell_length_b   7.83386236
_cell_length_c   5.58236804
_cell_angle_alpha   89.98809043
_cell_angle_beta   90.02383155
_cell_angle_gamma   119.99293138
_symmetry_Int_Tables_number   1
_chemical_formula_structural   Nb9Mo4Ru5
_chemical_formula_sum   'Nb9 Mo4 Ru5'
_cell_volume   296.64641486
_cell_formula_units_Z   1
loop_
 _symmetry_equiv_pos_site_id
 _symmetry_equiv_pos_as_xyz
  1  'x, y, z'
loop_
 _atom_site_type_symbol
 _atom_site_label
 _atom_site_symmetry_multiplicity
 _atom_site_fract_x
 _atom_site_fract_y
 _atom_site_fract_z
 _atom_site_occupancy
  Nb  Nb0  1  0.664436  0.000000  0.224862  1
  Nb  Nb1  1  0.333334  0.331375  0.224309  1
  Nb  Nb2  1  0.001959  0.668625  0.224309  1
  Nb  Nb3  1  0.665554  0.332442  0.558399  1
  Nb  Nb4  1  0.333113  0.667558  0.558399  1
  Nb  Nb5  1  0.001208  0.000000  0.559018  1
  Nb  Nb6  1  0.333461  0.000000  0.892785  1
  Nb  Nb7  1  0.999889  0.333121  0.893549  1
  Nb  Nb8  1  0.666768  0.666879  0.893549  1
  Mo  Mo9  1  0.668702  0.335385  0.058634  1
  Mo  Mo10  1  0.333318  0.664615  0.058634  1
  Mo  Mo11  1  0.997923  0.000000  0.058155  1
  Mo  Mo12  1  0.333226  0.000000  0.392584  1
  Ru  Ru13  1  0.999822  0.332880  0.392563  1
  Ru  Ru14  1  0.666942  0.667120  0.392563  1
  Ru  Ru15  1  0.667676  0.000000  0.725278  1
  Ru  Ru16  1  0.333800  0.334930  0.725126  1
  Ru  Ru17  1  0.998870  0.665070  0.725126  1
