# generated using pymatgen
data_RbBaCrP4Rh3
_symmetry_space_group_name_H-M   'P 1'
_cell_length_a   6.93975300
_cell_length_b   6.98355046
_cell_length_c   5.59851100
_cell_angle_alpha   90.00000000
_cell_angle_beta   90.00000000
_cell_angle_gamma   132.71167527
_symmetry_Int_Tables_number   1
_chemical_formula_structural   RbBaCrP4Rh3
_chemical_formula_sum   'Rb1 Ba1 Cr1 P4 Rh3'
_cell_volume   199.36458727
_cell_formula_units_Z   1
loop_
 _symmetry_equiv_pos_site_id
 _symmetry_equiv_pos_as_xyz
  1  'x, y, z'
loop_
 _atom_site_type_symbol
 _atom_site_label
 _atom_site_symmetry_multiplicity
 _atom_site_fract_x
 _atom_site_fract_y
 _atom_site_fract_z
 _atom_site_occupancy
  Rb  Rb0  1  0.000000  0.000000  0.993371  1
  Ba  Ba1  1  0.500000  0.500000  0.509133  1
  Cr  Cr2  1  0.500000  0.000000  0.249090  1
  P  P3  1  0.642675  0.334095  0.010074  1
  P  P4  1  0.162765  0.854664  0.489325  1
  P  P5  1  0.837235  0.145336  0.489325  1
  P  P6  1  0.357325  0.665905  0.010074  1
  Rh  Rh7  1  0.500000  0.000000  0.749793  1
  Rh  Rh8  1  0.000000  0.500000  0.250541  1
  Rh  Rh9  1  0.000000  0.500000  0.749276  1
