# generated using pymatgen
data_BiSe8Br3
_symmetry_space_group_name_H-M   'P 1'
_cell_length_a   9.40756795
_cell_length_b   9.79939933
_cell_length_c   11.81687041
_cell_angle_alpha   93.45664302
_cell_angle_beta   109.75727215
_cell_angle_gamma   108.09719896
_symmetry_Int_Tables_number   1
_chemical_formula_structural   BiSe8Br3
_chemical_formula_sum   'Bi2 Se16 Br6'
_cell_volume   957.75205023
_cell_formula_units_Z   2
loop_
 _symmetry_equiv_pos_site_id
 _symmetry_equiv_pos_as_xyz
  1  'x, y, z'
loop_
 _atom_site_type_symbol
 _atom_site_label
 _atom_site_symmetry_multiplicity
 _atom_site_fract_x
 _atom_site_fract_y
 _atom_site_fract_z
 _atom_site_occupancy
  Bi  Bi0  1  0.814189  0.067166  0.848820  1
  Bi  Bi1  1  0.185811  0.932834  0.151180  1
  Se  Se2  1  0.857169  0.513509  0.835760  1
  Se  Se3  1  0.142831  0.486491  0.164240  1
  Se  Se4  1  0.715078  0.428682  0.624473  1
  Se  Se5  1  0.284922  0.571318  0.375527  1
  Se  Se6  1  0.729956  0.195377  0.580396  1
  Se  Se7  1  0.270044  0.804623  0.419604  1
  Se  Se8  1  0.934968  0.225781  0.499600  1
  Se  Se9  1  0.065032  0.774219  0.500400  1
  Se  Se10  1  0.882478  0.321392  0.134544  1
  Se  Se11  1  0.117522  0.678608  0.865456  1
  Se  Se12  1  0.704622  0.453634  0.079573  1
  Se  Se13  1  0.295378  0.546366  0.920427  1
  Se  Se14  1  0.663473  0.523459  0.256908  1
  Se  Se15  1  0.336527  0.476541  0.743092  1
  Se  Se16  1  0.831549  0.769671  0.340363  1
  Se  Se17  1  0.168451  0.230329  0.659637  1
  Br  Br18  1  0.509159  0.053610  0.785727  1
  Br  Br19  1  0.490841  0.946390  0.214273  1
  Br  Br20  1  0.797787  0.896085  0.021202  1
  Br  Br21  1  0.202213  0.103915  0.978798  1
  Br  Br22  1  0.757945  0.851468  0.673853  1
  Br  Br23  1  0.242055  0.148532  0.326147  1
