# generated using pymatgen
data_Lu8Zr11Si16Ag
_symmetry_space_group_name_H-M   'P 1'
_cell_length_a   7.26807179
_cell_length_b   7.26807187
_cell_length_c   13.38274000
_cell_angle_alpha   89.97320495
_cell_angle_beta   90.02679505
_cell_angle_gamma   89.99199530
_symmetry_Int_Tables_number   1
_chemical_formula_structural   Lu8Zr11Si16Ag
_chemical_formula_sum   'Lu8 Zr11 Si16 Ag1'
_cell_volume   706.94131420
_cell_formula_units_Z   1
loop_
 _symmetry_equiv_pos_site_id
 _symmetry_equiv_pos_as_xyz
  1  'x, y, z'
loop_
 _atom_site_type_symbol
 _atom_site_label
 _atom_site_symmetry_multiplicity
 _atom_site_fract_x
 _atom_site_fract_y
 _atom_site_fract_z
 _atom_site_occupancy
  Lu  Lu0  1  0.495544  0.151624  0.537092  1
  Lu  Lu1  1  0.498753  0.850380  0.034567  1
  Lu  Lu2  1  0.652376  0.006041  0.284695  1
  Lu  Lu3  1  0.349466  0.996634  0.790094  1
  Lu  Lu4  1  0.850380  0.498753  0.965433  1
  Lu  Lu5  1  0.151624  0.495544  0.462908  1
  Lu  Lu6  1  0.006041  0.652376  0.715305  1
  Lu  Lu7  1  0.996634  0.349466  0.209906  1
  Zr  Zr8  1  0.678596  0.321920  0.751393  1
  Zr  Zr9  1  0.321920  0.678596  0.248607  1
  Zr  Zr10  1  0.823233  0.823233  0.500000  1
  Zr  Zr11  1  0.493785  0.358759  0.123358  1
  Zr  Zr12  1  0.503271  0.642240  0.626246  1
  Zr  Zr13  1  0.859427  0.002464  0.879236  1
  Zr  Zr14  1  0.142235  0.998947  0.374708  1
  Zr  Zr15  1  0.642240  0.503271  0.373754  1
  Zr  Zr16  1  0.358759  0.493785  0.876642  1
  Zr  Zr17  1  0.002464  0.859427  0.120764  1
  Zr  Zr18  1  0.998947  0.142235  0.625292  1
  Si  Si19  1  0.776789  0.135659  0.073425  1
  Si  Si20  1  0.206373  0.855208  0.567811  1
  Si  Si21  1  0.646548  0.704036  0.819149  1
  Si  Si22  1  0.353818  0.296570  0.316129  1
  Si  Si23  1  0.855208  0.206373  0.432189  1
  Si  Si24  1  0.135659  0.776789  0.926575  1
  Si  Si25  1  0.704036  0.646548  0.180851  1
  Si  Si26  1  0.296570  0.353818  0.683871  1
  Si  Si27  1  0.564553  0.207478  0.937744  1
  Si  Si28  1  0.447033  0.798040  0.436891  1
  Si  Si29  1  0.703528  0.947561  0.688384  1
  Si  Si30  1  0.297119  0.055097  0.189365  1
  Si  Si31  1  0.798040  0.447033  0.563109  1
  Si  Si32  1  0.207478  0.564553  0.062256  1
  Si  Si33  1  0.947561  0.703528  0.311616  1
  Si  Si34  1  0.055097  0.297119  0.810635  1
  Ag  Ag35  1  0.178903  0.178903  0.000000  1
