# generated using pymatgen
data_CaCd2(ClO)2
_symmetry_space_group_name_H-M   'P 1'
_cell_length_a   7.02010700
_cell_length_b   6.43858408
_cell_length_c   6.88372109
_cell_angle_alpha   63.79334441
_cell_angle_beta   90.00000000
_cell_angle_gamma   90.00000000
_symmetry_Int_Tables_number   1
_chemical_formula_structural   CaCd2(ClO)2
_chemical_formula_sum   'Ca2 Cd4 Cl4 O4'
_cell_volume   279.15798773
_cell_formula_units_Z   2
loop_
 _symmetry_equiv_pos_site_id
 _symmetry_equiv_pos_as_xyz
  1  'x, y, z'
loop_
 _atom_site_type_symbol
 _atom_site_label
 _atom_site_symmetry_multiplicity
 _atom_site_fract_x
 _atom_site_fract_y
 _atom_site_fract_z
 _atom_site_occupancy
  Ca  Ca0  1  0.871282  0.408106  0.223994  1
  Ca  Ca1  1  0.371282  0.591894  0.276006  1
  Cd  Cd2  1  0.126804  0.592607  0.773259  1
  Cd  Cd3  1  0.626804  0.407393  0.726741  1
  Cd  Cd4  1  0.498573  0.996154  0.513726  1
  Cd  Cd5  1  0.998573  0.003846  0.986274  1
  Cl  Cl6  1  0.640579  0.798057  0.942944  1
  Cl  Cl7  1  0.140579  0.201943  0.557056  1
  Cl  Cl8  1  0.866456  0.805581  0.433885  1
  Cl  Cl9  1  0.366456  0.194419  0.066115  1
  O  O10  1  0.612046  0.326663  0.441083  1
  O  O11  1  0.112046  0.673337  0.058917  1
  O  O12  1  0.384260  0.667628  0.571879  1
  O  O13  1  0.884260  0.332372  0.928121  1
