# generated using pymatgen
data_Ho4Tm8Co5Hg
_symmetry_space_group_name_H-M   'P 1'
_cell_length_a   8.15625487
_cell_length_b   8.15604055
_cell_length_c   8.15625424
_cell_angle_alpha   110.98780881
_cell_angle_beta   110.42503131
_cell_angle_gamma   107.02963774
_symmetry_Int_Tables_number   1
_chemical_formula_structural   Ho4Tm8Co5Hg
_chemical_formula_sum   'Ho4 Tm8 Co5 Hg1'
_cell_volume   417.09365609
_cell_formula_units_Z   1
loop_
 _symmetry_equiv_pos_site_id
 _symmetry_equiv_pos_as_xyz
  1  'x, y, z'
loop_
 _atom_site_type_symbol
 _atom_site_label
 _atom_site_symmetry_multiplicity
 _atom_site_fract_x
 _atom_site_fract_y
 _atom_site_fract_z
 _atom_site_occupancy
  Ho  Ho0  1  0.287438  0.185834  0.473317  1
  Ho  Ho1  1  0.712562  0.814166  0.526683  1
  Ho  Ho2  1  0.287483  0.814166  0.101604  1
  Ho  Ho3  1  0.712517  0.185834  0.898396  1
  Tm  Tm4  1  0.619902  0.314829  0.305037  1
  Tm  Tm5  1  0.380098  0.685171  0.694963  1
  Tm  Tm6  1  0.009792  0.314829  0.694927  1
  Tm  Tm7  1  0.990208  0.685171  0.305073  1
  Tm  Tm8  1  0.214149  0.406003  0.191855  1
  Tm  Tm9  1  0.785851  0.593997  0.808145  1
  Tm  Tm10  1  0.214118  0.022228  0.808111  1
  Tm  Tm11  1  0.785882  0.977772  0.191889  1
  Co  Co12  1  0.000047  0.375884  0.375837  1
  Co  Co13  1  0.999953  0.624116  0.624163  1
  Co  Co14  1  0.386009  0.886106  0.500097  1
  Co  Co15  1  0.613991  0.113894  0.499903  1
  Co  Co16  1  0.000000  0.000000  0.000000  1
  Hg  Hg17  1  0.500000  0.500000  0.000000  1
