# generated using pymatgen
data_TbYb5U2O12
_symmetry_space_group_name_H-M   'P 1'
_cell_length_a   6.73064886
_cell_length_b   6.70675064
_cell_length_c   6.71427057
_cell_angle_alpha   91.60845209
_cell_angle_beta   91.06953988
_cell_angle_gamma   91.43299958
_symmetry_Int_Tables_number   1
_chemical_formula_structural   TbYb5U2O12
_chemical_formula_sum   'Tb1 Yb5 U2 O12'
_cell_volume   302.81636942
_cell_formula_units_Z   1
loop_
 _symmetry_equiv_pos_site_id
 _symmetry_equiv_pos_as_xyz
  1  'x, y, z'
loop_
 _atom_site_type_symbol
 _atom_site_label
 _atom_site_symmetry_multiplicity
 _atom_site_fract_x
 _atom_site_fract_y
 _atom_site_fract_z
 _atom_site_occupancy
  Tb  Tb0  1  0.937852  0.441853  0.749272  1
  Yb  Yb1  1  0.749696  0.940172  0.442111  1
  Yb  Yb2  1  0.554641  0.248894  0.061691  1
  Yb  Yb3  1  0.251049  0.057949  0.555757  1
  Yb  Yb4  1  0.062700  0.559585  0.251114  1
  Yb  Yb5  1  0.443599  0.749763  0.940342  1
  U  U6  1  0.999557  0.999541  0.001009  1
  U  U7  1  0.498301  0.500588  0.498354  1
  O  O8  1  0.294817  0.063482  0.922187  1
  O  O9  1  0.064804  0.920092  0.296567  1
  O  O10  1  0.919706  0.304155  0.062370  1
  O  O11  1  0.703829  0.935284  0.078812  1
  O  O12  1  0.934321  0.088136  0.701076  1
  O  O13  1  0.079364  0.693822  0.928836  1
  O  O14  1  0.194810  0.407557  0.541236  1
  O  O15  1  0.409907  0.539231  0.200935  1
  O  O16  1  0.461154  0.797261  0.589825  1
  O  O17  1  0.595933  0.459570  0.799361  1
  O  O18  1  0.805363  0.590255  0.468446  1
  O  O19  1  0.538597  0.202810  0.410697  1
