# generated using pymatgen
data_Cs3Nb(SO)2
_symmetry_space_group_name_H-M   'P 1'
_cell_length_a   8.12479300
_cell_length_b   11.88784664
_cell_length_c   13.22375465
_cell_angle_alpha   57.56160265
_cell_angle_beta   90.00000000
_cell_angle_gamma   90.00000000
_symmetry_Int_Tables_number   1
_chemical_formula_structural   Cs3Nb(SO)2
_chemical_formula_sum   'Cs12 Nb4 S8 O8'
_cell_volume   1077.94498013
_cell_formula_units_Z   4
loop_
 _symmetry_equiv_pos_site_id
 _symmetry_equiv_pos_as_xyz
  1  'x, y, z'
loop_
 _atom_site_type_symbol
 _atom_site_label
 _atom_site_symmetry_multiplicity
 _atom_site_fract_x
 _atom_site_fract_y
 _atom_site_fract_z
 _atom_site_occupancy
  Cs  Cs0  1  0.742424  0.059558  0.884185  1
  Cs  Cs1  1  0.861613  0.517433  0.159106  1
  Cs  Cs2  1  0.257576  0.940442  0.115815  1
  Cs  Cs3  1  0.757576  0.059558  0.384185  1
  Cs  Cs4  1  0.138387  0.482567  0.840894  1
  Cs  Cs5  1  0.727594  0.767516  0.792197  1
  Cs  Cs6  1  0.361613  0.482567  0.340894  1
  Cs  Cs7  1  0.227594  0.232484  0.707803  1
  Cs  Cs8  1  0.272406  0.232484  0.207803  1
  Cs  Cs9  1  0.772406  0.767516  0.292197  1
  Cs  Cs10  1  0.242424  0.940442  0.615815  1
  Cs  Cs11  1  0.638387  0.517433  0.659106  1
  Nb  Nb12  1  0.699622  0.304640  0.027484  1
  Nb  Nb13  1  0.800378  0.304640  0.527484  1
  Nb  Nb14  1  0.300378  0.695360  0.972516  1
  Nb  Nb15  1  0.199622  0.695360  0.472516  1
  S  S16  1  0.474377  0.251437  0.947239  1
  S  S17  1  0.587282  0.146203  0.587605  1
  S  S18  1  0.974377  0.748563  0.552761  1
  S  S19  1  0.525623  0.748563  0.052761  1
  S  S20  1  0.025623  0.251437  0.447239  1
  S  S21  1  0.087282  0.853797  0.912395  1
  S  S22  1  0.412718  0.853797  0.412395  1
  S  S23  1  0.912718  0.146203  0.087605  1
  O  O24  1  0.282326  0.529337  0.582354  1
  O  O25  1  0.632453  0.302762  0.160806  1
  O  O26  1  0.782326  0.470663  0.917646  1
  O  O27  1  0.217674  0.529337  0.082354  1
  O  O28  1  0.867547  0.302762  0.660806  1
  O  O29  1  0.717674  0.470663  0.417646  1
  O  O30  1  0.132453  0.697238  0.339194  1
  O  O31  1  0.367547  0.697238  0.839194  1
