# generated using pymatgen
data_Zr6AlGa6Cu16H3
_symmetry_space_group_name_H-M   'P 1'
_cell_length_a   8.48057609
_cell_length_b   8.48057617
_cell_length_c   8.48057695
_cell_angle_alpha   120.33850199
_cell_angle_beta   120.13219581
_cell_angle_gamma   89.59293575
_symmetry_Int_Tables_number   1
_chemical_formula_structural   Zr6AlGa6Cu16H3
_chemical_formula_sum   'Zr6 Al1 Ga6 Cu16 H3'
_cell_volume   429.73408628
_cell_formula_units_Z   1
loop_
 _symmetry_equiv_pos_site_id
 _symmetry_equiv_pos_as_xyz
  1  'x, y, z'
loop_
 _atom_site_type_symbol
 _atom_site_label
 _atom_site_symmetry_multiplicity
 _atom_site_fract_x
 _atom_site_fract_y
 _atom_site_fract_z
 _atom_site_occupancy
  Zr  Zr0  1  0.799147  0.200865  0.999499  1
  Zr  Zr1  1  0.799147  0.799649  0.598283  1
  Zr  Zr2  1  0.784832  0.784832  0.000000  1
  Zr  Zr3  1  0.201366  0.799649  0.000501  1
  Zr  Zr4  1  0.201366  0.200865  0.401717  1
  Zr  Zr5  1  0.211240  0.211240  0.000000  1
  Al  Al6  1  0.499404  0.499404  0.000000  1
  Ga  Ga7  1  0.497550  0.496220  0.497281  1
  Ga  Ga8  1  0.497550  0.000272  0.001330  1
  Ga  Ga9  1  0.499368  0.999368  0.500000  1
  Ga  Ga10  1  0.998941  0.000272  0.502719  1
  Ga  Ga11  1  0.998941  0.496220  0.998670  1
  Ga  Ga12  1  0.998217  0.498217  0.500000  1
  Cu  Cu13  1  0.471608  0.822097  0.649512  1
  Cu  Cu14  1  0.172586  0.822097  0.350488  1
  Cu  Cu15  1  0.167994  0.828142  0.660148  1
  Cu  Cu16  1  0.167994  0.507847  0.339852  1
  Cu  Cu17  1  0.513550  0.170235  0.343316  1
  Cu  Cu18  1  0.826920  0.170235  0.656684  1
  Cu  Cu19  1  0.829270  0.167394  0.338124  1
  Cu  Cu20  1  0.829270  0.491147  0.661876  1
  Cu  Cu21  1  0.857222  0.617347  0.239876  1
  Cu  Cu22  1  0.377471  0.617347  0.760124  1
  Cu  Cu23  1  0.381743  0.621565  0.239822  1
  Cu  Cu24  1  0.381743  0.141922  0.760178  1
  Cu  Cu25  1  0.142105  0.381832  0.760272  1
  Cu  Cu26  1  0.621560  0.381832  0.239728  1
  Cu  Cu27  1  0.616570  0.376735  0.760166  1
  Cu  Cu28  1  0.616570  0.856403  0.239834  1
  H  H29  1  0.040681  0.040681  0.000000  1
  H  H30  1  0.740949  0.908936  0.832014  1
  H  H31  1  0.076923  0.908936  0.167986  1
