# generated using pymatgen
data_Dy6Er6TcOs3
_symmetry_space_group_name_H-M   'P 1'
_cell_length_a   6.28724496
_cell_length_b   7.38826218
_cell_length_c   9.00200891
_cell_angle_alpha   90.02427131
_cell_angle_beta   90.16790633
_cell_angle_gamma   90.04373825
_symmetry_Int_Tables_number   1
_chemical_formula_structural   Dy6Er6TcOs3
_chemical_formula_sum   'Dy6 Er6 Tc1 Os3'
_cell_volume   418.15769025
_cell_formula_units_Z   1
loop_
 _symmetry_equiv_pos_site_id
 _symmetry_equiv_pos_as_xyz
  1  'x, y, z'
loop_
 _atom_site_type_symbol
 _atom_site_label
 _atom_site_symmetry_multiplicity
 _atom_site_fract_x
 _atom_site_fract_y
 _atom_site_fract_z
 _atom_site_occupancy
  Dy  Dy0  1  0.335382  0.675093  0.062708  1
  Dy  Dy1  1  0.165623  0.175381  0.437058  1
  Dy  Dy2  1  0.871221  0.539730  0.250053  1
  Dy  Dy3  1  0.627185  0.039603  0.249985  1
  Dy  Dy4  1  0.129222  0.459788  0.749942  1
  Dy  Dy5  1  0.370318  0.960564  0.750016  1
  Er  Er6  1  0.666467  0.324902  0.563137  1
  Er  Er7  1  0.834659  0.825471  0.936377  1
  Er  Er8  1  0.666917  0.324338  0.936856  1
  Er  Er9  1  0.834232  0.824909  0.563631  1
  Er  Er10  1  0.335818  0.674542  0.437623  1
  Er  Er11  1  0.165347  0.175114  0.062553  1
  Tc  Tc12  1  0.038248  0.882760  0.250166  1
  Os  Os13  1  0.460209  0.382373  0.249888  1
  Os  Os14  1  0.957747  0.118286  0.750868  1
  Os  Os15  1  0.541404  0.617146  0.749140  1
