# generated using pymatgen
data_Sc12Co4AsOs
_symmetry_space_group_name_H-M   'P 1'
_cell_length_a   7.67332822
_cell_length_b   7.67312213
_cell_length_c   7.67332721
_cell_angle_alpha   111.22533115
_cell_angle_beta   109.69043308
_cell_angle_gamma   107.52026033
_symmetry_Int_Tables_number   1
_chemical_formula_structural   Sc12Co4AsOs
_chemical_formula_sum   'Sc12 Co4 As1 Os1'
_cell_volume   347.41991960
_cell_formula_units_Z   1
loop_
 _symmetry_equiv_pos_site_id
 _symmetry_equiv_pos_as_xyz
  1  'x, y, z'
loop_
 _atom_site_type_symbol
 _atom_site_label
 _atom_site_symmetry_multiplicity
 _atom_site_fract_x
 _atom_site_fract_y
 _atom_site_fract_z
 _atom_site_occupancy
  Sc  Sc0  1  0.430368  0.233287  0.197087  1
  Sc  Sc1  1  0.569632  0.766713  0.802913  1
  Sc  Sc2  1  0.036199  0.233287  0.802919  1
  Sc  Sc3  1  0.963801  0.766713  0.197081  1
  Sc  Sc4  1  0.320053  0.624353  0.304300  1
  Sc  Sc5  1  0.679947  0.375647  0.695700  1
  Sc  Sc6  1  0.320078  0.015804  0.695727  1
  Sc  Sc7  1  0.679922  0.984196  0.304273  1
  Sc  Sc8  1  0.179148  0.270236  0.449409  1
  Sc  Sc9  1  0.820852  0.729763  0.550591  1
  Sc  Sc10  1  0.179172  0.729763  0.908912  1
  Sc  Sc11  1  0.820828  0.270236  0.091088  1
  Co  Co12  1  0.351826  0.000000  0.351826  1
  Co  Co13  1  0.648174  0.000000  0.648174  1
  Co  Co14  1  0.120802  0.620817  0.500015  1
  Co  Co15  1  0.879198  0.379183  0.499985  1
  As  As16  1  0.500000  0.500000  0.000000  1
  Os  Os17  1  0.000000  0.000000  0.000000  1
