# generated using pymatgen
data_Nd6Sn12RuRh
_symmetry_space_group_name_H-M   'P 1'
_cell_length_a   8.72934767
_cell_length_b   8.72934782
_cell_length_c   13.42256000
_cell_angle_alpha   90.00000000
_cell_angle_beta   90.00000000
_cell_angle_gamma   148.64685746
_symmetry_Int_Tables_number   1
_chemical_formula_structural   Nd6Sn12RuRh
_chemical_formula_sum   'Nd6 Sn12 Ru1 Rh1'
_cell_volume   532.18458681
_cell_formula_units_Z   1
loop_
 _symmetry_equiv_pos_site_id
 _symmetry_equiv_pos_as_xyz
  1  'x, y, z'
loop_
 _atom_site_type_symbol
 _atom_site_label
 _atom_site_symmetry_multiplicity
 _atom_site_fract_x
 _atom_site_fract_y
 _atom_site_fract_z
 _atom_site_occupancy
  Nd  Nd0  1  0.602086  0.397914  0.250000  1
  Nd  Nd1  1  0.398272  0.601728  0.750000  1
  Nd  Nd2  1  0.399342  0.600658  0.405001  1
  Nd  Nd3  1  0.600283  0.399717  0.595237  1
  Nd  Nd4  1  0.399342  0.600658  0.094999  1
  Nd  Nd5  1  0.600283  0.399717  0.904763  1
  Sn  Sn6  1  0.926963  0.073037  0.923918  1
  Sn  Sn7  1  0.072595  0.927405  0.075176  1
  Sn  Sn8  1  0.926963  0.073037  0.576082  1
  Sn  Sn9  1  0.072595  0.927405  0.424824  1
  Sn  Sn10  1  0.960122  0.039878  0.250000  1
  Sn  Sn11  1  0.040884  0.959116  0.750000  1
  Sn  Sn12  1  0.745357  0.254644  0.432967  1
  Sn  Sn13  1  0.254745  0.745255  0.566822  1
  Sn  Sn14  1  0.745357  0.254644  0.067033  1
  Sn  Sn15  1  0.254745  0.745255  0.933178  1
  Sn  Sn16  1  0.232386  0.767614  0.250000  1
  Sn  Sn17  1  0.766136  0.233864  0.750000  1
  Ru  Ru18  1  0.199191  0.800809  0.750000  1
  Rh  Rh19  1  0.802354  0.197646  0.250000  1
