# generated using pymatgen
data_Cs2LiTmSb2
_symmetry_space_group_name_H-M   'P 1'
_cell_length_a   11.50628106
_cell_length_b   11.50628068
_cell_length_c   7.33509800
_cell_angle_alpha   90.00000000
_cell_angle_beta   90.00000000
_cell_angle_gamma   100.86261863
_symmetry_Int_Tables_number   1
_chemical_formula_structural   Cs2LiTmSb2
_chemical_formula_sum   'Cs8 Li4 Tm4 Sb8'
_cell_volume   953.72585968
_cell_formula_units_Z   4
loop_
 _symmetry_equiv_pos_site_id
 _symmetry_equiv_pos_as_xyz
  1  'x, y, z'
loop_
 _atom_site_type_symbol
 _atom_site_label
 _atom_site_symmetry_multiplicity
 _atom_site_fract_x
 _atom_site_fract_y
 _atom_site_fract_z
 _atom_site_occupancy
  Cs  Cs0  1  0.071334  0.428666  0.750000  1
  Cs  Cs1  1  0.675802  0.324198  0.781096  1
  Cs  Cs2  1  0.324198  0.675802  0.218904  1
  Cs  Cs3  1  0.571334  0.928666  0.750000  1
  Cs  Cs4  1  0.428666  0.071334  0.250000  1
  Cs  Cs5  1  0.928666  0.571334  0.250000  1
  Cs  Cs6  1  0.824198  0.175802  0.281096  1
  Cs  Cs7  1  0.175802  0.824198  0.718904  1
  Li  Li8  1  0.123322  0.123322  0.500000  1
  Li  Li9  1  0.876678  0.876678  0.500000  1
  Li  Li10  1  0.376678  0.376678  0.000000  1
  Li  Li11  1  0.623322  0.623322  0.000000  1
  Tm  Tm12  1  0.870730  0.870730  0.000000  1
  Tm  Tm13  1  0.370730  0.370730  0.500000  1
  Tm  Tm14  1  0.629270  0.629270  0.500000  1
  Tm  Tm15  1  0.129270  0.129270  0.000000  1
  Sb  Sb16  1  0.838555  0.661445  0.750000  1
  Sb  Sb17  1  0.087672  0.912328  0.238208  1
  Sb  Sb18  1  0.412328  0.587672  0.738208  1
  Sb  Sb19  1  0.587672  0.412328  0.261792  1
  Sb  Sb20  1  0.661445  0.838555  0.250000  1
  Sb  Sb21  1  0.161445  0.338555  0.250000  1
  Sb  Sb22  1  0.338555  0.161445  0.750000  1
  Sb  Sb23  1  0.912328  0.087672  0.761792  1
