# generated using pymatgen
data_Sm7ErSc11Si16Ag
_symmetry_space_group_name_H-M   'P 1'
_cell_length_a   7.10986464
_cell_length_b   7.45891464
_cell_length_c   14.13566397
_cell_angle_alpha   89.92211201
_cell_angle_beta   89.96347212
_cell_angle_gamma   89.82366596
_symmetry_Int_Tables_number   1
_chemical_formula_structural   Sm7ErSc11Si16Ag
_chemical_formula_sum   'Sm7 Er1 Sc11 Si16 Ag1'
_cell_volume   749.63634895
_cell_formula_units_Z   1
loop_
 _symmetry_equiv_pos_site_id
 _symmetry_equiv_pos_as_xyz
  1  'x, y, z'
loop_
 _atom_site_type_symbol
 _atom_site_label
 _atom_site_symmetry_multiplicity
 _atom_site_fract_x
 _atom_site_fract_y
 _atom_site_fract_z
 _atom_site_occupancy
  Sm  Sm0  1  0.990353  0.816865  0.900568  1
  Sm  Sm1  1  0.481224  0.672772  0.900308  1
  Sm  Sm2  1  0.990474  0.817115  0.600157  1
  Sm  Sm3  1  0.511688  0.324679  0.097276  1
  Sm  Sm4  1  0.011385  0.172433  0.403254  1
  Sm  Sm5  1  0.511782  0.325058  0.402255  1
  Sm  Sm6  1  0.481824  0.673126  0.600261  1
  Er  Er7  1  0.012151  0.174663  0.098213  1
  Sc  Sc8  1  0.839407  0.498444  0.249373  1
  Sc  Sc9  1  0.339950  0.001744  0.249430  1
  Sc  Sc10  1  0.658254  0.001271  0.750067  1
  Sc  Sc11  1  0.326578  0.183349  0.625921  1
  Sc  Sc12  1  0.671867  0.823392  0.374696  1
  Sc  Sc13  1  0.171298  0.678440  0.373377  1
  Sc  Sc14  1  0.671828  0.824014  0.124483  1
  Sc  Sc15  1  0.835487  0.327518  0.626049  1
  Sc  Sc16  1  0.326239  0.183399  0.874297  1
  Sc  Sc17  1  0.835934  0.326316  0.874325  1
  Sc  Sc18  1  0.170907  0.678778  0.126031  1
  Si  Si19  1  0.029982  0.108112  0.750245  1
  Si  Si20  1  0.968497  0.883850  0.249078  1
  Si  Si21  1  0.467444  0.621826  0.249681  1
  Si  Si22  1  0.539969  0.380061  0.750146  1
  Si  Si23  1  0.289534  0.893718  0.750146  1
  Si  Si24  1  0.714610  0.122482  0.248483  1
  Si  Si25  1  0.210619  0.375458  0.248918  1
  Si  Si26  1  0.777166  0.622992  0.750260  1
  Si  Si27  1  0.157008  0.459768  0.531512  1
  Si  Si28  1  0.846155  0.536109  0.461231  1
  Si  Si29  1  0.347765  0.964098  0.462342  1
  Si  Si30  1  0.846885  0.533592  0.039586  1
  Si  Si31  1  0.655436  0.034554  0.540388  1
  Si  Si32  1  0.156524  0.456716  0.969574  1
  Si  Si33  1  0.655661  0.034833  0.959706  1
  Si  Si34  1  0.344225  0.965836  0.038325  1
  Ag  Ag35  1  0.153893  0.502618  0.750039  1
