# generated using pymatgen
data_La3ThCdOs
_symmetry_space_group_name_H-M   'P 1'
_cell_length_a   10.09371646
_cell_length_b   10.09371609
_cell_length_c   10.09371700
_cell_angle_alpha   60.00000028
_cell_angle_beta   60.00000149
_cell_angle_gamma   60.00000546
_symmetry_Int_Tables_number   1
_chemical_formula_structural   La3ThCdOs
_chemical_formula_sum   'La12 Th4 Cd4 Os4'
_cell_volume   727.17398868
_cell_formula_units_Z   4
loop_
 _symmetry_equiv_pos_site_id
 _symmetry_equiv_pos_as_xyz
  1  'x, y, z'
loop_
 _atom_site_type_symbol
 _atom_site_label
 _atom_site_symmetry_multiplicity
 _atom_site_fract_x
 _atom_site_fract_y
 _atom_site_fract_z
 _atom_site_occupancy
  La  La0  1  0.058082  0.441918  0.441918  1
  La  La1  1  0.441918  0.058082  0.058082  1
  La  La2  1  0.441918  0.058082  0.441918  1
  La  La3  1  0.058082  0.441918  0.058082  1
  La  La4  1  0.441918  0.441918  0.058082  1
  La  La5  1  0.058082  0.058082  0.441918  1
  La  La6  1  0.192009  0.807991  0.807991  1
  La  La7  1  0.807991  0.192009  0.192009  1
  La  La8  1  0.807991  0.192009  0.807991  1
  La  La9  1  0.192009  0.807991  0.192009  1
  La  La10  1  0.807991  0.807991  0.192009  1
  La  La11  1  0.192009  0.192009  0.807991  1
  Th  Th12  1  0.594125  0.594125  0.594125  1
  Th  Th13  1  0.594125  0.594125  0.217626  1
  Th  Th14  1  0.594125  0.217626  0.594125  1
  Th  Th15  1  0.217626  0.594125  0.594125  1
  Cd  Cd16  1  0.829014  0.829014  0.829014  1
  Cd  Cd17  1  0.829014  0.829014  0.512956  1
  Cd  Cd18  1  0.829014  0.512956  0.829014  1
  Cd  Cd19  1  0.512956  0.829014  0.829014  1
  Os  Os20  1  0.394034  0.394034  0.394034  1
  Os  Os21  1  0.394034  0.394034  0.817899  1
  Os  Os22  1  0.394034  0.817899  0.394034  1
  Os  Os23  1  0.817899  0.394034  0.394034  1
