# generated using pymatgen
data_LaY2Th(Al3Ir)6
_symmetry_space_group_name_H-M   'P 1'
_cell_length_a   7.61544717
_cell_length_b   7.61751210
_cell_length_c   9.53026700
_cell_angle_alpha   90.00000000
_cell_angle_beta   90.00000000
_cell_angle_gamma   119.43680538
_symmetry_Int_Tables_number   1
_chemical_formula_structural   LaY2Th(Al3Ir)6
_chemical_formula_sum   'La1 Y2 Th1 Al18 Ir6'
_cell_volume   481.48312077
_cell_formula_units_Z   1
loop_
 _symmetry_equiv_pos_site_id
 _symmetry_equiv_pos_as_xyz
  1  'x, y, z'
loop_
 _atom_site_type_symbol
 _atom_site_label
 _atom_site_symmetry_multiplicity
 _atom_site_fract_x
 _atom_site_fract_y
 _atom_site_fract_z
 _atom_site_occupancy
  La  La0  1  0.671712  0.994532  0.250000  1
  Y  Y1  1  0.003528  0.328098  0.750000  1
  Y  Y2  1  0.328182  0.004252  0.750000  1
  Th  Th3  1  0.995186  0.671536  0.250000  1
  Al  Al4  1  0.135299  0.134248  0.250000  1
  Al  Al5  1  0.872814  0.873706  0.750000  1
  Al  Al6  1  0.004073  0.333938  0.069892  1
  Al  Al7  1  0.999372  0.664302  0.919189  1
  Al  Al8  1  0.999372  0.664302  0.580811  1
  Al  Al9  1  0.337289  0.005296  0.430186  1
  Al  Al10  1  0.004073  0.333938  0.430108  1
  Al  Al11  1  0.664402  0.999782  0.578910  1
  Al  Al12  1  0.664402  0.999782  0.921090  1
  Al  Al13  1  0.337289  0.005296  0.069814  1
  Al  Al14  1  0.332156  0.332167  0.554846  1
  Al  Al15  1  0.663284  0.664483  0.458433  1
  Al  Al16  1  0.663284  0.664483  0.041567  1
  Al  Al17  1  0.332156  0.332167  0.945154  1
  Al  Al18  1  0.339751  0.544366  0.250000  1
  Al  Al19  1  0.658332  0.449256  0.750000  1
  Al  Al20  1  0.544799  0.341240  0.250000  1
  Al  Al21  1  0.448765  0.659598  0.750000  1
  Ir  Ir22  1  0.672784  0.329831  0.999530  1
  Ir  Ir23  1  0.326392  0.670881  0.999573  1
  Ir  Ir24  1  0.326392  0.670881  0.500427  1
  Ir  Ir25  1  0.672784  0.329831  0.500470  1
  Ir  Ir26  1  0.001064  0.998905  0.999919  1
  Ir  Ir27  1  0.001064  0.998905  0.500081  1
