# generated using pymatgen
data_LaLu2(NiIr2)3
_symmetry_space_group_name_H-M   'P 1'
_cell_length_a   5.28121577
_cell_length_b   5.28121550
_cell_length_c   8.71823400
_cell_angle_alpha   72.36914776
_cell_angle_beta   72.36914866
_cell_angle_gamma   60.00001447
_symmetry_Int_Tables_number   1
_chemical_formula_structural   LaLu2(NiIr2)3
_chemical_formula_sum   'La1 Lu2 Ni3 Ir6'
_cell_volume   197.28574906
_cell_formula_units_Z   1
loop_
 _symmetry_equiv_pos_site_id
 _symmetry_equiv_pos_as_xyz
  1  'x, y, z'
loop_
 _atom_site_type_symbol
 _atom_site_label
 _atom_site_symmetry_multiplicity
 _atom_site_fract_x
 _atom_site_fract_y
 _atom_site_fract_z
 _atom_site_occupancy
  La  La0  1  0.000000  0.000000  0.000000  1
  Lu  Lu1  1  0.141065  0.141065  0.576805  1
  Lu  Lu2  1  0.858935  0.858935  0.423195  1
  Ni  Ni3  1  0.332964  0.332964  0.001108  1
  Ni  Ni4  1  0.667036  0.667036  0.998892  1
  Ni  Ni5  1  0.500000  0.500000  0.500000  1
  Ir  Ir6  1  0.081813  0.584354  0.749482  1
  Ir  Ir7  1  0.584354  0.584354  0.749482  1
  Ir  Ir8  1  0.584354  0.081813  0.749482  1
  Ir  Ir9  1  0.918187  0.415646  0.250518  1
  Ir  Ir10  1  0.415646  0.415646  0.250518  1
  Ir  Ir11  1  0.415646  0.918187  0.250518  1
