# generated using pymatgen
data_LaYbZr(Si3Pd10)2
_symmetry_space_group_name_H-M   'P 1'
_cell_length_a   8.71520928
_cell_length_b   8.71520924
_cell_length_c   8.71521000
_cell_angle_alpha   60.00000472
_cell_angle_beta   60.00000484
_cell_angle_gamma   60.00000529
_symmetry_Int_Tables_number   1
_chemical_formula_structural   LaYbZr(Si3Pd10)2
_chemical_formula_sum   'La1 Yb1 Zr1 Si6 Pd20'
_cell_volume   468.07834094
_cell_formula_units_Z   1
loop_
 _symmetry_equiv_pos_site_id
 _symmetry_equiv_pos_as_xyz
  1  'x, y, z'
loop_
 _atom_site_type_symbol
 _atom_site_label
 _atom_site_symmetry_multiplicity
 _atom_site_fract_x
 _atom_site_fract_y
 _atom_site_fract_z
 _atom_site_occupancy
  La  La0  1  0.250000  0.250000  0.250000  1
  Yb  Yb1  1  0.750000  0.750000  0.750000  1
  Zr  Zr2  1  0.000000  0.000000  0.000000  1
  Si  Si3  1  0.732173  0.267827  0.267827  1
  Si  Si4  1  0.267827  0.732173  0.732173  1
  Si  Si5  1  0.267827  0.732173  0.267827  1
  Si  Si6  1  0.732173  0.267827  0.732173  1
  Si  Si7  1  0.267827  0.267827  0.732173  1
  Si  Si8  1  0.732173  0.732173  0.267827  1
  Pd  Pd9  1  0.386072  0.386072  0.386072  1
  Pd  Pd10  1  0.617025  0.617025  0.617025  1
  Pd  Pd11  1  0.386072  0.386072  0.841784  1
  Pd  Pd12  1  0.386072  0.841784  0.386072  1
  Pd  Pd13  1  0.617025  0.617025  0.148923  1
  Pd  Pd14  1  0.617025  0.148923  0.617025  1
  Pd  Pd15  1  0.841784  0.386072  0.386072  1
  Pd  Pd16  1  0.148923  0.617025  0.617025  1
  Pd  Pd17  1  0.343099  0.999224  0.999224  1
  Pd  Pd18  1  0.658453  0.999224  0.999224  1
  Pd  Pd19  1  0.999224  0.343099  0.658453  1
  Pd  Pd20  1  0.999224  0.658453  0.343099  1
  Pd  Pd21  1  0.999224  0.343099  0.999224  1
  Pd  Pd22  1  0.658453  0.999224  0.343099  1
  Pd  Pd23  1  0.999224  0.658453  0.999224  1
  Pd  Pd24  1  0.343099  0.999224  0.658453  1
  Pd  Pd25  1  0.999224  0.999224  0.343099  1
  Pd  Pd26  1  0.999224  0.999224  0.658453  1
  Pd  Pd27  1  0.658453  0.343099  0.999224  1
  Pd  Pd28  1  0.343099  0.658453  0.999224  1
