# generated using pymatgen
data_Sm6Zn20Ag3Se
_symmetry_space_group_name_H-M   'P 1'
_cell_length_a   9.31347670
_cell_length_b   9.31351110
_cell_length_c   9.32152800
_cell_angle_alpha   59.97146462
_cell_angle_beta   59.97122863
_cell_angle_gamma   59.95827969
_symmetry_Int_Tables_number   1
_chemical_formula_structural   Sm6Zn20Ag3Se
_chemical_formula_sum   'Sm6 Zn20 Ag3 Se1'
_cell_volume   571.31042718
_cell_formula_units_Z   1
loop_
 _symmetry_equiv_pos_site_id
 _symmetry_equiv_pos_as_xyz
  1  'x, y, z'
loop_
 _atom_site_type_symbol
 _atom_site_label
 _atom_site_symmetry_multiplicity
 _atom_site_fract_x
 _atom_site_fract_y
 _atom_site_fract_z
 _atom_site_occupancy
  Sm  Sm0  1  0.718964  0.281339  0.281981  1
  Sm  Sm1  1  0.718964  0.281340  0.717716  1
  Sm  Sm2  1  0.715329  0.715328  0.284670  1
  Sm  Sm3  1  0.281337  0.718966  0.717717  1
  Sm  Sm4  1  0.281338  0.718965  0.281980  1
  Sm  Sm5  1  0.278897  0.278897  0.721101  1
  Zn  Zn6  1  0.127544  0.127546  0.615665  1
  Zn  Zn7  1  0.127547  0.127547  0.129243  1
  Zn  Zn8  1  0.381991  0.868545  0.874732  1
  Zn  Zn9  1  0.868544  0.381989  0.874733  1
  Zn  Zn10  1  0.872882  0.872885  0.375004  1
  Zn  Zn11  1  0.872885  0.872889  0.879221  1
  Zn  Zn12  1  0.498888  0.998331  0.999354  1
  Zn  Zn13  1  0.498891  0.998332  0.503425  1
  Zn  Zn14  1  0.501110  0.501108  0.998893  1
  Zn  Zn15  1  0.998329  0.498891  0.503426  1
  Zn  Zn16  1  0.998328  0.498889  0.999355  1
  Zn  Zn17  1  0.998860  0.998858  0.501139  1
  Zn  Zn18  1  0.012269  0.329562  0.329084  1
  Zn  Zn19  1  0.329563  0.012270  0.329083  1
  Zn  Zn20  1  0.329456  0.329454  0.011361  1
  Zn  Zn21  1  0.329455  0.329453  0.329730  1
  Zn  Zn22  1  0.985521  0.670976  0.671751  1
  Zn  Zn23  1  0.670975  0.985523  0.671751  1
  Zn  Zn24  1  0.671006  0.671008  0.987162  1
  Zn  Zn25  1  0.671006  0.671007  0.670824  1
  Ag  Ag26  1  0.628797  0.122346  0.124427  1
  Ag  Ag27  1  0.122348  0.628784  0.124434  1
  Ag  Ag28  1  0.011025  0.011022  0.988982  1
  Se  Se29  1  0.497947  0.497947  0.502053  1
