# generated using pymatgen
data_Dy4Pa4Re3B24W
_symmetry_space_group_name_H-M   'P 1'
_cell_length_a   3.72988100
_cell_length_b   9.19415527
_cell_length_c   11.54111734
_cell_angle_alpha   89.97217513
_cell_angle_beta   90.00000000
_cell_angle_gamma   90.00000000
_symmetry_Int_Tables_number   1
_chemical_formula_structural   Dy4Pa4Re3B24W
_chemical_formula_sum   'Dy4 Pa4 Re3 B24 W1'
_cell_volume   395.78070275
_cell_formula_units_Z   1
loop_
 _symmetry_equiv_pos_site_id
 _symmetry_equiv_pos_as_xyz
  1  'x, y, z'
loop_
 _atom_site_type_symbol
 _atom_site_label
 _atom_site_symmetry_multiplicity
 _atom_site_fract_x
 _atom_site_fract_y
 _atom_site_fract_z
 _atom_site_occupancy
  Dy  Dy0  1  0.000000  0.945921  0.374815  1
  Dy  Dy1  1  0.000000  0.054834  0.625440  1
  Dy  Dy2  1  0.000000  0.445542  0.124746  1
  Dy  Dy3  1  0.000000  0.554935  0.874379  1
  Pa  Pa4  1  0.000000  0.323223  0.412561  1
  Pa  Pa5  1  0.000000  0.677407  0.586186  1
  Pa  Pa6  1  0.000000  0.821840  0.088123  1
  Pa  Pa7  1  0.000000  0.176692  0.913554  1
  Re  Re8  1  0.000000  0.361088  0.678395  1
  Re  Re9  1  0.000000  0.138893  0.177582  1
  Re  Re10  1  0.000000  0.861843  0.822079  1
  B  B11  1  0.500000  0.552229  0.433697  1
  B  B12  1  0.500000  0.446899  0.567510  1
  B  B13  1  0.500000  0.052677  0.066830  1
  B  B14  1  0.500000  0.947234  0.933218  1
  B  B15  1  0.500000  0.747280  0.421371  1
  B  B16  1  0.500000  0.252907  0.579628  1
  B  B17  1  0.500000  0.247550  0.079483  1
  B  B18  1  0.500000  0.752521  0.920216  1
  B  B19  1  0.500000  0.794128  0.265464  1
  B  B20  1  0.500000  0.206800  0.733776  1
  B  B21  1  0.500000  0.292628  0.233568  1
  B  B22  1  0.500000  0.707174  0.766294  1
  B  B23  1  0.500000  0.634185  0.184969  1
  B  B24  1  0.500000  0.366145  0.814380  1
  B  B25  1  0.500000  0.133433  0.313988  1
  B  B26  1  0.500000  0.866503  0.685801  1
  B  B27  1  0.500000  0.983200  0.213421  1
  B  B28  1  0.500000  0.016898  0.786518  1
  B  B29  1  0.500000  0.481761  0.286483  1
  B  B30  1  0.500000  0.516699  0.713539  1
  B  B31  1  0.500000  0.614525  0.030958  1
  B  B32  1  0.500000  0.385383  0.968135  1
  B  B33  1  0.500000  0.114533  0.468289  1
  B  B34  1  0.500000  0.886015  0.532530  1
  W  W35  1  0.000000  0.638479  0.322076  1
