# generated using pymatgen
data_MgZnNi20SnB6
_symmetry_space_group_name_H-M   'P 1'
_cell_length_a   7.49125190
_cell_length_b   7.49125092
_cell_length_c   7.49125200
_cell_angle_alpha   60.00000407
_cell_angle_beta   60.00000839
_cell_angle_gamma   60.00000382
_symmetry_Int_Tables_number   1
_chemical_formula_structural   MgZnNi20SnB6
_chemical_formula_sum   'Mg1 Zn1 Ni20 Sn1 B6'
_cell_volume   297.26803150
_cell_formula_units_Z   1
loop_
 _symmetry_equiv_pos_site_id
 _symmetry_equiv_pos_as_xyz
  1  'x, y, z'
loop_
 _atom_site_type_symbol
 _atom_site_label
 _atom_site_symmetry_multiplicity
 _atom_site_fract_x
 _atom_site_fract_y
 _atom_site_fract_z
 _atom_site_occupancy
  Mg  Mg0  1  0.250000  0.250000  0.250000  1
  Zn  Zn1  1  0.000000  0.000000  0.000000  1
  Ni  Ni2  1  0.001039  0.001039  0.661452  1
  Ni  Ni3  1  0.385607  0.843181  0.385607  1
  Ni  Ni4  1  0.661452  0.336470  0.001039  1
  Ni  Ni5  1  0.001039  0.336470  0.661452  1
  Ni  Ni6  1  0.661452  0.001039  0.001039  1
  Ni  Ni7  1  0.001039  0.001039  0.336470  1
  Ni  Ni8  1  0.661452  0.001039  0.336470  1
  Ni  Ni9  1  0.001039  0.336470  0.001039  1
  Ni  Ni10  1  0.001039  0.661452  0.336470  1
  Ni  Ni11  1  0.336470  0.001039  0.001039  1
  Ni  Ni12  1  0.001039  0.661452  0.001039  1
  Ni  Ni13  1  0.336470  0.001039  0.661452  1
  Ni  Ni14  1  0.385607  0.385607  0.385607  1
  Ni  Ni15  1  0.336470  0.661452  0.001039  1
  Ni  Ni16  1  0.614656  0.156032  0.614656  1
  Ni  Ni17  1  0.385607  0.385607  0.843181  1
  Ni  Ni18  1  0.843181  0.385607  0.385607  1
  Ni  Ni19  1  0.614656  0.614656  0.614656  1
  Ni  Ni20  1  0.156032  0.614656  0.614656  1
  Ni  Ni21  1  0.614656  0.614656  0.156032  1
  Sn  Sn22  1  0.750000  0.750000  0.750000  1
  B  B23  1  0.726650  0.726650  0.273350  1
  B  B24  1  0.726650  0.273350  0.726650  1
  B  B25  1  0.273350  0.726650  0.273350  1
  B  B26  1  0.726650  0.273350  0.273350  1
  B  B27  1  0.273350  0.726650  0.726650  1
  B  B28  1  0.273350  0.273350  0.726650  1
