# generated using pymatgen
data_Cs13Ti2(In3P5)2
_symmetry_space_group_name_H-M   'P 1'
_cell_length_a   9.64988329
_cell_length_b   9.74219549
_cell_length_c   13.87226150
_cell_angle_alpha   83.82182802
_cell_angle_beta   79.97904929
_cell_angle_gamma   64.41571042
_symmetry_Int_Tables_number   1
_chemical_formula_structural   Cs13Ti2(In3P5)2
_chemical_formula_sum   'Cs13 Ti2 In6 P10'
_cell_volume   1157.55596518
_cell_formula_units_Z   1
loop_
 _symmetry_equiv_pos_site_id
 _symmetry_equiv_pos_as_xyz
  1  'x, y, z'
loop_
 _atom_site_type_symbol
 _atom_site_label
 _atom_site_symmetry_multiplicity
 _atom_site_fract_x
 _atom_site_fract_y
 _atom_site_fract_z
 _atom_site_occupancy
  Cs  Cs0  1  0.500790  0.870346  0.355638  1
  Cs  Cs1  1  0.499210  0.129654  0.644362  1
  Cs  Cs2  1  0.849356  0.587982  0.880735  1
  Cs  Cs3  1  0.150644  0.412018  0.119265  1
  Cs  Cs4  1  0.091118  0.782939  0.427526  1
  Cs  Cs5  1  0.908882  0.217061  0.572474  1
  Cs  Cs6  1  0.746265  0.678146  0.596419  1
  Cs  Cs7  1  0.253735  0.321854  0.403581  1
  Cs  Cs8  1  0.500000  0.500000  0.000000  1
  Cs  Cs9  1  0.325030  0.925017  0.088650  1
  Cs  Cs10  1  0.674970  0.074983  0.911350  1
  Cs  Cs11  1  0.894521  0.863001  0.160590  1
  Cs  Cs12  1  0.105479  0.136999  0.839410  1
  Ti  Ti13  1  0.377706  0.737431  0.774634  1
  Ti  Ti14  1  0.622294  0.262569  0.225366  1
  In  In15  1  0.043122  0.802272  0.708060  1
  In  In16  1  0.956878  0.197728  0.291940  1
  In  In17  1  0.599265  0.444165  0.407713  1
  In  In18  1  0.400735  0.555835  0.592287  1
  In  In19  1  0.723332  0.551248  0.175592  1
  In  In20  1  0.276668  0.448752  0.824408  1
  P  P21  1  0.447418  0.534718  0.254061  1
  P  P22  1  0.552582  0.465282  0.745939  1
  P  P23  1  0.145335  0.742952  0.884511  1
  P  P24  1  0.854665  0.257048  0.115489  1
  P  P25  1  0.707175  0.144111  0.383528  1
  P  P26  1  0.292825  0.855889  0.616472  1
  P  P27  1  0.851323  0.497677  0.350888  1
  P  P28  1  0.148677  0.502323  0.649112  1
  P  P29  1  0.493427  0.861845  0.838992  1
  P  P30  1  0.506573  0.138155  0.161008  1
