# generated using pymatgen
data_Pa4Al18IrOs5
_symmetry_space_group_name_H-M   'P 1'
_cell_length_a   7.60405435
_cell_length_b   7.60405346
_cell_length_c   9.35411131
_cell_angle_alpha   90.02554703
_cell_angle_beta   90.02554263
_cell_angle_gamma   119.22959499
_symmetry_Int_Tables_number   1
_chemical_formula_structural   Pa4Al18IrOs5
_chemical_formula_sum   'Pa4 Al18 Ir1 Os5'
_cell_volume   472.00083660
_cell_formula_units_Z   1
loop_
 _symmetry_equiv_pos_site_id
 _symmetry_equiv_pos_as_xyz
  1  'x, y, z'
loop_
 _atom_site_type_symbol
 _atom_site_label
 _atom_site_symmetry_multiplicity
 _atom_site_fract_x
 _atom_site_fract_y
 _atom_site_fract_z
 _atom_site_occupancy
  Pa  Pa0  1  0.999163  0.677661  0.248491  1
  Pa  Pa1  1  0.006428  0.325156  0.751966  1
  Pa  Pa2  1  0.674844  0.993572  0.248034  1
  Pa  Pa3  1  0.322339  0.000837  0.751509  1
  Al  Al4  1  0.133382  0.132987  0.250505  1
  Al  Al5  1  0.867013  0.866618  0.749495  1
  Al  Al6  1  0.005919  0.337922  0.078700  1
  Al  Al7  1  0.993148  0.660855  0.922049  1
  Al  Al8  1  0.994606  0.662689  0.577076  1
  Al  Al9  1  0.337311  0.005394  0.422924  1
  Al  Al10  1  0.004399  0.337881  0.422440  1
  Al  Al11  1  0.662119  0.995601  0.577560  1
  Al  Al12  1  0.662078  0.994081  0.921300  1
  Al  Al13  1  0.339145  0.006852  0.077951  1
  Al  Al14  1  0.334336  0.336712  0.550915  1
  Al  Al15  1  0.663288  0.665664  0.449085  1
  Al  Al16  1  0.663709  0.662705  0.049520  1
  Al  Al17  1  0.337295  0.336291  0.950480  1
  Al  Al18  1  0.342906  0.550393  0.250313  1
  Al  Al19  1  0.656664  0.448111  0.750391  1
  Al  Al20  1  0.551889  0.343336  0.249609  1
  Al  Al21  1  0.449607  0.657094  0.749687  1
  Ir  Ir22  1  0.673302  0.326698  0.500000  1
  Os  Os23  1  0.675071  0.324929  0.000000  1
  Os  Os24  1  0.325351  0.674649  0.000000  1
  Os  Os25  1  0.324959  0.675041  0.500000  1
  Os  Os26  1  0.000100  0.999900  0.000000  1
  Os  Os27  1  0.999628  0.000372  0.500000  1
