# generated using pymatgen
data_TbDy5TaCo17P12
_symmetry_space_group_name_H-M   'P 1'
_cell_length_a   3.70533800
_cell_length_b   10.58163000
_cell_length_c   12.28072700
_cell_angle_alpha   90.00000000
_cell_angle_beta   90.00000000
_cell_angle_gamma   90.00000000
_symmetry_Int_Tables_number   1
_chemical_formula_structural   TbDy5TaCo17P12
_chemical_formula_sum   'Tb1 Dy5 Ta1 Co17 P12'
_cell_volume   481.50907789
_cell_formula_units_Z   1
loop_
 _symmetry_equiv_pos_site_id
 _symmetry_equiv_pos_as_xyz
  1  'x, y, z'
loop_
 _atom_site_type_symbol
 _atom_site_label
 _atom_site_symmetry_multiplicity
 _atom_site_fract_x
 _atom_site_fract_y
 _atom_site_fract_z
 _atom_site_occupancy
  Tb  Tb0  1  0.500000  0.000000  0.477709  1
  Dy  Dy1  1  0.000000  0.500000  0.526612  1
  Dy  Dy2  1  0.500000  0.819888  0.207125  1
  Dy  Dy3  1  0.500000  0.180112  0.207125  1
  Dy  Dy4  1  0.000000  0.682788  0.796034  1
  Dy  Dy5  1  0.000000  0.317212  0.796034  1
  Ta  Ta6  1  0.500000  0.500000  0.154185  1
  Co  Co7  1  0.000000  0.000000  0.838838  1
  Co  Co8  1  0.500000  0.500000  0.701979  1
  Co  Co9  1  0.000000  0.000000  0.296487  1
  Co  Co10  1  0.000000  0.500000  0.985286  1
  Co  Co11  1  0.500000  0.000000  0.014283  1
  Co  Co12  1  0.500000  0.330255  0.990153  1
  Co  Co13  1  0.500000  0.669745  0.990153  1
  Co  Co14  1  0.000000  0.163909  0.004002  1
  Co  Co15  1  0.000000  0.836091  0.004002  1
  Co  Co16  1  0.500000  0.295441  0.432476  1
  Co  Co17  1  0.500000  0.704559  0.432476  1
  Co  Co18  1  0.000000  0.202648  0.569775  1
  Co  Co19  1  0.000000  0.797352  0.569775  1
  Co  Co20  1  0.500000  0.879703  0.708476  1
  Co  Co21  1  0.500000  0.120297  0.708476  1
  Co  Co22  1  0.000000  0.622314  0.293197  1
  Co  Co23  1  0.000000  0.377686  0.293197  1
  P  P24  1  0.500000  0.500000  0.880681  1
  P  P25  1  0.000000  0.000000  0.117057  1
  P  P26  1  0.500000  0.500000  0.356059  1
  P  P27  1  0.000000  0.000000  0.656176  1
  P  P28  1  0.500000  0.309704  0.617022  1
  P  P29  1  0.500000  0.690296  0.617022  1
  P  P30  1  0.000000  0.188705  0.385667  1
  P  P31  1  0.000000  0.811295  0.385667  1
  P  P32  1  0.500000  0.851200  0.890193  1
  P  P33  1  0.500000  0.148800  0.890193  1
  P  P34  1  0.000000  0.661125  0.103207  1
  P  P35  1  0.000000  0.338875  0.103207  1
