# generated using pymatgen
data_Na3Pr8Y9Sn16
_symmetry_space_group_name_H-M   'P 1'
_cell_length_a   8.02343900
_cell_length_b   8.37082314
_cell_length_c   15.73501300
_cell_angle_alpha   90.00000000
_cell_angle_beta   90.00000000
_cell_angle_gamma   90.04093816
_symmetry_Int_Tables_number   1
_chemical_formula_structural   Na3Pr8Y9Sn16
_chemical_formula_sum   'Na3 Pr8 Y9 Sn16'
_cell_volume   1056.80708540
_cell_formula_units_Z   1
loop_
 _symmetry_equiv_pos_site_id
 _symmetry_equiv_pos_as_xyz
  1  'x, y, z'
loop_
 _atom_site_type_symbol
 _atom_site_label
 _atom_site_symmetry_multiplicity
 _atom_site_fract_x
 _atom_site_fract_y
 _atom_site_fract_z
 _atom_site_occupancy
  Na  Na0  1  0.335760  0.996891  0.750000  1
  Na  Na1  1  0.163743  0.495227  0.250000  1
  Na  Na2  1  0.663810  0.002663  0.250000  1
  Pr  Pr3  1  0.504819  0.683505  0.597703  1
  Pr  Pr4  1  0.009852  0.823854  0.903409  1
  Pr  Pr5  1  0.490066  0.316956  0.097161  1
  Pr  Pr6  1  0.991475  0.181639  0.403004  1
  Pr  Pr7  1  0.490066  0.316956  0.402839  1
  Pr  Pr8  1  0.991475  0.181639  0.096996  1
  Pr  Pr9  1  0.504819  0.683505  0.902297  1
  Pr  Pr10  1  0.009852  0.823854  0.596591  1
  Y  Y11  1  0.665686  0.166154  0.625767  1
  Y  Y12  1  0.171832  0.328520  0.874323  1
  Y  Y13  1  0.333424  0.828263  0.125212  1
  Y  Y14  1  0.833794  0.669390  0.375365  1
  Y  Y15  1  0.333424  0.828263  0.374788  1
  Y  Y16  1  0.833794  0.669390  0.124635  1
  Y  Y17  1  0.665686  0.166154  0.874233  1
  Y  Y18  1  0.171832  0.328520  0.625677  1
  Y  Y19  1  0.836058  0.502524  0.750000  1
  Sn  Sn20  1  0.671688  0.959407  0.462264  1
  Sn  Sn21  1  0.171611  0.538591  0.037855  1
  Sn  Sn22  1  0.328466  0.040459  0.962874  1
  Sn  Sn23  1  0.829155  0.464446  0.542165  1
  Sn  Sn24  1  0.328466  0.040459  0.537126  1
  Sn  Sn25  1  0.829155  0.464446  0.957835  1
  Sn  Sn26  1  0.671688  0.959407  0.037736  1
  Sn  Sn27  1  0.171611  0.538591  0.462145  1
  Sn  Sn28  1  0.473218  0.388776  0.750000  1
  Sn  Sn29  1  0.969286  0.120260  0.750000  1
  Sn  Sn30  1  0.530932  0.611753  0.250000  1
  Sn  Sn31  1  0.031097  0.884613  0.250000  1
  Sn  Sn32  1  0.710917  0.861020  0.750000  1
  Sn  Sn33  1  0.202085  0.635651  0.750000  1
  Sn  Sn34  1  0.288993  0.132089  0.250000  1
  Sn  Sn35  1  0.790371  0.366166  0.250000  1
