# generated using pymatgen
data_Er8Cd2PdRu
_symmetry_space_group_name_H-M   'P 1'
_cell_length_a   9.56646144
_cell_length_b   9.56646081
_cell_length_c   9.65225300
_cell_angle_alpha   59.70289777
_cell_angle_beta   59.70289997
_cell_angle_gamma   59.53161202
_symmetry_Int_Tables_number   1
_chemical_formula_structural   Er8Cd2PdRu
_chemical_formula_sum   'Er16 Cd4 Pd2 Ru2'
_cell_volume   619.58981323
_cell_formula_units_Z   2
loop_
 _symmetry_equiv_pos_site_id
 _symmetry_equiv_pos_as_xyz
  1  'x, y, z'
loop_
 _atom_site_type_symbol
 _atom_site_label
 _atom_site_symmetry_multiplicity
 _atom_site_fract_x
 _atom_site_fract_y
 _atom_site_fract_z
 _atom_site_occupancy
  Er  Er0  1  0.349906  0.349906  0.354495  1
  Er  Er1  1  0.349906  0.349906  0.945692  1
  Er  Er2  1  0.345697  0.953636  0.350333  1
  Er  Er3  1  0.953636  0.345697  0.350333  1
  Er  Er4  1  0.816661  0.187154  0.189705  1
  Er  Er5  1  0.187154  0.816661  0.806479  1
  Er  Er6  1  0.187154  0.816661  0.189705  1
  Er  Er7  1  0.816661  0.187154  0.806479  1
  Er  Er8  1  0.187283  0.187283  0.812717  1
  Er  Er9  1  0.809456  0.809456  0.190544  1
  Er  Er10  1  0.936123  0.559553  0.567799  1
  Er  Er11  1  0.559553  0.936123  0.936525  1
  Er  Er12  1  0.559553  0.936123  0.567799  1
  Er  Er13  1  0.936123  0.559553  0.936525  1
  Er  Er14  1  0.564991  0.564991  0.935009  1
  Er  Er15  1  0.937500  0.937500  0.562500  1
  Cd  Cd16  1  0.579881  0.579881  0.581446  1
  Cd  Cd17  1  0.579881  0.579881  0.258791  1
  Cd  Cd18  1  0.581208  0.254485  0.582153  1
  Cd  Cd19  1  0.254485  0.581208  0.582153  1
  Pd  Pd20  1  0.145677  0.571149  0.141587  1
  Pd  Pd21  1  0.571149  0.145677  0.141587  1
  Ru  Ru22  1  0.145179  0.145179  0.138042  1
  Ru  Ru23  1  0.145179  0.145179  0.571600  1
