# generated using pymatgen
data_Li7Nd8ZnRh8
_symmetry_space_group_name_H-M   'P 1'
_cell_length_a   4.06153500
_cell_length_b   7.32886775
_cell_length_c   16.53252839
_cell_angle_alpha   89.80342300
_cell_angle_beta   90.00000000
_cell_angle_gamma   90.00000000
_symmetry_Int_Tables_number   1
_chemical_formula_structural   Li7Nd8ZnRh8
_chemical_formula_sum   'Li7 Nd8 Zn1 Rh8'
_cell_volume   492.11183123
_cell_formula_units_Z   1
loop_
 _symmetry_equiv_pos_site_id
 _symmetry_equiv_pos_as_xyz
  1  'x, y, z'
loop_
 _atom_site_type_symbol
 _atom_site_label
 _atom_site_symmetry_multiplicity
 _atom_site_fract_x
 _atom_site_fract_y
 _atom_site_fract_z
 _atom_site_occupancy
  Li  Li0  1  0.750000  0.007868  0.561595  1
  Li  Li1  1  0.250000  0.629967  0.351524  1
  Li  Li2  1  0.750000  0.369801  0.648421  1
  Li  Li3  1  0.250000  0.492337  0.062156  1
  Li  Li4  1  0.750000  0.507419  0.938001  1
  Li  Li5  1  0.250000  0.992728  0.438378  1
  Li  Li6  1  0.250000  0.130888  0.149094  1
  Nd  Nd7  1  0.250000  0.163589  0.938796  1
  Nd  Nd8  1  0.250000  0.662337  0.560272  1
  Nd  Nd9  1  0.750000  0.336227  0.439284  1
  Nd  Nd10  1  0.750000  0.952958  0.283906  1
  Nd  Nd11  1  0.750000  0.839394  0.060315  1
  Nd  Nd12  1  0.750000  0.454997  0.216965  1
  Nd  Nd13  1  0.250000  0.044489  0.717989  1
  Nd  Nd14  1  0.250000  0.547947  0.783211  1
  Zn  Zn15  1  0.750000  0.873595  0.850045  1
  Rh  Rh16  1  0.750000  0.746596  0.438685  1
  Rh  Rh17  1  0.250000  0.246072  0.312670  1
  Rh  Rh18  1  0.750000  0.245445  0.815176  1
  Rh  Rh19  1  0.750000  0.754737  0.689334  1
  Rh  Rh20  1  0.250000  0.255767  0.561590  1
  Rh  Rh21  1  0.250000  0.746288  0.186193  1
  Rh  Rh22  1  0.750000  0.244224  0.061644  1
  Rh  Rh23  1  0.250000  0.754330  0.934755  1
