# generated using pymatgen
data_Dy8Ho3Tm9Pb16
_symmetry_space_group_name_H-M   'P 1'
_cell_length_a   8.15978000
_cell_length_b   8.23305517
_cell_length_c   15.53490400
_cell_angle_alpha   90.00278369
_cell_angle_beta   89.99966296
_cell_angle_gamma   90.01127398
_symmetry_Int_Tables_number   1
_chemical_formula_structural   Dy8Ho3Tm9Pb16
_chemical_formula_sum   'Dy8 Ho3 Tm9 Pb16'
_cell_volume   1043.63356952
_cell_formula_units_Z   1
loop_
 _symmetry_equiv_pos_site_id
 _symmetry_equiv_pos_as_xyz
  1  'x, y, z'
loop_
 _atom_site_type_symbol
 _atom_site_label
 _atom_site_symmetry_multiplicity
 _atom_site_fract_x
 _atom_site_fract_y
 _atom_site_fract_z
 _atom_site_occupancy
  Dy  Dy0  1  0.536681  0.323233  0.900292  1
  Dy  Dy1  1  0.036648  0.176629  0.599913  1
  Dy  Dy2  1  0.463392  0.676645  0.399925  1
  Dy  Dy3  1  0.963241  0.823467  0.100054  1
  Dy  Dy4  1  0.463376  0.676573  0.099866  1
  Dy  Dy5  1  0.963351  0.823564  0.400056  1
  Dy  Dy6  1  0.536563  0.323520  0.599781  1
  Dy  Dy7  1  0.036718  0.176594  0.900197  1
  Ho  Ho8  1  0.123424  0.341344  0.378683  1
  Ho  Ho9  1  0.376646  0.841353  0.621152  1
  Ho  Ho10  1  0.876614  0.658639  0.879016  1
  Tm  Tm11  1  0.376351  0.841415  0.878871  1
  Tm  Tm12  1  0.876386  0.658525  0.621135  1
  Tm  Tm13  1  0.623597  0.158529  0.378680  1
  Tm  Tm14  1  0.123612  0.341585  0.121206  1
  Tm  Tm15  1  0.623448  0.158560  0.121339  1
  Tm  Tm16  1  0.208150  0.504791  0.750087  1
  Tm  Tm17  1  0.708123  0.995294  0.750018  1
  Tm  Tm18  1  0.791745  0.495056  0.249935  1
  Tm  Tm19  1  0.292011  0.004855  0.249826  1
  Pb  Pb20  1  0.282171  0.033891  0.043089  1
  Pb  Pb21  1  0.781494  0.466337  0.456995  1
  Pb  Pb22  1  0.718550  0.966373  0.542733  1
  Pb  Pb23  1  0.218501  0.533594  0.957323  1
  Pb  Pb24  1  0.717405  0.966880  0.957332  1
  Pb  Pb25  1  0.217437  0.533526  0.543156  1
  Pb  Pb26  1  0.282365  0.033585  0.456615  1
  Pb  Pb27  1  0.781993  0.465670  0.043455  1
  Pb  Pb28  1  0.571067  0.626898  0.750195  1
  Pb  Pb29  1  0.071033  0.873010  0.749965  1
  Pb  Pb30  1  0.429452  0.372587  0.249726  1
  Pb  Pb31  1  0.928697  0.127056  0.249598  1
  Pb  Pb32  1  0.347719  0.154140  0.750238  1
  Pb  Pb33  1  0.847697  0.345914  0.749914  1
  Pb  Pb34  1  0.652159  0.846161  0.249872  1
  Pb  Pb35  1  0.152184  0.654207  0.249762  1
