# generated using pymatgen
data_SmEu(H4Pd)2
_symmetry_space_group_name_H-M   'P 1'
_cell_length_a   6.43510031
_cell_length_b   6.43509986
_cell_length_c   5.05824508
_cell_angle_alpha   90.01869099
_cell_angle_beta   89.98130755
_cell_angle_gamma   144.25032880
_symmetry_Int_Tables_number   1
_chemical_formula_structural   SmEu(H4Pd)2
_chemical_formula_sum   'Sm1 Eu1 H8 Pd2'
_cell_volume   122.37859549
_cell_formula_units_Z   1
loop_
 _symmetry_equiv_pos_site_id
 _symmetry_equiv_pos_as_xyz
  1  'x, y, z'
loop_
 _atom_site_type_symbol
 _atom_site_label
 _atom_site_symmetry_multiplicity
 _atom_site_fract_x
 _atom_site_fract_y
 _atom_site_fract_z
 _atom_site_occupancy
  Sm  Sm0  1  0.135117  0.864883  0.307159  1
  Eu  Eu1  1  0.864587  0.135413  0.807518  1
  H  H2  1  0.302775  0.697225  0.056764  1
  H  H3  1  0.690296  0.309704  0.532611  1
  H  H4  1  0.301558  0.698442  0.557381  1
  H  H5  1  0.691717  0.308283  0.080441  1
  H  H6  1  0.090436  0.909564  0.807701  1
  H  H7  1  0.918756  0.081244  0.307963  1
  H  H8  1  0.502624  0.497376  0.064404  1
  H  H9  1  0.499691  0.500309  0.559016  1
  Pd  Pd10  1  0.403296  0.596704  0.308489  1
  Pd  Pd11  1  0.599146  0.400854  0.808553  1
