# generated using pymatgen
data_ZnCo3Mo12(PtN)4
_symmetry_space_group_name_H-M   'P 1'
_cell_length_a   6.78716400
_cell_length_b   6.80170092
_cell_length_c   6.80130748
_cell_angle_alpha   89.67898258
_cell_angle_beta   89.95513377
_cell_angle_gamma   89.70860876
_symmetry_Int_Tables_number   1
_chemical_formula_structural   ZnCo3Mo12(PtN)4
_chemical_formula_sum   'Zn1 Co3 Mo12 Pt4 N4'
_cell_volume   313.96824595
_cell_formula_units_Z   1
loop_
 _symmetry_equiv_pos_site_id
 _symmetry_equiv_pos_as_xyz
  1  'x, y, z'
loop_
 _atom_site_type_symbol
 _atom_site_label
 _atom_site_symmetry_multiplicity
 _atom_site_fract_x
 _atom_site_fract_y
 _atom_site_fract_z
 _atom_site_occupancy
  Zn  Zn0  1  0.195682  0.179928  0.177007  1
  Co  Co1  1  0.312544  0.821430  0.694562  1
  Co  Co2  1  0.430804  0.052538  0.934116  1
  Co  Co3  1  0.811706  0.688476  0.310361  1
  Mo  Mo4  1  0.621074  0.707523  0.956600  1
  Mo  Mo5  1  0.460761  0.873621  0.302502  1
  Mo  Mo6  1  0.695168  0.950403  0.625174  1
  Mo  Mo7  1  0.550107  0.374875  0.204126  1
  Mo  Mo8  1  0.374757  0.197330  0.557935  1
  Mo  Mo9  1  0.196004  0.549428  0.375433  1
  Mo  Mo10  1  0.871736  0.307916  0.458172  1
  Mo  Mo11  1  0.052008  0.118813  0.795407  1
  Mo  Mo12  1  0.304305  0.462444  0.869746  1
  Mo  Mo13  1  0.128513  0.798879  0.037575  1
  Mo  Mo14  1  0.790660  0.040465  0.123033  1
  Mo  Mo15  1  0.956935  0.629100  0.694277  1
  Pt  Pt16  1  0.679641  0.301901  0.819047  1
  Pt  Pt17  1  0.557785  0.570454  0.558172  1
  Pt  Pt18  1  0.064319  0.935316  0.433060  1
  Pt  Pt19  1  0.943807  0.437709  0.070032  1
  N  N20  1  0.376036  0.624432  0.127396  1
  N  N21  1  0.874574  0.873855  0.872098  1
  N  N22  1  0.125526  0.376527  0.626067  1
  N  N23  1  0.625548  0.126636  0.378101  1
