# generated using pymatgen
data_AcLa3Pr2(RuI3)2
_symmetry_space_group_name_H-M   'P 1'
_cell_length_a   4.41427400
_cell_length_b   9.77743760
_cell_length_c   12.59987014
_cell_angle_alpha   87.23395437
_cell_angle_beta   90.00000000
_cell_angle_gamma   90.00000000
_symmetry_Int_Tables_number   1
_chemical_formula_structural   AcLa3Pr2(RuI3)2
_chemical_formula_sum   'Ac1 La3 Pr2 Ru2 I6'
_cell_volume   543.18044003
_cell_formula_units_Z   1
loop_
 _symmetry_equiv_pos_site_id
 _symmetry_equiv_pos_as_xyz
  1  'x, y, z'
loop_
 _atom_site_type_symbol
 _atom_site_label
 _atom_site_symmetry_multiplicity
 _atom_site_fract_x
 _atom_site_fract_y
 _atom_site_fract_z
 _atom_site_occupancy
  Ac  Ac0  1  0.750000  0.682705  0.118075  1
  La  La1  1  0.250000  0.310100  0.880786  1
  La  La2  1  0.250000  0.890007  0.327954  1
  La  La3  1  0.750000  0.115239  0.671304  1
  Pr  Pr4  1  0.250000  0.906770  0.895830  1
  Pr  Pr5  1  0.750000  0.095459  0.103115  1
  Ru  Ru6  1  0.250000  0.890630  0.131494  1
  Ru  Ru7  1  0.750000  0.115009  0.868899  1
  I  I8  1  0.250000  0.872889  0.621398  1
  I  I9  1  0.750000  0.131822  0.379058  1
  I  I10  1  0.750000  0.645116  0.385482  1
  I  I11  1  0.250000  0.359105  0.621585  1
  I  I12  1  0.250000  0.383526  0.137653  1
  I  I13  1  0.750000  0.601622  0.857365  1
