# generated using pymatgen
data_Ca2SmPaN4
_symmetry_space_group_name_H-M   'P 1'
_cell_length_a   6.97943222
_cell_length_b   9.35551705
_cell_length_c   6.23002461
_cell_angle_alpha   28.97153020
_cell_angle_beta   55.93418082
_cell_angle_gamma   41.75293660
_symmetry_Int_Tables_number   1
_chemical_formula_structural   Ca2SmPaN4
_chemical_formula_sum   'Ca2 Sm1 Pa1 N4'
_cell_volume   125.70056358
_cell_formula_units_Z   1
loop_
 _symmetry_equiv_pos_site_id
 _symmetry_equiv_pos_as_xyz
  1  'x, y, z'
loop_
 _atom_site_type_symbol
 _atom_site_label
 _atom_site_symmetry_multiplicity
 _atom_site_fract_x
 _atom_site_fract_y
 _atom_site_fract_z
 _atom_site_occupancy
  Ca  Ca0  1  0.750000  0.500000  0.000000  1
  Ca  Ca1  1  0.500000  0.000000  0.000000  1
  Sm  Sm2  1  0.250000  0.500000  0.000000  1
  Pa  Pa3  1  0.000000  0.000000  0.000000  1
  N  N4  1  0.492844  0.500000  0.514312  1
  N  N5  1  0.213592  0.000000  0.572815  1
  N  N6  1  0.007156  0.500000  0.485688  1
  N  N7  1  0.786408  0.000000  0.427185  1
