# generated using pymatgen
data_Hf4CrSi2GeN
_symmetry_space_group_name_H-M   'P 1'
_cell_length_a   7.70236366
_cell_length_b   7.70584656
_cell_length_c   5.38778837
_cell_angle_alpha   90.08081630
_cell_angle_beta   89.83828671
_cell_angle_gamma   119.98504970
_symmetry_Int_Tables_number   1
_chemical_formula_structural   Hf4CrSi2GeN
_chemical_formula_sum   'Hf8 Cr2 Si4 Ge2 N2'
_cell_volume   276.98051176
_cell_formula_units_Z   2
loop_
 _symmetry_equiv_pos_site_id
 _symmetry_equiv_pos_as_xyz
  1  'x, y, z'
loop_
 _atom_site_type_symbol
 _atom_site_label
 _atom_site_symmetry_multiplicity
 _atom_site_fract_x
 _atom_site_fract_y
 _atom_site_fract_z
 _atom_site_occupancy
  Hf  Hf0  1  0.233795  0.000000  0.248544  1
  Hf  Hf1  1  0.766205  0.000000  0.751456  1
  Hf  Hf2  1  0.002807  0.237344  0.249360  1
  Hf  Hf3  1  0.997193  0.762656  0.750640  1
  Hf  Hf4  1  0.765463  0.762656  0.249360  1
  Hf  Hf5  1  0.234537  0.237344  0.750640  1
  Hf  Hf6  1  0.669833  0.339665  0.500000  1
  Hf  Hf7  1  0.330167  0.660335  0.500000  1
  Cr  Cr8  1  0.329574  0.659148  0.000000  1
  Cr  Cr9  1  0.670426  0.340852  0.000000  1
  Si  Si10  1  0.001265  0.589443  0.217011  1
  Si  Si11  1  0.998735  0.410557  0.782989  1
  Si  Si12  1  0.411822  0.410557  0.217011  1
  Si  Si13  1  0.588178  0.589443  0.782989  1
  Ge  Ge14  1  0.590954  0.000000  0.228093  1
  Ge  Ge15  1  0.409046  0.000000  0.771907  1
  N  N16  1  0.000000  0.000000  0.000000  1
  N  N17  1  0.000000  0.000000  0.500000  1
