# generated using pymatgen
data_LaNdGePd14
_symmetry_space_group_name_H-M   'P 1'
_cell_length_a   9.00840300
_cell_length_b   9.00840300
_cell_length_c   7.23186400
_cell_angle_alpha   90.00000000
_cell_angle_beta   90.00000000
_cell_angle_gamma   90.00000000
_symmetry_Int_Tables_number   1
_chemical_formula_structural   LaNdGePd14
_chemical_formula_sum   'La2 Nd2 Ge2 Pd28'
_cell_volume   586.87534300
_cell_formula_units_Z   2
loop_
 _symmetry_equiv_pos_site_id
 _symmetry_equiv_pos_as_xyz
  1  'x, y, z'
loop_
 _atom_site_type_symbol
 _atom_site_label
 _atom_site_symmetry_multiplicity
 _atom_site_fract_x
 _atom_site_fract_y
 _atom_site_fract_z
 _atom_site_occupancy
  La  La0  1  0.000000  0.000000  0.500000  1
  La  La1  1  0.500000  0.500000  0.500000  1
  Nd  Nd2  1  0.500000  0.000000  0.936586  1
  Nd  Nd3  1  0.000000  0.500000  0.063414  1
  Ge  Ge4  1  0.500000  0.000000  0.449474  1
  Ge  Ge5  1  0.000000  0.500000  0.550526  1
  Pd  Pd6  1  0.330896  0.830896  0.621345  1
  Pd  Pd7  1  0.330896  0.169104  0.621345  1
  Pd  Pd8  1  0.669104  0.830896  0.621345  1
  Pd  Pd9  1  0.669104  0.169104  0.621345  1
  Pd  Pd10  1  0.169104  0.669104  0.378655  1
  Pd  Pd11  1  0.169104  0.330896  0.378655  1
  Pd  Pd12  1  0.830896  0.669104  0.378655  1
  Pd  Pd13  1  0.830896  0.330896  0.378655  1
  Pd  Pd14  1  0.500000  0.766937  0.252868  1
  Pd  Pd15  1  0.500000  0.233063  0.252868  1
  Pd  Pd16  1  0.266937  0.000000  0.252868  1
  Pd  Pd17  1  0.733063  0.000000  0.252868  1
  Pd  Pd18  1  0.000000  0.733063  0.747132  1
  Pd  Pd19  1  0.000000  0.266937  0.747132  1
  Pd  Pd20  1  0.233063  0.500000  0.747132  1
  Pd  Pd21  1  0.766937  0.500000  0.747132  1
  Pd  Pd22  1  0.500000  0.348742  0.857031  1
  Pd  Pd23  1  0.500000  0.651258  0.857031  1
  Pd  Pd24  1  0.848742  0.000000  0.857031  1
  Pd  Pd25  1  0.151258  0.000000  0.857031  1
  Pd  Pd26  1  0.000000  0.151258  0.142969  1
  Pd  Pd27  1  0.000000  0.848742  0.142969  1
  Pd  Pd28  1  0.651258  0.500000  0.142969  1
  Pd  Pd29  1  0.348742  0.500000  0.142969  1
  Pd  Pd30  1  0.250000  0.750000  0.000000  1
  Pd  Pd31  1  0.250000  0.250000  0.000000  1
  Pd  Pd32  1  0.750000  0.750000  0.000000  1
  Pd  Pd33  1  0.750000  0.250000  0.000000  1
