# generated using pymatgen
data_RbNbH5
_symmetry_space_group_name_H-M   'P 1'
_cell_length_a   11.13188500
_cell_length_b   7.31474600
_cell_length_c   5.26447100
_cell_angle_alpha   90.00000000
_cell_angle_beta   90.00000000
_cell_angle_gamma   90.00000000
_symmetry_Int_Tables_number   1
_chemical_formula_structural   RbNbH5
_chemical_formula_sum   'Rb4 Nb4 H20'
_cell_volume   428.66961303
_cell_formula_units_Z   4
loop_
 _symmetry_equiv_pos_site_id
 _symmetry_equiv_pos_as_xyz
  1  'x, y, z'
loop_
 _atom_site_type_symbol
 _atom_site_label
 _atom_site_symmetry_multiplicity
 _atom_site_fract_x
 _atom_site_fract_y
 _atom_site_fract_z
 _atom_site_occupancy
  Rb  Rb0  1  0.665823  0.074924  0.344469  1
  Rb  Rb1  1  0.165823  0.425075  0.344469  1
  Rb  Rb2  1  0.834177  0.574924  0.844469  1
  Rb  Rb3  1  0.334177  0.925076  0.844469  1
  Nb  Nb4  1  0.513956  0.562058  0.303893  1
  Nb  Nb5  1  0.013956  0.937942  0.303893  1
  Nb  Nb6  1  0.986044  0.062057  0.803892  1
  Nb  Nb7  1  0.486044  0.437943  0.803892  1
  H  H8  1  0.346580  0.309130  0.800585  1
  H  H9  1  0.846580  0.190870  0.800585  1
  H  H10  1  0.968395  0.697018  0.314154  1
  H  H11  1  0.468395  0.802981  0.314154  1
  H  H12  1  0.603782  0.406099  0.072064  1
  H  H13  1  0.103781  0.093901  0.072064  1
  H  H14  1  0.380701  0.522317  0.068796  1
  H  H15  1  0.880701  0.977684  0.068796  1
  H  H16  1  0.962073  0.164353  0.463038  1
  H  H17  1  0.462073  0.335648  0.463038  1
  H  H18  1  0.153420  0.809130  0.300584  1
  H  H19  1  0.653420  0.690869  0.300584  1
  H  H20  1  0.531606  0.197018  0.814156  1
  H  H21  1  0.031606  0.302981  0.814156  1
  H  H22  1  0.896219  0.906098  0.572064  1
  H  H23  1  0.396219  0.593902  0.572064  1
  H  H24  1  0.119299  0.022316  0.568796  1
  H  H25  1  0.619299  0.477684  0.568796  1
  H  H26  1  0.537927  0.664353  0.963040  1
  H  H27  1  0.037927  0.835648  0.963040  1
