# generated using pymatgen
data_Pr2P7Ru12
_symmetry_space_group_name_H-M   'P 1'
_cell_length_a   9.48605600
_cell_length_b   9.48605595
_cell_length_c   3.97905900
_cell_angle_alpha   90.00000000
_cell_angle_beta   90.00000000
_cell_angle_gamma   119.99999923
_symmetry_Int_Tables_number   1
_chemical_formula_structural   Pr2P7Ru12
_chemical_formula_sum   'Pr2 P7 Ru12'
_cell_volume   310.08615785
_cell_formula_units_Z   1
loop_
 _symmetry_equiv_pos_site_id
 _symmetry_equiv_pos_as_xyz
  1  'x, y, z'
loop_
 _atom_site_type_symbol
 _atom_site_label
 _atom_site_symmetry_multiplicity
 _atom_site_fract_x
 _atom_site_fract_y
 _atom_site_fract_z
 _atom_site_occupancy
  Pr  Pr0  1  0.333333  0.666667  0.000000  1
  Pr  Pr1  1  0.666667  0.333333  0.500000  1
  P  P2  1  0.110797  0.396229  0.500000  1
  P  P3  1  0.603771  0.714569  0.500000  1
  P  P4  1  0.285431  0.889203  0.500000  1
  P  P5  1  0.000000  0.000000  0.000000  1
  P  P6  1  0.419967  0.309435  0.000000  1
  P  P7  1  0.690565  0.110532  0.000000  1
  P  P8  1  0.889468  0.580033  0.000000  1
  Ru  Ru9  1  0.423028  0.063518  0.000000  1
  Ru  Ru10  1  0.936482  0.359509  0.000000  1
  Ru  Ru11  1  0.640491  0.576972  0.000000  1
  Ru  Ru12  1  0.389363  0.438993  0.500000  1
  Ru  Ru13  1  0.561007  0.950370  0.500000  1
  Ru  Ru14  1  0.049630  0.610637  0.500000  1
  Ru  Ru15  1  0.160468  0.269290  0.000000  1
  Ru  Ru16  1  0.730710  0.891178  0.000000  1
  Ru  Ru17  1  0.108822  0.839532  0.000000  1
  Ru  Ru18  1  0.207998  0.087085  0.500000  1
  Ru  Ru19  1  0.912915  0.120914  0.500000  1
  Ru  Ru20  1  0.879086  0.792002  0.500000  1
