# generated using pymatgen
data_Pr12(FeC3)5
_symmetry_space_group_name_H-M   'P 1'
_cell_length_a   10.79060101
_cell_length_b   10.78966116
_cell_length_c   5.37469900
_cell_angle_alpha   90.00000000
_cell_angle_beta   90.00000000
_cell_angle_gamma   119.99711322
_symmetry_Int_Tables_number   1
_chemical_formula_structural   Pr12(FeC3)5
_chemical_formula_sum   'Pr12 Fe5 C15'
_cell_volume   541.93955773
_cell_formula_units_Z   1
loop_
 _symmetry_equiv_pos_site_id
 _symmetry_equiv_pos_as_xyz
  1  'x, y, z'
loop_
 _atom_site_type_symbol
 _atom_site_label
 _atom_site_symmetry_multiplicity
 _atom_site_fract_x
 _atom_site_fract_y
 _atom_site_fract_z
 _atom_site_occupancy
  Pr  Pr0  1  0.790240  0.999957  0.500000  1
  Pr  Pr1  1  0.000000  0.790308  0.500000  1
  Pr  Pr2  1  0.209760  0.209717  0.500000  1
  Pr  Pr3  1  0.272138  0.456765  0.000000  1
  Pr  Pr4  1  0.543278  0.815409  0.000000  1
  Pr  Pr5  1  0.456722  0.272131  0.000000  1
  Pr  Pr6  1  0.184589  0.727887  0.000000  1
  Pr  Pr7  1  0.815411  0.543298  0.000000  1
  Pr  Pr8  1  0.727862  0.184626  0.000000  1
  Pr  Pr9  1  0.427624  0.999993  0.500000  1
  Pr  Pr10  1  0.000000  0.427605  0.500000  1
  Pr  Pr11  1  0.572376  0.572369  0.500000  1
  Fe  Fe12  1  0.153787  0.000005  0.000000  1
  Fe  Fe13  1  0.000000  0.153684  0.000000  1
  Fe  Fe14  1  0.846213  0.846218  0.000000  1
  Fe  Fe15  1  0.333331  0.666641  0.500000  1
  Fe  Fe16  1  0.666669  0.333308  0.500000  1
  C  C17  1  0.318659  0.000023  0.000000  1
  C  C18  1  0.000000  0.318719  0.000000  1
  C  C19  1  0.681341  0.681363  0.000000  1
  C  C20  1  0.810917  0.000012  0.000000  1
  C  C21  1  0.000000  0.810972  0.000000  1
  C  C22  1  0.189083  0.189094  0.000000  1
  C  C23  1  0.442754  0.000029  0.000000  1
  C  C24  1  0.000000  0.442774  0.000000  1
  C  C25  1  0.557246  0.557275  0.000000  1
  C  C26  1  0.290196  0.482845  0.500000  1
  C  C27  1  0.517071  0.807256  0.500000  1
  C  C28  1  0.482929  0.290185  0.500000  1
  C  C29  1  0.192689  0.709784  0.500000  1
  C  C30  1  0.807311  0.517096  0.500000  1
  C  C31  1  0.709804  0.192648  0.500000  1
