# generated using pymatgen
data_Ba16NbFe2Co2Sb3O32
_symmetry_space_group_name_H-M   'P 1'
_cell_length_a   6.11514800
_cell_length_b   7.63662785
_cell_length_c   21.23600700
_cell_angle_alpha   81.99818299
_cell_angle_beta   90.00000000
_cell_angle_gamma   90.00000000
_symmetry_Int_Tables_number   1
_chemical_formula_structural   Ba16NbFe2Co2Sb3O32
_chemical_formula_sum   'Ba16 Nb1 Fe2 Co2 Sb3 O32'
_cell_volume   982.04705707
_cell_formula_units_Z   1
loop_
 _symmetry_equiv_pos_site_id
 _symmetry_equiv_pos_as_xyz
  1  'x, y, z'
loop_
 _atom_site_type_symbol
 _atom_site_label
 _atom_site_symmetry_multiplicity
 _atom_site_fract_x
 _atom_site_fract_y
 _atom_site_fract_z
 _atom_site_occupancy
  Ba  Ba0  1  0.762716  0.031341  0.101741  1
  Ba  Ba1  1  0.263187  0.968560  0.398350  1
  Ba  Ba2  1  0.238559  0.965842  0.900360  1
  Ba  Ba3  1  0.740032  0.028722  0.599512  1
  Ba  Ba4  1  0.755610  0.515638  0.137143  1
  Ba  Ba5  1  0.256101  0.484647  0.362422  1
  Ba  Ba6  1  0.245632  0.487405  0.861778  1
  Ba  Ba7  1  0.743268  0.515614  0.638602  1
  Ba  Ba8  1  0.275064  0.299011  0.048017  1
  Ba  Ba9  1  0.774919  0.701188  0.451425  1
  Ba  Ba10  1  0.725094  0.706932  0.952333  1
  Ba  Ba11  1  0.225038  0.297188  0.545851  1
  Ba  Ba12  1  0.275127  0.858263  0.214302  1
  Ba  Ba13  1  0.775104  0.143074  0.285754  1
  Ba  Ba14  1  0.719964  0.130946  0.788031  1
  Ba  Ba15  1  0.224197  0.843174  0.713310  1
  Nb  Nb16  1  0.237543  0.341586  0.710447  1
  Fe  Fe17  1  0.780939  0.263947  0.940742  1
  Fe  Fe18  1  0.278912  0.737673  0.559327  1
  Co  Co19  1  0.223114  0.741122  0.058300  1
  Co  Co20  1  0.724494  0.258952  0.441998  1
  Sb  Sb21  1  0.260489  0.352123  0.210452  1
  Sb  Sb22  1  0.760672  0.647826  0.289515  1
  Sb  Sb23  1  0.739958  0.647403  0.788534  1
  O  O24  1  0.503039  0.499547  0.253038  1
  O  O25  1  0.002689  0.500240  0.247090  1
  O  O26  1  0.504317  0.504114  0.747912  1
  O  O27  1  0.992272  0.503449  0.752985  1
  O  O28  1  0.498002  0.214680  0.176597  1
  O  O29  1  0.998056  0.785020  0.323656  1
  O  O30  1  0.502398  0.786744  0.822957  1
  O  O31  1  0.003731  0.217100  0.677449  1
  O  O32  1  0.243100  0.189104  0.291812  1
  O  O33  1  0.743042  0.811126  0.208338  1
  O  O34  1  0.757890  0.816542  0.707631  1
  O  O35  1  0.260173  0.193483  0.791795  1
  O  O36  1  0.029433  0.222600  0.168606  1
  O  O37  1  0.529753  0.777028  0.331663  1
  O  O38  1  0.969841  0.779410  0.831032  1
  O  O39  1  0.465718  0.224887  0.668716  1
  O  O40  1  0.278090  0.546858  0.133513  1
  O  O41  1  0.778348  0.452622  0.366541  1
  O  O42  1  0.725451  0.454406  0.868092  1
  O  O43  1  0.226249  0.550491  0.632609  1
  O  O44  1  0.343628  0.934541  0.083280  1
  O  O45  1  0.844232  0.065164  0.417233  1
  O  O46  1  0.652676  0.060429  0.916829  1
  O  O47  1  0.155323  0.944124  0.582711  1
  O  O48  1  0.295220  0.654837  0.983110  1
  O  O49  1  0.796062  0.344514  0.517258  1
  O  O50  1  0.696194  0.341249  0.018605  1
  O  O51  1  0.194646  0.658754  0.481424  1
  O  O52  1  0.915425  0.764846  0.053972  1
  O  O53  1  0.416190  0.235762  0.445874  1
  O  O54  1  0.086914  0.236794  0.944751  1
  O  O55  1  0.586158  0.761359  0.554677  1
