# generated using pymatgen
data_Y12Tl2Tc3
_symmetry_space_group_name_H-M   'P 1'
_cell_length_a   8.54382193
_cell_length_b   8.54335906
_cell_length_c   8.54382365
_cell_angle_alpha   108.80460059
_cell_angle_beta   108.83092835
_cell_angle_gamma   110.78844646
_symmetry_Int_Tables_number   1
_chemical_formula_structural   Y12Tl2Tc3
_chemical_formula_sum   'Y12 Tl2 Tc3'
_cell_volume   479.87350446
_cell_formula_units_Z   1
loop_
 _symmetry_equiv_pos_site_id
 _symmetry_equiv_pos_as_xyz
  1  'x, y, z'
loop_
 _atom_site_type_symbol
 _atom_site_label
 _atom_site_symmetry_multiplicity
 _atom_site_fract_x
 _atom_site_fract_y
 _atom_site_fract_z
 _atom_site_occupancy
  Y  Y0  1  0.305664  0.305765  0.611389  1
  Y  Y1  1  0.694336  0.694235  0.388611  1
  Y  Y2  1  0.694378  0.305765  0.000100  1
  Y  Y3  1  0.305622  0.694235  0.999900  1
  Y  Y4  1  0.188963  0.428247  0.239284  1
  Y  Y5  1  0.811037  0.571753  0.760716  1
  Y  Y6  1  0.188926  0.949627  0.760703  1
  Y  Y7  1  0.949713  0.188950  0.760761  1
  Y  Y8  1  0.811074  0.050373  0.239297  1
  Y  Y9  1  0.050287  0.811050  0.239239  1
  Y  Y10  1  0.428189  0.188950  0.239234  1
  Y  Y11  1  0.571811  0.811050  0.760766  1
  Tl  Tl12  1  0.000000  0.500000  0.500000  1
  Tl  Tl13  1  0.500000  0.000000  0.500000  1
  Tc  Tc14  1  0.375294  0.375268  0.999974  1
  Tc  Tc15  1  0.624706  0.624732  0.000026  1
  Tc  Tc16  1  0.000000  0.000000  0.000000  1
