# generated using pymatgen
data_ErLu15(Ga3Ir)2
_symmetry_space_group_name_H-M   'P 1'
_cell_length_a   9.86080900
_cell_length_b   9.86542858
_cell_length_c   6.86009103
_cell_angle_alpha   90.00964564
_cell_angle_beta   90.00000000
_cell_angle_gamma   119.98452138
_symmetry_Int_Tables_number   1
_chemical_formula_structural   ErLu15(Ga3Ir)2
_chemical_formula_sum   'Er1 Lu15 Ga6 Ir2'
_cell_volume   578.03844321
_cell_formula_units_Z   1
loop_
 _symmetry_equiv_pos_site_id
 _symmetry_equiv_pos_as_xyz
  1  'x, y, z'
loop_
 _atom_site_type_symbol
 _atom_site_label
 _atom_site_symmetry_multiplicity
 _atom_site_fract_x
 _atom_site_fract_y
 _atom_site_fract_z
 _atom_site_occupancy
  Er  Er0  1  0.533174  0.066346  0.795306  1
  Lu  Lu1  1  0.000044  0.000087  0.267152  1
  Lu  Lu2  1  0.999994  0.999987  0.767075  1
  Lu  Lu3  1  0.170853  0.828453  0.991886  1
  Lu  Lu4  1  0.829040  0.171383  0.491202  1
  Lu  Lu5  1  0.171262  0.342524  0.991515  1
  Lu  Lu6  1  0.657601  0.828453  0.991886  1
  Lu  Lu7  1  0.342343  0.171383  0.491202  1
  Lu  Lu8  1  0.828731  0.657461  0.491541  1
  Lu  Lu9  1  0.333156  0.666313  0.662484  1
  Lu  Lu10  1  0.666887  0.333772  0.162802  1
  Lu  Lu11  1  0.466357  0.533672  0.295164  1
  Lu  Lu12  1  0.533609  0.466514  0.795174  1
  Lu  Lu13  1  0.466222  0.932445  0.295210  1
  Lu  Lu14  1  0.067313  0.533672  0.295164  1
  Lu  Lu15  1  0.932905  0.466514  0.795174  1
  Ga  Ga16  1  0.163566  0.836458  0.541863  1
  Ga  Ga17  1  0.836708  0.163626  0.042298  1
  Ga  Ga18  1  0.163556  0.327110  0.542129  1
  Ga  Ga19  1  0.672893  0.836458  0.541863  1
  Ga  Ga20  1  0.326918  0.163626  0.042298  1
  Ga  Ga21  1  0.836428  0.672856  0.041994  1
  Ir  Ir22  1  0.333319  0.666639  0.057215  1
  Ir  Ir23  1  0.667124  0.334247  0.556523  1
