# generated using pymatgen
data_RbCeAuS3
_symmetry_space_group_name_H-M   'P 1'
_cell_length_a   4.17595000
_cell_length_b   7.69185168
_cell_length_c   10.53288408
_cell_angle_alpha   90.00072273
_cell_angle_beta   90.00000000
_cell_angle_gamma   74.24926227
_symmetry_Int_Tables_number   1
_chemical_formula_structural   RbCeAuS3
_chemical_formula_sum   'Rb2 Ce2 Au2 S6'
_cell_volume   325.62103943
_cell_formula_units_Z   2
loop_
 _symmetry_equiv_pos_site_id
 _symmetry_equiv_pos_as_xyz
  1  'x, y, z'
loop_
 _atom_site_type_symbol
 _atom_site_label
 _atom_site_symmetry_multiplicity
 _atom_site_fract_x
 _atom_site_fract_y
 _atom_site_fract_z
 _atom_site_occupancy
  Rb  Rb0  1  0.256949  0.486101  0.250099  1
  Rb  Rb1  1  0.743051  0.513898  0.749902  1
  Ce  Ce2  1  0.000000  0.000000  0.000000  1
  Ce  Ce3  1  0.000000  0.000000  0.500000  1
  Au  Au4  1  0.544939  0.910123  0.250012  1
  Au  Au5  1  0.455061  0.089876  0.749988  1
  S  S6  1  0.619899  0.760201  0.043256  1
  S  S7  1  0.938569  0.122862  0.250022  1
  S  S8  1  0.619893  0.760212  0.456774  1
  S  S9  1  0.380107  0.239787  0.543226  1
  S  S10  1  0.061431  0.877139  0.749978  1
  S  S11  1  0.380101  0.239799  0.956744  1
