# generated using pymatgen
data_Ba6ErIn(BO3)6
_symmetry_space_group_name_H-M   'P 1'
_cell_length_a   8.15935145
_cell_length_b   8.15935277
_cell_length_c   8.15935208
_cell_angle_alpha   105.83970118
_cell_angle_beta   105.83970045
_cell_angle_gamma   105.83972369
_symmetry_Int_Tables_number   1
_chemical_formula_structural   Ba6ErIn(BO3)6
_chemical_formula_sum   'Ba6 Er1 In1 B6 O18'
_cell_volume   465.96783707
_cell_formula_units_Z   1
loop_
 _symmetry_equiv_pos_site_id
 _symmetry_equiv_pos_as_xyz
  1  'x, y, z'
loop_
 _atom_site_type_symbol
 _atom_site_label
 _atom_site_symmetry_multiplicity
 _atom_site_fract_x
 _atom_site_fract_y
 _atom_site_fract_z
 _atom_site_occupancy
  Ba  Ba0  1  0.765469  0.665430  0.155156  1
  Ba  Ba1  1  0.334571  0.844844  0.234532  1
  Ba  Ba2  1  0.844844  0.234533  0.334570  1
  Ba  Ba3  1  0.155156  0.765468  0.665431  1
  Ba  Ba4  1  0.665430  0.155156  0.765468  1
  Ba  Ba5  1  0.234532  0.334570  0.844845  1
  Er  Er6  1  0.500000  0.500000  0.500000  1
  In  In7  1  0.000000  0.000000  0.000000  1
  B  B8  1  0.451248  0.206627  0.130039  1
  B  B9  1  0.130039  0.451248  0.206627  1
  B  B10  1  0.206627  0.130039  0.451248  1
  B  B11  1  0.793373  0.869961  0.548753  1
  B  B12  1  0.869962  0.548753  0.793373  1
  B  B13  1  0.548753  0.793373  0.869961  1
  O  O14  1  0.280862  0.070294  0.004659  1
  O  O15  1  0.569212  0.300397  0.064184  1
  O  O16  1  0.004659  0.280862  0.070294  1
  O  O17  1  0.317023  0.504984  0.235310  1
  O  O18  1  0.070294  0.004658  0.280862  1
  O  O19  1  0.064183  0.569212  0.300397  1
  O  O20  1  0.504984  0.235310  0.317023  1
  O  O21  1  0.699602  0.935816  0.430788  1
  O  O22  1  0.764690  0.682977  0.495017  1
  O  O23  1  0.235310  0.317024  0.504984  1
  O  O24  1  0.300397  0.064183  0.569212  1
  O  O25  1  0.495017  0.764690  0.682977  1
  O  O26  1  0.935816  0.430787  0.699602  1
  O  O27  1  0.929705  0.995341  0.719137  1
  O  O28  1  0.682977  0.495017  0.764690  1
  O  O29  1  0.995340  0.719138  0.929706  1
  O  O30  1  0.430787  0.699602  0.935816  1
  O  O31  1  0.719138  0.929706  0.995341  1
