# generated using pymatgen
data_Eu5Zn2Hg
_symmetry_space_group_name_H-M   'P 1'
_cell_length_a   9.68816502
_cell_length_b   9.68816554
_cell_length_c   9.68816563
_cell_angle_alpha   131.00245889
_cell_angle_beta   131.00246157
_cell_angle_gamma   71.80916771
_symmetry_Int_Tables_number   1
_chemical_formula_structural   Eu5Zn2Hg
_chemical_formula_sum   'Eu10 Zn4 Hg2'
_cell_volume   506.61706193
_cell_formula_units_Z   2
loop_
 _symmetry_equiv_pos_site_id
 _symmetry_equiv_pos_as_xyz
  1  'x, y, z'
loop_
 _atom_site_type_symbol
 _atom_site_label
 _atom_site_symmetry_multiplicity
 _atom_site_fract_x
 _atom_site_fract_y
 _atom_site_fract_z
 _atom_site_occupancy
  Eu  Eu0  1  0.500000  0.500000  0.000000  1
  Eu  Eu1  1  0.000000  0.000000  0.000000  1
  Eu  Eu2  1  0.519474  0.019474  0.834315  1
  Eu  Eu3  1  0.185158  0.685158  0.165685  1
  Eu  Eu4  1  0.019474  0.185158  0.500000  1
  Eu  Eu5  1  0.685158  0.519474  0.500000  1
  Eu  Eu6  1  0.480526  0.980526  0.165685  1
  Eu  Eu7  1  0.814842  0.314842  0.834315  1
  Eu  Eu8  1  0.980526  0.814842  0.500000  1
  Eu  Eu9  1  0.314842  0.480526  0.500000  1
  Zn  Zn10  1  0.118878  0.618878  0.737755  1
  Zn  Zn11  1  0.881122  0.381122  0.262245  1
  Zn  Zn12  1  0.618878  0.881122  0.500000  1
  Zn  Zn13  1  0.381122  0.118878  0.500000  1
  Hg  Hg14  1  0.250000  0.250000  0.000000  1
  Hg  Hg15  1  0.750000  0.750000  0.000000  1
