# generated using pymatgen
data_SmEr3(CCl)2
_symmetry_space_group_name_H-M   'P 1'
_cell_length_a   3.63631700
_cell_length_b   3.63631770
_cell_length_c   13.64923900
_cell_angle_alpha   90.00000000
_cell_angle_beta   90.00000000
_cell_angle_gamma   119.99998450
_symmetry_Int_Tables_number   1
_chemical_formula_structural   SmEr3(CCl)2
_chemical_formula_sum   'Sm1 Er3 C2 Cl2'
_cell_volume   156.30133760
_cell_formula_units_Z   1
loop_
 _symmetry_equiv_pos_site_id
 _symmetry_equiv_pos_as_xyz
  1  'x, y, z'
loop_
 _atom_site_type_symbol
 _atom_site_label
 _atom_site_symmetry_multiplicity
 _atom_site_fract_x
 _atom_site_fract_y
 _atom_site_fract_z
 _atom_site_occupancy
  Sm  Sm0  1  0.333333  0.666667  0.094780  1
  Er  Er1  1  0.666667  0.333333  0.593264  1
  Er  Er2  1  0.666667  0.333333  0.904179  1
  Er  Er3  1  0.333333  0.666667  0.409136  1
  C  C4  1  0.000000  0.000000  0.991056  1
  C  C5  1  0.000000  0.000000  0.501547  1
  Cl  Cl6  1  0.333333  0.666667  0.747170  1
  Cl  Cl7  1  0.666667  0.333333  0.258867  1
