# generated using pymatgen
data_Ta5TiIr2
_symmetry_space_group_name_H-M   'P 1'
_cell_length_a   5.16333500
_cell_length_b   5.16333500
_cell_length_c   5.11018600
_cell_angle_alpha   90.00000000
_cell_angle_beta   90.00000000
_cell_angle_gamma   90.00000000
_symmetry_Int_Tables_number   1
_chemical_formula_structural   Ta5TiIr2
_chemical_formula_sum   'Ta5 Ti1 Ir2'
_cell_volume   136.23770349
_cell_formula_units_Z   1
loop_
 _symmetry_equiv_pos_site_id
 _symmetry_equiv_pos_as_xyz
  1  'x, y, z'
loop_
 _atom_site_type_symbol
 _atom_site_label
 _atom_site_symmetry_multiplicity
 _atom_site_fract_x
 _atom_site_fract_y
 _atom_site_fract_z
 _atom_site_occupancy
  Ta  Ta0  1  0.500000  0.249848  0.997119  1
  Ta  Ta1  1  0.500000  0.750152  0.997119  1
  Ta  Ta2  1  0.250152  0.000000  0.502881  1
  Ta  Ta3  1  0.749848  0.000000  0.502881  1
  Ta  Ta4  1  0.000000  0.500000  0.250000  1
  Ti  Ti5  1  0.000000  0.500000  0.750000  1
  Ir  Ir6  1  0.500000  0.500000  0.499455  1
  Ir  Ir7  1  0.000000  0.000000  0.000545  1
