# generated using pymatgen
data_ThZnCo4
_symmetry_space_group_name_H-M   'P 1'
_cell_length_a   5.03550013
_cell_length_b   5.03550042
_cell_length_c   4.07718000
_cell_angle_alpha   90.00000000
_cell_angle_beta   90.00000000
_cell_angle_gamma   121.35711751
_symmetry_Int_Tables_number   1
_chemical_formula_structural   ThZnCo4
_chemical_formula_sum   'Th1 Zn1 Co4'
_cell_volume   88.28211845
_cell_formula_units_Z   1
loop_
 _symmetry_equiv_pos_site_id
 _symmetry_equiv_pos_as_xyz
  1  'x, y, z'
loop_
 _atom_site_type_symbol
 _atom_site_label
 _atom_site_symmetry_multiplicity
 _atom_site_fract_x
 _atom_site_fract_y
 _atom_site_fract_z
 _atom_site_occupancy
  Th  Th0  1  0.000000  0.000000  0.000000  1
  Zn  Zn1  1  0.500000  0.500000  0.500000  1
  Co  Co2  1  0.307403  0.692597  0.000000  1
  Co  Co3  1  0.692597  0.307403  0.000000  1
  Co  Co4  1  0.500000  0.000000  0.500000  1
  Co  Co5  1  0.000000  0.500000  0.500000  1
