# generated using pymatgen
data_Li2U(WN2)3
_symmetry_space_group_name_H-M   'P 1'
_cell_length_a   5.15708600
_cell_length_b   5.15708645
_cell_length_c   10.49696600
_cell_angle_alpha   90.00000000
_cell_angle_beta   90.00000000
_cell_angle_gamma   119.99999714
_symmetry_Int_Tables_number   1
_chemical_formula_structural   Li2U(WN2)3
_chemical_formula_sum   'Li4 U2 W6 N12'
_cell_volume   241.77045056
_cell_formula_units_Z   2
loop_
 _symmetry_equiv_pos_site_id
 _symmetry_equiv_pos_as_xyz
  1  'x, y, z'
loop_
 _atom_site_type_symbol
 _atom_site_label
 _atom_site_symmetry_multiplicity
 _atom_site_fract_x
 _atom_site_fract_y
 _atom_site_fract_z
 _atom_site_occupancy
  Li  Li0  1  0.333333  0.666667  0.000000  1
  Li  Li1  1  0.333333  0.666667  0.500000  1
  Li  Li2  1  0.666667  0.333333  0.500000  1
  Li  Li3  1  0.666667  0.333333  0.000000  1
  U  U4  1  0.000000  0.000000  0.500000  1
  U  U5  1  0.000000  0.000000  0.000000  1
  W  W6  1  0.000000  0.334147  0.250000  1
  W  W7  1  0.665853  0.000000  0.750000  1
  W  W8  1  0.334147  0.334147  0.750000  1
  W  W9  1  0.665853  0.665853  0.250000  1
  W  W10  1  0.334147  0.000000  0.250000  1
  W  W11  1  0.000000  0.665853  0.750000  1
  N  N12  1  0.659757  0.659757  0.629808  1
  N  N13  1  0.659757  0.659757  0.870192  1
  N  N14  1  0.340243  0.340243  0.129808  1
  N  N15  1  0.340243  0.340243  0.370192  1
  N  N16  1  0.340243  0.000000  0.870192  1
  N  N17  1  0.340243  0.000000  0.629808  1
  N  N18  1  0.000000  0.659757  0.370192  1
  N  N19  1  0.000000  0.659757  0.129808  1
  N  N20  1  0.659757  0.000000  0.129808  1
  N  N21  1  0.659757  0.000000  0.370192  1
  N  N22  1  0.000000  0.340243  0.870192  1
  N  N23  1  0.000000  0.340243  0.629808  1
