# generated using pymatgen
data_La3Yb2Si3O12F
_symmetry_space_group_name_H-M   'P 1'
_cell_length_a   7.18710900
_cell_length_b   9.74731166
_cell_length_c   9.74731200
_cell_angle_alpha   119.99999435
_cell_angle_beta   90.00000000
_cell_angle_gamma   90.00000000
_symmetry_Int_Tables_number   1
_chemical_formula_structural   La3Yb2Si3O12F
_chemical_formula_sum   'La6 Yb4 Si6 O24 F2'
_cell_volume   591.36362577
_cell_formula_units_Z   2
loop_
 _symmetry_equiv_pos_site_id
 _symmetry_equiv_pos_as_xyz
  1  'x, y, z'
loop_
 _atom_site_type_symbol
 _atom_site_label
 _atom_site_symmetry_multiplicity
 _atom_site_fract_x
 _atom_site_fract_y
 _atom_site_fract_z
 _atom_site_occupancy
  La  La0  1  0.750000  0.262759  0.254924  1
  La  La1  1  0.750000  0.745076  0.007834  1
  La  La2  1  0.750000  0.992166  0.737241  1
  La  La3  1  0.250000  0.737241  0.745076  1
  La  La4  1  0.250000  0.007834  0.262759  1
  La  La5  1  0.250000  0.254924  0.992166  1
  Yb  Yb6  1  0.503214  0.666667  0.333333  1
  Yb  Yb7  1  0.003214  0.333333  0.666667  1
  Yb  Yb8  1  0.996786  0.666667  0.333333  1
  Yb  Yb9  1  0.496786  0.333333  0.666667  1
  Si  Si10  1  0.250000  0.628365  0.027305  1
  Si  Si11  1  0.750000  0.601062  0.628365  1
  Si  Si12  1  0.250000  0.972695  0.601062  1
  Si  Si13  1  0.750000  0.027305  0.398938  1
  Si  Si14  1  0.250000  0.398938  0.371635  1
  Si  Si15  1  0.750000  0.371635  0.972695  1
  O  O16  1  0.750000  0.130931  0.594216  1
  O  O17  1  0.569281  0.249601  0.915039  1
  O  O18  1  0.250000  0.329401  0.493578  1
  O  O19  1  0.069281  0.750399  0.084961  1
  O  O20  1  0.930719  0.665438  0.750399  1
  O  O21  1  0.750000  0.405784  0.536715  1
  O  O22  1  0.569281  0.084961  0.334562  1
  O  O23  1  0.250000  0.536715  0.130931  1
  O  O24  1  0.430719  0.915039  0.665438  1
  O  O25  1  0.250000  0.594216  0.463285  1
  O  O26  1  0.750000  0.493578  0.164178  1
  O  O27  1  0.430719  0.334562  0.249601  1
  O  O28  1  0.750000  0.463285  0.869069  1
  O  O29  1  0.250000  0.164178  0.670599  1
  O  O30  1  0.750000  0.835822  0.329401  1
  O  O31  1  0.930719  0.249601  0.915039  1
  O  O32  1  0.930719  0.084961  0.334562  1
  O  O33  1  0.430719  0.750399  0.084961  1
  O  O34  1  0.750000  0.670599  0.506422  1
  O  O35  1  0.569281  0.665438  0.750399  1
  O  O36  1  0.250000  0.869069  0.405784  1
  O  O37  1  0.069281  0.334562  0.249601  1
  O  O38  1  0.250000  0.506422  0.835822  1
  O  O39  1  0.069281  0.915039  0.665438  1
  F  F40  1  0.250000  0.000000  0.000000  1
  F  F41  1  0.750000  0.000000  0.000000  1
