# generated using pymatgen
data_Ce7Pu3Si8H3
_symmetry_space_group_name_H-M   'P 1'
_cell_length_a   10.59256800
_cell_length_b   10.58191166
_cell_length_c   4.40961800
_cell_angle_alpha   90.00000000
_cell_angle_beta   90.00000000
_cell_angle_gamma   119.91208503
_symmetry_Int_Tables_number   1
_chemical_formula_structural   Ce7Pu3Si8H3
_chemical_formula_sum   'Ce7 Pu3 Si8 H3'
_cell_volume   428.43115864
_cell_formula_units_Z   1
loop_
 _symmetry_equiv_pos_site_id
 _symmetry_equiv_pos_as_xyz
  1  'x, y, z'
loop_
 _atom_site_type_symbol
 _atom_site_label
 _atom_site_symmetry_multiplicity
 _atom_site_fract_x
 _atom_site_fract_y
 _atom_site_fract_z
 _atom_site_occupancy
  Ce  Ce0  1  0.208542  0.785936  0.000000  1
  Ce  Ce1  1  0.209134  0.422103  0.000000  1
  Ce  Ce2  1  0.790866  0.577897  0.000000  1
  Ce  Ce3  1  0.421917  0.210909  0.000000  1
  Ce  Ce4  1  0.000000  0.000000  0.000000  1
  Ce  Ce5  1  0.578083  0.789091  0.000000  1
  Ce  Ce6  1  0.791458  0.214064  0.000000  1
  Pu  Pu7  1  0.500000  0.000000  0.500000  1
  Pu  Pu8  1  0.000000  0.500000  0.500000  1
  Pu  Pu9  1  0.500000  0.500000  0.500000  1
  Si  Si10  1  0.665133  0.333022  0.500000  1
  Si  Si11  1  0.999808  0.777237  0.500000  1
  Si  Si12  1  0.334867  0.666978  0.500000  1
  Si  Si13  1  0.223428  0.223462  0.500000  1
  Si  Si14  1  0.776572  0.776538  0.500000  1
  Si  Si15  1  0.777111  0.000566  0.500000  1
  Si  Si16  1  0.222889  0.999434  0.500000  1
  Si  Si17  1  0.000192  0.222763  0.500000  1
  H  H18  1  0.500000  0.500000  0.000000  1
  H  H19  1  0.500000  0.000000  0.000000  1
  H  H20  1  0.000000  0.500000  0.000000  1
