# generated using pymatgen
data_Y5Co7SiP11Ru12
_symmetry_space_group_name_H-M   'P 1'
_cell_length_a   12.39501059
_cell_length_b   12.41855326
_cell_length_c   3.83679700
_cell_angle_alpha   90.00000000
_cell_angle_beta   90.00000000
_cell_angle_gamma   120.01130479
_symmetry_Int_Tables_number   1
_chemical_formula_structural   Y5Co7SiP11Ru12
_chemical_formula_sum   'Y5 Co7 Si1 P11 Ru12'
_cell_volume   511.40842243
_cell_formula_units_Z   1
loop_
 _symmetry_equiv_pos_site_id
 _symmetry_equiv_pos_as_xyz
  1  'x, y, z'
loop_
 _atom_site_type_symbol
 _atom_site_label
 _atom_site_symmetry_multiplicity
 _atom_site_fract_x
 _atom_site_fract_y
 _atom_site_fract_z
 _atom_site_occupancy
  Y  Y0  1  0.332125  0.666996  0.500000  1
  Y  Y1  1  0.668630  0.334335  0.500000  1
  Y  Y2  1  0.001693  0.182446  0.000000  1
  Y  Y3  1  0.815355  0.818109  0.000000  1
  Y  Y4  1  0.181642  0.997922  0.000000  1
  Co  Co5  1  0.492763  0.130763  0.000000  1
  Co  Co6  1  0.640502  0.507726  0.000000  1
  Co  Co7  1  0.870693  0.361053  0.000000  1
  Co  Co8  1  0.994065  0.717015  0.000000  1
  Co  Co9  1  0.287047  0.279388  0.000000  1
  Co  Co10  1  0.718241  0.003389  0.000000  1
  Co  Co11  1  0.000034  0.000855  0.500000  1
  Si  Si12  1  0.000558  0.369114  0.500000  1
  P  P13  1  0.631430  0.633977  0.500000  1
  P  P14  1  0.365756  0.997694  0.500000  1
  P  P15  1  0.524040  0.836925  0.000000  1
  P  P16  1  0.160710  0.687950  0.000000  1
  P  P17  1  0.312078  0.474280  0.000000  1
  P  P18  1  0.481765  0.312925  0.000000  1
  P  P19  1  0.835359  0.520890  0.000000  1
  P  P20  1  0.687364  0.167067  0.000000  1
  P  P21  1  0.995083  0.820143  0.500000  1
  P  P22  1  0.182238  0.176733  0.500000  1
  P  P23  1  0.822377  0.003419  0.500000  1
  Ru  Ru24  1  0.625107  0.825504  0.500000  1
  Ru  Ru25  1  0.172434  0.800514  0.500000  1
  Ru  Ru26  1  0.203928  0.374055  0.500000  1
  Ru  Ru27  1  0.378930  0.191511  0.500000  1
  Ru  Ru28  1  0.813617  0.623701  0.500000  1
  Ru  Ru29  1  0.803524  0.181672  0.500000  1
  Ru  Ru30  1  0.987937  0.551620  0.500000  1
  Ru  Ru31  1  0.455530  0.440454  0.500000  1
  Ru  Ru32  1  0.556117  0.008718  0.500000  1
  Ru  Ru33  1  0.515612  0.635561  0.000000  1
  Ru  Ru34  1  0.362054  0.878726  0.000000  1
  Ru  Ru35  1  0.123665  0.486850  0.000000  1
