# generated using pymatgen
data_Tb16Al6CoOs
_symmetry_space_group_name_H-M   'P 1'
_cell_length_a   10.28599000
_cell_length_b   10.28599168
_cell_length_c   6.90335800
_cell_angle_alpha   90.00000000
_cell_angle_beta   90.00000000
_cell_angle_gamma   120.00000104
_symmetry_Int_Tables_number   1
_chemical_formula_structural   Tb16Al6CoOs
_chemical_formula_sum   'Tb16 Al6 Co1 Os1'
_cell_volume   632.53314747
_cell_formula_units_Z   1
loop_
 _symmetry_equiv_pos_site_id
 _symmetry_equiv_pos_as_xyz
  1  'x, y, z'
loop_
 _atom_site_type_symbol
 _atom_site_label
 _atom_site_symmetry_multiplicity
 _atom_site_fract_x
 _atom_site_fract_y
 _atom_site_fract_z
 _atom_site_occupancy
  Tb  Tb0  1  0.826689  0.653377  0.495302  1
  Tb  Tb1  1  0.346623  0.173311  0.495302  1
  Tb  Tb2  1  0.826689  0.173311  0.495302  1
  Tb  Tb3  1  0.174757  0.349515  0.999035  1
  Tb  Tb4  1  0.650485  0.825243  0.999035  1
  Tb  Tb5  1  0.174757  0.825243  0.999035  1
  Tb  Tb6  1  0.666667  0.333333  0.158562  1
  Tb  Tb7  1  0.333333  0.666667  0.671110  1
  Tb  Tb8  1  0.532039  0.064075  0.788820  1
  Tb  Tb9  1  0.935925  0.467961  0.788820  1
  Tb  Tb10  1  0.532039  0.467961  0.788820  1
  Tb  Tb11  1  0.466286  0.932573  0.290747  1
  Tb  Tb12  1  0.067427  0.533714  0.290747  1
  Tb  Tb13  1  0.466286  0.533714  0.290747  1
  Tb  Tb14  1  0.000000  0.000000  0.776925  1
  Tb  Tb15  1  0.000000  0.000000  0.273344  1
  Al  Al16  1  0.838197  0.676394  0.031177  1
  Al  Al17  1  0.323606  0.161803  0.031177  1
  Al  Al18  1  0.838197  0.161803  0.031177  1
  Al  Al19  1  0.163687  0.327375  0.535229  1
  Al  Al20  1  0.672625  0.836313  0.535229  1
  Al  Al21  1  0.163687  0.836313  0.535229  1
  Co  Co22  1  0.333333  0.666667  0.063612  1
  Os  Os23  1  0.666667  0.333333  0.561763  1
