# generated using pymatgen
data_Sc2Mn2TcOs
_symmetry_space_group_name_H-M   'P 1'
_cell_length_a   4.98167700
_cell_length_b   5.06043084
_cell_length_c   8.49999600
_cell_angle_alpha   90.00000000
_cell_angle_beta   90.00000000
_cell_angle_gamma   119.48651890
_symmetry_Int_Tables_number   1
_chemical_formula_structural   Sc2Mn2TcOs
_chemical_formula_sum   'Sc4 Mn4 Tc2 Os2'
_cell_volume   186.52470187
_cell_formula_units_Z   2
loop_
 _symmetry_equiv_pos_site_id
 _symmetry_equiv_pos_as_xyz
  1  'x, y, z'
loop_
 _atom_site_type_symbol
 _atom_site_label
 _atom_site_symmetry_multiplicity
 _atom_site_fract_x
 _atom_site_fract_y
 _atom_site_fract_z
 _atom_site_occupancy
  Sc  Sc0  1  0.333754  0.666963  0.437067  1
  Sc  Sc1  1  0.666792  0.333037  0.562933  1
  Sc  Sc2  1  0.666792  0.333037  0.937067  1
  Sc  Sc3  1  0.333754  0.666963  0.062933  1
  Mn  Mn4  1  0.171835  0.339162  0.750000  1
  Mn  Mn5  1  0.175259  0.832106  0.750000  1
  Mn  Mn6  1  0.343150  0.167894  0.250000  1
  Mn  Mn7  1  0.832671  0.660838  0.250000  1
  Tc  Tc8  1  0.643112  0.823670  0.750000  1
  Tc  Tc9  1  0.819440  0.176330  0.250000  1
  Os  Os10  1  0.006721  0.000000  0.000000  1
  Os  Os11  1  0.006721  0.000000  0.500000  1
