# generated using pymatgen
data_Y3Er3Al24(Ir3Ru)2
_symmetry_space_group_name_H-M   'P 1'
_cell_length_a   8.83015012
_cell_length_b   8.81691315
_cell_length_c   9.48585900
_cell_angle_alpha   90.00000000
_cell_angle_beta   90.00000000
_cell_angle_gamma   120.06829360
_symmetry_Int_Tables_number   1
_chemical_formula_structural   Y3Er3Al24(Ir3Ru)2
_chemical_formula_sum   'Y3 Er3 Al24 Ir6 Ru2'
_cell_volume   639.13509551
_cell_formula_units_Z   1
loop_
 _symmetry_equiv_pos_site_id
 _symmetry_equiv_pos_as_xyz
  1  'x, y, z'
loop_
 _atom_site_type_symbol
 _atom_site_label
 _atom_site_symmetry_multiplicity
 _atom_site_fract_x
 _atom_site_fract_y
 _atom_site_fract_z
 _atom_site_occupancy
  Y  Y0  1  0.191222  0.383598  0.250000  1
  Y  Y1  1  0.807793  0.616173  0.750000  1
  Y  Y2  1  0.616271  0.808153  0.250000  1
  Er  Er3  1  0.386786  0.193550  0.750000  1
  Er  Er4  1  0.192854  0.805846  0.250000  1
  Er  Er5  1  0.806377  0.193345  0.750000  1
  Al  Al6  1  0.333238  0.666408  0.030109  1
  Al  Al7  1  0.666763  0.333556  0.968843  1
  Al  Al8  1  0.666763  0.333556  0.531157  1
  Al  Al9  1  0.333238  0.666408  0.469891  1
  Al  Al10  1  0.163031  0.326164  0.576532  1
  Al  Al11  1  0.836869  0.673302  0.423974  1
  Al  Al12  1  0.673741  0.837310  0.576460  1
  Al  Al13  1  0.836869  0.673302  0.076026  1
  Al  Al14  1  0.326205  0.162637  0.424533  1
  Al  Al15  1  0.163031  0.326164  0.923468  1
  Al  Al16  1  0.163440  0.837381  0.576013  1
  Al  Al17  1  0.326205  0.162637  0.075467  1
  Al  Al18  1  0.836455  0.163105  0.424584  1
  Al  Al19  1  0.673741  0.837310  0.923540  1
  Al  Al20  1  0.836455  0.163105  0.075416  1
  Al  Al21  1  0.163440  0.837381  0.923987  1
  Al  Al22  1  0.561660  0.124034  0.250000  1
  Al  Al23  1  0.437585  0.875862  0.750000  1
  Al  Al24  1  0.875081  0.437509  0.250000  1
  Al  Al25  1  0.124257  0.562150  0.750000  1
  Al  Al26  1  0.561827  0.437424  0.250000  1
  Al  Al27  1  0.437369  0.561970  0.750000  1
  Al  Al28  1  0.001434  0.998261  0.250000  1
  Al  Al29  1  0.001524  0.002882  0.750000  1
  Ir  Ir30  1  0.499765  0.000217  0.999489  1
  Ir  Ir31  1  0.999934  0.500060  0.999955  1
  Ir  Ir32  1  0.499765  0.000217  0.500511  1
  Ir  Ir33  1  0.499781  0.499530  0.999534  1
  Ir  Ir34  1  0.999934  0.500060  0.500045  1
  Ir  Ir35  1  0.499781  0.499530  0.500466  1
  Ru  Ru36  1  0.999758  0.999951  0.000124  1
  Ru  Ru37  1  0.999758  0.999951  0.499876  1
