# generated using pymatgen
data_Tb14Lu2MgHg3Ir4
_symmetry_space_group_name_H-M   'P 1'
_cell_length_a   9.62050972
_cell_length_b   9.64570845
_cell_length_c   9.64570861
_cell_angle_alpha   59.80161293
_cell_angle_beta   60.03249439
_cell_angle_gamma   60.03248975
_symmetry_Int_Tables_number   1
_chemical_formula_structural   Tb14Lu2MgHg3Ir4
_chemical_formula_sum   'Tb14 Lu2 Mg1 Hg3 Ir4'
_cell_volume   632.27856293
_cell_formula_units_Z   1
loop_
 _symmetry_equiv_pos_site_id
 _symmetry_equiv_pos_as_xyz
  1  'x, y, z'
loop_
 _atom_site_type_symbol
 _atom_site_label
 _atom_site_symmetry_multiplicity
 _atom_site_fract_x
 _atom_site_fract_y
 _atom_site_fract_z
 _atom_site_occupancy
  Tb  Tb0  1  0.062946  0.439072  0.059911  1
  Tb  Tb1  1  0.055808  0.648310  0.648310  1
  Tb  Tb2  1  0.649569  0.652624  0.652624  1
  Tb  Tb3  1  0.062946  0.059911  0.439072  1
  Tb  Tb4  1  0.190383  0.811613  0.189671  1
  Tb  Tb5  1  0.813379  0.811904  0.188149  1
  Tb  Tb6  1  0.813379  0.188149  0.811904  1
  Tb  Tb7  1  0.439161  0.060587  0.437833  1
  Tb  Tb8  1  0.439161  0.437833  0.060587  1
  Tb  Tb9  1  0.439777  0.061476  0.061476  1
  Tb  Tb10  1  0.062310  0.438083  0.438083  1
  Tb  Tb11  1  0.190383  0.189671  0.811613  1
  Tb  Tb12  1  0.649747  0.649620  0.047206  1
  Tb  Tb13  1  0.649747  0.047206  0.649620  1
  Lu  Lu14  1  0.191758  0.809294  0.809294  1
  Lu  Lu15  1  0.814265  0.188040  0.188040  1
  Mg  Mg16  1  0.717939  0.427469  0.427469  1
  Hg  Hg17  1  0.418086  0.413793  0.755155  1
  Hg  Hg18  1  0.418086  0.755155  0.413793  1
  Hg  Hg19  1  0.419137  0.413638  0.413638  1
  Ir  Ir20  1  0.858006  0.859918  0.423626  1
  Ir  Ir21  1  0.858006  0.423626  0.859918  1
  Ir  Ir22  1  0.862739  0.856667  0.856667  1
  Ir  Ir23  1  0.423288  0.856340  0.856340  1
