# generated using pymatgen
data_Rb2Cu3PbF12
_symmetry_space_group_name_H-M   'P 1'
_cell_length_a   7.11208200
_cell_length_b   8.15361621
_cell_length_c   10.82109632
_cell_angle_alpha   99.58120531
_cell_angle_beta   90.00000000
_cell_angle_gamma   90.00000000
_symmetry_Int_Tables_number   1
_chemical_formula_structural   Rb2Cu3PbF12
_chemical_formula_sum   'Rb4 Cu6 Pb2 F24'
_cell_volume   618.75329503
_cell_formula_units_Z   2
loop_
 _symmetry_equiv_pos_site_id
 _symmetry_equiv_pos_as_xyz
  1  'x, y, z'
loop_
 _atom_site_type_symbol
 _atom_site_label
 _atom_site_symmetry_multiplicity
 _atom_site_fract_x
 _atom_site_fract_y
 _atom_site_fract_z
 _atom_site_occupancy
  Rb  Rb0  1  0.499676  0.709553  0.395109  1
  Rb  Rb1  1  0.000324  0.209553  0.895109  1
  Rb  Rb2  1  0.500324  0.290447  0.604891  1
  Rb  Rb3  1  0.999676  0.790447  0.104891  1
  Cu  Cu4  1  0.500000  0.000000  0.000000  1
  Cu  Cu5  1  0.000000  0.500000  0.500000  1
  Cu  Cu6  1  0.235595  0.747523  0.756244  1
  Cu  Cu7  1  0.264405  0.247523  0.256244  1
  Cu  Cu8  1  0.764405  0.252477  0.243756  1
  Cu  Cu9  1  0.735595  0.752477  0.743756  1
  Pb  Pb10  1  0.500000  0.500000  0.000000  1
  Pb  Pb11  1  0.000000  0.000000  0.500000  1
  F  F12  1  0.291388  0.919221  0.895049  1
  F  F13  1  0.208612  0.419221  0.395049  1
  F  F14  1  0.708612  0.080779  0.104951  1
  F  F15  1  0.791388  0.580779  0.604951  1
  F  F16  1  0.817523  0.439900  0.370305  1
  F  F17  1  0.682477  0.939900  0.870305  1
  F  F18  1  0.182477  0.560100  0.629695  1
  F  F19  1  0.317523  0.060100  0.129695  1
  F  F20  1  0.481496  0.736141  0.682171  1
  F  F21  1  0.018504  0.236141  0.182171  1
  F  F22  1  0.518504  0.263859  0.317829  1
  F  F23  1  0.981496  0.763859  0.817829  1
  F  F24  1  0.757527  0.945269  0.598971  1
  F  F25  1  0.742473  0.445269  0.098971  1
  F  F26  1  0.242474  0.054731  0.401029  1
  F  F27  1  0.257526  0.554731  0.901029  1
  F  F28  1  0.321441  0.486436  0.154280  1
  F  F29  1  0.178559  0.986436  0.654280  1
  F  F30  1  0.678559  0.513564  0.845720  1
  F  F31  1  0.821441  0.013564  0.345720  1
  F  F32  1  0.451622  0.248596  0.919636  1
  F  F33  1  0.048378  0.748596  0.419636  1
  F  F34  1  0.548378  0.751404  0.080364  1
  F  F35  1  0.951622  0.251404  0.580364  1
