# generated using pymatgen
data_NdSm7Sc12Si15Pt
_symmetry_space_group_name_H-M   'P 1'
_cell_length_a   7.16910486
_cell_length_b   7.51902939
_cell_length_c   14.10406335
_cell_angle_alpha   90.04213767
_cell_angle_beta   90.02694898
_cell_angle_gamma   90.20653933
_symmetry_Int_Tables_number   1
_chemical_formula_structural   NdSm7Sc12Si15Pt
_chemical_formula_sum   'Nd1 Sm7 Sc12 Si15 Pt1'
_cell_volume   760.27021695
_cell_formula_units_Z   1
loop_
 _symmetry_equiv_pos_site_id
 _symmetry_equiv_pos_as_xyz
  1  'x, y, z'
loop_
 _atom_site_type_symbol
 _atom_site_label
 _atom_site_symmetry_multiplicity
 _atom_site_fract_x
 _atom_site_fract_y
 _atom_site_fract_z
 _atom_site_occupancy
  Nd  Nd0  1  0.012229  0.175962  0.096339  1
  Sm  Sm1  1  0.990274  0.823274  0.904123  1
  Sm  Sm2  1  0.488546  0.675307  0.903473  1
  Sm  Sm3  1  0.990153  0.823260  0.595521  1
  Sm  Sm4  1  0.511586  0.324815  0.096936  1
  Sm  Sm5  1  0.012400  0.176847  0.402999  1
  Sm  Sm6  1  0.511712  0.324766  0.403424  1
  Sm  Sm7  1  0.487997  0.675390  0.596172  1
  Sc  Sc8  1  0.157753  0.499833  0.749923  1
  Sc  Sc9  1  0.839328  0.499431  0.250151  1
  Sc  Sc10  1  0.339546  0.002325  0.250222  1
  Sc  Sc11  1  0.665728  0.001305  0.750035  1
  Sc  Sc12  1  0.323062  0.173156  0.625657  1
  Sc  Sc13  1  0.671740  0.826160  0.373962  1
  Sc  Sc14  1  0.171888  0.676461  0.374156  1
  Sc  Sc15  1  0.672081  0.826089  0.126548  1
  Sc  Sc16  1  0.829379  0.323375  0.625593  1
  Sc  Sc17  1  0.323738  0.173298  0.874186  1
  Sc  Sc18  1  0.828924  0.323935  0.874244  1
  Sc  Sc19  1  0.171611  0.676217  0.126205  1
  Si  Si20  1  0.969182  0.878585  0.250601  1
  Si  Si21  1  0.468691  0.619451  0.250274  1
  Si  Si22  1  0.530654  0.383440  0.749801  1
  Si  Si23  1  0.287654  0.873840  0.749867  1
  Si  Si24  1  0.711319  0.124605  0.250822  1
  Si  Si25  1  0.212830  0.377518  0.250613  1
  Si  Si26  1  0.781569  0.621739  0.749793  1
  Si  Si27  1  0.155553  0.465411  0.538380  1
  Si  Si28  1  0.846073  0.536423  0.460533  1
  Si  Si29  1  0.347958  0.964354  0.460471  1
  Si  Si30  1  0.845228  0.537953  0.039031  1
  Si  Si31  1  0.654920  0.034936  0.539082  1
  Si  Si32  1  0.155982  0.466972  0.961067  1
  Si  Si33  1  0.654713  0.034903  0.960769  1
  Si  Si34  1  0.349632  0.963187  0.039168  1
  Pt  Pt35  1  0.028368  0.115473  0.749858  1
