# generated using pymatgen
data_Tb16MgCo4Ag3
_symmetry_space_group_name_H-M   'P 1'
_cell_length_a   9.49301673
_cell_length_b   9.48992841
_cell_length_c   9.48992900
_cell_angle_alpha   60.00000143
_cell_angle_beta   60.01076254
_cell_angle_gamma   60.01076015
_symmetry_Int_Tables_number   1
_chemical_formula_structural   Tb16MgCo4Ag3
_chemical_formula_sum   'Tb16 Mg1 Co4 Ag3'
_cell_volume   604.62454680
_cell_formula_units_Z   1
loop_
 _symmetry_equiv_pos_site_id
 _symmetry_equiv_pos_as_xyz
  1  'x, y, z'
loop_
 _atom_site_type_symbol
 _atom_site_label
 _atom_site_symmetry_multiplicity
 _atom_site_fract_x
 _atom_site_fract_y
 _atom_site_fract_z
 _atom_site_occupancy
  Tb  Tb0  1  0.811748  0.187122  0.187122  1
  Tb  Tb1  1  0.184793  0.814371  0.814371  1
  Tb  Tb2  1  0.184793  0.814371  0.186466  1
  Tb  Tb3  1  0.811748  0.187122  0.814008  1
  Tb  Tb4  1  0.184793  0.186466  0.814371  1
  Tb  Tb5  1  0.811748  0.814008  0.187122  1
  Tb  Tb6  1  0.935366  0.563543  0.563544  1
  Tb  Tb7  1  0.561500  0.937153  0.937154  1
  Tb  Tb8  1  0.561501  0.937153  0.564193  1
  Tb  Tb9  1  0.935366  0.563543  0.937546  1
  Tb  Tb10  1  0.561501  0.564192  0.937154  1
  Tb  Tb11  1  0.935366  0.937545  0.563544  1
  Tb  Tb12  1  0.346605  0.347111  0.347111  1
  Tb  Tb13  1  0.346605  0.347111  0.959173  1
  Tb  Tb14  1  0.346605  0.959173  0.347111  1
  Tb  Tb15  1  0.949393  0.350202  0.350202  1
  Mg  Mg16  1  0.284881  0.571706  0.571706  1
  Co  Co17  1  0.140389  0.141466  0.141466  1
  Co  Co18  1  0.140389  0.141466  0.576680  1
  Co  Co19  1  0.140389  0.576680  0.141466  1
  Co  Co20  1  0.575698  0.141434  0.141434  1
  Ag  Ag21  1  0.582942  0.583213  0.583213  1
  Ag  Ag22  1  0.582942  0.583213  0.250633  1
  Ag  Ag23  1  0.582942  0.250633  0.583213  1
