# generated using pymatgen
data_Ho7TmTi11Si16Ru
_symmetry_space_group_name_H-M   'P 1'
_cell_length_a   7.01533660
_cell_length_b   7.01642147
_cell_length_c   12.87085670
_cell_angle_alpha   90.02672892
_cell_angle_beta   89.97467696
_cell_angle_gamma   89.95507894
_symmetry_Int_Tables_number   1
_chemical_formula_structural   Ho7TmTi11Si16Ru
_chemical_formula_sum   'Ho7 Tm1 Ti11 Si16 Ru1'
_cell_volume   633.53616882
_cell_formula_units_Z   1
loop_
 _symmetry_equiv_pos_site_id
 _symmetry_equiv_pos_as_xyz
  1  'x, y, z'
loop_
 _atom_site_type_symbol
 _atom_site_label
 _atom_site_symmetry_multiplicity
 _atom_site_fract_x
 _atom_site_fract_y
 _atom_site_fract_z
 _atom_site_occupancy
  Ho  Ho0  1  0.496868  0.841358  0.717662  1
  Ho  Ho1  1  0.500406  0.159088  0.215212  1
  Ho  Ho2  1  0.841188  0.496934  0.282308  1
  Ho  Ho3  1  0.159149  0.500405  0.784826  1
  Ho  Ho4  1  0.658057  0.998499  0.968203  1
  Ho  Ho5  1  0.003635  0.340805  0.532713  1
  Ho  Ho6  1  0.998469  0.658077  0.031584  1
  Tm  Tm7  1  0.341310  0.002887  0.467324  1
  Ti  Ti8  1  0.175070  0.827393  0.248854  1
  Ti  Ti9  1  0.827285  0.174968  0.751243  1
  Ti  Ti10  1  0.673534  0.674056  0.499989  1
  Ti  Ti11  1  0.150394  0.003829  0.875529  1
  Ti  Ti12  1  0.493173  0.655182  0.125299  1
  Ti  Ti13  1  0.506503  0.349060  0.627438  1
  Ti  Ti14  1  0.655134  0.493125  0.874740  1
  Ti  Ti15  1  0.349164  0.506735  0.372521  1
  Ti  Ti16  1  0.848956  0.993760  0.375416  1
  Ti  Ti17  1  0.003985  0.150246  0.124440  1
  Ti  Ti18  1  0.993926  0.848891  0.624547  1
  Si  Si19  1  0.203006  0.132046  0.684357  1
  Si  Si20  1  0.372502  0.700227  0.933787  1
  Si  Si21  1  0.630679  0.295849  0.434148  1
  Si  Si22  1  0.700260  0.372441  0.066140  1
  Si  Si23  1  0.296514  0.632003  0.565697  1
  Si  Si24  1  0.796354  0.868467  0.183844  1
  Si  Si25  1  0.132597  0.202313  0.315843  1
  Si  Si26  1  0.868426  0.796291  0.816159  1
  Si  Si27  1  0.287725  0.953289  0.064589  1
  Si  Si28  1  0.546566  0.792591  0.316043  1
  Si  Si29  1  0.450102  0.209499  0.817697  1
  Si  Si30  1  0.792122  0.547109  0.684327  1
  Si  Si31  1  0.209493  0.450082  0.182331  1
  Si  Si32  1  0.707461  0.047705  0.565220  1
  Si  Si33  1  0.953271  0.287725  0.935392  1
  Si  Si34  1  0.048361  0.708731  0.434573  1
  Ru  Ru35  1  0.328355  0.328332  0.000004  1
