# generated using pymatgen
data_Dy3Y5(Tm3Sn4)4
_symmetry_space_group_name_H-M   'P 1'
_cell_length_a   7.99129208
_cell_length_b   8.12103701
_cell_length_c   15.35112000
_cell_angle_alpha   89.99736134
_cell_angle_beta   90.00790826
_cell_angle_gamma   89.99943595
_symmetry_Int_Tables_number   1
_chemical_formula_structural   Dy3Y5(Tm3Sn4)4
_chemical_formula_sum   'Dy3 Y5 Tm12 Sn16'
_cell_volume   996.25050774
_cell_formula_units_Z   1
loop_
 _symmetry_equiv_pos_site_id
 _symmetry_equiv_pos_as_xyz
  1  'x, y, z'
loop_
 _atom_site_type_symbol
 _atom_site_label
 _atom_site_symmetry_multiplicity
 _atom_site_fract_x
 _atom_site_fract_y
 _atom_site_fract_z
 _atom_site_occupancy
  Dy  Dy0  1  0.521816  0.321133  0.902788  1
  Dy  Dy1  1  0.021775  0.178918  0.597190  1
  Dy  Dy2  1  0.478232  0.678937  0.402895  1
  Y  Y3  1  0.977867  0.820902  0.097248  1
  Y  Y4  1  0.477752  0.679107  0.097299  1
  Y  Y5  1  0.977857  0.820926  0.402742  1
  Y  Y6  1  0.522248  0.320994  0.597287  1
  Y  Y7  1  0.022195  0.179099  0.902682  1
  Tm  Tm8  1  0.367137  0.837104  0.877062  1
  Tm  Tm9  1  0.867154  0.662882  0.622937  1
  Tm  Tm10  1  0.632840  0.162916  0.377178  1
  Tm  Tm11  1  0.132841  0.337093  0.122810  1
  Tm  Tm12  1  0.632760  0.163047  0.122729  1
  Tm  Tm13  1  0.132839  0.336965  0.377253  1
  Tm  Tm14  1  0.367219  0.836958  0.622835  1
  Tm  Tm15  1  0.867180  0.662982  0.877065  1
  Tm  Tm16  1  0.198238  0.504217  0.749927  1
  Tm  Tm17  1  0.698255  0.995809  0.750034  1
  Tm  Tm18  1  0.801752  0.495715  0.249951  1
  Tm  Tm19  1  0.301814  0.004238  0.250042  1
  Sn  Sn20  1  0.294425  0.037743  0.041648  1
  Sn  Sn21  1  0.794285  0.462344  0.458321  1
  Sn  Sn22  1  0.705774  0.962324  0.541739  1
  Sn  Sn23  1  0.205830  0.537574  0.958213  1
  Sn  Sn24  1  0.705616  0.962532  0.958174  1
  Sn  Sn25  1  0.205601  0.537488  0.541748  1
  Sn  Sn26  1  0.294432  0.037552  0.458304  1
  Sn  Sn27  1  0.794313  0.462391  0.041639  1
  Sn  Sn28  1  0.564277  0.620551  0.750124  1
  Sn  Sn29  1  0.064317  0.879461  0.749891  1
  Sn  Sn30  1  0.435714  0.379525  0.250106  1
  Sn  Sn31  1  0.935635  0.120596  0.249959  1
  Sn  Sn32  1  0.331273  0.148158  0.750044  1
  Sn  Sn33  1  0.831127  0.351905  0.749963  1
  Sn  Sn34  1  0.668588  0.851932  0.250103  1
  Sn  Sn35  1  0.169022  0.647980  0.250074  1
