# generated using pymatgen
data_Dy3Tm5B24(MoRh)2
_symmetry_space_group_name_H-M   'P 1'
_cell_length_a   3.64668800
_cell_length_b   9.14353890
_cell_length_c   11.55404101
_cell_angle_alpha   90.40099632
_cell_angle_beta   90.00000000
_cell_angle_gamma   90.00000000
_symmetry_Int_Tables_number   1
_chemical_formula_structural   Dy3Tm5B24(MoRh)2
_chemical_formula_sum   'Dy3 Tm5 B24 Mo2 Rh2'
_cell_volume   385.24427476
_cell_formula_units_Z   1
loop_
 _symmetry_equiv_pos_site_id
 _symmetry_equiv_pos_as_xyz
  1  'x, y, z'
loop_
 _atom_site_type_symbol
 _atom_site_label
 _atom_site_symmetry_multiplicity
 _atom_site_fract_x
 _atom_site_fract_y
 _atom_site_fract_z
 _atom_site_occupancy
  Dy  Dy0  1  0.500000  0.319187  0.412099  1
  Dy  Dy1  1  0.500000  0.680739  0.587773  1
  Dy  Dy2  1  0.500000  0.175257  0.916704  1
  Tm  Tm3  1  0.500000  0.825042  0.082912  1
  Tm  Tm4  1  0.500000  0.443584  0.126944  1
  Tm  Tm5  1  0.500000  0.556805  0.873388  1
  Tm  Tm6  1  0.500000  0.054656  0.628349  1
  Tm  Tm7  1  0.500000  0.945007  0.371567  1
  B  B8  1  0.000000  0.104626  0.472416  1
  B  B9  1  0.000000  0.895182  0.527486  1
  B  B10  1  0.000000  0.396600  0.970873  1
  B  B11  1  0.000000  0.604460  0.029533  1
  B  B12  1  0.000000  0.131780  0.317546  1
  B  B13  1  0.000000  0.867897  0.682443  1
  B  B14  1  0.000000  0.369026  0.816100  1
  B  B15  1  0.000000  0.631767  0.183519  1
  B  B16  1  0.000000  0.051432  0.066303  1
  B  B17  1  0.000000  0.947450  0.934272  1
  B  B18  1  0.000000  0.445621  0.565988  1
  B  B19  1  0.000000  0.554517  0.433826  1
  B  B20  1  0.000000  0.483821  0.287718  1
  B  B21  1  0.000000  0.516475  0.712232  1
  B  B22  1  0.000000  0.020019  0.786159  1
  B  B23  1  0.000000  0.979001  0.213526  1
  B  B24  1  0.000000  0.250875  0.079983  1
  B  B25  1  0.000000  0.749208  0.920972  1
  B  B26  1  0.000000  0.249744  0.579776  1
  B  B27  1  0.000000  0.750206  0.419998  1
  B  B28  1  0.000000  0.295761  0.236338  1
  B  B29  1  0.000000  0.704145  0.763826  1
  B  B30  1  0.000000  0.208745  0.734380  1
  B  B31  1  0.000000  0.791490  0.265029  1
  Mo  Mo32  1  0.500000  0.139138  0.181494  1
  Mo  Mo33  1  0.500000  0.860310  0.818736  1
  Rh  Rh34  1  0.500000  0.361432  0.678868  1
  Rh  Rh35  1  0.500000  0.638993  0.320923  1
