# generated using pymatgen
data_EuHo3(Si5Pt3)2
_symmetry_space_group_name_H-M   'P 1'
_cell_length_a   8.21158208
_cell_length_b   8.21513392
_cell_length_c   8.21513412
_cell_angle_alpha   136.64365535
_cell_angle_beta   104.30674228
_cell_angle_gamma   91.48452820
_symmetry_Int_Tables_number   1
_chemical_formula_structural   EuHo3(Si5Pt3)2
_chemical_formula_sum   'Eu1 Ho3 Si10 Pt6'
_cell_volume   350.62236353
_cell_formula_units_Z   1
loop_
 _symmetry_equiv_pos_site_id
 _symmetry_equiv_pos_as_xyz
  1  'x, y, z'
loop_
 _atom_site_type_symbol
 _atom_site_label
 _atom_site_symmetry_multiplicity
 _atom_site_fract_x
 _atom_site_fract_y
 _atom_site_fract_z
 _atom_site_occupancy
  Eu  Eu0  1  0.361833  0.629197  0.732636  1
  Ho  Ho1  1  0.099778  0.870897  0.228880  1
  Ho  Ho2  1  0.899419  0.128885  0.770534  1
  Ho  Ho3  1  0.641271  0.371298  0.269973  1
  Si  Si4  1  0.001179  0.746280  0.746659  1
  Si  Si5  1  0.001179  0.254519  0.254898  1
  Si  Si6  1  0.271182  0.019479  0.748347  1
  Si  Si7  1  0.727883  0.479201  0.749243  1
  Si  Si8  1  0.727883  0.978640  0.248682  1
  Si  Si9  1  0.271182  0.522835  0.251703  1
  Si  Si10  1  0.760750  0.611372  0.149378  1
  Si  Si11  1  0.236305  0.386598  0.849707  1
  Si  Si12  1  0.459195  0.111569  0.347626  1
  Si  Si13  1  0.541693  0.889296  0.652397  1
  Pt  Pt14  1  0.500042  0.750283  0.252287  1
  Pt  Pt15  1  0.500042  0.247755  0.749759  1
  Pt  Pt16  1  0.021502  0.638147  0.383355  1
  Pt  Pt17  1  0.974325  0.359971  0.614353  1
  Pt  Pt18  1  0.249142  0.137461  0.111681  1
  Pt  Pt19  1  0.754218  0.866317  0.887901  1
