# generated using pymatgen
data_Tb3Er5(AgIr)2
_symmetry_space_group_name_H-M   'P 1'
_cell_length_a   9.51943428
_cell_length_b   9.51943378
_cell_length_c   9.51943500
_cell_angle_alpha   59.99999922
_cell_angle_beta   60.00000098
_cell_angle_gamma   59.99999889
_symmetry_Int_Tables_number   1
_chemical_formula_structural   Tb3Er5(AgIr)2
_chemical_formula_sum   'Tb6 Er10 Ag4 Ir4'
_cell_volume   609.98397956
_cell_formula_units_Z   2
loop_
 _symmetry_equiv_pos_site_id
 _symmetry_equiv_pos_as_xyz
  1  'x, y, z'
loop_
 _atom_site_type_symbol
 _atom_site_label
 _atom_site_symmetry_multiplicity
 _atom_site_fract_x
 _atom_site_fract_y
 _atom_site_fract_z
 _atom_site_occupancy
  Tb  Tb0  1  0.187750  0.812250  0.812250  1
  Tb  Tb1  1  0.812250  0.187750  0.187750  1
  Tb  Tb2  1  0.812250  0.187750  0.812250  1
  Tb  Tb3  1  0.187750  0.812250  0.187750  1
  Tb  Tb4  1  0.812250  0.812250  0.187750  1
  Tb  Tb5  1  0.187750  0.187750  0.812250  1
  Er  Er6  1  0.600560  0.600560  0.600560  1
  Er  Er7  1  0.600560  0.600560  0.198321  1
  Er  Er8  1  0.600560  0.198321  0.600560  1
  Er  Er9  1  0.198321  0.600560  0.600560  1
  Er  Er10  1  0.061943  0.438057  0.438057  1
  Er  Er11  1  0.438057  0.061943  0.061943  1
  Er  Er12  1  0.438057  0.061943  0.438057  1
  Er  Er13  1  0.061943  0.438057  0.061943  1
  Er  Er14  1  0.438057  0.438057  0.061943  1
  Er  Er15  1  0.061943  0.061943  0.438057  1
  Ag  Ag16  1  0.831275  0.831275  0.831275  1
  Ag  Ag17  1  0.831275  0.831275  0.506175  1
  Ag  Ag18  1  0.831275  0.506175  0.831275  1
  Ag  Ag19  1  0.506175  0.831275  0.831275  1
  Ir  Ir20  1  0.392210  0.392210  0.392210  1
  Ir  Ir21  1  0.392210  0.392210  0.823370  1
  Ir  Ir22  1  0.392210  0.823370  0.392210  1
  Ir  Ir23  1  0.823370  0.392210  0.392210  1
