# generated using pymatgen
data_Ba9TlOs6(ClO15)2
_symmetry_space_group_name_H-M   'P 1'
_cell_length_a   11.11630358
_cell_length_b   11.13157804
_cell_length_c   8.02768225
_cell_angle_alpha   89.97195294
_cell_angle_beta   90.01404575
_cell_angle_gamma   120.04546173
_symmetry_Int_Tables_number   1
_chemical_formula_structural   Ba9TlOs6(ClO15)2
_chemical_formula_sum   'Ba9 Tl1 Os6 Cl2 O30'
_cell_volume   859.88179350
_cell_formula_units_Z   1
loop_
 _symmetry_equiv_pos_site_id
 _symmetry_equiv_pos_as_xyz
  1  'x, y, z'
loop_
 _atom_site_type_symbol
 _atom_site_label
 _atom_site_symmetry_multiplicity
 _atom_site_fract_x
 _atom_site_fract_y
 _atom_site_fract_z
 _atom_site_occupancy
  Ba  Ba0  1  0.000000  0.739162  0.270332  1
  Ba  Ba1  1  0.263441  0.261276  0.271494  1
  Ba  Ba2  1  0.736559  0.997836  0.271494  1
  Ba  Ba3  1  0.262612  0.002583  0.769891  1
  Ba  Ba4  1  0.665880  0.332095  0.503474  1
  Ba  Ba5  1  0.737388  0.739971  0.769891  1
  Ba  Ba6  1  0.334120  0.666216  0.503474  1
  Ba  Ba7  1  0.664515  0.332965  0.003010  1
  Ba  Ba8  1  0.335485  0.668450  0.003010  1
  Tl  Tl9  1  0.000000  0.272892  0.781163  1
  Os  Os10  1  0.389811  0.999846  0.213651  1
  Os  Os11  1  0.000000  0.611198  0.713321  1
  Os  Os12  1  0.610189  0.610035  0.213651  1
  Os  Os13  1  0.391863  0.391051  0.712420  1
  Os  Os14  1  0.000000  0.389487  0.211530  1
  Os  Os15  1  0.608137  0.999188  0.712420  1
  Cl  Cl16  1  0.000000  0.990276  0.059708  1
  Cl  Cl17  1  0.000000  0.984840  0.536245  1
  O  O18  1  0.259832  0.868893  0.067530  1
  O  O19  1  0.552553  0.422247  0.247579  1
  O  O20  1  0.388337  0.130803  0.069497  1
  O  O21  1  0.868965  0.427013  0.749706  1
  O  O22  1  0.447777  0.578079  0.751084  1
  O  O23  1  0.552223  0.130301  0.751084  1
  O  O24  1  0.580844  0.450749  0.742594  1
  O  O25  1  0.296641  0.999754  0.388798  1
  O  O26  1  0.132035  0.391502  0.071876  1
  O  O27  1  0.298885  0.297582  0.887236  1
  O  O28  1  0.000000  0.706478  0.886650  1
  O  O29  1  0.701115  0.998697  0.887236  1
  O  O30  1  0.421689  0.551521  0.242976  1
  O  O31  1  0.703359  0.703113  0.388798  1
  O  O32  1  0.000000  0.294570  0.384425  1
  O  O33  1  0.131035  0.558049  0.749706  1
  O  O34  1  0.609763  0.866097  0.571017  1
  O  O35  1  0.390237  0.256334  0.571017  1
  O  O36  1  0.730756  0.126742  0.560465  1
  O  O37  1  0.867965  0.259465  0.071876  1
  O  O38  1  0.269244  0.395988  0.560465  1
  O  O39  1  0.870866  0.447378  0.248608  1
  O  O40  1  0.611663  0.742467  0.069497  1
  O  O41  1  0.129134  0.576512  0.248608  1
  O  O42  1  0.447447  0.869696  0.247579  1
  O  O43  1  0.740168  0.609060  0.067530  1
  O  O44  1  0.129943  0.740875  0.567107  1
  O  O45  1  0.578311  0.129830  0.242976  1
  O  O46  1  0.419156  0.869906  0.742594  1
  O  O47  1  0.870057  0.610932  0.567107  1
