# generated using pymatgen
data_Ho4NiIr4Os3
_symmetry_space_group_name_H-M   'P 1'
_cell_length_a   5.23096682
_cell_length_b   5.23096651
_cell_length_c   8.83491600
_cell_angle_alpha   90.00000000
_cell_angle_beta   90.00000000
_cell_angle_gamma   118.72494459
_symmetry_Int_Tables_number   1
_chemical_formula_structural   Ho4NiIr4Os3
_chemical_formula_sum   'Ho4 Ni1 Ir4 Os3'
_cell_volume   211.99944715
_cell_formula_units_Z   1
loop_
 _symmetry_equiv_pos_site_id
 _symmetry_equiv_pos_as_xyz
  1  'x, y, z'
loop_
 _atom_site_type_symbol
 _atom_site_label
 _atom_site_symmetry_multiplicity
 _atom_site_fract_x
 _atom_site_fract_y
 _atom_site_fract_z
 _atom_site_occupancy
  Ho  Ho0  1  0.333239  0.666761  0.429852  1
  Ho  Ho1  1  0.667844  0.332156  0.564280  1
  Ho  Ho2  1  0.667844  0.332156  0.935720  1
  Ho  Ho3  1  0.333239  0.666761  0.070148  1
  Ni  Ni4  1  0.832169  0.167831  0.250000  1
  Ir  Ir5  1  0.000456  0.999544  0.498926  1
  Ir  Ir6  1  0.000456  0.999544  0.001074  1
  Ir  Ir7  1  0.828552  0.661946  0.250000  1
  Ir  Ir8  1  0.338054  0.171448  0.250000  1
  Os  Os9  1  0.169919  0.830081  0.750000  1
  Os  Os10  1  0.171426  0.343200  0.750000  1
  Os  Os11  1  0.656800  0.828574  0.750000  1
