# generated using pymatgen
data_Nd4Al24ZnPd8
_symmetry_space_group_name_H-M   'P 1'
_cell_length_a   7.60952790
_cell_length_b   7.60679821
_cell_length_c   13.35784540
_cell_angle_alpha   84.67923543
_cell_angle_beta   100.74635564
_cell_angle_gamma   119.80210433
_symmetry_Int_Tables_number   1
_chemical_formula_structural   Nd4Al24ZnPd8
_chemical_formula_sum   'Nd4 Al24 Zn1 Pd8'
_cell_volume   659.18166444
_cell_formula_units_Z   1
loop_
 _symmetry_equiv_pos_site_id
 _symmetry_equiv_pos_as_xyz
  1  'x, y, z'
loop_
 _atom_site_type_symbol
 _atom_site_label
 _atom_site_symmetry_multiplicity
 _atom_site_fract_x
 _atom_site_fract_y
 _atom_site_fract_z
 _atom_site_occupancy
  Nd  Nd0  1  0.438291  0.827938  0.808008  1
  Nd  Nd1  1  0.561965  0.168263  0.191596  1
  Nd  Nd2  1  0.764564  0.502264  0.808022  1
  Nd  Nd3  1  0.231567  0.497553  0.190607  1
  Al  Al4  1  0.480379  0.164904  0.948398  1
  Al  Al5  1  0.520696  0.833464  0.052783  1
  Al  Al6  1  0.016144  0.161001  0.557644  1
  Al  Al7  1  0.977790  0.834858  0.436212  1
  Al  Al8  1  0.351252  0.840317  0.556805  1
  Al  Al9  1  0.646302  0.166595  0.438620  1
  Al  Al10  1  0.619289  0.836359  0.332382  1
  Al  Al11  1  0.380188  0.161609  0.669987  1
  Al  Al12  1  0.053983  0.490838  0.670165  1
  Al  Al13  1  0.941867  0.507130  0.332117  1
  Al  Al14  1  0.740534  0.849106  0.668683  1
  Al  Al15  1  0.268664  0.157884  0.333522  1
  Al  Al16  1  0.147264  0.497815  0.947942  1
  Al  Al17  1  0.851240  0.502903  0.052900  1
  Al  Al18  1  0.821136  0.835509  0.958986  1
  Al  Al19  1  0.180356  0.165037  0.043299  1
  Al  Al20  1  0.309203  0.498161  0.436929  1
  Al  Al21  1  0.696571  0.501329  0.557397  1
  Al  Al22  1  0.100934  0.835746  0.185071  1
  Al  Al23  1  0.897540  0.163629  0.815793  1
  Al  Al24  1  0.302951  0.363140  0.817973  1
  Al  Al25  1  0.694648  0.633176  0.186458  1
  Al  Al26  1  0.102731  0.959462  0.815647  1
  Al  Al27  1  0.898720  0.039288  0.184983  1
  Zn  Zn28  1  0.389778  0.509874  0.639140  1
  Pd  Pd29  1  0.614070  0.495717  0.365030  1
  Pd  Pd30  1  0.171022  0.829235  0.999027  1
  Pd  Pd31  1  0.828541  0.170782  0.999887  1
  Pd  Pd32  1  0.292281  0.831502  0.364439  1
  Pd  Pd33  1  0.706711  0.166700  0.634867  1
  Pd  Pd34  1  0.046242  0.826964  0.634827  1
  Pd  Pd35  1  0.954908  0.174084  0.363826  1
  Pd  Pd36  1  0.499683  0.499862  0.000027  1
