# generated using pymatgen
data_Ag2IrCl6
_symmetry_space_group_name_H-M   'P 1'
_cell_length_a   7.02816020
_cell_length_b   7.02816001
_cell_length_c   7.02815969
_cell_angle_alpha   56.42613865
_cell_angle_beta   56.42614072
_cell_angle_gamma   56.42613555
_symmetry_Int_Tables_number   1
_chemical_formula_structural   Ag2IrCl6
_chemical_formula_sum   'Ag2 Ir1 Cl6'
_cell_volume   225.19192244
_cell_formula_units_Z   1
loop_
 _symmetry_equiv_pos_site_id
 _symmetry_equiv_pos_as_xyz
  1  'x, y, z'
loop_
 _atom_site_type_symbol
 _atom_site_label
 _atom_site_symmetry_multiplicity
 _atom_site_fract_x
 _atom_site_fract_y
 _atom_site_fract_z
 _atom_site_occupancy
  Ag  Ag0  1  0.765802  0.765802  0.765802  1
  Ag  Ag1  1  0.234198  0.234198  0.234198  1
  Ir  Ir2  1  0.500000  0.500000  0.500000  1
  Cl  Cl3  1  0.391287  0.152442  0.725700  1
  Cl  Cl4  1  0.152442  0.725700  0.391287  1
  Cl  Cl5  1  0.725700  0.391287  0.152442  1
  Cl  Cl6  1  0.274300  0.608713  0.847558  1
  Cl  Cl7  1  0.847558  0.274300  0.608713  1
  Cl  Cl8  1  0.608713  0.847558  0.274300  1
