# generated using pymatgen
data_Tb4YbDy2NiI12
_symmetry_space_group_name_H-M   'P 1'
_cell_length_a   9.78195832
_cell_length_b   9.78185234
_cell_length_c   9.78259113
_cell_angle_alpha   106.86231416
_cell_angle_beta   106.83176436
_cell_angle_gamma   106.83736069
_symmetry_Int_Tables_number   1
_chemical_formula_structural   Tb4YbDy2NiI12
_chemical_formula_sum   'Tb4 Yb1 Dy2 Ni1 I12'
_cell_volume   782.85214409
_cell_formula_units_Z   1
loop_
 _symmetry_equiv_pos_site_id
 _symmetry_equiv_pos_as_xyz
  1  'x, y, z'
loop_
 _atom_site_type_symbol
 _atom_site_label
 _atom_site_symmetry_multiplicity
 _atom_site_fract_x
 _atom_site_fract_y
 _atom_site_fract_z
 _atom_site_occupancy
  Tb  Tb0  1  0.975599  0.705756  0.904031  1
  Tb  Tb1  1  0.095393  0.024092  0.294048  1
  Tb  Tb2  1  0.294093  0.095687  0.023968  1
  Tb  Tb3  1  0.023884  0.294055  0.095471  1
  Yb  Yb4  1  0.499960  0.499987  0.499971  1
  Dy  Dy5  1  0.904404  0.975711  0.706933  1
  Dy  Dy6  1  0.706833  0.904597  0.975619  1
  Ni  Ni7  1  0.000052  0.999998  0.000012  1
  I  I8  1  0.926857  0.320598  0.776394  1
  I  I9  1  0.776551  0.926962  0.321044  1
  I  I10  1  0.321796  0.776981  0.927084  1
  I  I11  1  0.072981  0.678678  0.223137  1
  I  I12  1  0.222243  0.072735  0.678555  1
  I  I13  1  0.678495  0.222268  0.072741  1
  I  I14  1  0.543794  0.848404  0.621237  1
  I  I15  1  0.620512  0.543693  0.848331  1
  I  I16  1  0.848088  0.621253  0.542942  1
  I  I17  1  0.457074  0.151991  0.379412  1
  I  I18  1  0.379454  0.457129  0.151988  1
  I  I19  1  0.151938  0.379422  0.457081  1
