# generated using pymatgen
data_Y3Hf(Co5As3)4
_symmetry_space_group_name_H-M   'P 1'
_cell_length_a   3.78115500
_cell_length_b   12.17169608
_cell_length_c   10.67169564
_cell_angle_alpha   89.90581489
_cell_angle_beta   90.00000000
_cell_angle_gamma   90.00000000
_symmetry_Int_Tables_number   1
_chemical_formula_structural   Y3Hf(Co5As3)4
_chemical_formula_sum   'Y3 Hf1 Co20 As12'
_cell_volume   491.14352609
_cell_formula_units_Z   1
loop_
 _symmetry_equiv_pos_site_id
 _symmetry_equiv_pos_as_xyz
  1  'x, y, z'
loop_
 _atom_site_type_symbol
 _atom_site_label
 _atom_site_symmetry_multiplicity
 _atom_site_fract_x
 _atom_site_fract_y
 _atom_site_fract_z
 _atom_site_occupancy
  Y  Y0  1  0.250000  0.297640  0.918303  1
  Y  Y1  1  0.250000  0.798323  0.582513  1
  Y  Y2  1  0.750000  0.201901  0.417739  1
  Hf  Hf3  1  0.750000  0.698360  0.077985  1
  Co  Co4  1  0.750000  0.697431  0.381261  1
  Co  Co5  1  0.250000  0.303951  0.615968  1
  Co  Co6  1  0.250000  0.799952  0.889140  1
  Co  Co7  1  0.750000  0.196231  0.115068  1
  Co  Co8  1  0.750000  0.992388  0.213454  1
  Co  Co9  1  0.250000  0.006852  0.787049  1
  Co  Co10  1  0.250000  0.510051  0.713635  1
  Co  Co11  1  0.750000  0.493014  0.284989  1
  Co  Co12  1  0.750000  0.678923  0.785073  1
  Co  Co13  1  0.250000  0.322949  0.214784  1
  Co  Co14  1  0.250000  0.821086  0.282238  1
  Co  Co15  1  0.750000  0.178535  0.716991  1
  Co  Co16  1  0.750000  0.926535  0.973009  1
  Co  Co17  1  0.250000  0.064537  0.031043  1
  Co  Co18  1  0.250000  0.569125  0.467101  1
  Co  Co19  1  0.750000  0.432886  0.529830  1
  Co  Co20  1  0.750000  0.988574  0.593079  1
  Co  Co21  1  0.250000  0.011514  0.407155  1
  Co  Co22  1  0.250000  0.518149  0.093054  1
  Co  Co23  1  0.750000  0.491390  0.910358  1
  As  As24  1  0.750000  0.614389  0.584281  1
  As  As25  1  0.250000  0.386955  0.414359  1
  As  As26  1  0.250000  0.881284  0.086114  1
  As  As27  1  0.750000  0.110756  0.915273  1
  As  As28  1  0.750000  0.890678  0.399375  1
  As  As29  1  0.250000  0.109937  0.601223  1
  As  As30  1  0.250000  0.610734  0.900833  1
  As  As31  1  0.750000  0.390401  0.100605  1
  As  As32  1  0.750000  0.871179  0.770213  1
  As  As33  1  0.250000  0.129303  0.229985  1
  As  As34  1  0.250000  0.631925  0.265701  1
  As  As35  1  0.750000  0.372162  0.731218  1
