# generated using pymatgen
data_LiTb24Tc7
_symmetry_space_group_name_H-M   'P 1'
_cell_length_a   6.34999106
_cell_length_b   9.24394200
_cell_length_c   14.96069135
_cell_angle_alpha   90.00000000
_cell_angle_beta   89.91450547
_cell_angle_gamma   90.00000000
_symmetry_Int_Tables_number   1
_chemical_formula_structural   LiTb24Tc7
_chemical_formula_sum   'Li1 Tb24 Tc7'
_cell_volume   878.17588116
_cell_formula_units_Z   1
loop_
 _symmetry_equiv_pos_site_id
 _symmetry_equiv_pos_as_xyz
  1  'x, y, z'
loop_
 _atom_site_type_symbol
 _atom_site_label
 _atom_site_symmetry_multiplicity
 _atom_site_fract_x
 _atom_site_fract_y
 _atom_site_fract_z
 _atom_site_occupancy
  Li  Li0  1  0.141380  0.750000  0.671176  1
  Tb  Tb1  1  0.537180  0.750000  0.354490  1
  Tb  Tb2  1  0.035159  0.250000  0.148393  1
  Tb  Tb3  1  0.461571  0.250000  0.647574  1
  Tb  Tb4  1  0.957693  0.750000  0.857910  1
  Tb  Tb5  1  0.777597  0.750000  0.108649  1
  Tb  Tb6  1  0.286144  0.250000  0.387934  1
  Tb  Tb7  1  0.223469  0.250000  0.892365  1
  Tb  Tb8  1  0.695693  0.750000  0.606465  1
  Tb  Tb9  1  0.453444  0.939127  0.794815  1
  Tb  Tb10  1  0.928123  0.072791  0.708469  1
  Tb  Tb11  1  0.565127  0.434473  0.211444  1
  Tb  Tb12  1  0.064527  0.566014  0.288974  1
  Tb  Tb13  1  0.565127  0.065527  0.211444  1
  Tb  Tb14  1  0.064527  0.933986  0.288974  1
  Tb  Tb15  1  0.453444  0.560873  0.794815  1
  Tb  Tb16  1  0.928123  0.427209  0.708469  1
  Tb  Tb17  1  0.240776  0.947983  0.524268  1
  Tb  Tb18  1  0.740739  0.067679  0.968620  1
  Tb  Tb19  1  0.755926  0.434534  0.465282  1
  Tb  Tb20  1  0.257107  0.565302  0.037288  1
  Tb  Tb21  1  0.755926  0.065466  0.465282  1
  Tb  Tb22  1  0.257107  0.934698  0.037288  1
  Tb  Tb23  1  0.240776  0.552017  0.524268  1
  Tb  Tb24  1  0.740739  0.432321  0.968620  1
  Tc  Tc25  1  0.930892  0.750000  0.448811  1
  Tc  Tc26  1  0.422664  0.250000  0.060767  1
  Tc  Tc27  1  0.077338  0.250000  0.558030  1
  Tc  Tc28  1  0.574134  0.750000  0.940466  1
  Tc  Tc29  1  0.362947  0.750000  0.184959  1
  Tc  Tc30  1  0.864672  0.250000  0.317597  1
  Tc  Tc31  1  0.639929  0.250000  0.816095  1
