# generated using pymatgen
data_Eu2Mo4O15
_symmetry_space_group_name_H-M   'P 1'
_cell_length_a   9.74701000
_cell_length_b   6.95517247
_cell_length_c   10.83996400
_cell_angle_alpha   74.99953176
_cell_angle_beta   90.00000000
_cell_angle_gamma   90.00000000
_symmetry_Int_Tables_number   1
_chemical_formula_structural   Eu2Mo4O15
_chemical_formula_sum   'Eu4 Mo8 O30'
_cell_volume   709.82286068
_cell_formula_units_Z   2
loop_
 _symmetry_equiv_pos_site_id
 _symmetry_equiv_pos_as_xyz
  1  'x, y, z'
loop_
 _atom_site_type_symbol
 _atom_site_label
 _atom_site_symmetry_multiplicity
 _atom_site_fract_x
 _atom_site_fract_y
 _atom_site_fract_z
 _atom_site_occupancy
  Eu  Eu0  1  0.522495  0.205708  0.224693  1
  Eu  Eu1  1  0.022495  0.794292  0.275307  1
  Eu  Eu2  1  0.477505  0.794292  0.775307  1
  Eu  Eu3  1  0.977505  0.205708  0.724693  1
  Mo  Mo4  1  0.255046  0.083475  0.989819  1
  Mo  Mo5  1  0.755046  0.916525  0.510181  1
  Mo  Mo6  1  0.744954  0.916525  0.010181  1
  Mo  Mo7  1  0.244954  0.083475  0.489819  1
  Mo  Mo8  1  0.905214  0.385289  0.155130  1
  Mo  Mo9  1  0.405214  0.614711  0.344870  1
  Mo  Mo10  1  0.094786  0.614711  0.844870  1
  Mo  Mo11  1  0.594786  0.385289  0.655130  1
  O  O12  1  0.167902  0.882505  0.097711  1
  O  O13  1  0.667902  0.117495  0.402289  1
  O  O14  1  0.832098  0.117495  0.902289  1
  O  O15  1  0.332098  0.882505  0.597711  1
  O  O16  1  0.971771  0.446815  0.292396  1
  O  O17  1  0.471771  0.553185  0.207604  1
  O  O18  1  0.028229  0.553185  0.707604  1
  O  O19  1  0.528229  0.446815  0.792396  1
  O  O20  1  0.373411  0.979988  0.899732  1
  O  O21  1  0.873411  0.020012  0.600268  1
  O  O22  1  0.626589  0.020012  0.100268  1
  O  O23  1  0.126589  0.979988  0.399732  1
  O  O24  1  0.500000  0.500000  0.500000  1
  O  O25  1  0.000000  0.500000  0.000000  1
  O  O26  1  0.364703  0.248591  0.384427  1
  O  O27  1  0.864703  0.751409  0.115573  1
  O  O28  1  0.635297  0.751409  0.615573  1
  O  O29  1  0.135297  0.248591  0.884427  1
  O  O30  1  0.776318  0.389969  0.648829  1
  O  O31  1  0.276318  0.610031  0.851171  1
  O  O32  1  0.223682  0.610031  0.351171  1
  O  O33  1  0.723682  0.389969  0.148829  1
  O  O34  1  0.155636  0.224220  0.580789  1
  O  O35  1  0.655636  0.775780  0.919211  1
  O  O36  1  0.844364  0.775780  0.419211  1
  O  O37  1  0.344364  0.224220  0.080789  1
  O  O38  1  0.555287  0.128611  0.680475  1
  O  O39  1  0.055287  0.871389  0.819525  1
  O  O40  1  0.444713  0.871389  0.319525  1
  O  O41  1  0.944713  0.128611  0.180475  1
