# generated using pymatgen
data_Tb3ErMg2Rh3
_symmetry_space_group_name_H-M   'P 1'
_cell_length_a   7.47849460
_cell_length_b   7.52433528
_cell_length_c   4.07509200
_cell_angle_alpha   90.00000000
_cell_angle_beta   90.00000000
_cell_angle_gamma   120.20297221
_symmetry_Int_Tables_number   1
_chemical_formula_structural   Tb3ErMg2Rh3
_chemical_formula_sum   'Tb3 Er1 Mg2 Rh3'
_cell_volume   198.17938649
_cell_formula_units_Z   1
loop_
 _symmetry_equiv_pos_site_id
 _symmetry_equiv_pos_as_xyz
  1  'x, y, z'
loop_
 _atom_site_type_symbol
 _atom_site_label
 _atom_site_symmetry_multiplicity
 _atom_site_fract_x
 _atom_site_fract_y
 _atom_site_fract_z
 _atom_site_occupancy
  Tb  Tb0  1  0.000000  0.610715  0.500000  1
  Tb  Tb1  1  0.434208  0.412870  0.500000  1
  Tb  Tb2  1  0.565792  0.978662  0.500000  1
  Er  Er3  1  0.000000  0.248052  0.000000  1
  Mg  Mg4  1  0.249973  0.003947  0.000000  1
  Mg  Mg5  1  0.750027  0.753975  0.000000  1
  Rh  Rh6  1  0.325676  0.658697  0.000000  1
  Rh  Rh7  1  0.000000  0.000059  0.500000  1
  Rh  Rh8  1  0.674324  0.333019  0.000000  1
