# generated using pymatgen
data_LaPaCdPt2
_symmetry_space_group_name_H-M   'P 1'
_cell_length_a   7.97020200
_cell_length_b   8.02511200
_cell_length_c   3.72573900
_cell_angle_alpha   90.00000000
_cell_angle_beta   90.00000000
_cell_angle_gamma   90.00000000
_symmetry_Int_Tables_number   1
_chemical_formula_structural   LaPaCdPt2
_chemical_formula_sum   'La2 Pa2 Cd2 Pt4'
_cell_volume   238.30483757
_cell_formula_units_Z   2
loop_
 _symmetry_equiv_pos_site_id
 _symmetry_equiv_pos_as_xyz
  1  'x, y, z'
loop_
 _atom_site_type_symbol
 _atom_site_label
 _atom_site_symmetry_multiplicity
 _atom_site_fract_x
 _atom_site_fract_y
 _atom_site_fract_z
 _atom_site_occupancy
  La  La0  1  0.173044  0.672722  0.500000  1
  La  La1  1  0.673044  0.827278  0.500000  1
  Pa  Pa2  1  0.331166  0.170859  0.500000  1
  Pa  Pa3  1  0.831166  0.329141  0.500000  1
  Cd  Cd4  1  0.996448  0.003277  0.000000  1
  Cd  Cd5  1  0.496448  0.496723  0.000000  1
  Pt  Pt6  1  0.633341  0.154246  0.000000  1
  Pt  Pt7  1  0.133341  0.345754  0.000000  1
  Pt  Pt8  1  0.866001  0.598482  0.000000  1
  Pt  Pt9  1  0.366001  0.901518  0.000000  1
