# generated using pymatgen
data_Fe2Cu2P6SN12
_symmetry_space_group_name_H-M   'P 1'
_cell_length_a   7.12483370
_cell_length_b   7.12483452
_cell_length_c   7.11708261
_cell_angle_alpha   109.52722674
_cell_angle_beta   109.52723218
_cell_angle_gamma   109.40343188
_symmetry_Int_Tables_number   1
_chemical_formula_structural   Fe2Cu2P6SN12
_chemical_formula_sum   'Fe2 Cu2 P6 S1 N12'
_cell_volume   277.96610382
_cell_formula_units_Z   1
loop_
 _symmetry_equiv_pos_site_id
 _symmetry_equiv_pos_as_xyz
  1  'x, y, z'
loop_
 _atom_site_type_symbol
 _atom_site_label
 _atom_site_symmetry_multiplicity
 _atom_site_fract_x
 _atom_site_fract_y
 _atom_site_fract_z
 _atom_site_occupancy
  Fe  Fe0  1  0.998346  0.998346  0.331519  1
  Fe  Fe1  1  0.666826  0.666826  0.668480  1
  Cu  Cu2  1  0.314998  0.000994  0.000000  1
  Cu  Cu3  1  0.000994  0.314998  0.000000  1
  P  P4  1  0.751399  0.498648  0.247450  1
  P  P5  1  0.498648  0.751399  0.247450  1
  P  P6  1  0.748352  0.248353  0.500000  1
  P  P7  1  0.248353  0.748352  0.500000  1
  P  P8  1  0.503950  0.251198  0.752549  1
  P  P9  1  0.251198  0.503950  0.752549  1
  S  S10  1  0.997004  0.997004  0.000000  1
  N  N11  1  0.547373  0.273086  0.000000  1
  N  N12  1  0.273086  0.547373  0.000000  1
  N  N13  1  0.552473  0.000776  0.268762  1
  N  N14  1  0.000776  0.552473  0.268762  1
  N  N15  1  0.733523  0.733523  0.285261  1
  N  N16  1  0.723489  0.453449  0.452581  1
  N  N17  1  0.453449  0.723489  0.452581  1
  N  N18  1  0.270909  0.000868  0.547419  1
  N  N19  1  0.000868  0.270909  0.547419  1
  N  N20  1  0.448261  0.448261  0.714738  1
  N  N21  1  0.732014  0.283711  0.731239  1
  N  N22  1  0.283711  0.732014  0.731239  1
