# generated using pymatgen
data_Sc2Al9GaOs3
_symmetry_space_group_name_H-M   'P 1'
_cell_length_a   8.86015600
_cell_length_b   8.86015600
_cell_length_c   6.21376000
_cell_angle_alpha   90.00000000
_cell_angle_beta   90.00000000
_cell_angle_gamma   90.00000000
_symmetry_Int_Tables_number   1
_chemical_formula_structural   Sc2Al9GaOs3
_chemical_formula_sum   'Sc4 Al18 Ga2 Os6'
_cell_volume   487.79485147
_cell_formula_units_Z   2
loop_
 _symmetry_equiv_pos_site_id
 _symmetry_equiv_pos_as_xyz
  1  'x, y, z'
loop_
 _atom_site_type_symbol
 _atom_site_label
 _atom_site_symmetry_multiplicity
 _atom_site_fract_x
 _atom_site_fract_y
 _atom_site_fract_z
 _atom_site_occupancy
  Sc  Sc0  1  0.679565  0.179565  0.998762  1
  Sc  Sc1  1  0.320435  0.820435  0.998762  1
  Sc  Sc2  1  0.820435  0.679565  0.001238  1
  Sc  Sc3  1  0.179565  0.320435  0.001238  1
  Al  Al4  1  0.937389  0.204887  0.285258  1
  Al  Al5  1  0.704887  0.437389  0.285258  1
  Al  Al6  1  0.562611  0.704887  0.714742  1
  Al  Al7  1  0.292900  0.561947  0.712783  1
  Al  Al8  1  0.792900  0.938053  0.287217  1
  Al  Al9  1  0.938053  0.207100  0.712783  1
  Al  Al10  1  0.295113  0.562611  0.285258  1
  Al  Al11  1  0.062611  0.795113  0.285258  1
  Al  Al12  1  0.707100  0.438053  0.712783  1
  Al  Al13  1  0.437389  0.295113  0.714742  1
  Al  Al14  1  0.061947  0.792900  0.712783  1
  Al  Al15  1  0.204887  0.062611  0.714742  1
  Al  Al16  1  0.795113  0.937389  0.714742  1
  Al  Al17  1  0.207100  0.061947  0.287217  1
  Al  Al18  1  0.000000  0.500000  0.297718  1
  Al  Al19  1  0.561947  0.707100  0.287217  1
  Al  Al20  1  0.438053  0.292900  0.287217  1
  Al  Al21  1  0.500000  0.000000  0.702282  1
  Ga  Ga22  1  0.500000  0.000000  0.264671  1
  Ga  Ga23  1  0.000000  0.500000  0.735329  1
  Os  Os24  1  0.679037  0.179037  0.502430  1
  Os  Os25  1  0.820963  0.679037  0.497570  1
  Os  Os26  1  0.179037  0.320963  0.497570  1
  Os  Os27  1  0.000000  0.000000  0.000000  1
  Os  Os28  1  0.320963  0.820963  0.502430  1
  Os  Os29  1  0.500000  0.500000  0.000000  1
