# generated using pymatgen
data_K2Be3SiP4
_symmetry_space_group_name_H-M   'P 1'
_cell_length_a   7.45454466
_cell_length_b   7.45454369
_cell_length_c   5.18268100
_cell_angle_alpha   90.00000000
_cell_angle_beta   90.00000000
_cell_angle_gamma   139.29781705
_symmetry_Int_Tables_number   1
_chemical_formula_structural   K2Be3SiP4
_chemical_formula_sum   'K2 Be3 Si1 P4'
_cell_volume   187.81446484
_cell_formula_units_Z   1
loop_
 _symmetry_equiv_pos_site_id
 _symmetry_equiv_pos_as_xyz
  1  'x, y, z'
loop_
 _atom_site_type_symbol
 _atom_site_label
 _atom_site_symmetry_multiplicity
 _atom_site_fract_x
 _atom_site_fract_y
 _atom_site_fract_z
 _atom_site_occupancy
  K  K0  1  0.500000  0.000000  0.247103  1
  K  K1  1  0.000000  0.500000  0.752897  1
  Be  Be2  1  0.500000  0.500000  0.500000  1
  Be  Be3  1  0.500000  0.500000  0.000000  1
  Be  Be4  1  0.000000  0.000000  0.500000  1
  Si  Si5  1  0.000000  0.000000  0.000000  1
  P  P6  1  0.655764  0.843073  0.749201  1
  P  P7  1  0.156927  0.344236  0.250799  1
  P  P8  1  0.843073  0.655764  0.250799  1
  P  P9  1  0.344236  0.156927  0.749201  1
