# generated using pymatgen
data_LiYbH6PtRh
_symmetry_space_group_name_H-M   'P 1'
_cell_length_a   5.07602390
_cell_length_b   5.07599933
_cell_length_c   5.07808607
_cell_angle_alpha   120.02423859
_cell_angle_beta   120.02458583
_cell_angle_gamma   89.92486417
_symmetry_Int_Tables_number   1
_chemical_formula_structural   LiYbH6PtRh
_chemical_formula_sum   'Li1 Yb1 H6 Pt1 Rh1'
_cell_volume   92.51115973
_cell_formula_units_Z   1
loop_
 _symmetry_equiv_pos_site_id
 _symmetry_equiv_pos_as_xyz
  1  'x, y, z'
loop_
 _atom_site_type_symbol
 _atom_site_label
 _atom_site_symmetry_multiplicity
 _atom_site_fract_x
 _atom_site_fract_y
 _atom_site_fract_z
 _atom_site_occupancy
  Li  Li0  1  0.249998  0.750000  0.499995  1
  Yb  Yb1  1  0.749998  0.250000  0.499998  1
  H  H2  1  0.248071  0.248075  0.999998  1
  H  H3  1  0.751769  0.248231  0.000000  1
  H  H4  1  0.751926  0.751928  0.000000  1
  H  H5  1  0.248237  0.751760  0.999997  1
  H  H6  1  0.248055  0.248055  0.496112  1
  H  H7  1  0.751942  0.751944  0.503885  1
  Pt  Pt8  1  0.499992  0.500011  0.000000  1
  Rh  Rh9  1  0.000007  0.999991  0.000011  1
