# generated using pymatgen
data_Li2Dy3Co16(TcP4)3
_symmetry_space_group_name_H-M   'P 1'
_cell_length_a   11.91329667
_cell_length_b   11.88839418
_cell_length_c   3.66558700
_cell_angle_alpha   90.00000000
_cell_angle_beta   90.00000000
_cell_angle_gamma   119.93086845
_symmetry_Int_Tables_number   1
_chemical_formula_structural   Li2Dy3Co16(TcP4)3
_chemical_formula_sum   'Li2 Dy3 Co16 Tc3 P12'
_cell_volume   449.91599346
_cell_formula_units_Z   1
loop_
 _symmetry_equiv_pos_site_id
 _symmetry_equiv_pos_as_xyz
  1  'x, y, z'
loop_
 _atom_site_type_symbol
 _atom_site_label
 _atom_site_symmetry_multiplicity
 _atom_site_fract_x
 _atom_site_fract_y
 _atom_site_fract_z
 _atom_site_occupancy
  Li  Li0  1  0.184162  0.184531  0.500000  1
  Li  Li1  1  0.815838  0.000369  0.500000  1
  Dy  Dy2  1  0.668291  0.333788  0.000000  1
  Dy  Dy3  1  0.331709  0.665497  0.000000  1
  Dy  Dy4  1  0.000000  0.822193  0.500000  1
  Co  Co5  1  0.821048  0.193325  0.000000  1
  Co  Co6  1  0.803275  0.627713  0.000000  1
  Co  Co7  1  0.375856  0.179704  0.000000  1
  Co  Co8  1  0.196725  0.824438  0.000000  1
  Co  Co9  1  0.624144  0.803848  0.000000  1
  Co  Co10  1  0.178952  0.372278  0.000000  1
  Co  Co11  1  0.646339  0.125127  0.500000  1
  Co  Co12  1  0.873541  0.518826  0.500000  1
  Co  Co13  1  0.480287  0.353619  0.500000  1
  Co  Co14  1  0.126459  0.645285  0.500000  1
  Co  Co15  1  0.519713  0.873333  0.500000  1
  Co  Co16  1  0.353661  0.478789  0.500000  1
  Co  Co17  1  0.719333  0.720840  0.500000  1
  Co  Co18  1  0.280667  0.001506  0.500000  1
  Co  Co19  1  0.000000  0.275398  0.500000  1
  Co  Co20  1  0.000000  0.002053  0.000000  1
  Tc  Tc21  1  0.550172  0.549275  0.000000  1
  Tc  Tc22  1  0.449828  0.999103  0.000000  1
  Tc  Tc23  1  0.000000  0.446412  0.000000  1
  P  P24  1  0.355205  0.354486  0.000000  1
  P  P25  1  0.644795  0.999281  0.000000  1
  P  P26  1  0.000000  0.639506  0.000000  1
  P  P27  1  0.837628  0.312717  0.500000  1
  P  P28  1  0.684021  0.522016  0.500000  1
  P  P29  1  0.479562  0.163646  0.500000  1
  P  P30  1  0.315979  0.837995  0.500000  1
  P  P31  1  0.520438  0.684084  0.500000  1
  P  P32  1  0.162372  0.475090  0.500000  1
  P  P33  1  0.819641  0.828392  0.000000  1
  P  P34  1  0.180359  0.008752  0.000000  1
  P  P35  1  0.000000  0.176782  0.000000  1
