# generated using pymatgen
data_Li2PuF6
_symmetry_space_group_name_H-M   'P 1'
_cell_length_a   7.06517168
_cell_length_b   7.06517160
_cell_length_c   5.15039746
_cell_angle_alpha   68.78368165
_cell_angle_beta   68.78368192
_cell_angle_gamma   77.51736930
_symmetry_Int_Tables_number   1
_chemical_formula_structural   Li2PuF6
_chemical_formula_sum   'Li4 Pu2 F12'
_cell_volume   222.34506208
_cell_formula_units_Z   2
loop_
 _symmetry_equiv_pos_site_id
 _symmetry_equiv_pos_as_xyz
  1  'x, y, z'
loop_
 _atom_site_type_symbol
 _atom_site_label
 _atom_site_symmetry_multiplicity
 _atom_site_fract_x
 _atom_site_fract_y
 _atom_site_fract_z
 _atom_site_occupancy
  Li  Li0  1  0.672175  0.838466  0.987133  1
  Li  Li1  1  0.161534  0.327825  0.512867  1
  Li  Li2  1  0.327825  0.161534  0.012867  1
  Li  Li3  1  0.838466  0.672175  0.487133  1
  Pu  Pu4  1  0.742266  0.257734  0.250000  1
  Pu  Pu5  1  0.257734  0.742266  0.750000  1
  F  F6  1  0.046610  0.214952  0.955431  1
  F  F7  1  0.882669  0.383305  0.455714  1
  F  F8  1  0.383305  0.882669  0.955714  1
  F  F9  1  0.117331  0.616695  0.544286  1
  F  F10  1  0.214952  0.046610  0.455431  1
  F  F11  1  0.558384  0.708181  0.438820  1
  F  F12  1  0.616695  0.117331  0.044286  1
  F  F13  1  0.291819  0.441616  0.061180  1
  F  F14  1  0.953390  0.785048  0.044569  1
  F  F15  1  0.785048  0.953390  0.544569  1
  F  F16  1  0.441616  0.291819  0.561180  1
  F  F17  1  0.708181  0.558384  0.938820  1
