# generated using pymatgen
data_Dy3Y6Lu7(CdPt)4
_symmetry_space_group_name_H-M   'P 1'
_cell_length_a   9.61675421
_cell_length_b   9.61153646
_cell_length_c   9.61153600
_cell_angle_alpha   60.00000157
_cell_angle_beta   60.01794799
_cell_angle_gamma   60.01795203
_symmetry_Int_Tables_number   1
_chemical_formula_structural   Dy3Y6Lu7(CdPt)4
_chemical_formula_sum   'Dy3 Y6 Lu7 Cd4 Pt4'
_cell_volume   628.37213086
_cell_formula_units_Z   1
loop_
 _symmetry_equiv_pos_site_id
 _symmetry_equiv_pos_as_xyz
  1  'x, y, z'
loop_
 _atom_site_type_symbol
 _atom_site_label
 _atom_site_symmetry_multiplicity
 _atom_site_fract_x
 _atom_site_fract_y
 _atom_site_fract_z
 _atom_site_occupancy
  Dy  Dy0  1  0.352447  0.352461  0.352461  1
  Dy  Dy1  1  0.352447  0.352461  0.942631  1
  Dy  Dy2  1  0.352447  0.942631  0.352461  1
  Y  Y3  1  0.936518  0.563317  0.563317  1
  Y  Y4  1  0.563549  0.936390  0.936390  1
  Y  Y5  1  0.563549  0.936390  0.563671  1
  Y  Y6  1  0.936518  0.563317  0.936848  1
  Y  Y7  1  0.563549  0.563671  0.936390  1
  Y  Y8  1  0.936518  0.936848  0.563317  1
  Lu  Lu9  1  0.944573  0.351809  0.351809  1
  Lu  Lu10  1  0.812650  0.187588  0.187588  1
  Lu  Lu11  1  0.187132  0.812868  0.812868  1
  Lu  Lu12  1  0.187132  0.812868  0.187131  1
  Lu  Lu13  1  0.812650  0.187588  0.812174  1
  Lu  Lu14  1  0.187132  0.187131  0.812868  1
  Lu  Lu15  1  0.812650  0.812174  0.187588  1
  Cd  Cd16  1  0.582380  0.581030  0.581030  1
  Cd  Cd17  1  0.582380  0.581030  0.255561  1
  Cd  Cd18  1  0.582380  0.255561  0.581030  1
  Cd  Cd19  1  0.255296  0.581568  0.581568  1
  Pt  Pt20  1  0.140412  0.143172  0.143172  1
  Pt  Pt21  1  0.140412  0.143172  0.573245  1
  Pt  Pt22  1  0.140412  0.573245  0.143172  1
  Pt  Pt23  1  0.574869  0.141710  0.141710  1
