# generated using pymatgen
data_NdNp3Ga12Rh
_symmetry_space_group_name_H-M   'P 1'
_cell_length_a   7.51156940
_cell_length_b   7.51636582
_cell_length_c   7.51157019
_cell_angle_alpha   109.48414982
_cell_angle_beta   109.45828181
_cell_angle_gamma   109.48416029
_symmetry_Int_Tables_number   1
_chemical_formula_structural   NdNp3Ga12Rh
_chemical_formula_sum   'Nd1 Np3 Ga12 Rh1'
_cell_volume   326.42099822
_cell_formula_units_Z   1
loop_
 _symmetry_equiv_pos_site_id
 _symmetry_equiv_pos_as_xyz
  1  'x, y, z'
loop_
 _atom_site_type_symbol
 _atom_site_label
 _atom_site_symmetry_multiplicity
 _atom_site_fract_x
 _atom_site_fract_y
 _atom_site_fract_z
 _atom_site_occupancy
  Nd  Nd0  1  0.000000  0.500000  0.000000  1
  Np  Np1  1  0.500000  0.500000  0.500000  1
  Np  Np2  1  0.000000  0.000000  0.500000  1
  Np  Np3  1  0.500000  0.000000  0.000000  1
  Ga  Ga4  1  0.747771  0.247771  0.495543  1
  Ga  Ga5  1  0.000000  0.712072  0.707482  1
  Ga  Ga6  1  0.292518  0.004589  0.292518  1
  Ga  Ga7  1  0.495543  0.247771  0.747771  1
  Ga  Ga8  1  0.747771  0.500000  0.252229  1
  Ga  Ga9  1  0.252229  0.752229  0.504457  1
  Ga  Ga10  1  0.252229  0.500000  0.747771  1
  Ga  Ga11  1  0.707482  0.995411  0.707482  1
  Ga  Ga12  1  0.504457  0.752229  0.252229  1
  Ga  Ga13  1  0.707482  0.712072  0.000000  1
  Ga  Ga14  1  0.292518  0.287928  0.000000  1
  Ga  Ga15  1  0.000000  0.287928  0.292518  1
  Rh  Rh16  1  0.000000  0.000000  0.000000  1
