# generated using pymatgen
data_Na5Si6P6Rh19
_symmetry_space_group_name_H-M   'P 1'
_cell_length_a   12.64732200
_cell_length_b   12.64732274
_cell_length_c   3.92400200
_cell_angle_alpha   90.00000000
_cell_angle_beta   90.00000000
_cell_angle_gamma   119.99999806
_symmetry_Int_Tables_number   1
_chemical_formula_structural   Na5Si6P6Rh19
_chemical_formula_sum   'Na5 Si6 P6 Rh19'
_cell_volume   543.57194963
_cell_formula_units_Z   1
loop_
 _symmetry_equiv_pos_site_id
 _symmetry_equiv_pos_as_xyz
  1  'x, y, z'
loop_
 _atom_site_type_symbol
 _atom_site_label
 _atom_site_symmetry_multiplicity
 _atom_site_fract_x
 _atom_site_fract_y
 _atom_site_fract_z
 _atom_site_occupancy
  Na  Na0  1  0.000000  0.182096  0.500000  1
  Na  Na1  1  0.817904  0.817904  0.500000  1
  Na  Na2  1  0.182096  0.000000  0.500000  1
  Na  Na3  1  0.666667  0.333333  0.000000  1
  Na  Na4  1  0.333333  0.666667  0.000000  1
  Si  Si5  1  0.476508  0.315548  0.500000  1
  Si  Si6  1  0.684452  0.160960  0.500000  1
  Si  Si7  1  0.839040  0.523492  0.500000  1
  Si  Si8  1  0.523492  0.839040  0.500000  1
  Si  Si9  1  0.160960  0.684452  0.500000  1
  Si  Si10  1  0.315548  0.476508  0.500000  1
  P  P11  1  0.821552  0.000000  0.000000  1
  P  P12  1  0.178448  0.178448  0.000000  1
  P  P13  1  0.000000  0.821552  0.000000  1
  P  P14  1  0.370850  0.000000  0.000000  1
  P  P15  1  0.000000  0.370850  0.000000  1
  P  P16  1  0.629150  0.629150  0.000000  1
  Rh  Rh17  1  0.810347  0.182824  0.000000  1
  Rh  Rh18  1  0.372478  0.189653  0.000000  1
  Rh  Rh19  1  0.642436  0.515640  0.500000  1
  Rh  Rh20  1  0.873204  0.357564  0.500000  1
  Rh  Rh21  1  0.357564  0.873204  0.500000  1
  Rh  Rh22  1  0.515640  0.642436  0.500000  1
  Rh  Rh23  1  0.126796  0.484360  0.500000  1
  Rh  Rh24  1  0.817176  0.627522  0.000000  1
  Rh  Rh25  1  0.627522  0.817176  0.000000  1
  Rh  Rh26  1  0.182824  0.810347  0.000000  1
  Rh  Rh27  1  0.189653  0.372478  0.000000  1
  Rh  Rh28  1  0.000000  0.726453  0.500000  1
  Rh  Rh29  1  0.273547  0.273547  0.500000  1
  Rh  Rh30  1  0.726453  0.000000  0.500000  1
  Rh  Rh31  1  0.000000  0.551555  0.000000  1
  Rh  Rh32  1  0.448445  0.448445  0.000000  1
  Rh  Rh33  1  0.551555  0.000000  0.000000  1
  Rh  Rh34  1  0.000000  0.000000  0.000000  1
  Rh  Rh35  1  0.484360  0.126796  0.500000  1
