# generated using pymatgen
data_La3Y2(Co2Sn5)2
_symmetry_space_group_name_H-M   'P 1'
_cell_length_a   13.98711700
_cell_length_b   13.98711700
_cell_length_c   4.53316400
_cell_angle_alpha   90.00000000
_cell_angle_beta   90.00000000
_cell_angle_gamma   90.00000000
_symmetry_Int_Tables_number   1
_chemical_formula_structural   La3Y2(Co2Sn5)2
_chemical_formula_sum   'La6 Y4 Co8 Sn20'
_cell_volume   886.86567533
_cell_formula_units_Z   2
loop_
 _symmetry_equiv_pos_site_id
 _symmetry_equiv_pos_as_xyz
  1  'x, y, z'
loop_
 _atom_site_type_symbol
 _atom_site_label
 _atom_site_symmetry_multiplicity
 _atom_site_fract_x
 _atom_site_fract_y
 _atom_site_fract_z
 _atom_site_occupancy
  La  La0  1  0.500000  0.500000  0.000000  1
  La  La1  1  0.000000  0.000000  0.000000  1
  La  La2  1  0.888362  0.388362  0.500000  1
  La  La3  1  0.111638  0.611638  0.500000  1
  La  La4  1  0.388362  0.111638  0.500000  1
  La  La5  1  0.611638  0.888362  0.500000  1
  Y  Y6  1  0.676772  0.176772  0.500000  1
  Y  Y7  1  0.323228  0.823228  0.500000  1
  Y  Y8  1  0.176772  0.323228  0.500000  1
  Y  Y9  1  0.823228  0.676772  0.500000  1
  Co  Co10  1  0.746500  0.529876  0.000000  1
  Co  Co11  1  0.253500  0.470124  0.000000  1
  Co  Co12  1  0.246500  0.970124  0.000000  1
  Co  Co13  1  0.753500  0.029876  0.000000  1
  Co  Co14  1  0.470124  0.746500  0.000000  1
  Co  Co15  1  0.529876  0.253500  0.000000  1
  Co  Co16  1  0.029876  0.246500  0.000000  1
  Co  Co17  1  0.970124  0.753500  0.000000  1
  Sn  Sn18  1  0.572419  0.072419  0.000000  1
  Sn  Sn19  1  0.427581  0.927581  0.000000  1
  Sn  Sn20  1  0.072419  0.427581  0.000000  1
  Sn  Sn21  1  0.927581  0.572419  0.000000  1
  Sn  Sn22  1  0.652513  0.695686  0.000000  1
  Sn  Sn23  1  0.347487  0.304314  0.000000  1
  Sn  Sn24  1  0.152513  0.804314  0.000000  1
  Sn  Sn25  1  0.847487  0.195686  0.000000  1
  Sn  Sn26  1  0.304314  0.652513  0.000000  1
  Sn  Sn27  1  0.695686  0.347487  0.000000  1
  Sn  Sn28  1  0.195686  0.152513  0.000000  1
  Sn  Sn29  1  0.804314  0.847487  0.000000  1
  Sn  Sn30  1  0.668996  0.508844  0.500000  1
  Sn  Sn31  1  0.331004  0.491156  0.500000  1
  Sn  Sn32  1  0.168996  0.991156  0.500000  1
  Sn  Sn33  1  0.831004  0.008844  0.500000  1
  Sn  Sn34  1  0.491156  0.668996  0.500000  1
  Sn  Sn35  1  0.508844  0.331004  0.500000  1
  Sn  Sn36  1  0.008844  0.168996  0.500000  1
  Sn  Sn37  1  0.991156  0.831004  0.500000  1
