# generated using pymatgen
data_TbDy3CrMo5O24
_symmetry_space_group_name_H-M   'P 1'
_cell_length_a   7.42270933
_cell_length_b   7.42390412
_cell_length_c   10.67728947
_cell_angle_alpha   89.72382868
_cell_angle_beta   89.77121185
_cell_angle_gamma   90.33671279
_symmetry_Int_Tables_number   1
_chemical_formula_structural   TbDy3CrMo5O24
_chemical_formula_sum   'Tb1 Dy3 Cr1 Mo5 O24'
_cell_volume   588.35543435
_cell_formula_units_Z   1
loop_
 _symmetry_equiv_pos_site_id
 _symmetry_equiv_pos_as_xyz
  1  'x, y, z'
loop_
 _atom_site_type_symbol
 _atom_site_label
 _atom_site_symmetry_multiplicity
 _atom_site_fract_x
 _atom_site_fract_y
 _atom_site_fract_z
 _atom_site_occupancy
  Tb  Tb0  1  0.682529  0.809687  0.263296  1
  Dy  Dy1  1  0.186573  0.686593  0.733365  1
  Dy  Dy2  1  0.813069  0.313071  0.740163  1
  Dy  Dy3  1  0.309070  0.183036  0.263837  1
  Cr  Cr4  1  0.208504  0.707625  0.356416  1
  Mo  Mo5  1  0.791752  0.291506  0.356110  1
  Mo  Mo6  1  0.708246  0.793737  0.644437  1
  Mo  Mo7  1  0.293486  0.208539  0.643502  1
  Mo  Mo8  1  0.003964  0.996929  0.999775  1
  Mo  Mo9  1  0.495675  0.502519  0.999828  1
  O  O10  1  0.005100  0.223503  0.295868  1
  O  O11  1  0.009502  0.767603  0.301952  1
  O  O12  1  0.223325  0.993250  0.700268  1
  O  O13  1  0.493052  0.723447  0.701241  1
  O  O14  1  0.774544  0.006117  0.706392  1
  O  O15  1  0.506010  0.274702  0.705396  1
  O  O16  1  0.269549  0.508737  0.302010  1
  O  O17  1  0.724311  0.504669  0.295517  1
  O  O18  1  0.196173  0.042266  0.095228  1
  O  O19  1  0.815763  0.950094  0.100593  1
  O  O20  1  0.046659  0.808482  0.900214  1
  O  O21  1  0.307303  0.544442  0.899894  1
  O  O22  1  0.956592  0.189640  0.903912  1
  O  O23  1  0.688498  0.454082  0.904412  1
  O  O24  1  0.448465  0.315831  0.102018  1
  O  O25  1  0.541013  0.696024  0.093833  1
  O  O26  1  0.622803  0.124055  0.308537  1
  O  O27  1  0.365868  0.866852  0.310400  1
  O  O28  1  0.125030  0.375141  0.690274  1
  O  O29  1  0.874927  0.625190  0.691224  1
  O  O30  1  0.198945  0.698196  0.512021  1
  O  O31  1  0.802992  0.302951  0.522393  1
  O  O32  1  0.701337  0.809773  0.478331  1
  O  O33  1  0.309373  0.201711  0.477340  1
