# generated using pymatgen
data_Ca2PrBi(Rh2O7)2
_symmetry_space_group_name_H-M   'P 1'
_cell_length_a   7.39090217
_cell_length_b   7.40189552
_cell_length_c   7.39090300
_cell_angle_alpha   59.72984809
_cell_angle_beta   59.30039452
_cell_angle_gamma   59.72984305
_symmetry_Int_Tables_number   1
_chemical_formula_structural   Ca2PrBi(Rh2O7)2
_chemical_formula_sum   'Ca2 Pr1 Bi1 Rh4 O14'
_cell_volume   283.20905324
_cell_formula_units_Z   1
loop_
 _symmetry_equiv_pos_site_id
 _symmetry_equiv_pos_as_xyz
  1  'x, y, z'
loop_
 _atom_site_type_symbol
 _atom_site_label
 _atom_site_symmetry_multiplicity
 _atom_site_fract_x
 _atom_site_fract_y
 _atom_site_fract_z
 _atom_site_occupancy
  Ca  Ca0  1  0.625000  0.125000  0.125000  1
  Ca  Ca1  1  0.125000  0.125000  0.625000  1
  Pr  Pr2  1  0.125000  0.625000  0.125000  1
  Bi  Bi3  1  0.125000  0.125000  0.125000  1
  Rh  Rh4  1  0.625000  0.625000  0.625000  1
  Rh  Rh5  1  0.625000  0.625000  0.125000  1
  Rh  Rh6  1  0.125000  0.625000  0.625000  1
  Rh  Rh7  1  0.625000  0.125000  0.625000  1
  O  O8  1  0.248709  0.239362  0.248709  1
  O  O9  1  0.294924  0.711667  0.294924  1
  O  O10  1  0.954516  0.953023  0.537066  1
  O  O11  1  0.549161  0.951619  0.549161  1
  O  O12  1  0.705978  0.702158  0.294366  1
  O  O13  1  0.955634  0.547842  0.544022  1
  O  O14  1  0.700839  0.298381  0.700839  1
  O  O15  1  0.295484  0.296977  0.712934  1
  O  O16  1  0.712934  0.296977  0.295484  1
  O  O17  1  0.294366  0.702158  0.705978  1
  O  O18  1  0.955076  0.538333  0.955076  1
  O  O19  1  0.544022  0.547842  0.955634  1
  O  O20  1  0.001291  0.010638  0.001291  1
  O  O21  1  0.537066  0.953023  0.954516  1
