# generated using pymatgen
data_K2CoSi3O8
_symmetry_space_group_name_H-M   'P 1'
_cell_length_a   5.23864279
_cell_length_b   6.85107332
_cell_length_c   6.90590104
_cell_angle_alpha   78.50297229
_cell_angle_beta   68.37304627
_cell_angle_gamma   67.50792635
_symmetry_Int_Tables_number   1
_chemical_formula_structural   K2CoSi3O8
_chemical_formula_sum   'K2 Co1 Si3 O8'
_cell_volume   212.38900757
_cell_formula_units_Z   1
loop_
 _symmetry_equiv_pos_site_id
 _symmetry_equiv_pos_as_xyz
  1  'x, y, z'
loop_
 _atom_site_type_symbol
 _atom_site_label
 _atom_site_symmetry_multiplicity
 _atom_site_fract_x
 _atom_site_fract_y
 _atom_site_fract_z
 _atom_site_occupancy
  K  K0  1  0.978225  0.297865  0.814349  1
  K  K1  1  0.068683  0.683327  0.188963  1
  Co  Co2  1  0.686486  0.879577  0.779467  1
  Si  Si3  1  0.308152  0.089582  0.254156  1
  Si  Si4  1  0.641311  0.286646  0.404997  1
  Si  Si5  1  0.358455  0.708197  0.601144  1
  O  O6  1  0.983888  0.280504  0.277693  1
  O  O7  1  0.652738  0.661432  0.653544  1
  O  O8  1  0.542896  0.207464  0.236767  1
  O  O9  1  0.076422  0.704390  0.801974  1
  O  O10  1  0.266416  0.944705  0.474558  1
  O  O11  1  0.597772  0.160256  0.628047  1
  O  O12  1  0.403088  0.959341  0.057339  1
  O  O13  1  0.435468  0.538714  0.425001  1
