# generated using pymatgen
data_Ho2Ga7Ni2Ag
_symmetry_space_group_name_H-M   'P 1'
_cell_length_a   7.99262245
_cell_length_b   7.99262185
_cell_length_c   6.43584865
_cell_angle_alpha   89.00621907
_cell_angle_beta   90.99378163
_cell_angle_gamma   149.97743979
_symmetry_Int_Tables_number   1
_chemical_formula_structural   Ho2Ga7Ni2Ag
_chemical_formula_sum   'Ho2 Ga7 Ni2 Ag1'
_cell_volume   205.67448319
_cell_formula_units_Z   1
loop_
 _symmetry_equiv_pos_site_id
 _symmetry_equiv_pos_as_xyz
  1  'x, y, z'
loop_
 _atom_site_type_symbol
 _atom_site_label
 _atom_site_symmetry_multiplicity
 _atom_site_fract_x
 _atom_site_fract_y
 _atom_site_fract_z
 _atom_site_occupancy
  Ho  Ho0  1  0.876490  0.123510  0.262115  1
  Ho  Ho1  1  0.123510  0.876490  0.737885  1
  Ga  Ga2  1  0.313914  0.686086  0.552913  1
  Ga  Ga3  1  0.069020  0.930980  0.239981  1
  Ga  Ga4  1  0.686086  0.313914  0.447087  1
  Ga  Ga5  1  0.500000  0.500000  0.500000  1
  Ga  Ga6  1  0.684264  0.315736  0.044118  1
  Ga  Ga7  1  0.315736  0.684264  0.955882  1
  Ga  Ga8  1  0.930980  0.069020  0.760019  1
  Ni  Ni9  1  0.778691  0.221309  0.750464  1
  Ni  Ni10  1  0.221309  0.778691  0.249536  1
  Ag  Ag11  1  0.500000  0.500000  0.000000  1
