# generated using pymatgen
data_K2Mn(TeO4)3
_symmetry_space_group_name_H-M   'P 1'
_cell_length_a   7.09819388
_cell_length_b   7.23790448
_cell_length_c   7.09787209
_cell_angle_alpha   89.99999836
_cell_angle_beta   61.31011193
_cell_angle_gamma   120.65325701
_symmetry_Int_Tables_number   1
_chemical_formula_structural   K2Mn(TeO4)3
_chemical_formula_sum   'K2 Mn1 Te3 O12'
_cell_volume   260.31659084
_cell_formula_units_Z   1
loop_
 _symmetry_equiv_pos_site_id
 _symmetry_equiv_pos_as_xyz
  1  'x, y, z'
loop_
 _atom_site_type_symbol
 _atom_site_label
 _atom_site_symmetry_multiplicity
 _atom_site_fract_x
 _atom_site_fract_y
 _atom_site_fract_z
 _atom_site_occupancy
  K  K0  1  0.262572  0.128598  0.631197  1
  K  K1  1  0.737428  0.866026  0.368803  1
  Mn  Mn2  1  0.000000  0.497379  0.000000  1
  Te  Te3  1  0.500020  0.497301  0.999968  1
  Te  Te4  1  0.499980  0.997280  0.000032  1
  Te  Te5  1  0.000000  0.497319  0.500000  1
  O  O6  1  0.657358  0.825982  0.929267  1
  O  O7  1  0.858314  0.426517  0.319099  1
  O  O8  1  0.248285  0.426527  0.929132  1
  O  O9  1  0.257906  0.826001  0.328704  1
  O  O10  1  0.248271  0.816467  0.929146  1
  O  O11  1  0.257974  0.426610  0.328656  1
  O  O12  1  0.342642  0.168623  0.070733  1
  O  O13  1  0.141686  0.568203  0.680901  1
  O  O14  1  0.751729  0.568195  0.070854  1
  O  O15  1  0.742026  0.168636  0.671344  1
  O  O16  1  0.751715  0.178242  0.070868  1
  O  O17  1  0.742094  0.568095  0.671296  1
