# generated using pymatgen
data_Tm6Zn22IrS
_symmetry_space_group_name_H-M   'P 1'
_cell_length_a   8.93874588
_cell_length_b   9.00442126
_cell_length_c   9.00442600
_cell_angle_alpha   59.65597211
_cell_angle_beta   60.24086124
_cell_angle_gamma   60.24092084
_symmetry_Int_Tables_number   1
_chemical_formula_structural   Tm6Zn22IrS
_chemical_formula_sum   'Tm6 Zn22 Ir1 S1'
_cell_volume   512.97379883
_cell_formula_units_Z   1
loop_
 _symmetry_equiv_pos_site_id
 _symmetry_equiv_pos_as_xyz
  1  'x, y, z'
loop_
 _atom_site_type_symbol
 _atom_site_label
 _atom_site_symmetry_multiplicity
 _atom_site_fract_x
 _atom_site_fract_y
 _atom_site_fract_z
 _atom_site_occupancy
  Tm  Tm0  1  0.712682  0.287318  0.287317  1
  Tm  Tm1  1  0.287318  0.712682  0.712682  1
  Tm  Tm2  1  0.293104  0.716367  0.283632  1
  Tm  Tm3  1  0.706896  0.283633  0.716366  1
  Tm  Tm4  1  0.293105  0.283633  0.716367  1
  Tm  Tm5  1  0.706895  0.716368  0.283632  1
  Zn  Zn6  1  0.128397  0.122906  0.122905  1
  Zn  Zn7  1  0.871604  0.877095  0.877094  1
  Zn  Zn8  1  0.123673  0.121775  0.630881  1
  Zn  Zn9  1  0.123674  0.630877  0.121776  1
  Zn  Zn10  1  0.876325  0.878223  0.369125  1
  Zn  Zn11  1  0.876328  0.369120  0.878224  1
  Zn  Zn12  1  0.625793  0.122905  0.122905  1
  Zn  Zn13  1  0.374206  0.877096  0.877095  1
  Zn  Zn14  1  0.000000  0.500000  0.500000  1
  Zn  Zn15  1  0.000000  0.500000  0.000000  1
  Zn  Zn16  1  0.500000  0.000000  0.500000  1
  Zn  Zn17  1  0.000000  0.000000  0.500000  1
  Zn  Zn18  1  0.500000  0.500000  0.000000  1
  Zn  Zn19  1  0.329393  0.333430  0.333431  1
  Zn  Zn20  1  0.670607  0.666569  0.666570  1
  Zn  Zn21  1  0.329658  0.330353  0.010331  1
  Zn  Zn22  1  0.329657  0.010334  0.330352  1
  Zn  Zn23  1  0.670343  0.669649  0.989665  1
  Zn  Zn24  1  0.670342  0.989668  0.669647  1
  Zn  Zn25  1  0.003746  0.333430  0.333431  1
  Zn  Zn26  1  0.996255  0.666569  0.666570  1
  Zn  Zn27  1  0.999998  0.999998  0.000005  1
  Ir  Ir28  1  0.500002  0.999998  0.999999  1
  S  S29  1  0.500000  0.500002  0.499999  1
