# generated using pymatgen
data_Rb2Sn4O7
_symmetry_space_group_name_H-M   'P 1'
_cell_length_a   10.34946155
_cell_length_b   7.39867588
_cell_length_c   6.46560024
_cell_angle_alpha   89.98653469
_cell_angle_beta   98.96752013
_cell_angle_gamma   101.50038909
_symmetry_Int_Tables_number   1
_chemical_formula_structural   Rb2Sn4O7
_chemical_formula_sum   'Rb4 Sn8 O14'
_cell_volume   478.97294227
_cell_formula_units_Z   2
loop_
 _symmetry_equiv_pos_site_id
 _symmetry_equiv_pos_as_xyz
  1  'x, y, z'
loop_
 _atom_site_type_symbol
 _atom_site_label
 _atom_site_symmetry_multiplicity
 _atom_site_fract_x
 _atom_site_fract_y
 _atom_site_fract_z
 _atom_site_occupancy
  Rb  Rb0  1  0.307157  0.835331  0.077150  1
  Rb  Rb1  1  0.692548  0.165349  0.423462  1
  Rb  Rb2  1  0.307452  0.834651  0.576537  1
  Rb  Rb3  1  0.692843  0.164669  0.922851  1
  Sn  Sn4  1  0.380174  0.356055  0.096695  1
  Sn  Sn5  1  0.933540  0.815883  0.233517  1
  Sn  Sn6  1  0.040916  0.381307  0.259883  1
  Sn  Sn7  1  0.620278  0.643794  0.406775  1
  Sn  Sn8  1  0.379722  0.356207  0.593225  1
  Sn  Sn9  1  0.959085  0.618694  0.740115  1
  Sn  Sn10  1  0.066460  0.184117  0.766482  1
  Sn  Sn11  1  0.619826  0.643945  0.903306  1
  O  O12  1  0.175369  0.348318  0.042016  1
  O  O13  1  0.593318  0.440430  0.147843  1
  O  O14  1  0.629039  0.824092  0.157588  1
  O  O15  1  0.085667  0.668091  0.269941  1
  O  O16  1  0.381463  0.176563  0.345788  1
  O  O17  1  0.405889  0.559702  0.351036  1
  O  O18  1  0.824799  0.650491  0.454035  1
  O  O19  1  0.175202  0.349509  0.545965  1
  O  O20  1  0.594111  0.440298  0.648964  1
  O  O21  1  0.618536  0.823436  0.654213  1
  O  O22  1  0.914333  0.331910  0.730059  1
  O  O23  1  0.370961  0.175907  0.842412  1
  O  O24  1  0.406682  0.559570  0.852157  1
  O  O25  1  0.824631  0.651680  0.957984  1
