# generated using pymatgen
data_Tb11In9Pt4
_symmetry_space_group_name_H-M   'P 1'
_cell_length_a   13.15054078
_cell_length_b   13.15054101
_cell_length_c   3.73519900
_cell_angle_alpha   90.00000000
_cell_angle_beta   90.00000000
_cell_angle_gamma   110.81870469
_symmetry_Int_Tables_number   1
_chemical_formula_structural   Tb11In9Pt4
_chemical_formula_sum   'Tb11 In9 Pt4'
_cell_volume   603.77861380
_cell_formula_units_Z   1
loop_
 _symmetry_equiv_pos_site_id
 _symmetry_equiv_pos_as_xyz
  1  'x, y, z'
loop_
 _atom_site_type_symbol
 _atom_site_label
 _atom_site_symmetry_multiplicity
 _atom_site_fract_x
 _atom_site_fract_y
 _atom_site_fract_z
 _atom_site_occupancy
  Tb  Tb0  1  0.418907  0.075548  0.000000  1
  Tb  Tb1  1  0.581093  0.924452  0.000000  1
  Tb  Tb2  1  0.075548  0.418907  0.000000  1
  Tb  Tb3  1  0.924452  0.581093  0.000000  1
  Tb  Tb4  1  0.157681  0.842319  0.000000  1
  Tb  Tb5  1  0.842319  0.157681  0.000000  1
  Tb  Tb6  1  0.372138  0.627862  0.000000  1
  Tb  Tb7  1  0.627862  0.372138  0.000000  1
  Tb  Tb8  1  0.310336  0.310336  0.000000  1
  Tb  Tb9  1  0.689664  0.689664  0.000000  1
  Tb  Tb10  1  0.000000  0.000000  0.000000  1
  In  In11  1  0.365168  0.843352  0.500000  1
  In  In12  1  0.634832  0.156648  0.500000  1
  In  In13  1  0.843352  0.365168  0.500000  1
  In  In14  1  0.156648  0.634832  0.500000  1
  In  In15  1  0.216059  0.072416  0.500000  1
  In  In16  1  0.783941  0.927584  0.500000  1
  In  In17  1  0.072416  0.216059  0.500000  1
  In  In18  1  0.927584  0.783941  0.500000  1
  In  In19  1  0.500000  0.500000  0.500000  1
  Pt  Pt20  1  0.451027  0.246306  0.500000  1
  Pt  Pt21  1  0.548973  0.753694  0.500000  1
  Pt  Pt22  1  0.246306  0.451027  0.500000  1
  Pt  Pt23  1  0.753694  0.548973  0.500000  1
