# generated using pymatgen
data_Dy4Fe8P12Ir5Ru7
_symmetry_space_group_name_H-M   'P 1'
_cell_length_a   3.84049600
_cell_length_b   10.57104846
_cell_length_c   12.16259551
_cell_angle_alpha   90.03360083
_cell_angle_beta   90.00000000
_cell_angle_gamma   90.00000000
_symmetry_Int_Tables_number   1
_chemical_formula_structural   Dy4Fe8P12Ir5Ru7
_chemical_formula_sum   'Dy4 Fe8 P12 Ir5 Ru7'
_cell_volume   493.77781106
_cell_formula_units_Z   1
loop_
 _symmetry_equiv_pos_site_id
 _symmetry_equiv_pos_as_xyz
  1  'x, y, z'
loop_
 _atom_site_type_symbol
 _atom_site_label
 _atom_site_symmetry_multiplicity
 _atom_site_fract_x
 _atom_site_fract_y
 _atom_site_fract_z
 _atom_site_occupancy
  Dy  Dy0  1  0.250000  0.579684  0.707730  1
  Dy  Dy1  1  0.250000  0.920479  0.209318  1
  Dy  Dy2  1  0.750000  0.420670  0.291894  1
  Dy  Dy3  1  0.750000  0.079783  0.791901  1
  Fe  Fe4  1  0.250000  0.880174  0.698792  1
  Fe  Fe5  1  0.250000  0.620473  0.199601  1
  Fe  Fe6  1  0.750000  0.120054  0.300253  1
  Fe  Fe7  1  0.750000  0.379750  0.799724  1
  Fe  Fe8  1  0.250000  0.461112  0.935887  1
  Fe  Fe9  1  0.250000  0.039007  0.436096  1
  Fe  Fe10  1  0.750000  0.538998  0.063092  1
  Fe  Fe11  1  0.750000  0.961397  0.563926  1
  P  P12  1  0.250000  0.438082  0.112835  1
  P  P13  1  0.250000  0.062589  0.612867  1
  P  P14  1  0.750000  0.561732  0.886260  1
  P  P15  1  0.750000  0.938431  0.387400  1
  P  P16  1  0.250000  0.271365  0.869199  1
  P  P17  1  0.250000  0.228360  0.369219  1
  P  P18  1  0.750000  0.725602  0.133451  1
  P  P19  1  0.750000  0.771900  0.630407  1
  P  P20  1  0.250000  0.600370  0.389295  1
  P  P21  1  0.250000  0.899186  0.884334  1
  P  P22  1  0.750000  0.399337  0.610857  1
  P  P23  1  0.750000  0.102624  0.113015  1
  Ir  Ir24  1  0.750000  0.904275  0.019101  1
  Ir  Ir25  1  0.250000  0.232832  0.177825  1
  Ir  Ir26  1  0.250000  0.267330  0.678230  1
  Ir  Ir27  1  0.750000  0.767608  0.821622  1
  Ir  Ir28  1  0.750000  0.733066  0.322855  1
  Ru  Ru29  1  0.250000  0.707048  0.987187  1
  Ru  Ru30  1  0.250000  0.794818  0.487855  1
  Ru  Ru31  1  0.750000  0.293510  0.011493  1
  Ru  Ru32  1  0.750000  0.205316  0.511997  1
  Ru  Ru33  1  0.250000  0.404359  0.484952  1
  Ru  Ru34  1  0.250000  0.093195  0.984346  1
  Ru  Ru35  1  0.750000  0.595483  0.515180  1
