# generated using pymatgen
data_HfZr9BeSiSb6
_symmetry_space_group_name_H-M   'P 1'
_cell_length_a   8.61400600
_cell_length_b   8.61400634
_cell_length_c   5.82482400
_cell_angle_alpha   90.00000000
_cell_angle_beta   90.00000000
_cell_angle_gamma   119.99999099
_symmetry_Int_Tables_number   1
_chemical_formula_structural   HfZr9BeSiSb6
_chemical_formula_sum   'Hf1 Zr9 Be1 Si1 Sb6'
_cell_volume   374.30345495
_cell_formula_units_Z   1
loop_
 _symmetry_equiv_pos_site_id
 _symmetry_equiv_pos_as_xyz
  1  'x, y, z'
loop_
 _atom_site_type_symbol
 _atom_site_label
 _atom_site_symmetry_multiplicity
 _atom_site_fract_x
 _atom_site_fract_y
 _atom_site_fract_z
 _atom_site_occupancy
  Hf  Hf0  1  0.666667  0.333333  0.000000  1
  Zr  Zr1  1  0.333333  0.666667  0.000000  1
  Zr  Zr2  1  0.333333  0.666667  0.500000  1
  Zr  Zr3  1  0.666667  0.333333  0.500000  1
  Zr  Zr4  1  0.743323  0.743191  0.754645  1
  Zr  Zr5  1  0.256809  0.000132  0.754645  1
  Zr  Zr6  1  0.999868  0.256677  0.754645  1
  Zr  Zr7  1  0.256809  0.256677  0.245355  1
  Zr  Zr8  1  0.743323  0.000132  0.245355  1
  Zr  Zr9  1  0.999868  0.743191  0.245355  1
  Be  Be10  1  0.000000  0.000000  0.000000  1
  Si  Si11  1  0.000000  0.000000  0.500000  1
  Sb  Sb12  1  0.393639  0.392994  0.751404  1
  Sb  Sb13  1  0.607006  0.000645  0.751404  1
  Sb  Sb14  1  0.999355  0.606361  0.751404  1
  Sb  Sb15  1  0.607006  0.606361  0.248596  1
  Sb  Sb16  1  0.393639  0.000645  0.248596  1
  Sb  Sb17  1  0.999355  0.392994  0.248596  1
