# generated using pymatgen
data_La15PrCd4Ir3Pt
_symmetry_space_group_name_H-M   'P 1'
_cell_length_a   10.14454254
_cell_length_b   10.14454163
_cell_length_c   10.14469599
_cell_angle_alpha   60.11850280
_cell_angle_beta   60.11850710
_cell_angle_gamma   60.06197334
_symmetry_Int_Tables_number   1
_chemical_formula_structural   La15PrCd4Ir3Pt
_chemical_formula_sum   'La15 Pr1 Cd4 Ir3 Pt1'
_cell_volume   739.89185657
_cell_formula_units_Z   1
loop_
 _symmetry_equiv_pos_site_id
 _symmetry_equiv_pos_as_xyz
  1  'x, y, z'
loop_
 _atom_site_type_symbol
 _atom_site_label
 _atom_site_symmetry_multiplicity
 _atom_site_fract_x
 _atom_site_fract_y
 _atom_site_fract_z
 _atom_site_occupancy
  La  La0  1  0.346349  0.346349  0.346294  1
  La  La1  1  0.350704  0.350704  0.953854  1
  La  La2  1  0.350286  0.953711  0.351030  1
  La  La3  1  0.953711  0.350286  0.351030  1
  La  La4  1  0.805661  0.190119  0.190788  1
  La  La5  1  0.188917  0.809557  0.809005  1
  La  La6  1  0.190119  0.805661  0.190788  1
  La  La7  1  0.809557  0.188917  0.809005  1
  La  La8  1  0.190354  0.190354  0.805538  1
  La  La9  1  0.809543  0.809543  0.189123  1
  La  La10  1  0.940844  0.561815  0.561557  1
  La  La11  1  0.561658  0.939167  0.938924  1
  La  La12  1  0.561815  0.940844  0.561557  1
  La  La13  1  0.939167  0.561658  0.938924  1
  La  La14  1  0.561198  0.561198  0.941255  1
  Pr  Pr15  1  0.939221  0.939221  0.560860  1
  Cd  Cd16  1  0.579686  0.579686  0.579772  1
  Cd  Cd17  1  0.579738  0.579738  0.260832  1
  Cd  Cd18  1  0.580239  0.260504  0.579678  1
  Cd  Cd19  1  0.260504  0.580239  0.579678  1
  Ir  Ir20  1  0.141505  0.141505  0.575557  1
  Ir  Ir21  1  0.141223  0.575763  0.141301  1
  Ir  Ir22  1  0.575763  0.141223  0.141301  1
  Pt  Pt23  1  0.142238  0.142238  0.142346  1
