# generated using pymatgen
data_Np2PaS5
_symmetry_space_group_name_H-M   'P 1'
_cell_length_a   7.39288900
_cell_length_b   7.95959600
_cell_length_c   11.59013600
_cell_angle_alpha   90.00000000
_cell_angle_beta   90.00000000
_cell_angle_gamma   90.00000000
_symmetry_Int_Tables_number   1
_chemical_formula_structural   Np2PaS5
_chemical_formula_sum   'Np8 Pa4 S20'
_cell_volume   682.01471141
_cell_formula_units_Z   4
loop_
 _symmetry_equiv_pos_site_id
 _symmetry_equiv_pos_as_xyz
  1  'x, y, z'
loop_
 _atom_site_type_symbol
 _atom_site_label
 _atom_site_symmetry_multiplicity
 _atom_site_fract_x
 _atom_site_fract_y
 _atom_site_fract_z
 _atom_site_occupancy
  Np  Np0  1  0.023927  0.003160  0.677844  1
  Np  Np1  1  0.523927  0.996840  0.822156  1
  Np  Np2  1  0.476073  0.496840  0.177844  1
  Np  Np3  1  0.976073  0.503160  0.322156  1
  Np  Np4  1  0.976073  0.996840  0.322156  1
  Np  Np5  1  0.476073  0.003160  0.177844  1
  Np  Np6  1  0.523927  0.503160  0.822156  1
  Np  Np7  1  0.023927  0.496840  0.677844  1
  Pa  Pa8  1  0.578140  0.250000  0.509665  1
  Pa  Pa9  1  0.078140  0.750000  0.990335  1
  Pa  Pa10  1  0.921860  0.250000  0.009665  1
  Pa  Pa11  1  0.421860  0.750000  0.490335  1
  S  S12  1  0.332066  0.250000  0.689521  1
  S  S13  1  0.832066  0.750000  0.810479  1
  S  S14  1  0.167934  0.250000  0.189521  1
  S  S15  1  0.667934  0.750000  0.310479  1
  S  S16  1  0.960932  0.250000  0.498959  1
  S  S17  1  0.460932  0.750000  0.001041  1
  S  S18  1  0.539068  0.250000  0.998959  1
  S  S19  1  0.039068  0.750000  0.501041  1
  S  S20  1  0.667778  0.547300  0.594712  1
  S  S21  1  0.167778  0.452700  0.905288  1
  S  S22  1  0.832222  0.952700  0.094712  1
  S  S23  1  0.332222  0.047300  0.405288  1
  S  S24  1  0.332222  0.452700  0.405288  1
  S  S25  1  0.832222  0.547300  0.094712  1
  S  S26  1  0.167778  0.047300  0.905288  1
  S  S27  1  0.667778  0.952700  0.594712  1
  S  S28  1  0.800863  0.250000  0.782538  1
  S  S29  1  0.300863  0.750000  0.717462  1
  S  S30  1  0.699137  0.250000  0.282538  1
  S  S31  1  0.199137  0.750000  0.217462  1
