# generated using pymatgen
data_YbPr3Os5Ru3
_symmetry_space_group_name_H-M   'P 1'
_cell_length_a   5.39725867
_cell_length_b   5.17816309
_cell_length_c   9.24918680
_cell_angle_alpha   90.05983359
_cell_angle_beta   90.02863992
_cell_angle_gamma   119.16659369
_symmetry_Int_Tables_number   1
_chemical_formula_structural   YbPr3Os5Ru3
_chemical_formula_sum   'Yb1 Pr3 Os5 Ru3'
_cell_volume   225.71939560
_cell_formula_units_Z   1
loop_
 _symmetry_equiv_pos_site_id
 _symmetry_equiv_pos_as_xyz
  1  'x, y, z'
loop_
 _atom_site_type_symbol
 _atom_site_label
 _atom_site_symmetry_multiplicity
 _atom_site_fract_x
 _atom_site_fract_y
 _atom_site_fract_z
 _atom_site_occupancy
  Yb  Yb0  1  0.667821  0.334261  0.935036  1
  Pr  Pr1  1  0.666385  0.333450  0.570284  1
  Pr  Pr2  1  0.330681  0.665508  0.433628  1
  Pr  Pr3  1  0.329352  0.664707  0.060281  1
  Os  Os4  1  0.170713  0.337818  0.753042  1
  Os  Os5  1  0.172167  0.831205  0.752935  1
  Os  Os6  1  0.663826  0.831814  0.753770  1
  Os  Os7  1  0.836489  0.667059  0.247254  1
  Os  Os8  1  0.835325  0.169608  0.247151  1
  Ru  Ru9  1  0.988963  0.995175  0.498884  1
  Ru  Ru10  1  0.983386  0.991944  0.999329  1
  Ru  Ru11  1  0.354889  0.177452  0.248407  1
