# generated using pymatgen
data_La4Tb6Ir3Ru
_symmetry_space_group_name_H-M   'P 1'
_cell_length_a   6.56627744
_cell_length_b   7.25383892
_cell_length_c   8.90489339
_cell_angle_alpha   96.35078826
_cell_angle_beta   111.21161215
_cell_angle_gamma   90.25525257
_symmetry_Int_Tables_number   1
_chemical_formula_structural   La4Tb6Ir3Ru
_chemical_formula_sum   'La4 Tb6 Ir3 Ru1'
_cell_volume   392.53118468
_cell_formula_units_Z   1
loop_
 _symmetry_equiv_pos_site_id
 _symmetry_equiv_pos_as_xyz
  1  'x, y, z'
loop_
 _atom_site_type_symbol
 _atom_site_label
 _atom_site_symmetry_multiplicity
 _atom_site_fract_x
 _atom_site_fract_y
 _atom_site_fract_z
 _atom_site_occupancy
  La  La0  1  0.979902  0.911830  0.194821  1
  La  La1  1  0.788830  0.581097  0.808089  1
  La  La2  1  0.017929  0.081702  0.807352  1
  La  La3  1  0.208643  0.420205  0.194570  1
  Tb  Tb4  1  0.640395  0.816612  0.431794  1
  Tb  Tb5  1  0.205582  0.684121  0.566566  1
  Tb  Tb6  1  0.359347  0.183718  0.567286  1
  Tb  Tb7  1  0.791810  0.316981  0.431455  1
  Tb  Tb8  1  0.429872  0.750687  0.999760  1
  Tb  Tb9  1  0.569842  0.248836  0.001153  1
  Ir  Ir10  1  0.589291  0.923154  0.773128  1
  Ir  Ir11  1  0.184241  0.422167  0.772570  1
  Ir  Ir12  1  0.409155  0.077716  0.226140  1
  Ru  Ru13  1  0.825161  0.581174  0.225315  1
