# generated using pymatgen
data_Sm2Y5Th(ReB6)4
_symmetry_space_group_name_H-M   'P 1'
_cell_length_a   3.72533400
_cell_length_b   9.23622735
_cell_length_c   11.65308900
_cell_angle_alpha   89.95073329
_cell_angle_beta   90.00000000
_cell_angle_gamma   90.00000000
_symmetry_Int_Tables_number   1
_chemical_formula_structural   Sm2Y5Th(ReB6)4
_chemical_formula_sum   'Sm2 Y5 Th1 Re4 B24'
_cell_volume   400.95970851
_cell_formula_units_Z   1
loop_
 _symmetry_equiv_pos_site_id
 _symmetry_equiv_pos_as_xyz
  1  'x, y, z'
loop_
 _atom_site_type_symbol
 _atom_site_label
 _atom_site_symmetry_multiplicity
 _atom_site_fract_x
 _atom_site_fract_y
 _atom_site_fract_z
 _atom_site_occupancy
  Sm  Sm0  1  0.000000  0.177781  0.912925  1
  Sm  Sm1  1  0.000000  0.323218  0.414739  1
  Y  Y2  1  0.000000  0.676088  0.585929  1
  Y  Y3  1  0.000000  0.441921  0.130544  1
  Y  Y4  1  0.000000  0.556586  0.868750  1
  Y  Y5  1  0.000000  0.942943  0.371647  1
  Y  Y6  1  0.000000  0.057366  0.629654  1
  Th  Th7  1  0.000000  0.822601  0.085884  1
  Re  Re8  1  0.000000  0.138056  0.179525  1
  Re  Re9  1  0.000000  0.861340  0.819800  1
  Re  Re10  1  0.000000  0.638962  0.321096  1
  Re  Re11  1  0.000000  0.362263  0.679195  1
  B  B12  1  0.500000  0.055087  0.068775  1
  B  B13  1  0.500000  0.945828  0.930271  1
  B  B14  1  0.500000  0.553975  0.432997  1
  B  B15  1  0.500000  0.447059  0.568012  1
  B  B16  1  0.500000  0.249318  0.083007  1
  B  B17  1  0.500000  0.751325  0.915077  1
  B  B18  1  0.500000  0.748327  0.419145  1
  B  B19  1  0.500000  0.251574  0.582918  1
  B  B20  1  0.500000  0.290837  0.234257  1
  B  B21  1  0.500000  0.708733  0.764252  1
  B  B22  1  0.500000  0.789995  0.267501  1
  B  B23  1  0.500000  0.209222  0.733791  1
  B  B24  1  0.500000  0.130815  0.314524  1
  B  B25  1  0.500000  0.869510  0.685127  1
  B  B26  1  0.500000  0.629629  0.187573  1
  B  B27  1  0.500000  0.369965  0.813052  1
  B  B28  1  0.500000  0.483444  0.288535  1
  B  B29  1  0.500000  0.517399  0.711454  1
  B  B30  1  0.500000  0.984953  0.213451  1
  B  B31  1  0.500000  0.016791  0.786417  1
  B  B32  1  0.500000  0.099921  0.472521  1
  B  B33  1  0.500000  0.899273  0.528576  1
  B  B34  1  0.500000  0.597747  0.027264  1
  B  B35  1  0.500000  0.400151  0.971816  1
