# generated using pymatgen
data_TmLu5(Sc2In3)2
_symmetry_space_group_name_H-M   'P 1'
_cell_length_a   6.17261900
_cell_length_b   8.80686792
_cell_length_c   8.81747510
_cell_angle_alpha   120.16539144
_cell_angle_beta   89.99577978
_cell_angle_gamma   90.00760894
_symmetry_Int_Tables_number   1
_chemical_formula_structural   TmLu5(Sc2In3)2
_chemical_formula_sum   'Tm1 Lu5 Sc4 In6'
_cell_volume   414.41895972
_cell_formula_units_Z   1
loop_
 _symmetry_equiv_pos_site_id
 _symmetry_equiv_pos_as_xyz
  1  'x, y, z'
loop_
 _atom_site_type_symbol
 _atom_site_label
 _atom_site_symmetry_multiplicity
 _atom_site_fract_x
 _atom_site_fract_y
 _atom_site_fract_z
 _atom_site_occupancy
  Tm  Tm0  1  0.749878  0.234197  0.999593  1
  Lu  Lu1  1  0.749974  0.765178  0.765492  1
  Lu  Lu2  1  0.749997  0.999312  0.234042  1
  Lu  Lu3  1  0.250107  0.766277  0.000295  1
  Lu  Lu4  1  0.250048  0.235145  0.234840  1
  Lu  Lu5  1  0.250050  0.000641  0.765476  1
  Sc  Sc6  1  0.499643  0.333798  0.666961  1
  Sc  Sc7  1  0.499734  0.666184  0.332980  1
  Sc  Sc8  1  0.000320  0.665948  0.332766  1
  Sc  Sc9  1  0.000295  0.333862  0.667393  1
  In  In10  1  0.749909  0.592429  0.999546  1
  In  In11  1  0.750082  0.407564  0.408476  1
  In  In12  1  0.749985  0.998693  0.591627  1
  In  In13  1  0.250097  0.407588  0.000511  1
  In  In14  1  0.249889  0.592585  0.592466  1
  In  In15  1  0.249992  0.000604  0.407535  1
