# generated using pymatgen
data_Dy6Y4IrOs3
_symmetry_space_group_name_H-M   'P 1'
_cell_length_a   6.42951203
_cell_length_b   7.35511282
_cell_length_c   8.46046803
_cell_angle_alpha   96.79893058
_cell_angle_beta   112.50957834
_cell_angle_gamma   90.03854486
_symmetry_Int_Tables_number   1
_chemical_formula_structural   Dy6Y4IrOs3
_chemical_formula_sum   'Dy6 Y4 Ir1 Os3'
_cell_volume   366.55193558
_cell_formula_units_Z   1
loop_
 _symmetry_equiv_pos_site_id
 _symmetry_equiv_pos_as_xyz
  1  'x, y, z'
loop_
 _atom_site_type_symbol
 _atom_site_label
 _atom_site_symmetry_multiplicity
 _atom_site_fract_x
 _atom_site_fract_y
 _atom_site_fract_z
 _atom_site_occupancy
  Dy  Dy0  1  0.208607  0.184300  0.562154  1
  Dy  Dy1  1  0.646136  0.317150  0.436909  1
  Dy  Dy2  1  0.788978  0.816629  0.434795  1
  Dy  Dy3  1  0.355901  0.681405  0.561993  1
  Dy  Dy4  1  0.425804  0.251338  0.001262  1
  Dy  Dy5  1  0.575963  0.749684  0.000183  1
  Y  Y6  1  0.792420  0.084669  0.818183  1
  Y  Y7  1  0.975580  0.416460  0.183349  1
  Y  Y8  1  0.208725  0.916563  0.186779  1
  Y  Y9  1  0.024645  0.582247  0.818339  1
  Ir  Ir10  1  0.175729  0.924212  0.776922  1
  Os  Os11  1  0.603088  0.424446  0.780700  1
  Os  Os12  1  0.823207  0.074579  0.219862  1
  Os  Os13  1  0.395217  0.576315  0.218570  1
