# generated using pymatgen
data_Er3Tm5MoOs3C8
_symmetry_space_group_name_H-M   'P 1'
_cell_length_a   5.04138500
_cell_length_b   6.48448949
_cell_length_c   9.72074965
_cell_angle_alpha   89.57335790
_cell_angle_beta   90.00000000
_cell_angle_gamma   90.00000000
_symmetry_Int_Tables_number   1
_chemical_formula_structural   Er3Tm5MoOs3C8
_chemical_formula_sum   'Er3 Tm5 Mo1 Os3 C8'
_cell_volume   317.77035092
_cell_formula_units_Z   1
loop_
 _symmetry_equiv_pos_site_id
 _symmetry_equiv_pos_as_xyz
  1  'x, y, z'
loop_
 _atom_site_type_symbol
 _atom_site_label
 _atom_site_symmetry_multiplicity
 _atom_site_fract_x
 _atom_site_fract_y
 _atom_site_fract_z
 _atom_site_occupancy
  Er  Er0  1  0.750000  0.466456  0.781021  1
  Er  Er1  1  0.750000  0.969376  0.714866  1
  Er  Er2  1  0.250000  0.031904  0.285291  1
  Tm  Tm3  1  0.250000  0.676682  0.555810  1
  Tm  Tm4  1  0.750000  0.324825  0.443904  1
  Tm  Tm5  1  0.750000  0.825600  0.056646  1
  Tm  Tm6  1  0.250000  0.176740  0.942381  1
  Tm  Tm7  1  0.250000  0.533581  0.215019  1
  Mo  Mo8  1  0.250000  0.716177  0.870069  1
  Os  Os9  1  0.750000  0.282808  0.133229  1
  Os  Os10  1  0.750000  0.780920  0.365946  1
  Os  Os11  1  0.250000  0.219031  0.630264  1
  C  C12  1  0.250000  0.447959  0.758896  1
  C  C13  1  0.750000  0.546854  0.242213  1
  C  C14  1  0.750000  0.048133  0.259327  1
  C  C15  1  0.250000  0.952913  0.739703  1
  C  C16  1  0.250000  0.827138  0.059153  1
  C  C17  1  0.750000  0.173371  0.948553  1
  C  C18  1  0.750000  0.671991  0.552938  1
  C  C19  1  0.250000  0.327540  0.444772  1
