# generated using pymatgen
data_Yb3Eu7(SnGe2)2
_symmetry_space_group_name_H-M   'P 1'
_cell_length_a   9.59410021
_cell_length_b   9.59410065
_cell_length_c   9.59290600
_cell_angle_alpha   130.70765142
_cell_angle_beta   130.70765368
_cell_angle_gamma   72.30789699
_symmetry_Int_Tables_number   1
_chemical_formula_structural   Yb3Eu7(SnGe2)2
_chemical_formula_sum   'Yb3 Eu7 Sn2 Ge4'
_cell_volume   495.93639253
_cell_formula_units_Z   1
loop_
 _symmetry_equiv_pos_site_id
 _symmetry_equiv_pos_as_xyz
  1  'x, y, z'
loop_
 _atom_site_type_symbol
 _atom_site_label
 _atom_site_symmetry_multiplicity
 _atom_site_fract_x
 _atom_site_fract_y
 _atom_site_fract_z
 _atom_site_occupancy
  Yb  Yb0  1  0.500435  0.500939  0.000061  1
  Yb  Yb1  1  0.000939  0.000435  0.000061  1
  Yb  Yb2  1  0.311827  0.811827  0.850990  1
  Eu  Eu3  1  0.814012  0.963291  0.499561  1
  Eu  Eu4  1  0.463291  0.314012  0.499561  1
  Eu  Eu5  1  0.185704  0.036555  0.499444  1
  Eu  Eu6  1  0.536555  0.685704  0.499444  1
  Eu  Eu7  1  0.036110  0.536110  0.849914  1
  Eu  Eu8  1  0.686029  0.186029  0.150008  1
  Eu  Eu9  1  0.963831  0.463831  0.150166  1
  Sn  Sn10  1  0.747482  0.750630  0.999445  1
  Sn  Sn11  1  0.250630  0.247482  0.999445  1
  Ge  Ge12  1  0.381980  0.881980  0.263162  1
  Ge  Ge13  1  0.884408  0.619315  0.501996  1
  Ge  Ge14  1  0.119315  0.384408  0.501996  1
  Ge  Ge15  1  0.617449  0.117449  0.734743  1
