# generated using pymatgen
data_Th4CdHgPt4
_symmetry_space_group_name_H-M   'P 1'
_cell_length_a   8.02767500
_cell_length_b   8.02767500
_cell_length_c   3.76161500
_cell_angle_alpha   90.00000000
_cell_angle_beta   90.00000000
_cell_angle_gamma   90.00000000
_symmetry_Int_Tables_number   1
_chemical_formula_structural   Th4CdHgPt4
_chemical_formula_sum   'Th4 Cd1 Hg1 Pt4'
_cell_volume   242.41188416
_cell_formula_units_Z   1
loop_
 _symmetry_equiv_pos_site_id
 _symmetry_equiv_pos_as_xyz
  1  'x, y, z'
loop_
 _atom_site_type_symbol
 _atom_site_label
 _atom_site_symmetry_multiplicity
 _atom_site_fract_x
 _atom_site_fract_y
 _atom_site_fract_z
 _atom_site_occupancy
  Th  Th0  1  0.172154  0.329523  0.500000  1
  Th  Th1  1  0.329523  0.827846  0.500000  1
  Th  Th2  1  0.827846  0.670477  0.500000  1
  Th  Th3  1  0.670477  0.172154  0.500000  1
  Cd  Cd4  1  0.000000  0.000000  0.000000  1
  Hg  Hg5  1  0.500000  0.500000  0.000000  1
  Pt  Pt6  1  0.632859  0.872595  0.000000  1
  Pt  Pt7  1  0.127405  0.632859  0.000000  1
  Pt  Pt8  1  0.872595  0.367141  0.000000  1
  Pt  Pt9  1  0.367141  0.127405  0.000000  1
