# generated using pymatgen
data_TbHf3(Al3Ir)6
_symmetry_space_group_name_H-M   'P 1'
_cell_length_a   7.49460027
_cell_length_b   7.48584315
_cell_length_c   9.28366600
_cell_angle_alpha   90.00000000
_cell_angle_beta   90.00000000
_cell_angle_gamma   119.78988159
_symmetry_Int_Tables_number   1
_chemical_formula_structural   TbHf3(Al3Ir)6
_chemical_formula_sum   'Tb1 Hf3 Al18 Ir6'
_cell_volume   452.01721691
_cell_formula_units_Z   1
loop_
 _symmetry_equiv_pos_site_id
 _symmetry_equiv_pos_as_xyz
  1  'x, y, z'
loop_
 _atom_site_type_symbol
 _atom_site_label
 _atom_site_symmetry_multiplicity
 _atom_site_fract_x
 _atom_site_fract_y
 _atom_site_fract_z
 _atom_site_occupancy
  Tb  Tb0  1  0.329489  0.005644  0.750000  1
  Hf  Hf1  1  0.994041  0.671246  0.250000  1
  Hf  Hf2  1  0.005223  0.329353  0.750000  1
  Hf  Hf3  1  0.671874  0.994587  0.250000  1
  Al  Al4  1  0.123038  0.124251  0.250000  1
  Al  Al5  1  0.871595  0.875411  0.750000  1
  Al  Al6  1  0.997719  0.334602  0.077869  1
  Al  Al7  1  0.999560  0.662615  0.925863  1
  Al  Al8  1  0.999560  0.662615  0.574137  1
  Al  Al9  1  0.334856  0.998119  0.418777  1
  Al  Al10  1  0.997719  0.334602  0.422131  1
  Al  Al11  1  0.668168  0.002066  0.574188  1
  Al  Al12  1  0.668168  0.002066  0.925812  1
  Al  Al13  1  0.334856  0.998119  0.081223  1
  Al  Al14  1  0.331185  0.333781  0.555619  1
  Al  Al15  1  0.668228  0.668227  0.439241  1
  Al  Al16  1  0.668228  0.668227  0.060759  1
  Al  Al17  1  0.331185  0.333781  0.944381  1
  Al  Al18  1  0.338516  0.552438  0.250000  1
  Al  Al19  1  0.666607  0.453020  0.750000  1
  Al  Al20  1  0.553420  0.339656  0.250000  1
  Al  Al21  1  0.447275  0.656341  0.750000  1
  Ir  Ir22  1  0.673233  0.328070  0.001729  1
  Ir  Ir23  1  0.327999  0.673068  0.002044  1
  Ir  Ir24  1  0.327999  0.673068  0.497956  1
  Ir  Ir25  1  0.673233  0.328070  0.498271  1
  Ir  Ir26  1  0.998513  0.998479  0.002097  1
  Ir  Ir27  1  0.998513  0.998479  0.497903  1
