# generated using pymatgen
data_Sc8Nb11Si16Os
_symmetry_space_group_name_H-M   'P 1'
_cell_length_a   6.65526100
_cell_length_b   6.91072864
_cell_length_c   13.09834800
_cell_angle_alpha   90.00000000
_cell_angle_beta   90.00000000
_cell_angle_gamma   90.15126845
_symmetry_Int_Tables_number   1
_chemical_formula_structural   Sc8Nb11Si16Os
_chemical_formula_sum   'Sc8 Nb11 Si16 Os1'
_cell_volume   602.42632760
_cell_formula_units_Z   1
loop_
 _symmetry_equiv_pos_site_id
 _symmetry_equiv_pos_as_xyz
  1  'x, y, z'
loop_
 _atom_site_type_symbol
 _atom_site_label
 _atom_site_symmetry_multiplicity
 _atom_site_fract_x
 _atom_site_fract_y
 _atom_site_fract_z
 _atom_site_occupancy
  Sc  Sc0  1  0.496560  0.675073  0.593532  1
  Sc  Sc1  1  0.001249  0.827192  0.906758  1
  Sc  Sc2  1  0.499541  0.326436  0.094787  1
  Sc  Sc3  1  0.998847  0.174200  0.404633  1
  Sc  Sc4  1  0.499541  0.326436  0.405213  1
  Sc  Sc5  1  0.998847  0.174200  0.095367  1
  Sc  Sc6  1  0.496560  0.675073  0.906468  1
  Sc  Sc7  1  0.001249  0.827192  0.593242  1
  Nb  Nb8  1  0.666605  0.169271  0.626791  1
  Nb  Nb9  1  0.164909  0.326986  0.873061  1
  Nb  Nb10  1  0.336203  0.826048  0.124452  1
  Nb  Nb11  1  0.836746  0.672382  0.377016  1
  Nb  Nb12  1  0.336203  0.826048  0.375548  1
  Nb  Nb13  1  0.836746  0.672382  0.122984  1
  Nb  Nb14  1  0.666605  0.169271  0.873209  1
  Nb  Nb15  1  0.164909  0.326986  0.626939  1
  Nb  Nb16  1  0.338526  0.002253  0.750000  1
  Nb  Nb17  1  0.162942  0.506183  0.250000  1
  Nb  Nb18  1  0.662327  0.994666  0.250000  1
  Si  Si19  1  0.669801  0.966819  0.460183  1
  Si  Si20  1  0.169539  0.533173  0.038290  1
  Si  Si21  1  0.331731  0.034346  0.960071  1
  Si  Si22  1  0.830357  0.466205  0.544353  1
  Si  Si23  1  0.331731  0.034346  0.539929  1
  Si  Si24  1  0.830357  0.466205  0.955647  1
  Si  Si25  1  0.669801  0.966819  0.039817  1
  Si  Si26  1  0.169539  0.533173  0.461710  1
  Si  Si27  1  0.471423  0.391389  0.750000  1
  Si  Si28  1  0.960917  0.108786  0.750000  1
  Si  Si29  1  0.540262  0.613628  0.250000  1
  Si  Si30  1  0.038107  0.887142  0.250000  1
  Si  Si31  1  0.706896  0.852401  0.750000  1
  Si  Si32  1  0.194129  0.636308  0.750000  1
  Si  Si33  1  0.294497  0.138109  0.250000  1
  Si  Si34  1  0.794067  0.362679  0.250000  1
  Os  Os35  1  0.831730  0.510195  0.750000  1
