# generated using pymatgen
data_Ho16In4Pd3Rh
_symmetry_space_group_name_H-M   'P 1'
_cell_length_a   9.67008092
_cell_length_b   9.67008071
_cell_length_c   9.69161895
_cell_angle_alpha   60.07348942
_cell_angle_beta   60.07348972
_cell_angle_gamma   60.00000137
_symmetry_Int_Tables_number   1
_chemical_formula_structural   Ho16In4Pd3Rh
_chemical_formula_sum   'Ho16 In4 Pd3 Rh1'
_cell_volume   641.53900215
_cell_formula_units_Z   1
loop_
 _symmetry_equiv_pos_site_id
 _symmetry_equiv_pos_as_xyz
  1  'x, y, z'
loop_
 _atom_site_type_symbol
 _atom_site_label
 _atom_site_symmetry_multiplicity
 _atom_site_fract_x
 _atom_site_fract_y
 _atom_site_fract_z
 _atom_site_occupancy
  Ho  Ho0  1  0.187646  0.187646  0.813642  1
  Ho  Ho1  1  0.602222  0.602222  0.193333  1
  Ho  Ho2  1  0.440066  0.060458  0.439019  1
  Ho  Ho3  1  0.438790  0.438790  0.056990  1
  Ho  Ho4  1  0.811067  0.187646  0.813642  1
  Ho  Ho5  1  0.186754  0.812449  0.188348  1
  Ho  Ho6  1  0.438790  0.065430  0.056990  1
  Ho  Ho7  1  0.187646  0.811067  0.813642  1
  Ho  Ho8  1  0.065430  0.438790  0.056990  1
  Ho  Ho9  1  0.812449  0.812449  0.188348  1
  Ho  Ho10  1  0.196418  0.599170  0.605242  1
  Ho  Ho11  1  0.060458  0.440066  0.439019  1
  Ho  Ho12  1  0.060458  0.060458  0.439019  1
  Ho  Ho13  1  0.812449  0.186754  0.188348  1
  Ho  Ho14  1  0.599170  0.196418  0.605242  1
  Ho  Ho15  1  0.599170  0.599170  0.605242  1
  In  In16  1  0.833071  0.833071  0.833217  1
  In  In17  1  0.833418  0.833418  0.499746  1
  In  In18  1  0.500642  0.833071  0.833217  1
  In  In19  1  0.833071  0.500642  0.833217  1
  Pd  Pd20  1  0.393945  0.819385  0.392725  1
  Pd  Pd21  1  0.393945  0.393945  0.392725  1
  Pd  Pd22  1  0.819385  0.393945  0.392725  1
  Rh  Rh23  1  0.393543  0.393543  0.819372  1
