# generated using pymatgen
data_Ti3Ge3MoRh2
_symmetry_space_group_name_H-M   'P 1'
_cell_length_a   7.57152450
_cell_length_b   7.57152561
_cell_length_c   7.57152460
_cell_angle_alpha   126.42812597
_cell_angle_beta   124.51879992
_cell_angle_gamma   80.76462943
_symmetry_Int_Tables_number   1
_chemical_formula_structural   Ti3Ge3MoRh2
_chemical_formula_sum   'Ti6 Ge6 Mo2 Rh4'
_cell_volume   277.43065087
_cell_formula_units_Z   2
loop_
 _symmetry_equiv_pos_site_id
 _symmetry_equiv_pos_as_xyz
  1  'x, y, z'
loop_
 _atom_site_type_symbol
 _atom_site_label
 _atom_site_symmetry_multiplicity
 _atom_site_fract_x
 _atom_site_fract_y
 _atom_site_fract_z
 _atom_site_occupancy
  Ti  Ti0  1  0.964142  0.730565  0.266422  1
  Ti  Ti1  1  0.035858  0.302281  0.766422  1
  Ti  Ti2  1  0.248072  0.169156  0.421084  1
  Ti  Ti3  1  0.751928  0.173014  0.921084  1
  Ti  Ti4  1  0.562279  0.350143  0.287863  1
  Ti  Ti5  1  0.437721  0.725584  0.787863  1
  Ge  Ge6  1  0.785785  0.805767  0.519982  1
  Ge  Ge7  1  0.214215  0.734197  0.019982  1
  Ge  Ge8  1  0.335666  0.069506  0.743932  1
  Ge  Ge9  1  0.664334  0.408266  0.733840  1
  Ge  Ge10  1  0.174426  0.408266  0.243932  1
  Ge  Ge11  1  0.825574  0.069506  0.233840  1
  Mo  Mo12  1  0.500000  0.497225  0.997225  1
  Mo  Mo13  1  0.000000  0.497225  0.497225  1
  Rh  Rh14  1  0.171811  0.003492  0.918171  1
  Rh  Rh15  1  0.828189  0.746360  0.831681  1
  Rh  Rh16  1  0.414679  0.746360  0.418171  1
  Rh  Rh17  1  0.585321  0.003492  0.331681  1
