# generated using pymatgen
data_Y3PSe2
_symmetry_space_group_name_H-M   'P 1'
_cell_length_a   7.05971336
_cell_length_b   7.05971450
_cell_length_c   7.05971391
_cell_angle_alpha   146.73714847
_cell_angle_beta   131.88697649
_cell_angle_gamma   59.74651354
_symmetry_Int_Tables_number   1
_chemical_formula_structural   Y3PSe2
_chemical_formula_sum   'Y3 P1 Se2'
_cell_volume   142.38691732
_cell_formula_units_Z   1
loop_
 _symmetry_equiv_pos_site_id
 _symmetry_equiv_pos_as_xyz
  1  'x, y, z'
loop_
 _atom_site_type_symbol
 _atom_site_label
 _atom_site_symmetry_multiplicity
 _atom_site_fract_x
 _atom_site_fract_y
 _atom_site_fract_z
 _atom_site_occupancy
  Y  Y0  1  0.846743  0.346743  0.500000  1
  Y  Y1  1  0.500000  0.000000  0.500000  1
  Y  Y2  1  0.153257  0.653257  0.500000  1
  P  P3  1  0.000000  0.000000  0.000000  1
  Se  Se4  1  0.671155  0.671155  0.000000  1
  Se  Se5  1  0.328845  0.328845  0.000000  1
