# generated using pymatgen
data_Na3HoCo4(P3Rh4)4
_symmetry_space_group_name_H-M   'P 1'
_cell_length_a   3.80109200
_cell_length_b   10.75328753
_cell_length_c   12.42420110
_cell_angle_alpha   90.15289453
_cell_angle_beta   90.00000000
_cell_angle_gamma   90.00000000
_symmetry_Int_Tables_number   1
_chemical_formula_structural   Na3HoCo4(P3Rh4)4
_chemical_formula_sum   'Na3 Ho1 Co4 P12 Rh16'
_cell_volume   507.82791016
_cell_formula_units_Z   1
loop_
 _symmetry_equiv_pos_site_id
 _symmetry_equiv_pos_as_xyz
  1  'x, y, z'
loop_
 _atom_site_type_symbol
 _atom_site_label
 _atom_site_symmetry_multiplicity
 _atom_site_fract_x
 _atom_site_fract_y
 _atom_site_fract_z
 _atom_site_occupancy
  Na  Na0  1  0.250000  0.584735  0.708795  1
  Na  Na1  1  0.250000  0.914894  0.208134  1
  Na  Na2  1  0.750000  0.414873  0.291531  1
  Ho  Ho3  1  0.750000  0.085254  0.792730  1
  Co  Co4  1  0.250000  0.465728  0.934320  1
  Co  Co5  1  0.250000  0.034894  0.434601  1
  Co  Co6  1  0.750000  0.534500  0.065718  1
  Co  Co7  1  0.750000  0.963354  0.566524  1
  P  P8  1  0.250000  0.424226  0.105550  1
  P  P9  1  0.250000  0.075002  0.605157  1
  P  P10  1  0.750000  0.576157  0.894416  1
  P  P11  1  0.750000  0.925342  0.393908  1
  P  P12  1  0.250000  0.274891  0.871993  1
  P  P13  1  0.250000  0.228058  0.372786  1
  P  P14  1  0.750000  0.727563  0.127403  1
  P  P15  1  0.750000  0.769673  0.626520  1
  P  P16  1  0.250000  0.600437  0.388861  1
  P  P17  1  0.250000  0.898639  0.889549  1
  P  P18  1  0.750000  0.401251  0.609939  1
  P  P19  1  0.750000  0.100289  0.113218  1
  Rh  Rh20  1  0.250000  0.715106  0.987408  1
  Rh  Rh21  1  0.250000  0.784127  0.489513  1
  Rh  Rh22  1  0.750000  0.283142  0.012032  1
  Rh  Rh23  1  0.750000  0.215427  0.513451  1
  Rh  Rh24  1  0.250000  0.408109  0.485481  1
  Rh  Rh25  1  0.250000  0.093400  0.980540  1
  Rh  Rh26  1  0.750000  0.591418  0.514441  1
  Rh  Rh27  1  0.750000  0.909745  0.016442  1
  Rh  Rh28  1  0.250000  0.227097  0.177695  1
  Rh  Rh29  1  0.250000  0.268496  0.679065  1
  Rh  Rh30  1  0.750000  0.771964  0.820475  1
  Rh  Rh31  1  0.750000  0.729659  0.321671  1
  Rh  Rh32  1  0.250000  0.888578  0.699098  1
  Rh  Rh33  1  0.250000  0.613248  0.199436  1
  Rh  Rh34  1  0.750000  0.113807  0.301742  1
  Rh  Rh35  1  0.750000  0.386916  0.799858  1
