# generated using pymatgen
data_La15PrCd4Os3Pt
_symmetry_space_group_name_H-M   'P 1'
_cell_length_a   10.08651091
_cell_length_b   10.16124673
_cell_length_c   10.16453700
_cell_angle_alpha   59.98927826
_cell_angle_beta   59.74376405
_cell_angle_gamma   59.67936738
_symmetry_Int_Tables_number   1
_chemical_formula_structural   La15PrCd4Os3Pt
_chemical_formula_sum   'La15 Pr1 Cd4 Os3 Pt1'
_cell_volume   733.36163674
_cell_formula_units_Z   1
loop_
 _symmetry_equiv_pos_site_id
 _symmetry_equiv_pos_as_xyz
  1  'x, y, z'
loop_
 _atom_site_type_symbol
 _atom_site_label
 _atom_site_symmetry_multiplicity
 _atom_site_fract_x
 _atom_site_fract_y
 _atom_site_fract_z
 _atom_site_occupancy
  La  La0  1  0.342705  0.349371  0.349915  1
  La  La1  1  0.342705  0.349371  0.958011  1
  La  La2  1  0.342568  0.957276  0.350078  1
  La  La3  1  0.962335  0.345207  0.346229  1
  La  La4  1  0.815456  0.190779  0.191469  1
  La  La5  1  0.189684  0.810684  0.810362  1
  La  La6  1  0.189684  0.810684  0.189271  1
  La  La7  1  0.815456  0.190779  0.802296  1
  La  La8  1  0.190176  0.189001  0.810412  1
  La  La9  1  0.815449  0.802626  0.190962  1
  La  La10  1  0.940148  0.559819  0.559656  1
  La  La11  1  0.557058  0.940140  0.939220  1
  La  La12  1  0.557058  0.940140  0.563583  1
  La  La13  1  0.940148  0.559819  0.940377  1
  La  La14  1  0.556922  0.563811  0.939634  1
  Pr  Pr15  1  0.939445  0.941008  0.559773  1
  Cd  Cd16  1  0.579112  0.579651  0.579651  1
  Cd  Cd17  1  0.579112  0.579651  0.261585  1
  Cd  Cd18  1  0.579671  0.260782  0.579773  1
  Cd  Cd19  1  0.261195  0.579831  0.579487  1
  Os  Os20  1  0.141936  0.138058  0.137488  1
  Os  Os21  1  0.141936  0.138058  0.582518  1
  Os  Os22  1  0.141742  0.582708  0.137775  1
  Pt  Pt23  1  0.578301  0.140750  0.140474  1
