# generated using pymatgen
data_PrPPt8Pb
_symmetry_space_group_name_H-M   'P 1'
_cell_length_a   9.12079600
_cell_length_b   9.20494113
_cell_length_c   4.30696800
_cell_angle_alpha   90.00000000
_cell_angle_beta   90.00000000
_cell_angle_gamma   145.26965361
_symmetry_Int_Tables_number   1
_chemical_formula_structural   PrPPt8Pb
_chemical_formula_sum   'Pr1 P1 Pt8 Pb1'
_cell_volume   206.00747113
_cell_formula_units_Z   1
loop_
 _symmetry_equiv_pos_site_id
 _symmetry_equiv_pos_as_xyz
  1  'x, y, z'
loop_
 _atom_site_type_symbol
 _atom_site_label
 _atom_site_symmetry_multiplicity
 _atom_site_fract_x
 _atom_site_fract_y
 _atom_site_fract_z
 _atom_site_occupancy
  Pr  Pr0  1  0.618574  0.370914  0.500000  1
  P  P1  1  0.217847  0.214023  0.000000  1
  Pt  Pt2  1  0.102422  0.882674  0.000000  1
  Pt  Pt3  1  0.887860  0.105076  0.000000  1
  Pt  Pt4  1  0.492626  0.996063  0.000000  1
  Pt  Pt5  1  0.980095  0.489780  0.000000  1
  Pt  Pt6  1  0.195029  0.789548  0.500000  1
  Pt  Pt7  1  0.802181  0.199079  0.500000  1
  Pt  Pt8  1  0.003679  0.998879  0.500000  1
  Pt  Pt9  1  0.618794  0.627407  0.000000  1
  Pb  Pb10  1  0.394490  0.640156  0.500000  1
