# generated using pymatgen
data_Bi2SbO6
_symmetry_space_group_name_H-M   'P 1'
_cell_length_a   9.37951800
_cell_length_b   9.37951812
_cell_length_c   5.33931800
_cell_angle_alpha   90.00000000
_cell_angle_beta   90.00000000
_cell_angle_gamma   119.99999958
_symmetry_Int_Tables_number   1
_chemical_formula_structural   Bi2SbO6
_chemical_formula_sum   'Bi6 Sb3 O18'
_cell_volume   406.79674457
_cell_formula_units_Z   3
loop_
 _symmetry_equiv_pos_site_id
 _symmetry_equiv_pos_as_xyz
  1  'x, y, z'
loop_
 _atom_site_type_symbol
 _atom_site_label
 _atom_site_symmetry_multiplicity
 _atom_site_fract_x
 _atom_site_fract_y
 _atom_site_fract_z
 _atom_site_occupancy
  Bi  Bi0  1  0.000000  0.375875  0.500000  1
  Bi  Bi1  1  0.291070  0.291070  0.000000  1
  Bi  Bi2  1  0.000000  0.708930  0.000000  1
  Bi  Bi3  1  0.624125  0.624125  0.500000  1
  Bi  Bi4  1  0.375875  0.000000  0.500000  1
  Bi  Bi5  1  0.708930  0.000000  0.000000  1
  Sb  Sb6  1  0.000000  0.000000  0.500000  1
  Sb  Sb7  1  0.333333  0.666667  0.004986  1
  Sb  Sb8  1  0.666667  0.333333  0.995014  1
  O  O9  1  0.083692  0.205712  0.708086  1
  O  O10  1  0.226769  0.460418  0.220467  1
  O  O11  1  0.130953  0.596420  0.791386  1
  O  O12  1  0.403580  0.534533  0.791386  1
  O  O13  1  0.233650  0.773231  0.220467  1
  O  O14  1  0.122020  0.916308  0.708086  1
  O  O15  1  0.539582  0.766350  0.220467  1
  O  O16  1  0.205712  0.083692  0.291914  1
  O  O17  1  0.465467  0.869047  0.791386  1
  O  O18  1  0.794288  0.877980  0.708086  1
  O  O19  1  0.460418  0.226769  0.779533  1
  O  O20  1  0.596420  0.130953  0.208614  1
  O  O21  1  0.534533  0.403580  0.208614  1
  O  O22  1  0.773231  0.233650  0.779533  1
  O  O23  1  0.916308  0.122020  0.291914  1
  O  O24  1  0.766350  0.539582  0.779533  1
  O  O25  1  0.869047  0.465467  0.208614  1
  O  O26  1  0.877980  0.794288  0.291914  1
