# generated using pymatgen
data_Tb4Tm(OsO6)2
_symmetry_space_group_name_H-M   'P 1'
_cell_length_a   6.88756417
_cell_length_b   6.88756457
_cell_length_c   7.49163401
_cell_angle_alpha   73.92905105
_cell_angle_beta   73.92905089
_cell_angle_gamma   48.60316857
_symmetry_Int_Tables_number   1
_chemical_formula_structural   Tb4Tm(OsO6)2
_chemical_formula_sum   'Tb4 Tm1 Os2 O12'
_cell_volume   254.00113249
_cell_formula_units_Z   1
loop_
 _symmetry_equiv_pos_site_id
 _symmetry_equiv_pos_as_xyz
  1  'x, y, z'
loop_
 _atom_site_type_symbol
 _atom_site_label
 _atom_site_symmetry_multiplicity
 _atom_site_fract_x
 _atom_site_fract_y
 _atom_site_fract_z
 _atom_site_occupancy
  Tb  Tb0  1  0.801100  0.801100  0.358015  1
  Tb  Tb1  1  0.198900  0.198900  0.641985  1
  Tb  Tb2  1  0.186754  0.186754  0.172458  1
  Tb  Tb3  1  0.813246  0.813246  0.827542  1
  Tm  Tm4  1  0.500000  0.500000  0.500000  1
  Os  Os5  1  0.281462  0.718538  0.000000  1
  Os  Os6  1  0.718538  0.281462  0.000000  1
  O  O7  1  0.413827  0.918388  0.913889  1
  O  O8  1  0.081612  0.586173  0.086111  1
  O  O9  1  0.586173  0.081612  0.086111  1
  O  O10  1  0.918388  0.413827  0.913889  1
  O  O11  1  0.599053  0.100620  0.570641  1
  O  O12  1  0.899380  0.400947  0.429359  1
  O  O13  1  0.400947  0.899380  0.429359  1
  O  O14  1  0.001126  0.001126  0.827034  1
  O  O15  1  0.998874  0.998874  0.172966  1
  O  O16  1  0.498349  0.498349  0.795360  1
  O  O17  1  0.501651  0.501651  0.204640  1
  O  O18  1  0.100620  0.599053  0.570641  1
