# generated using pymatgen
data_Y3Lu2InSn2
_symmetry_space_group_name_H-M   'P 1'
_cell_length_a   8.91643389
_cell_length_b   8.92886309
_cell_length_c   6.52191800
_cell_angle_alpha   90.00000000
_cell_angle_beta   90.00000000
_cell_angle_gamma   120.04612179
_symmetry_Int_Tables_number   1
_chemical_formula_structural   Y3Lu2InSn2
_chemical_formula_sum   'Y6 Lu4 In2 Sn4'
_cell_volume   449.46025697
_cell_formula_units_Z   2
loop_
 _symmetry_equiv_pos_site_id
 _symmetry_equiv_pos_as_xyz
  1  'x, y, z'
loop_
 _atom_site_type_symbol
 _atom_site_label
 _atom_site_symmetry_multiplicity
 _atom_site_fract_x
 _atom_site_fract_y
 _atom_site_fract_z
 _atom_site_occupancy
  Y  Y0  1  0.759074  0.761337  0.750000  1
  Y  Y1  1  0.240926  0.002263  0.750000  1
  Y  Y2  1  0.000000  0.240557  0.750000  1
  Y  Y3  1  0.238779  0.237821  0.250000  1
  Y  Y4  1  0.761221  0.999042  0.250000  1
  Y  Y5  1  0.000000  0.759072  0.250000  1
  Lu  Lu6  1  0.665683  0.332456  0.997588  1
  Lu  Lu7  1  0.334317  0.666774  0.997588  1
  Lu  Lu8  1  0.334317  0.666774  0.502412  1
  Lu  Lu9  1  0.665683  0.332456  0.502412  1
  In  In10  1  0.398110  0.398831  0.750000  1
  In  In11  1  0.601890  0.000721  0.750000  1
  Sn  Sn12  1  0.000000  0.604905  0.750000  1
  Sn  Sn13  1  0.602842  0.601480  0.250000  1
  Sn  Sn14  1  0.397158  0.998638  0.250000  1
  Sn  Sn15  1  0.000000  0.396872  0.250000  1
