# generated using pymatgen
data_Ho2Er8Cd3Ru
_symmetry_space_group_name_H-M   'P 1'
_cell_length_a   9.53084404
_cell_length_b   9.53084423
_cell_length_c   9.77933600
_cell_angle_alpha   90.00000000
_cell_angle_beta   90.00000000
_cell_angle_gamma   120.01027007
_symmetry_Int_Tables_number   1
_chemical_formula_structural   Ho2Er8Cd3Ru
_chemical_formula_sum   'Ho4 Er16 Cd6 Ru2'
_cell_volume   769.23277530
_cell_formula_units_Z   2
loop_
 _symmetry_equiv_pos_site_id
 _symmetry_equiv_pos_as_xyz
  1  'x, y, z'
loop_
 _atom_site_type_symbol
 _atom_site_label
 _atom_site_symmetry_multiplicity
 _atom_site_fract_x
 _atom_site_fract_y
 _atom_site_fract_z
 _atom_site_occupancy
  Ho  Ho0  1  0.540892  0.459108  0.250000  1
  Ho  Ho1  1  0.540903  0.081796  0.250000  1
  Ho  Ho2  1  0.918204  0.459097  0.250000  1
  Ho  Ho3  1  0.458981  0.541019  0.750000  1
  Er  Er4  1  0.999983  0.000017  0.499974  1
  Er  Er5  1  0.999983  0.000017  0.000026  1
  Er  Er6  1  0.209822  0.790178  0.440690  1
  Er  Er7  1  0.209759  0.419657  0.440594  1
  Er  Er8  1  0.580343  0.790241  0.440594  1
  Er  Er9  1  0.790188  0.209812  0.559563  1
  Er  Er10  1  0.790297  0.580389  0.559547  1
  Er  Er11  1  0.419611  0.209703  0.559547  1
  Er  Er12  1  0.790188  0.209812  0.940437  1
  Er  Er13  1  0.790297  0.580389  0.940453  1
  Er  Er14  1  0.419611  0.209703  0.940453  1
  Er  Er15  1  0.209822  0.790178  0.059310  1
  Er  Er16  1  0.209759  0.419657  0.059406  1
  Er  Er17  1  0.580343  0.790241  0.059406  1
  Er  Er18  1  0.458968  0.918045  0.750000  1
  Er  Er19  1  0.081955  0.541032  0.750000  1
  Cd  Cd20  1  0.885486  0.114514  0.250000  1
  Cd  Cd21  1  0.885483  0.770962  0.250000  1
  Cd  Cd22  1  0.229038  0.114517  0.250000  1
  Cd  Cd23  1  0.114661  0.885339  0.750000  1
  Cd  Cd24  1  0.114519  0.229166  0.750000  1
  Cd  Cd25  1  0.770834  0.885481  0.750000  1
  Ru  Ru26  1  0.333371  0.666629  0.250000  1
  Ru  Ru27  1  0.666698  0.333302  0.750000  1
