# generated using pymatgen
data_Er2TmPa(Ni2Sn)2
_symmetry_space_group_name_H-M   'P 1'
_cell_length_a   7.42630161
_cell_length_b   7.42630136
_cell_length_c   3.52056900
_cell_angle_alpha   90.00000000
_cell_angle_beta   90.00000000
_cell_angle_gamma   92.30964520
_symmetry_Int_Tables_number   1
_chemical_formula_structural   Er2TmPa(Ni2Sn)2
_chemical_formula_sum   'Er2 Tm1 Pa1 Ni4 Sn2'
_cell_volume   194.00148753
_cell_formula_units_Z   1
loop_
 _symmetry_equiv_pos_site_id
 _symmetry_equiv_pos_as_xyz
  1  'x, y, z'
loop_
 _atom_site_type_symbol
 _atom_site_label
 _atom_site_symmetry_multiplicity
 _atom_site_fract_x
 _atom_site_fract_y
 _atom_site_fract_z
 _atom_site_occupancy
  Er  Er0  1  0.169602  0.327676  0.500000  1
  Er  Er1  1  0.827676  0.669602  0.500000  1
  Tm  Tm2  1  0.326287  0.826287  0.500000  1
  Pa  Pa3  1  0.671659  0.171659  0.500000  1
  Ni  Ni4  1  0.863911  0.363911  0.000000  1
  Ni  Ni5  1  0.116631  0.616631  0.000000  1
  Ni  Ni6  1  0.394375  0.131526  0.000000  1
  Ni  Ni7  1  0.631526  0.894375  0.000000  1
  Sn  Sn8  1  0.490840  0.507494  0.000000  1
  Sn  Sn9  1  0.007494  0.990840  0.000000  1
