# generated using pymatgen
data_Sc2Ti3Si4
_symmetry_space_group_name_H-M   'P 1'
_cell_length_a   6.87548700
_cell_length_b   6.87548700
_cell_length_c   12.58994000
_cell_angle_alpha   90.00000000
_cell_angle_beta   90.00000000
_cell_angle_gamma   90.00000000
_symmetry_Int_Tables_number   1
_chemical_formula_structural   Sc2Ti3Si4
_chemical_formula_sum   'Sc8 Ti12 Si16'
_cell_volume   595.15569118
_cell_formula_units_Z   4
loop_
 _symmetry_equiv_pos_site_id
 _symmetry_equiv_pos_as_xyz
  1  'x, y, z'
loop_
 _atom_site_type_symbol
 _atom_site_label
 _atom_site_symmetry_multiplicity
 _atom_site_fract_x
 _atom_site_fract_y
 _atom_site_fract_z
 _atom_site_occupancy
  Sc  Sc0  1  0.000543  0.660535  0.032820  1
  Sc  Sc1  1  0.499457  0.160535  0.217180  1
  Sc  Sc2  1  0.839464  0.500543  0.282820  1
  Sc  Sc3  1  0.339465  0.999457  0.467180  1
  Sc  Sc4  1  0.999457  0.339465  0.532820  1
  Sc  Sc5  1  0.500543  0.839464  0.717180  1
  Sc  Sc6  1  0.160535  0.499457  0.782820  1
  Sc  Sc7  1  0.660535  0.000543  0.967179  1
  Ti  Ti8  1  0.329090  0.329090  0.000000  1
  Ti  Ti9  1  0.493400  0.650941  0.124450  1
  Ti  Ti10  1  0.006600  0.150941  0.125550  1
  Ti  Ti11  1  0.170910  0.829090  0.250000  1
  Ti  Ti12  1  0.849059  0.993400  0.374450  1
  Ti  Ti13  1  0.349059  0.506600  0.375550  1
  Ti  Ti14  1  0.670910  0.670910  0.500000  1
  Ti  Ti15  1  0.506600  0.349059  0.624450  1
  Ti  Ti16  1  0.993400  0.849059  0.625550  1
  Ti  Ti17  1  0.829090  0.170910  0.750000  1
  Ti  Ti18  1  0.150941  0.006600  0.874450  1
  Ti  Ti19  1  0.650941  0.493400  0.875550  1
  Si  Si20  1  0.297032  0.955824  0.064498  1
  Si  Si21  1  0.705923  0.365099  0.070858  1
  Si  Si22  1  0.794078  0.865099  0.179142  1
  Si  Si23  1  0.202968  0.455824  0.185502  1
  Si  Si24  1  0.544176  0.797032  0.314498  1
  Si  Si25  1  0.134901  0.205922  0.320858  1
  Si  Si26  1  0.634901  0.294078  0.429142  1
  Si  Si27  1  0.044176  0.702968  0.435502  1
  Si  Si28  1  0.702968  0.044176  0.564498  1
  Si  Si29  1  0.294078  0.634901  0.570858  1
  Si  Si30  1  0.205922  0.134901  0.679142  1
  Si  Si31  1  0.797032  0.544176  0.685502  1
  Si  Si32  1  0.455824  0.202968  0.814498  1
  Si  Si33  1  0.865099  0.794078  0.820858  1
  Si  Si34  1  0.365099  0.705923  0.929142  1
  Si  Si35  1  0.955824  0.297032  0.935502  1
