# generated using pymatgen
data_Sr2Lu3Sn4
_symmetry_space_group_name_H-M   'P 1'
_cell_length_a   7.98484800
_cell_length_b   8.44160700
_cell_length_c   15.89621200
_cell_angle_alpha   90.00000000
_cell_angle_beta   90.00000000
_cell_angle_gamma   90.00000000
_symmetry_Int_Tables_number   1
_chemical_formula_structural   Sr2Lu3Sn4
_chemical_formula_sum   'Sr8 Lu12 Sn16'
_cell_volume   1071.48335551
_cell_formula_units_Z   4
loop_
 _symmetry_equiv_pos_site_id
 _symmetry_equiv_pos_as_xyz
  1  'x, y, z'
loop_
 _atom_site_type_symbol
 _atom_site_label
 _atom_site_symmetry_multiplicity
 _atom_site_fract_x
 _atom_site_fract_y
 _atom_site_fract_z
 _atom_site_occupancy
  Sr  Sr0  1  0.500940  0.324001  0.907405  1
  Sr  Sr1  1  0.000940  0.175999  0.592595  1
  Sr  Sr2  1  0.499060  0.675999  0.407405  1
  Sr  Sr3  1  0.999060  0.824001  0.092595  1
  Sr  Sr4  1  0.499060  0.675999  0.092595  1
  Sr  Sr5  1  0.999060  0.824001  0.407405  1
  Sr  Sr6  1  0.500940  0.324001  0.592595  1
  Sr  Sr7  1  0.000940  0.175999  0.907405  1
  Lu  Lu8  1  0.328077  0.837265  0.875090  1
  Lu  Lu9  1  0.828077  0.662735  0.624910  1
  Lu  Lu10  1  0.671923  0.162735  0.375090  1
  Lu  Lu11  1  0.171923  0.337265  0.124910  1
  Lu  Lu12  1  0.671923  0.162735  0.124910  1
  Lu  Lu13  1  0.171923  0.337265  0.375090  1
  Lu  Lu14  1  0.328077  0.837265  0.624910  1
  Lu  Lu15  1  0.828077  0.662735  0.875090  1
  Lu  Lu16  1  0.162669  0.496812  0.750000  1
  Lu  Lu17  1  0.662669  0.003188  0.750000  1
  Lu  Lu18  1  0.837331  0.503188  0.250000  1
  Lu  Lu19  1  0.337331  0.996812  0.250000  1
  Sn  Sn20  1  0.335504  0.042778  0.043705  1
  Sn  Sn21  1  0.835504  0.457222  0.456295  1
  Sn  Sn22  1  0.664496  0.957222  0.543705  1
  Sn  Sn23  1  0.164496  0.542778  0.956295  1
  Sn  Sn24  1  0.664496  0.957222  0.956295  1
  Sn  Sn25  1  0.164496  0.542778  0.543705  1
  Sn  Sn26  1  0.335504  0.042778  0.456295  1
  Sn  Sn27  1  0.835504  0.457222  0.043705  1
  Sn  Sn28  1  0.525850  0.633746  0.750000  1
  Sn  Sn29  1  0.025850  0.866254  0.750000  1
  Sn  Sn30  1  0.474150  0.366254  0.250000  1
  Sn  Sn31  1  0.974150  0.133746  0.250000  1
  Sn  Sn32  1  0.296911  0.134561  0.750000  1
  Sn  Sn33  1  0.796911  0.365439  0.750000  1
  Sn  Sn34  1  0.703089  0.865439  0.250000  1
  Sn  Sn35  1  0.203089  0.634561  0.250000  1
