# generated using pymatgen
data_Ba3LuBi3
_symmetry_space_group_name_H-M   'P 1'
_cell_length_a   5.16742200
_cell_length_b   14.78857100
_cell_length_c   16.17228000
_cell_angle_alpha   90.00000000
_cell_angle_beta   90.00000000
_cell_angle_gamma   90.00000000
_symmetry_Int_Tables_number   1
_chemical_formula_structural   Ba3LuBi3
_chemical_formula_sum   'Ba12 Lu4 Bi12'
_cell_volume   1235.86602279
_cell_formula_units_Z   4
loop_
 _symmetry_equiv_pos_site_id
 _symmetry_equiv_pos_as_xyz
  1  'x, y, z'
loop_
 _atom_site_type_symbol
 _atom_site_label
 _atom_site_symmetry_multiplicity
 _atom_site_fract_x
 _atom_site_fract_y
 _atom_site_fract_z
 _atom_site_occupancy
  Ba  Ba0  1  0.250000  0.423348  0.104940  1
  Ba  Ba1  1  0.250000  0.146170  0.998933  1
  Ba  Ba2  1  0.250000  0.222941  0.292684  1
  Ba  Ba3  1  0.750000  0.277059  0.792684  1
  Ba  Ba4  1  0.750000  0.353830  0.498933  1
  Ba  Ba5  1  0.250000  0.923348  0.395060  1
  Ba  Ba6  1  0.750000  0.777059  0.707316  1
  Ba  Ba7  1  0.750000  0.853830  0.001067  1
  Ba  Ba8  1  0.250000  0.722941  0.207316  1
  Ba  Ba9  1  0.750000  0.076652  0.604940  1
  Ba  Ba10  1  0.750000  0.576652  0.895060  1
  Ba  Ba11  1  0.250000  0.646170  0.501067  1
  Lu  Lu12  1  0.750000  0.549284  0.296114  1
  Lu  Lu13  1  0.750000  0.049284  0.203886  1
  Lu  Lu14  1  0.250000  0.450716  0.703886  1
  Lu  Lu15  1  0.250000  0.950716  0.796114  1
  Bi  Bi16  1  0.750000  0.238463  0.127994  1
  Bi  Bi17  1  0.750000  0.738463  0.372006  1
  Bi  Bi18  1  0.750000  0.594672  0.113002  1
  Bi  Bi19  1  0.250000  0.261537  0.627994  1
  Bi  Bi20  1  0.250000  0.761537  0.872006  1
  Bi  Bi21  1  0.750000  0.094672  0.386998  1
  Bi  Bi22  1  0.250000  0.905328  0.613002  1
  Bi  Bi23  1  0.250000  0.405328  0.886998  1
  Bi  Bi24  1  0.750000  0.042660  0.853062  1
  Bi  Bi25  1  0.250000  0.457340  0.353062  1
  Bi  Bi26  1  0.250000  0.957340  0.146938  1
  Bi  Bi27  1  0.750000  0.542660  0.646938  1
