# generated using pymatgen
data_Pr16Ho4Si15Sn
_symmetry_space_group_name_H-M   'P 1'
_cell_length_a   7.90149955
_cell_length_b   7.88106452
_cell_length_c   15.22628063
_cell_angle_alpha   90.12664947
_cell_angle_beta   89.68694623
_cell_angle_gamma   89.69792012
_symmetry_Int_Tables_number   1
_chemical_formula_structural   Pr16Ho4Si15Sn
_chemical_formula_sum   'Pr16 Ho4 Si15 Sn1'
_cell_volume   948.14470725
_cell_formula_units_Z   1
loop_
 _symmetry_equiv_pos_site_id
 _symmetry_equiv_pos_as_xyz
  1  'x, y, z'
loop_
 _atom_site_type_symbol
 _atom_site_label
 _atom_site_symmetry_multiplicity
 _atom_site_fract_x
 _atom_site_fract_y
 _atom_site_fract_z
 _atom_site_occupancy
  Pr  Pr0  1  0.373876  0.016153  0.449275  1
  Pr  Pr1  1  0.494762  0.870477  0.697796  1
  Pr  Pr2  1  0.510986  0.121435  0.197227  1
  Pr  Pr3  1  0.877617  0.488163  0.301603  1
  Pr  Pr4  1  0.120877  0.515574  0.805984  1
  Pr  Pr5  1  0.624417  0.985513  0.949484  1
  Pr  Pr6  1  0.005872  0.384285  0.546765  1
  Pr  Pr7  1  0.987952  0.622504  0.054232  1
  Pr  Pr8  1  0.128916  0.977686  0.880158  1
  Pr  Pr9  1  0.521926  0.626554  0.129163  1
  Pr  Pr10  1  0.487993  0.385344  0.627374  1
  Pr  Pr11  1  0.626830  0.523565  0.874359  1
  Pr  Pr12  1  0.374475  0.478593  0.370425  1
  Pr  Pr13  1  0.872039  0.022497  0.377644  1
  Pr  Pr14  1  0.978050  0.127469  0.123421  1
  Pr  Pr15  1  0.010630  0.857857  0.618745  1
  Ho  Ho16  1  0.310624  0.309680  0.000948  1
  Ho  Ho17  1  0.189240  0.811298  0.249962  1
  Ho  Ho18  1  0.801328  0.187744  0.752141  1
  Ho  Ho19  1  0.685563  0.691661  0.496867  1
  Si  Si20  1  0.328150  0.688766  0.957874  1
  Si  Si21  1  0.668335  0.309845  0.454802  1
  Si  Si22  1  0.690422  0.328832  0.045395  1
  Si  Si23  1  0.310955  0.673502  0.541908  1
  Si  Si24  1  0.810555  0.828890  0.206001  1
  Si  Si25  1  0.170414  0.190121  0.295068  1
  Si  Si26  1  0.832468  0.809613  0.795912  1
  Si  Si27  1  0.286751  0.923074  0.064366  1
  Si  Si28  1  0.577217  0.788994  0.313410  1
  Si  Si29  1  0.433513  0.211645  0.817199  1
  Si  Si30  1  0.789396  0.575509  0.688924  1
  Si  Si31  1  0.213369  0.421348  0.186737  1
  Si  Si32  1  0.710990  0.079747  0.563595  1
  Si  Si33  1  0.923493  0.287322  0.937416  1
  Si  Si34  1  0.078658  0.714274  0.434088  1
  Sn  Sn35  1  0.191343  0.164471  0.693734  1
