# generated using pymatgen
data_Hf20Si15Se
_symmetry_space_group_name_H-M   'P 1'
_cell_length_a   7.09571429
_cell_length_b   7.07086349
_cell_length_c   12.88850898
_cell_angle_alpha   90.01261505
_cell_angle_beta   89.52392773
_cell_angle_gamma   89.71167530
_symmetry_Int_Tables_number   1
_chemical_formula_structural   Hf20Si15Se
_chemical_formula_sum   'Hf20 Si15 Se1'
_cell_volume   646.62240066
_cell_formula_units_Z   1
loop_
 _symmetry_equiv_pos_site_id
 _symmetry_equiv_pos_as_xyz
  1  'x, y, z'
loop_
 _atom_site_type_symbol
 _atom_site_label
 _atom_site_symmetry_multiplicity
 _atom_site_fract_x
 _atom_site_fract_y
 _atom_site_fract_z
 _atom_site_occupancy
  Hf  Hf0  1  0.674963  0.325318  0.750187  1
  Hf  Hf1  1  0.326764  0.673623  0.250365  1
  Hf  Hf2  1  0.824315  0.825144  0.500104  1
  Hf  Hf3  1  0.177394  0.176888  0.999674  1
  Hf  Hf4  1  0.498449  0.150023  0.533114  1
  Hf  Hf5  1  0.495455  0.840113  0.028634  1
  Hf  Hf6  1  0.651387  0.997412  0.287490  1
  Hf  Hf7  1  0.340147  0.994450  0.779653  1
  Hf  Hf8  1  0.849794  0.508901  0.966696  1
  Hf  Hf9  1  0.154406  0.496600  0.467288  1
  Hf  Hf10  1  0.999355  0.653360  0.717210  1
  Hf  Hf11  1  0.010590  0.353108  0.221825  1
  Hf  Hf12  1  0.500662  0.351590  0.124818  1
  Hf  Hf13  1  0.500775  0.646797  0.627353  1
  Hf  Hf14  1  0.847499  0.003398  0.877952  1
  Hf  Hf15  1  0.148274  0.999456  0.376498  1
  Hf  Hf16  1  0.650129  0.499525  0.372476  1
  Hf  Hf17  1  0.348905  0.501155  0.871821  1
  Hf  Hf18  1  0.004360  0.851955  0.125509  1
  Hf  Hf19  1  0.997782  0.145629  0.623624  1
  Si  Si20  1  0.203543  0.854087  0.573259  1
  Si  Si21  1  0.643919  0.703989  0.823238  1
  Si  Si22  1  0.359405  0.294325  0.323672  1
  Si  Si23  1  0.854863  0.203424  0.427582  1
  Si  Si24  1  0.141211  0.797718  0.926278  1
  Si  Si25  1  0.703756  0.647648  0.176110  1
  Si  Si26  1  0.293226  0.354886  0.674874  1
  Si  Si27  1  0.532603  0.193194  0.927912  1
  Si  Si28  1  0.450843  0.798131  0.437361  1
  Si  Si29  1  0.696084  0.952478  0.686860  1
  Si  Si30  1  0.305427  0.046958  0.186086  1
  Si  Si31  1  0.802185  0.452381  0.563673  1
  Si  Si32  1  0.201100  0.550362  0.063764  1
  Si  Si33  1  0.952832  0.699102  0.315072  1
  Si  Si34  1  0.046532  0.301610  0.813042  1
  Se  Se35  1  0.811065  0.155258  0.078925  1
