# generated using pymatgen
data_GaAgBr4
_symmetry_space_group_name_H-M   'P 1'
_cell_length_a   7.33690800
_cell_length_b   7.70197278
_cell_length_c   14.58128269
_cell_angle_alpha   87.68187461
_cell_angle_beta   90.00000000
_cell_angle_gamma   90.00000000
_symmetry_Int_Tables_number   1
_chemical_formula_structural   GaAgBr4
_chemical_formula_sum   'Ga4 Ag4 Br16'
_cell_volume   823.29453352
_cell_formula_units_Z   4
loop_
 _symmetry_equiv_pos_site_id
 _symmetry_equiv_pos_as_xyz
  1  'x, y, z'
loop_
 _atom_site_type_symbol
 _atom_site_label
 _atom_site_symmetry_multiplicity
 _atom_site_fract_x
 _atom_site_fract_y
 _atom_site_fract_z
 _atom_site_occupancy
  Ga  Ga0  1  0.175612  0.705636  0.599890  1
  Ga  Ga1  1  0.824388  0.294364  0.400110  1
  Ga  Ga2  1  0.675612  0.294364  0.900110  1
  Ga  Ga3  1  0.324388  0.705636  0.099890  1
  Ag  Ag4  1  0.484713  0.845864  0.866158  1
  Ag  Ag5  1  0.515287  0.154136  0.133842  1
  Ag  Ag6  1  0.984713  0.154136  0.633842  1
  Ag  Ag7  1  0.015287  0.845864  0.366158  1
  Br  Br8  1  0.189461  0.442756  0.688191  1
  Br  Br9  1  0.810539  0.557244  0.311809  1
  Br  Br10  1  0.689461  0.557244  0.811809  1
  Br  Br11  1  0.310539  0.442756  0.188191  1
  Br  Br12  1  0.316926  0.929056  0.685232  1
  Br  Br13  1  0.683074  0.070944  0.314768  1
  Br  Br14  1  0.816926  0.070944  0.814768  1
  Br  Br15  1  0.183074  0.929056  0.185232  1
  Br  Br16  1  0.179459  0.691474  0.955842  1
  Br  Br17  1  0.820541  0.308526  0.044158  1
  Br  Br18  1  0.679459  0.308526  0.544158  1
  Br  Br19  1  0.320541  0.691474  0.455842  1
  Br  Br20  1  0.873378  0.809569  0.573623  1
  Br  Br21  1  0.126622  0.190431  0.426377  1
  Br  Br22  1  0.373378  0.190431  0.926377  1
  Br  Br23  1  0.626622  0.809569  0.073623  1
