# generated using pymatgen
data_Nd12NiIr3
_symmetry_space_group_name_H-M   'P 1'
_cell_length_a   6.54285112
_cell_length_b   7.32990387
_cell_length_c   9.92542900
_cell_angle_alpha   90.00000000
_cell_angle_beta   90.00000000
_cell_angle_gamma   90.10896381
_symmetry_Int_Tables_number   1
_chemical_formula_structural   Nd12NiIr3
_chemical_formula_sum   'Nd12 Ni1 Ir3'
_cell_volume   476.00752570
_cell_formula_units_Z   1
loop_
 _symmetry_equiv_pos_site_id
 _symmetry_equiv_pos_as_xyz
  1  'x, y, z'
loop_
 _atom_site_type_symbol
 _atom_site_label
 _atom_site_symmetry_multiplicity
 _atom_site_fract_x
 _atom_site_fract_y
 _atom_site_fract_z
 _atom_site_occupancy
  Nd  Nd0  1  0.329539  0.675875  0.066863  1
  Nd  Nd1  1  0.168977  0.173519  0.433400  1
  Nd  Nd2  1  0.671841  0.325894  0.564281  1
  Nd  Nd3  1  0.828772  0.823705  0.933075  1
  Nd  Nd4  1  0.671841  0.325894  0.935719  1
  Nd  Nd5  1  0.828772  0.823705  0.566925  1
  Nd  Nd6  1  0.329539  0.675875  0.433137  1
  Nd  Nd7  1  0.168977  0.173519  0.066600  1
  Nd  Nd8  1  0.860279  0.533943  0.250000  1
  Nd  Nd9  1  0.639096  0.034002  0.250000  1
  Nd  Nd10  1  0.139430  0.464617  0.750000  1
  Nd  Nd11  1  0.360357  0.967171  0.750000  1
  Ni  Ni12  1  0.070725  0.884340  0.250000  1
  Ir  Ir13  1  0.437631  0.382157  0.250000  1
  Ir  Ir14  1  0.933863  0.117912  0.750000  1
  Ir  Ir15  1  0.560360  0.617869  0.750000  1
