# generated using pymatgen
data_La18TbDyGa12
_symmetry_space_group_name_H-M   'P 1'
_cell_length_a   7.96074600
_cell_length_b   7.96074600
_cell_length_c   15.00872700
_cell_angle_alpha   90.00000000
_cell_angle_beta   90.00000000
_cell_angle_gamma   90.00000000
_symmetry_Int_Tables_number   1
_chemical_formula_structural   La18TbDyGa12
_chemical_formula_sum   'La18 Tb1 Dy1 Ga12'
_cell_volume   951.15521348
_cell_formula_units_Z   1
loop_
 _symmetry_equiv_pos_site_id
 _symmetry_equiv_pos_as_xyz
  1  'x, y, z'
loop_
 _atom_site_type_symbol
 _atom_site_label
 _atom_site_symmetry_multiplicity
 _atom_site_fract_x
 _atom_site_fract_y
 _atom_site_fract_z
 _atom_site_occupancy
  La  La0  1  0.338962  0.311630  0.103514  1
  La  La1  1  0.838489  0.812385  0.896681  1
  La  La2  1  0.840274  0.184622  0.395553  1
  La  La3  1  0.161511  0.187615  0.896681  1
  La  La4  1  0.661038  0.688370  0.103514  1
  La  La5  1  0.000000  0.500000  0.709316  1
  La  La6  1  0.815930  0.840234  0.604201  1
  La  La7  1  0.315378  0.340274  0.395553  1
  La  La8  1  0.188370  0.838962  0.103514  1
  La  La9  1  0.184070  0.159766  0.604201  1
  La  La10  1  0.811630  0.161038  0.103514  1
  La  La11  1  0.340234  0.684070  0.604201  1
  La  La12  1  0.500000  0.000000  0.291750  1
  La  La13  1  0.687615  0.338489  0.896681  1
  La  La14  1  0.659766  0.315930  0.604201  1
  La  La15  1  0.312385  0.661511  0.896681  1
  La  La16  1  0.159726  0.815378  0.395553  1
  La  La17  1  0.684622  0.659726  0.395553  1
  Tb  Tb18  1  0.000000  0.500000  0.220676  1
  Dy  Dy19  1  0.500000  0.000000  0.777516  1
  Ga  Ga20  1  0.622826  0.383857  0.248317  1
  Ga  Ga21  1  0.876773  0.116771  0.752093  1
  Ga  Ga22  1  0.500000  0.000000  0.498120  1
  Ga  Ga23  1  0.883857  0.877174  0.248317  1
  Ga  Ga24  1  0.000000  0.500000  0.015707  1
  Ga  Ga25  1  0.123227  0.883229  0.752093  1
  Ga  Ga26  1  0.383229  0.376773  0.752093  1
  Ga  Ga27  1  0.116143  0.122826  0.248317  1
  Ga  Ga28  1  0.377174  0.616143  0.248317  1
  Ga  Ga29  1  0.616771  0.623227  0.752093  1
  Ga  Ga30  1  0.500000  0.000000  0.983236  1
  Ga  Ga31  1  0.000000  0.500000  0.502240  1
