# generated using pymatgen
data_Lu4Tc3RuF28
_symmetry_space_group_name_H-M   'P 1'
_cell_length_a   5.48005839
_cell_length_b   8.76634096
_cell_length_c   11.82764257
_cell_angle_alpha   62.92858711
_cell_angle_beta   89.98848658
_cell_angle_gamma   89.95725656
_symmetry_Int_Tables_number   1
_chemical_formula_structural   Lu4Tc3RuF28
_chemical_formula_sum   'Lu4 Tc3 Ru1 F28'
_cell_volume   505.94844160
_cell_formula_units_Z   1
loop_
 _symmetry_equiv_pos_site_id
 _symmetry_equiv_pos_as_xyz
  1  'x, y, z'
loop_
 _atom_site_type_symbol
 _atom_site_label
 _atom_site_symmetry_multiplicity
 _atom_site_fract_x
 _atom_site_fract_y
 _atom_site_fract_z
 _atom_site_occupancy
  Lu  Lu0  1  0.258547  0.814696  0.266459  1
  Lu  Lu1  1  0.741034  0.181411  0.736502  1
  Lu  Lu2  1  0.759234  0.186143  0.233671  1
  Lu  Lu3  1  0.240834  0.814365  0.763173  1
  Tc  Tc4  1  0.758133  0.726647  0.043510  1
  Tc  Tc5  1  0.242137  0.273068  0.956419  1
  Tc  Tc6  1  0.258069  0.273349  0.456971  1
  Ru  Ru7  1  0.741779  0.726891  0.543581  1
  F  F8  1  0.943457  0.707136  0.413801  1
  F  F9  1  0.053712  0.293179  0.584925  1
  F  F10  1  0.445172  0.293378  0.084544  1
  F  F11  1  0.554297  0.706892  0.915534  1
  F  F12  1  0.469732  0.729676  0.140554  1
  F  F13  1  0.531107  0.271251  0.858695  1
  F  F14  1  0.968714  0.268697  0.360440  1
  F  F15  1  0.032414  0.728996  0.640367  1
  F  F16  1  0.958243  0.746670  0.174455  1
  F  F17  1  0.041772  0.253893  0.824769  1
  F  F18  1  0.458851  0.251912  0.326088  1
  F  F19  1  0.543813  0.747621  0.675805  1
  F  F20  1  0.772864  0.476457  0.142033  1
  F  F21  1  0.227351  0.522964  0.858303  1
  F  F22  1  0.272222  0.522788  0.357922  1
  F  F23  1  0.729318  0.483072  0.639311  1
  F  F24  1  0.941051  0.277171  0.047045  1
  F  F25  1  0.058370  0.723228  0.952029  1
  F  F26  1  0.441741  0.723718  0.451457  1
  F  F27  1  0.558570  0.277411  0.548251  1
  F  F28  1  0.740899  0.969920  0.450461  1
  F  F29  1  0.258651  0.024272  0.553454  1
  F  F30  1  0.241446  0.024389  0.053385  1
  F  F31  1  0.758564  0.976193  0.946301  1
  F  F32  1  0.580167  0.973419  0.231785  1
  F  F33  1  0.418785  0.027958  0.768033  1
  F  F34  1  0.079452  0.029407  0.268118  1
  F  F35  1  0.919497  0.971761  0.731848  1
