# generated using pymatgen
data_Li4Tb4Pt3Au
_symmetry_space_group_name_H-M   'P 1'
_cell_length_a   4.01207400
_cell_length_b   7.09905342
_cell_length_c   8.41800000
_cell_angle_alpha   90.54182401
_cell_angle_beta   90.00000000
_cell_angle_gamma   90.00000000
_symmetry_Int_Tables_number   1
_chemical_formula_structural   Li4Tb4Pt3Au
_chemical_formula_sum   'Li4 Tb4 Pt3 Au1'
_cell_volume   239.75014654
_cell_formula_units_Z   1
loop_
 _symmetry_equiv_pos_site_id
 _symmetry_equiv_pos_as_xyz
  1  'x, y, z'
loop_
 _atom_site_type_symbol
 _atom_site_label
 _atom_site_symmetry_multiplicity
 _atom_site_fract_x
 _atom_site_fract_y
 _atom_site_fract_z
 _atom_site_occupancy
  Li  Li0  1  0.750000  0.625575  0.438607  1
  Li  Li1  1  0.250000  0.370365  0.559401  1
  Li  Li2  1  0.750000  0.126432  0.057652  1
  Li  Li3  1  0.250000  0.873639  0.942886  1
  Tb  Tb4  1  0.750000  0.539817  0.825681  1
  Tb  Tb5  1  0.250000  0.958595  0.308439  1
  Tb  Tb6  1  0.250000  0.452976  0.185604  1
  Tb  Tb7  1  0.750000  0.058991  0.683623  1
  Pt  Pt8  1  0.250000  0.253906  0.876824  1
  Pt  Pt9  1  0.750000  0.744961  0.123188  1
  Pt  Pt10  1  0.750000  0.245261  0.378751  1
  Au  Au11  1  0.250000  0.749482  0.619342  1
