# generated using pymatgen
data_TbHo4RuPb3
_symmetry_space_group_name_H-M   'P 1'
_cell_length_a   9.31178800
_cell_length_b   9.31178803
_cell_length_c   6.56637100
_cell_angle_alpha   90.00000000
_cell_angle_beta   90.00000000
_cell_angle_gamma   119.99999989
_symmetry_Int_Tables_number   1
_chemical_formula_structural   TbHo4RuPb3
_chemical_formula_sum   'Tb2 Ho8 Ru2 Pb6'
_cell_volume   493.08547579
_cell_formula_units_Z   2
loop_
 _symmetry_equiv_pos_site_id
 _symmetry_equiv_pos_as_xyz
  1  'x, y, z'
loop_
 _atom_site_type_symbol
 _atom_site_label
 _atom_site_symmetry_multiplicity
 _atom_site_fract_x
 _atom_site_fract_y
 _atom_site_fract_z
 _atom_site_occupancy
  Tb  Tb0  1  0.333333  0.666667  0.500000  1
  Tb  Tb1  1  0.666667  0.333333  0.500000  1
  Ho  Ho2  1  0.000000  0.764055  0.750084  1
  Ho  Ho3  1  0.764055  0.764055  0.249916  1
  Ho  Ho4  1  0.764055  0.000000  0.750084  1
  Ho  Ho5  1  0.235945  0.000000  0.249916  1
  Ho  Ho6  1  0.235945  0.235945  0.750084  1
  Ho  Ho7  1  0.333333  0.666667  0.000000  1
  Ho  Ho8  1  0.000000  0.235945  0.249916  1
  Ho  Ho9  1  0.666667  0.333333  0.000000  1
  Ru  Ru10  1  0.000000  0.000000  0.000000  1
  Ru  Ru11  1  0.000000  0.000000  0.500000  1
  Pb  Pb12  1  0.402272  0.402272  0.249283  1
  Pb  Pb13  1  0.597728  0.597728  0.750717  1
  Pb  Pb14  1  0.597728  0.000000  0.249283  1
  Pb  Pb15  1  0.402272  0.000000  0.750717  1
  Pb  Pb16  1  0.000000  0.597728  0.249283  1
  Pb  Pb17  1  0.000000  0.402272  0.750717  1
