# generated using pymatgen
data_CdAgRh2F12
_symmetry_space_group_name_H-M   'P 1'
_cell_length_a   5.27035656
_cell_length_b   5.30715265
_cell_length_c   10.29189500
_cell_angle_alpha   75.56465497
_cell_angle_beta   75.18876913
_cell_angle_gamma   59.79088953
_symmetry_Int_Tables_number   1
_chemical_formula_structural   CdAgRh2F12
_chemical_formula_sum   'Cd1 Ag1 Rh2 F12'
_cell_volume   237.98855060
_cell_formula_units_Z   1
loop_
 _symmetry_equiv_pos_site_id
 _symmetry_equiv_pos_as_xyz
  1  'x, y, z'
loop_
 _atom_site_type_symbol
 _atom_site_label
 _atom_site_symmetry_multiplicity
 _atom_site_fract_x
 _atom_site_fract_y
 _atom_site_fract_z
 _atom_site_occupancy
  Cd  Cd0  1  0.500000  0.500000  0.500000  1
  Ag  Ag1  1  0.000000  0.000000  0.000000  1
  Rh  Rh2  1  0.742153  0.755819  0.750726  1
  Rh  Rh3  1  0.257847  0.244181  0.249274  1
  F  F4  1  0.485837  0.789066  0.632972  1
  F  F5  1  0.514163  0.210934  0.367028  1
  F  F6  1  0.776136  0.093172  0.634526  1
  F  F7  1  0.223864  0.906828  0.365474  1
  F  F8  1  0.704887  0.421946  0.861784  1
  F  F9  1  0.295113  0.578054  0.138216  1
  F  F10  1  0.005502  0.718197  0.862918  1
  F  F11  1  0.994498  0.281803  0.137082  1
  F  F12  1  0.597422  0.979384  0.137041  1
  F  F13  1  0.402578  0.020616  0.862959  1
  F  F14  1  0.916449  0.498393  0.368282  1
  F  F15  1  0.083551  0.501607  0.631718  1
