# generated using pymatgen
data_BaTl4Pt
_symmetry_space_group_name_H-M   'P 1'
_cell_length_a   9.45275548
_cell_length_b   9.45275312
_cell_length_c   7.68990700
_cell_angle_alpha   90.00000000
_cell_angle_beta   90.00000000
_cell_angle_gamma   149.41472362
_symmetry_Int_Tables_number   1
_chemical_formula_structural   BaTl4Pt
_chemical_formula_sum   'Ba2 Tl8 Pt2'
_cell_volume   349.62475851
_cell_formula_units_Z   2
loop_
 _symmetry_equiv_pos_site_id
 _symmetry_equiv_pos_as_xyz
  1  'x, y, z'
loop_
 _atom_site_type_symbol
 _atom_site_label
 _atom_site_symmetry_multiplicity
 _atom_site_fract_x
 _atom_site_fract_y
 _atom_site_fract_z
 _atom_site_occupancy
  Ba  Ba0  1  0.373049  0.626950  0.250000  1
  Ba  Ba1  1  0.626950  0.373049  0.750000  1
  Tl  Tl2  1  0.000000  0.000000  0.000000  1
  Tl  Tl3  1  0.183963  0.816036  0.049199  1
  Tl  Tl4  1  0.571608  0.428392  0.250000  1
  Tl  Tl5  1  0.183963  0.816036  0.450801  1
  Tl  Tl6  1  0.000000  0.000000  0.500000  1
  Tl  Tl7  1  0.816036  0.183963  0.549199  1
  Tl  Tl8  1  0.428392  0.571608  0.750000  1
  Tl  Tl9  1  0.816036  0.183963  0.950800  1
  Pt  Pt10  1  0.724757  0.275243  0.250000  1
  Pt  Pt11  1  0.275243  0.724757  0.750000  1
