# generated using pymatgen
data_Tm20Ir8PtRh3
_symmetry_space_group_name_H-M   'P 1'
_cell_length_a   10.74759318
_cell_length_b   10.74556820
_cell_length_c   6.31421203
_cell_angle_alpha   90.00897862
_cell_angle_beta   90.00503878
_cell_angle_gamma   89.85029023
_symmetry_Int_Tables_number   1
_chemical_formula_structural   Tm20Ir8PtRh3
_chemical_formula_sum   'Tm20 Ir8 Pt1 Rh3'
_cell_volume   729.21950353
_cell_formula_units_Z   1
loop_
 _symmetry_equiv_pos_site_id
 _symmetry_equiv_pos_as_xyz
  1  'x, y, z'
loop_
 _atom_site_type_symbol
 _atom_site_label
 _atom_site_symmetry_multiplicity
 _atom_site_fract_x
 _atom_site_fract_y
 _atom_site_fract_z
 _atom_site_occupancy
  Tm  Tm0  1  0.290253  0.088011  0.377813  1
  Tm  Tm1  1  0.291288  0.911220  0.876983  1
  Tm  Tm2  1  0.707254  0.086989  0.873468  1
  Tm  Tm3  1  0.707858  0.908605  0.379437  1
  Tm  Tm4  1  0.588306  0.790375  0.878310  1
  Tm  Tm5  1  0.584354  0.209662  0.378233  1
  Tm  Tm6  1  0.411520  0.790567  0.378296  1
  Tm  Tm7  1  0.410954  0.209499  0.878054  1
  Tm  Tm8  1  0.208916  0.412046  0.620269  1
  Tm  Tm9  1  0.209227  0.588875  0.122958  1
  Tm  Tm10  1  0.790565  0.415194  0.122973  1
  Tm  Tm11  1  0.791178  0.588677  0.620521  1
  Tm  Tm12  1  0.911613  0.709509  0.123345  1
  Tm  Tm13  1  0.913400  0.293405  0.624805  1
  Tm  Tm14  1  0.088439  0.708050  0.621571  1
  Tm  Tm15  1  0.091652  0.292381  0.121782  1
  Tm  Tm16  1  0.001266  0.998307  0.500965  1
  Tm  Tm17  1  0.001720  0.998738  0.999329  1
  Tm  Tm18  1  0.499733  0.499958  0.999858  1
  Tm  Tm19  1  0.500003  0.500306  0.500684  1
  Ir  Ir20  1  0.845718  0.847451  0.750055  1
  Ir  Ir21  1  0.153138  0.153738  0.749967  1
  Ir  Ir22  1  0.154852  0.846342  0.249840  1
  Ir  Ir23  1  0.654949  0.344530  0.749998  1
  Ir  Ir24  1  0.653378  0.654171  0.249663  1
  Ir  Ir25  1  0.346984  0.345471  0.250265  1
  Ir  Ir26  1  0.346035  0.654490  0.750085  1
  Ir  Ir27  1  0.999781  0.499523  0.374158  1
  Pt  Pt28  1  0.845081  0.153813  0.249874  1
  Rh  Rh29  1  0.500493  0.000171  0.125470  1
  Rh  Rh30  1  0.500479  0.000392  0.624229  1
  Rh  Rh31  1  0.999614  0.499534  0.876740  1
