# generated using pymatgen
data_CaLa4Ge3H
_symmetry_space_group_name_H-M   'P 1'
_cell_length_a   9.17270159
_cell_length_b   9.17270154
_cell_length_c   9.17270196
_cell_angle_alpha   128.52880357
_cell_angle_beta   128.52880709
_cell_angle_gamma   75.76993766
_symmetry_Int_Tables_number   1
_chemical_formula_structural   CaLa4Ge3H
_chemical_formula_sum   'Ca2 La8 Ge6 H2'
_cell_volume   459.38950154
_cell_formula_units_Z   2
loop_
 _symmetry_equiv_pos_site_id
 _symmetry_equiv_pos_as_xyz
  1  'x, y, z'
loop_
 _atom_site_type_symbol
 _atom_site_label
 _atom_site_symmetry_multiplicity
 _atom_site_fract_x
 _atom_site_fract_y
 _atom_site_fract_z
 _atom_site_occupancy
  Ca  Ca0  1  0.500000  0.500000  0.000000  1
  Ca  Ca1  1  0.000000  0.000000  0.000000  1
  La  La2  1  0.522913  0.022913  0.843967  1
  La  La3  1  0.178947  0.678947  0.156033  1
  La  La4  1  0.022913  0.178947  0.500000  1
  La  La5  1  0.678947  0.522913  0.500000  1
  La  La6  1  0.477087  0.977087  0.156033  1
  La  La7  1  0.821053  0.321053  0.843967  1
  La  La8  1  0.977087  0.821053  0.500000  1
  La  La9  1  0.321053  0.477087  0.500000  1
  Ge  Ge10  1  0.250000  0.250000  0.000000  1
  Ge  Ge11  1  0.750000  0.750000  0.000000  1
  Ge  Ge12  1  0.879299  0.379299  0.258599  1
  Ge  Ge13  1  0.120701  0.620701  0.741401  1
  Ge  Ge14  1  0.379299  0.120701  0.500000  1
  Ge  Ge15  1  0.620701  0.879299  0.500000  1
  H  H16  1  0.250000  0.750000  0.500000  1
  H  H17  1  0.750000  0.250000  0.500000  1
