# generated using pymatgen
data_Hf3Ta2AlSi2N
_symmetry_space_group_name_H-M   'P 1'
_cell_length_a   7.80538300
_cell_length_b   7.81210114
_cell_length_c   5.41768400
_cell_angle_alpha   90.00000000
_cell_angle_beta   90.00000000
_cell_angle_gamma   119.97156088
_symmetry_Int_Tables_number   1
_chemical_formula_structural   Hf3Ta2AlSi2N
_chemical_formula_sum   'Hf6 Ta4 Al2 Si4 N2'
_cell_volume   286.17438761
_cell_formula_units_Z   2
loop_
 _symmetry_equiv_pos_site_id
 _symmetry_equiv_pos_as_xyz
  1  'x, y, z'
loop_
 _atom_site_type_symbol
 _atom_site_label
 _atom_site_symmetry_multiplicity
 _atom_site_fract_x
 _atom_site_fract_y
 _atom_site_fract_z
 _atom_site_occupancy
  Hf  Hf0  1  0.236468  0.000000  0.250000  1
  Hf  Hf1  1  0.000129  0.234939  0.250000  1
  Hf  Hf2  1  0.765190  0.765061  0.250000  1
  Hf  Hf3  1  0.763891  0.000000  0.750000  1
  Hf  Hf4  1  0.003194  0.767513  0.750000  1
  Hf  Hf5  1  0.235682  0.232487  0.750000  1
  Ta  Ta6  1  0.662699  0.328653  0.001269  1
  Ta  Ta7  1  0.334045  0.671347  0.001269  1
  Ta  Ta8  1  0.662699  0.328653  0.498731  1
  Ta  Ta9  1  0.334045  0.671347  0.498731  1
  Al  Al10  1  0.000110  0.409710  0.750000  1
  Al  Al11  1  0.590401  0.590290  0.750000  1
  Si  Si12  1  0.593441  0.000000  0.250000  1
  Si  Si13  1  0.998101  0.588190  0.250000  1
  Si  Si14  1  0.409911  0.411810  0.250000  1
  Si  Si15  1  0.408067  0.000000  0.750000  1
  N  N16  1  0.000962  0.000000  0.000508  1
  N  N17  1  0.000962  0.000000  0.499492  1
