# generated using pymatgen
data_Zr10Sn4Sb3
_symmetry_space_group_name_H-M   'P 1'
_cell_length_a   5.92699589
_cell_length_b   8.68747265
_cell_length_c   8.68270131
_cell_angle_alpha   119.98229988
_cell_angle_beta   89.88045003
_cell_angle_gamma   90.06009425
_symmetry_Int_Tables_number   1
_chemical_formula_structural   Zr10Sn4Sb3
_chemical_formula_sum   'Zr10 Sn4 Sb3'
_cell_volume   387.24877845
_cell_formula_units_Z   1
loop_
 _symmetry_equiv_pos_site_id
 _symmetry_equiv_pos_as_xyz
  1  'x, y, z'
loop_
 _atom_site_type_symbol
 _atom_site_label
 _atom_site_symmetry_multiplicity
 _atom_site_fract_x
 _atom_site_fract_y
 _atom_site_fract_z
 _atom_site_occupancy
  Zr  Zr0  1  0.500087  0.334906  0.666845  1
  Zr  Zr1  1  0.500089  0.665093  0.331940  1
  Zr  Zr2  1  0.001288  0.665635  0.332616  1
  Zr  Zr3  1  0.001291  0.334371  0.666985  1
  Zr  Zr4  1  0.771586  0.267044  0.000677  1
  Zr  Zr5  1  0.771580  0.732956  0.733641  1
  Zr  Zr6  1  0.771257  0.999992  0.265259  1
  Zr  Zr7  1  0.228779  0.732507  0.000234  1
  Zr  Zr8  1  0.228783  0.267489  0.267718  1
  Zr  Zr9  1  0.226265  0.000007  0.733569  1
  Sn  Sn10  1  0.744142  0.000002  0.611372  1
  Sn  Sn11  1  0.254888  0.386028  0.998986  1
  Sn  Sn12  1  0.254886  0.613979  0.612964  1
  Sn  Sn13  1  0.253972  0.000000  0.388944  1
  Sb  Sb14  1  0.746568  0.611268  0.000196  1
  Sb  Sb15  1  0.746567  0.388723  0.388918  1
  Sb  Sb16  1  0.497971  0.000002  0.999136  1
