# generated using pymatgen
data_Nd2ThSn2Rh3Pb
_symmetry_space_group_name_H-M   'P 1'
_cell_length_a   7.67609525
_cell_length_b   7.75006455
_cell_length_c   4.03580200
_cell_angle_alpha   90.00000000
_cell_angle_beta   90.00000000
_cell_angle_gamma   120.14703434
_symmetry_Int_Tables_number   1
_chemical_formula_structural   Nd2ThSn2Rh3Pb
_chemical_formula_sum   'Nd2 Th1 Sn2 Rh3 Pb1'
_cell_volume   207.61598659
_cell_formula_units_Z   1
loop_
 _symmetry_equiv_pos_site_id
 _symmetry_equiv_pos_as_xyz
  1  'x, y, z'
loop_
 _atom_site_type_symbol
 _atom_site_label
 _atom_site_symmetry_multiplicity
 _atom_site_fract_x
 _atom_site_fract_y
 _atom_site_fract_z
 _atom_site_occupancy
  Nd  Nd0  1  0.405791  0.406561  0.000000  1
  Nd  Nd1  1  0.592323  0.006298  0.000000  1
  Th  Th2  1  0.001315  0.585118  0.000000  1
  Sn  Sn3  1  0.001166  0.244573  0.500000  1
  Sn  Sn4  1  0.263598  0.008354  0.500000  1
  Rh  Rh5  1  0.012038  0.998407  0.000000  1
  Rh  Rh6  1  0.688325  0.344673  0.500000  1
  Rh  Rh7  1  0.300846  0.661135  0.500000  1
  Pb  Pb8  1  0.734599  0.744880  0.500000  1
