# generated using pymatgen
data_Y4AlSi2Pd27
_symmetry_space_group_name_H-M   'P 1'
_cell_length_a   8.89852608
_cell_length_b   8.89852608
_cell_length_c   7.09110773
_cell_angle_alpha   90.35230709
_cell_angle_beta   90.35230709
_cell_angle_gamma   89.22970793
_symmetry_Int_Tables_number   1
_chemical_formula_structural   Y4AlSi2Pd27
_chemical_formula_sum   'Y4 Al1 Si2 Pd27'
_cell_volume   561.42892809
_cell_formula_units_Z   1
loop_
 _symmetry_equiv_pos_site_id
 _symmetry_equiv_pos_as_xyz
  1  'x, y, z'
loop_
 _atom_site_type_symbol
 _atom_site_label
 _atom_site_symmetry_multiplicity
 _atom_site_fract_x
 _atom_site_fract_y
 _atom_site_fract_z
 _atom_site_occupancy
  Y  Y0  1  0.511121  0.011121  0.929714  1
  Y  Y1  1  0.988879  0.488879  0.070286  1
  Y  Y2  1  0.004360  0.995640  0.500000  1
  Y  Y3  1  0.495640  0.504360  0.500000  1
  Al  Al4  1  0.250000  0.750000  0.000000  1
  Si  Si5  1  0.502879  0.002879  0.444365  1
  Si  Si6  1  0.997121  0.497121  0.555635  1
  Pd  Pd7  1  0.337269  0.837269  0.606833  1
  Pd  Pd8  1  0.332818  0.165830  0.618673  1
  Pd  Pd9  1  0.665830  0.832818  0.618673  1
  Pd  Pd10  1  0.666558  0.166558  0.615002  1
  Pd  Pd11  1  0.162731  0.662731  0.393167  1
  Pd  Pd12  1  0.167182  0.334170  0.381327  1
  Pd  Pd13  1  0.834170  0.667182  0.381327  1
  Pd  Pd14  1  0.833442  0.333442  0.384998  1
  Pd  Pd15  1  0.498968  0.772058  0.250692  1
  Pd  Pd16  1  0.497451  0.233293  0.256657  1
  Pd  Pd17  1  0.272058  0.998968  0.250692  1
  Pd  Pd18  1  0.733293  0.997451  0.256657  1
  Pd  Pd19  1  0.001032  0.727942  0.749308  1
  Pd  Pd20  1  0.002549  0.266707  0.743343  1
  Pd  Pd21  1  0.227942  0.501032  0.749308  1
  Pd  Pd22  1  0.766707  0.502549  0.743343  1
  Pd  Pd23  1  0.498638  0.355423  0.851701  1
  Pd  Pd24  1  0.489546  0.664205  0.863287  1
  Pd  Pd25  1  0.855423  0.998638  0.851701  1
  Pd  Pd26  1  0.164205  0.989546  0.863287  1
  Pd  Pd27  1  0.001362  0.144577  0.148299  1
  Pd  Pd28  1  0.010454  0.835795  0.136713  1
  Pd  Pd29  1  0.644577  0.501362  0.148299  1
  Pd  Pd30  1  0.335795  0.510454  0.136713  1
  Pd  Pd31  1  0.250000  0.250000  0.000000  1
  Pd  Pd32  1  0.750000  0.750000  0.000000  1
  Pd  Pd33  1  0.750000  0.250000  0.000000  1
