# generated using pymatgen
data_MoIr3Rh3W
_symmetry_space_group_name_H-M   'P 1'
_cell_length_a   5.53404815
_cell_length_b   5.53404924
_cell_length_c   4.40682400
_cell_angle_alpha   90.00000000
_cell_angle_beta   90.00000000
_cell_angle_gamma   119.97338359
_symmetry_Int_Tables_number   1
_chemical_formula_structural   MoIr3Rh3W
_chemical_formula_sum   'Mo1 Ir3 Rh3 W1'
_cell_volume   116.91189694
_cell_formula_units_Z   1
loop_
 _symmetry_equiv_pos_site_id
 _symmetry_equiv_pos_as_xyz
  1  'x, y, z'
loop_
 _atom_site_type_symbol
 _atom_site_label
 _atom_site_symmetry_multiplicity
 _atom_site_fract_x
 _atom_site_fract_y
 _atom_site_fract_z
 _atom_site_occupancy
  Mo  Mo0  1  0.667333  0.332667  0.750000  1
  Ir  Ir1  1  0.833702  0.667245  0.250000  1
  Ir  Ir2  1  0.165675  0.834325  0.750000  1
  Ir  Ir3  1  0.332755  0.166298  0.250000  1
  Rh  Rh4  1  0.667108  0.833406  0.750000  1
  Rh  Rh5  1  0.833010  0.166990  0.250000  1
  Rh  Rh6  1  0.166594  0.332892  0.750000  1
  W  W7  1  0.333821  0.666179  0.250000  1
