# generated using pymatgen
data_Dy2Fe3P7(IrRu2)3
_symmetry_space_group_name_H-M   'P 1'
_cell_length_a   9.31680751
_cell_length_b   9.32387873
_cell_length_c   3.86215900
_cell_angle_alpha   90.00000000
_cell_angle_beta   90.00000000
_cell_angle_gamma   120.04030283
_symmetry_Int_Tables_number   1
_chemical_formula_structural   Dy2Fe3P7(IrRu2)3
_chemical_formula_sum   'Dy2 Fe3 P7 Ir3 Ru6'
_cell_volume   290.43436508
_cell_formula_units_Z   1
loop_
 _symmetry_equiv_pos_site_id
 _symmetry_equiv_pos_as_xyz
  1  'x, y, z'
loop_
 _atom_site_type_symbol
 _atom_site_label
 _atom_site_symmetry_multiplicity
 _atom_site_fract_x
 _atom_site_fract_y
 _atom_site_fract_z
 _atom_site_occupancy
  Dy  Dy0  1  0.335186  0.668383  0.000000  1
  Dy  Dy1  1  0.000162  0.999823  0.500000  1
  Fe  Fe2  1  0.934681  0.492558  0.000000  1
  Fe  Fe3  1  0.506159  0.442610  0.000000  1
  Fe  Fe4  1  0.556139  0.064605  0.000000  1
  P  P5  1  0.969719  0.744562  0.000000  1
  P  P6  1  0.254618  0.219861  0.000000  1
  P  P7  1  0.776057  0.034533  0.000000  1
  P  P8  1  0.061804  0.446758  0.500000  1
  P  P9  1  0.547963  0.614923  0.500000  1
  P  P10  1  0.389065  0.936307  0.500000  1
  P  P11  1  0.665687  0.333319  0.000000  1
  Ir  Ir12  1  0.731194  0.760135  0.000000  1
  Ir  Ir13  1  0.108334  0.717590  0.500000  1
  Ir  Ir14  1  0.280511  0.387573  0.500000  1
  Ru  Ru15  1  0.241121  0.968203  0.000000  1
  Ru  Ru16  1  0.030269  0.271783  0.000000  1
  Ru  Ru17  1  0.614532  0.894249  0.500000  1
  Ru  Ru18  1  0.753927  0.545699  0.500000  1
  Ru  Ru19  1  0.457099  0.210622  0.500000  1
  Ru  Ru20  1  0.785773  0.245903  0.500000  1
