# generated using pymatgen
data_Tb4Y6Ho2Co5Bi
_symmetry_space_group_name_H-M   'P 1'
_cell_length_a   8.30301747
_cell_length_b   8.32570489
_cell_length_c   8.30301827
_cell_angle_alpha   110.84368856
_cell_angle_beta   110.58805681
_cell_angle_gamma   106.90388362
_symmetry_Int_Tables_number   1
_chemical_formula_structural   Tb4Y6Ho2Co5Bi
_chemical_formula_sum   'Tb4 Y6 Ho2 Co5 Bi1'
_cell_volume   441.78494966
_cell_formula_units_Z   1
loop_
 _symmetry_equiv_pos_site_id
 _symmetry_equiv_pos_as_xyz
  1  'x, y, z'
loop_
 _atom_site_type_symbol
 _atom_site_label
 _atom_site_symmetry_multiplicity
 _atom_site_fract_x
 _atom_site_fract_y
 _atom_site_fract_z
 _atom_site_occupancy
  Tb  Tb0  1  0.601054  0.796163  0.806646  1
  Tb  Tb1  1  0.398946  0.203837  0.193354  1
  Tb  Tb2  1  0.989517  0.796163  0.195106  1
  Tb  Tb3  1  0.010483  0.203837  0.804894  1
  Y  Y4  1  0.815977  0.709422  0.523696  1
  Y  Y5  1  0.184023  0.290578  0.476304  1
  Y  Y6  1  0.185725  0.709422  0.893445  1
  Y  Y7  1  0.814275  0.290578  0.106555  1
  Y  Y8  1  0.688474  0.380555  0.692081  1
  Y  Y9  1  0.311526  0.619445  0.307919  1
  Ho  Ho10  1  0.688118  0.998556  0.310439  1
  Ho  Ho11  1  0.311882  0.001444  0.689561  1
  Co  Co12  1  0.622799  0.000000  0.622799  1
  Co  Co13  1  0.377201  0.000000  0.377201  1
  Co  Co14  1  0.111271  0.612666  0.501395  1
  Co  Co15  1  0.888729  0.387334  0.498605  1
  Co  Co16  1  0.000000  0.000000  0.000000  1
  Bi  Bi17  1  0.500000  0.500000  0.000000  1
