# generated using pymatgen
data_CaSm7AsPd24
_symmetry_space_group_name_H-M   'P 1'
_cell_length_a   8.47449727
_cell_length_b   8.47449754
_cell_length_c   8.47449700
_cell_angle_alpha   89.98555858
_cell_angle_beta   89.98555858
_cell_angle_gamma   90.01443778
_symmetry_Int_Tables_number   1
_chemical_formula_structural   CaSm7AsPd24
_chemical_formula_sum   'Ca1 Sm7 As1 Pd24'
_cell_volume   608.61379344
_cell_formula_units_Z   1
loop_
 _symmetry_equiv_pos_site_id
 _symmetry_equiv_pos_as_xyz
  1  'x, y, z'
loop_
 _atom_site_type_symbol
 _atom_site_label
 _atom_site_symmetry_multiplicity
 _atom_site_fract_x
 _atom_site_fract_y
 _atom_site_fract_z
 _atom_site_occupancy
  Ca  Ca0  1  0.747246  0.747246  0.252754  1
  Sm  Sm1  1  0.745437  0.254647  0.745353  1
  Sm  Sm2  1  0.254647  0.745437  0.745353  1
  Sm  Sm3  1  0.745242  0.745242  0.744874  1
  Sm  Sm4  1  0.745242  0.255126  0.254758  1
  Sm  Sm5  1  0.254275  0.254275  0.745725  1
  Sm  Sm6  1  0.255126  0.745242  0.254758  1
  Sm  Sm7  1  0.254647  0.254647  0.254563  1
  As  As8  1  0.999330  0.999330  0.000670  1
  Pd  Pd9  1  0.999935  0.999935  0.288623  1
  Pd  Pd10  1  0.739909  0.001056  0.500652  1
  Pd  Pd11  1  0.739909  0.499348  0.998944  1
  Pd  Pd12  1  0.499869  0.000179  0.740372  1
  Pd  Pd13  1  0.001056  0.739909  0.500652  1
  Pd  Pd14  1  0.499348  0.001056  0.260091  1
  Pd  Pd15  1  0.000179  0.259628  0.500131  1
  Pd  Pd16  1  0.499348  0.739909  0.998944  1
  Pd  Pd17  1  0.253542  0.499608  0.500392  1
  Pd  Pd18  1  0.499608  0.499608  0.746458  1
  Pd  Pd19  1  0.499697  0.499697  0.253205  1
  Pd  Pd20  1  0.499608  0.253542  0.500392  1
  Pd  Pd21  1  0.499697  0.746795  0.500303  1
  Pd  Pd22  1  0.746795  0.499697  0.500303  1
  Pd  Pd23  1  0.288912  0.999862  0.000138  1
  Pd  Pd24  1  0.999862  0.999862  0.711088  1
  Pd  Pd25  1  0.001056  0.499348  0.260091  1
  Pd  Pd26  1  0.999862  0.288912  0.000138  1
  Pd  Pd27  1  0.999935  0.711377  0.000065  1
  Pd  Pd28  1  0.711377  0.999935  0.000065  1
  Pd  Pd29  1  0.259628  0.499869  0.999821  1
  Pd  Pd30  1  0.259628  0.000179  0.500131  1
  Pd  Pd31  1  0.000179  0.499869  0.740372  1
  Pd  Pd32  1  0.499869  0.259628  0.999821  1
