# generated using pymatgen
data_Ho6Co13Si6P6Ru5
_symmetry_space_group_name_H-M   'P 1'
_cell_length_a   3.79553500
_cell_length_b   10.66244179
_cell_length_c   12.43285246
_cell_angle_alpha   90.40820191
_cell_angle_beta   90.00000000
_cell_angle_gamma   90.00000000
_symmetry_Int_Tables_number   1
_chemical_formula_structural   Ho6Co13Si6P6Ru5
_chemical_formula_sum   'Ho6 Co13 Si6 P6 Ru5'
_cell_volume   503.14067919
_cell_formula_units_Z   1
loop_
 _symmetry_equiv_pos_site_id
 _symmetry_equiv_pos_as_xyz
  1  'x, y, z'
loop_
 _atom_site_type_symbol
 _atom_site_label
 _atom_site_symmetry_multiplicity
 _atom_site_fract_x
 _atom_site_fract_y
 _atom_site_fract_z
 _atom_site_occupancy
  Ho  Ho0  1  0.000000  0.501586  0.528427  1
  Ho  Ho1  1  0.500000  0.996555  0.475439  1
  Ho  Ho2  1  0.500000  0.818491  0.202760  1
  Ho  Ho3  1  0.500000  0.183488  0.201498  1
  Ho  Ho4  1  0.000000  0.681246  0.796336  1
  Ho  Ho5  1  0.000000  0.316382  0.798471  1
  Co  Co6  1  0.000000  0.500278  0.988675  1
  Co  Co7  1  0.500000  0.999451  0.022359  1
  Co  Co8  1  0.000000  0.806292  0.570368  1
  Co  Co9  1  0.500000  0.882224  0.709611  1
  Co  Co10  1  0.500000  0.113131  0.712459  1
  Co  Co11  1  0.000000  0.623085  0.283417  1
  Co  Co12  1  0.000000  0.381000  0.281114  1
  Co  Co13  1  0.500000  0.330291  0.994825  1
  Co  Co14  1  0.500000  0.670023  0.995269  1
  Co  Co15  1  0.000000  0.167254  0.012955  1
  Co  Co16  1  0.000000  0.831934  0.012619  1
  Co  Co17  1  0.500000  0.501081  0.700203  1
  Co  Co18  1  0.000000  0.000314  0.298212  1
  Si  Si19  1  0.500000  0.305846  0.619623  1
  Si  Si20  1  0.500000  0.696107  0.618352  1
  Si  Si21  1  0.500000  0.499800  0.884415  1
  Si  Si22  1  0.500000  0.849436  0.895623  1
  Si  Si23  1  0.500000  0.148139  0.896384  1
  Si  Si24  1  0.500000  0.501298  0.338495  1
  P  P25  1  0.000000  0.189933  0.376862  1
  P  P26  1  0.000000  0.813748  0.380526  1
  P  P27  1  0.000000  0.000099  0.118860  1
  P  P28  1  0.000000  0.653979  0.103975  1
  P  P29  1  0.000000  0.347449  0.102982  1
  P  P30  1  0.000000  0.995989  0.660508  1
  Ru  Ru31  1  0.500000  0.296610  0.423890  1
  Ru  Ru32  1  0.500000  0.707557  0.427176  1
  Ru  Ru33  1  0.000000  0.190654  0.569085  1
  Ru  Ru34  1  0.500000  0.501380  0.149461  1
  Ru  Ru35  1  0.000000  0.997869  0.848765  1
