# generated using pymatgen
data_RbPr6PtBr12
_symmetry_space_group_name_H-M   'P 1'
_cell_length_a   9.68669871
_cell_length_b   9.56575286
_cell_length_c   9.70748066
_cell_angle_alpha   104.53769350
_cell_angle_beta   104.54620268
_cell_angle_gamma   104.61736290
_symmetry_Int_Tables_number   1
_chemical_formula_structural   RbPr6PtBr12
_chemical_formula_sum   'Rb1 Pr6 Pt1 Br12'
_cell_volume   793.60292596
_cell_formula_units_Z   1
loop_
 _symmetry_equiv_pos_site_id
 _symmetry_equiv_pos_as_xyz
  1  'x, y, z'
loop_
 _atom_site_type_symbol
 _atom_site_label
 _atom_site_symmetry_multiplicity
 _atom_site_fract_x
 _atom_site_fract_y
 _atom_site_fract_z
 _atom_site_occupancy
  Rb  Rb0  1  0.500000  0.500000  0.500000  1
  Pr  Pr1  1  0.100716  0.304337  0.010328  1
  Pr  Pr2  1  0.315196  0.009843  0.105305  1
  Pr  Pr3  1  0.009941  0.104710  0.313989  1
  Pr  Pr4  1  0.990060  0.895290  0.686012  1
  Pr  Pr5  1  0.684804  0.990158  0.894695  1
  Pr  Pr6  1  0.899284  0.695663  0.989672  1
  Pt  Pt7  1  0.000000  0.000000  0.000000  1
  Br  Br8  1  0.213889  0.671985  0.074136  1
  Br  Br9  1  0.426214  0.335125  0.114036  1
  Br  Br10  1  0.673720  0.074980  0.214118  1
  Br  Br11  1  0.924732  0.783896  0.325746  1
  Br  Br12  1  0.114843  0.428341  0.333512  1
  Br  Br13  1  0.332868  0.113331  0.425650  1
  Br  Br14  1  0.667132  0.886669  0.574351  1
  Br  Br15  1  0.885158  0.571659  0.666488  1
  Br  Br16  1  0.075269  0.216104  0.674255  1
  Br  Br17  1  0.326281  0.925021  0.785882  1
  Br  Br18  1  0.573786  0.664875  0.885965  1
  Br  Br19  1  0.786111  0.328015  0.925864  1
