# generated using pymatgen
data_TbYCo9Tc3As7
_symmetry_space_group_name_H-M   'P 1'
_cell_length_a   3.83583500
_cell_length_b   9.37446762
_cell_length_c   9.37446900
_cell_angle_alpha   120.00000133
_cell_angle_beta   90.00000000
_cell_angle_gamma   90.00000000
_symmetry_Int_Tables_number   1
_chemical_formula_structural   TbYCo9Tc3As7
_chemical_formula_sum   'Tb1 Y1 Co9 Tc3 As7'
_cell_volume   291.93343284
_cell_formula_units_Z   1
loop_
 _symmetry_equiv_pos_site_id
 _symmetry_equiv_pos_as_xyz
  1  'x, y, z'
loop_
 _atom_site_type_symbol
 _atom_site_label
 _atom_site_symmetry_multiplicity
 _atom_site_fract_x
 _atom_site_fract_y
 _atom_site_fract_z
 _atom_site_occupancy
  Tb  Tb0  1  0.500000  0.333333  0.666667  1
  Y  Y1  1  0.000000  0.666667  0.333333  1
  Co  Co2  1  0.000000  0.569057  0.940932  1
  Co  Co3  1  0.000000  0.371874  0.430943  1
  Co  Co4  1  0.000000  0.059068  0.628126  1
  Co  Co5  1  0.000000  0.875538  0.157223  1
  Co  Co6  1  0.000000  0.281684  0.124462  1
  Co  Co7  1  0.000000  0.842777  0.718316  1
  Co  Co8  1  0.500000  0.946732  0.380707  1
  Co  Co9  1  0.500000  0.433974  0.053268  1
  Co  Co10  1  0.500000  0.619293  0.566026  1
  Tc  Tc11  1  0.500000  0.782753  0.900433  1
  Tc  Tc12  1  0.500000  0.117680  0.217247  1
  Tc  Tc13  1  0.500000  0.099567  0.882320  1
  As  As14  1  0.000000  0.000000  0.000000  1
  As  As15  1  0.500000  0.706590  0.116329  1
  As  As16  1  0.500000  0.409740  0.293410  1
  As  As17  1  0.500000  0.883671  0.590260  1
  As  As18  1  0.000000  0.588063  0.701659  1
  As  As19  1  0.000000  0.113597  0.411937  1
  As  As20  1  0.000000  0.298341  0.886403  1
