# generated using pymatgen
data_DyTm4Mn2O12
_symmetry_space_group_name_H-M   'P 1'
_cell_length_a   6.74258571
_cell_length_b   6.74264852
_cell_length_c   7.14845602
_cell_angle_alpha   74.56893077
_cell_angle_beta   74.56890358
_cell_angle_gamma   50.02948308
_symmetry_Int_Tables_number   1
_chemical_formula_structural   DyTm4Mn2O12
_chemical_formula_sum   'Dy1 Tm4 Mn2 O12'
_cell_volume   238.08555588
_cell_formula_units_Z   1
loop_
 _symmetry_equiv_pos_site_id
 _symmetry_equiv_pos_as_xyz
  1  'x, y, z'
loop_
 _atom_site_type_symbol
 _atom_site_label
 _atom_site_symmetry_multiplicity
 _atom_site_fract_x
 _atom_site_fract_y
 _atom_site_fract_z
 _atom_site_occupancy
  Dy  Dy0  1  0.000000  0.000000  0.500000  1
  Tm  Tm1  1  0.304698  0.304699  0.356622  1
  Tm  Tm2  1  0.695302  0.695301  0.643378  1
  Tm  Tm3  1  0.307446  0.307433  0.835489  1
  Tm  Tm4  1  0.692554  0.692567  0.164511  1
  Mn  Mn5  1  0.753569  0.246440  0.000000  1
  Mn  Mn6  1  0.246431  0.753560  0.000000  1
  O  O7  1  0.902087  0.423872  0.917862  1
  O  O8  1  0.423861  0.902087  0.917865  1
  O  O9  1  0.097913  0.576128  0.082138  1
  O  O10  1  0.576139  0.097913  0.082135  1
  O  O11  1  0.097170  0.594205  0.575395  1
  O  O12  1  0.594209  0.097163  0.575397  1
  O  O13  1  0.902830  0.405795  0.424605  1
  O  O14  1  0.405791  0.902837  0.424603  1
  O  O15  1  0.999866  0.999871  0.820714  1
  O  O16  1  0.000134  0.000129  0.179286  1
  O  O17  1  0.499990  0.499988  0.816176  1
  O  O18  1  0.500010  0.500012  0.183824  1
