# generated using pymatgen
data_Ca12Ta7Re12WN48
_symmetry_space_group_name_H-M   'P 1'
_cell_length_a   11.21800987
_cell_length_b   11.23241471
_cell_length_c   11.23241515
_cell_angle_alpha   109.49718618
_cell_angle_beta   109.44524873
_cell_angle_gamma   109.44524331
_symmetry_Int_Tables_number   1
_chemical_formula_structural   Ca12Ta7Re12WN48
_chemical_formula_sum   'Ca12 Ta7 Re12 W1 N48'
_cell_volume   1089.88155491
_cell_formula_units_Z   1
loop_
 _symmetry_equiv_pos_site_id
 _symmetry_equiv_pos_as_xyz
  1  'x, y, z'
loop_
 _atom_site_type_symbol
 _atom_site_label
 _atom_site_symmetry_multiplicity
 _atom_site_fract_x
 _atom_site_fract_y
 _atom_site_fract_z
 _atom_site_occupancy
  Ca  Ca0  1  0.249148  0.375263  0.124552  1
  Ca  Ca1  1  0.373885  0.749289  0.124737  1
  Ca  Ca2  1  0.375182  0.125001  0.250157  1
  Ca  Ca3  1  0.875404  0.624552  0.249289  1
  Ca  Ca4  1  0.750181  0.125156  0.374999  1
  Ca  Ca5  1  0.125025  0.249843  0.374844  1
  Ca  Ca6  1  0.874975  0.750157  0.625156  1
  Ca  Ca7  1  0.249819  0.874844  0.625001  1
  Ca  Ca8  1  0.124596  0.375448  0.750711  1
  Ca  Ca9  1  0.624818  0.874999  0.749843  1
  Ca  Ca10  1  0.626115  0.250711  0.875263  1
  Ca  Ca11  1  0.750852  0.624737  0.875448  1
  Ta  Ta12  1  0.000000  0.000000  0.000000  1
  Ta  Ta13  1  0.500000  0.000000  0.000000  1
  Ta  Ta14  1  0.500000  0.500000  0.000000  1
  Ta  Ta15  1  0.000000  0.000000  0.500000  1
  Ta  Ta16  1  0.500000  0.000000  0.500000  1
  Ta  Ta17  1  0.000000  0.500000  0.500000  1
  Ta  Ta18  1  0.500000  0.500000  0.500000  1
  Re  Re19  1  0.875281  0.249895  0.125033  1
  Re  Re20  1  0.750712  0.875243  0.125350  1
  Re  Re21  1  0.625362  0.374650  0.249894  1
  Re  Re22  1  0.125387  0.875138  0.250105  1
  Re  Re23  1  0.249752  0.625033  0.375138  1
  Re  Re24  1  0.624532  0.749894  0.375243  1
  Re  Re25  1  0.375468  0.250106  0.624757  1
  Re  Re26  1  0.750248  0.374967  0.624862  1
  Re  Re27  1  0.874613  0.124862  0.749895  1
  Re  Re28  1  0.374638  0.625350  0.750106  1
  Re  Re29  1  0.249288  0.124757  0.874650  1
  Re  Re30  1  0.124719  0.750105  0.874967  1
  W  W31  1  0.000000  0.500000  0.000000  1
  N  N32  1  0.196769  0.113612  0.010387  1
  N  N33  1  0.314576  0.896569  0.010694  1
  N  N34  1  0.890172  0.395795  0.081082  1
  N  N35  1  0.697065  0.686321  0.083323  1
  N  N36  1  0.613742  0.416677  0.102999  1
  N  N37  1  0.994376  0.685285  0.104205  1
  N  N38  1  0.010449  0.196656  0.113585  1
  N  N39  1  0.603516  0.916043  0.113395  1
  N  N40  1  0.190910  0.581082  0.185285  1
  N  N41  1  0.489257  0.602999  0.186321  1
  N  N42  1  0.112921  0.010197  0.195771  1
  N  N43  1  0.583591  0.186165  0.197023  1
  N  N44  1  0.490122  0.386605  0.302648  1
  N  N45  1  0.313794  0.916929  0.303344  1
  N  N46  1  0.897425  0.010857  0.313835  1
  N  N47  1  0.917150  0.304229  0.314427  1
  N  N48  1  0.303881  0.489306  0.385875  1
  N  N49  1  0.583156  0.896775  0.386388  1
  N  N50  1  0.813619  0.510387  0.396775  1
  N  N51  1  0.081994  0.885875  0.396569  1
  N  N52  1  0.103136  0.613585  0.416929  1
  N  N53  1  0.812528  0.802648  0.416043  1
  N  N54  1  0.602724  0.185573  0.489803  1
  N  N55  1  0.386568  0.302977  0.489143  1
  N  N56  1  0.613432  0.697023  0.510857  1
  N  N57  1  0.397276  0.814427  0.510197  1
  N  N58  1  0.187472  0.197352  0.583957  1
  N  N59  1  0.896864  0.386415  0.583071  1
  N  N60  1  0.918006  0.114125  0.603431  1
  N  N61  1  0.186381  0.489613  0.603225  1
  N  N62  1  0.416844  0.103225  0.613612  1
  N  N63  1  0.696119  0.510694  0.614125  1
  N  N64  1  0.082850  0.695771  0.685573  1
  N  N65  1  0.102575  0.989143  0.686165  1
  N  N66  1  0.686206  0.083071  0.696656  1
  N  N67  1  0.509878  0.613395  0.697352  1
  N  N68  1  0.416409  0.813835  0.802977  1
  N  N69  1  0.887079  0.989803  0.804229  1
  N  N70  1  0.510743  0.397001  0.813679  1
  N  N71  1  0.809090  0.418918  0.814715  1
  N  N72  1  0.396484  0.083957  0.886605  1
  N  N73  1  0.989551  0.803344  0.886415  1
  N  N74  1  0.005624  0.314715  0.895795  1
  N  N75  1  0.386258  0.583323  0.897001  1
  N  N76  1  0.302935  0.313679  0.916677  1
  N  N77  1  0.109828  0.604205  0.918918  1
  N  N78  1  0.685424  0.103431  0.989306  1
  N  N79  1  0.803231  0.886388  0.989613  1
