# generated using pymatgen
data_Pr2Al20IrRu3
_symmetry_space_group_name_H-M   'P 1'
_cell_length_a   6.89837834
_cell_length_b   6.89679298
_cell_length_c   9.21497727
_cell_angle_alpha   90.05457897
_cell_angle_beta   90.05209185
_cell_angle_gamma   96.73955424
_symmetry_Int_Tables_number   1
_chemical_formula_structural   Pr2Al20IrRu3
_chemical_formula_sum   'Pr2 Al20 Ir1 Ru3'
_cell_volume   435.38813844
_cell_formula_units_Z   1
loop_
 _symmetry_equiv_pos_site_id
 _symmetry_equiv_pos_as_xyz
  1  'x, y, z'
loop_
 _atom_site_type_symbol
 _atom_site_label
 _atom_site_symmetry_multiplicity
 _atom_site_fract_x
 _atom_site_fract_y
 _atom_site_fract_z
 _atom_site_occupancy
  Pr  Pr0  1  0.876005  0.125414  0.749755  1
  Pr  Pr1  1  0.123995  0.874586  0.250245  1
  Al  Al2  1  0.410262  0.141323  0.748427  1
  Al  Al3  1  0.140533  0.411537  0.250630  1
  Al  Al4  1  0.589738  0.858677  0.251573  1
  Al  Al5  1  0.859467  0.588463  0.749370  1
  Al  Al6  1  0.517089  0.777649  0.747863  1
  Al  Al7  1  0.778810  0.517112  0.249643  1
  Al  Al8  1  0.482911  0.222351  0.252137  1
  Al  Al9  1  0.221190  0.482888  0.750357  1
  Al  Al10  1  0.838949  0.160489  0.398151  1
  Al  Al11  1  0.161051  0.839511  0.601849  1
  Al  Al12  1  0.841202  0.162033  0.103171  1
  Al  Al13  1  0.158798  0.837967  0.896829  1
  Al  Al14  1  0.622537  0.378195  0.551288  1
  Al  Al15  1  0.377463  0.621805  0.448712  1
  Al  Al16  1  0.623230  0.380477  0.947974  1
  Al  Al17  1  0.376770  0.619523  0.052026  1
  Al  Al18  1  0.774435  0.771263  0.001014  1
  Al  Al19  1  0.772899  0.772062  0.500462  1
  Al  Al20  1  0.225565  0.228737  0.998986  1
  Al  Al21  1  0.227101  0.227938  0.499538  1
  Ir  Ir22  1  0.500000  0.000000  0.000000  1
  Ru  Ru23  1  0.000000  0.500000  0.000000  1
  Ru  Ru24  1  0.500000  0.000000  0.500000  1
  Ru  Ru25  1  0.000000  0.500000  0.500000  1
