# generated using pymatgen
data_HoBeP5(Pd10Pb)2
_symmetry_space_group_name_H-M   'P 1'
_cell_length_a   8.69732955
_cell_length_b   8.64429048
_cell_length_c   8.64428925
_cell_angle_alpha   60.40635410
_cell_angle_beta   59.79681664
_cell_angle_gamma   59.79681188
_symmetry_Int_Tables_number   1
_chemical_formula_structural   HoBeP5(Pd10Pb)2
_chemical_formula_sum   'Ho1 Be1 P5 Pd20 Pb2'
_cell_volume   459.51173815
_cell_formula_units_Z   1
loop_
 _symmetry_equiv_pos_site_id
 _symmetry_equiv_pos_as_xyz
  1  'x, y, z'
loop_
 _atom_site_type_symbol
 _atom_site_label
 _atom_site_symmetry_multiplicity
 _atom_site_fract_x
 _atom_site_fract_y
 _atom_site_fract_z
 _atom_site_occupancy
  Ho  Ho0  1  0.996058  0.003942  0.003942  1
  Be  Be1  1  0.729983  0.270017  0.270017  1
  P  P2  1  0.263733  0.736267  0.736267  1
  P  P3  1  0.266897  0.733103  0.265211  1
  P  P4  1  0.734789  0.265211  0.733103  1
  P  P5  1  0.266897  0.265211  0.733103  1
  P  P6  1  0.734789  0.733103  0.265211  1
  Pd  Pd7  1  0.386914  0.382527  0.382527  1
  Pd  Pd8  1  0.615763  0.615113  0.615113  1
  Pd  Pd9  1  0.384887  0.384237  0.845989  1
  Pd  Pd10  1  0.384887  0.845989  0.384237  1
  Pd  Pd11  1  0.617473  0.613086  0.151968  1
  Pd  Pd12  1  0.617473  0.151968  0.613086  1
  Pd  Pd13  1  0.848032  0.382527  0.382527  1
  Pd  Pd14  1  0.154011  0.615113  0.615113  1
  Pd  Pd15  1  0.341572  0.001576  0.001576  1
  Pd  Pd16  1  0.655276  0.001576  0.001576  1
  Pd  Pd17  1  0.998424  0.344724  0.658428  1
  Pd  Pd18  1  0.998424  0.658428  0.344724  1
  Pd  Pd19  1  0.996478  0.340285  0.003522  1
  Pd  Pd20  1  0.659715  0.003522  0.340285  1
  Pd  Pd21  1  0.000485  0.654784  0.999515  1
  Pd  Pd22  1  0.345216  0.999515  0.654784  1
  Pd  Pd23  1  0.996478  0.003522  0.340285  1
  Pd  Pd24  1  0.000485  0.999515  0.654784  1
  Pd  Pd25  1  0.659715  0.340285  0.003522  1
  Pd  Pd26  1  0.345216  0.654784  0.999515  1
  Pb  Pb27  1  0.249971  0.250029  0.250029  1
  Pb  Pb28  1  0.749971  0.750029  0.750029  1
