# generated using pymatgen
data_Nd6MgCo16P12W
_symmetry_space_group_name_H-M   'P 1'
_cell_length_a   3.78705800
_cell_length_b   10.73307300
_cell_length_c   12.48207700
_cell_angle_alpha   90.00000000
_cell_angle_beta   90.00000000
_cell_angle_gamma   90.00000000
_symmetry_Int_Tables_number   1
_chemical_formula_structural   Nd6MgCo16P12W
_chemical_formula_sum   'Nd6 Mg1 Co16 P12 W1'
_cell_volume   507.35611256
_cell_formula_units_Z   1
loop_
 _symmetry_equiv_pos_site_id
 _symmetry_equiv_pos_as_xyz
  1  'x, y, z'
loop_
 _atom_site_type_symbol
 _atom_site_label
 _atom_site_symmetry_multiplicity
 _atom_site_fract_x
 _atom_site_fract_y
 _atom_site_fract_z
 _atom_site_occupancy
  Nd  Nd0  1  0.000000  0.500000  0.524751  1
  Nd  Nd1  1  0.500000  0.000000  0.476918  1
  Nd  Nd2  1  0.500000  0.820298  0.205840  1
  Nd  Nd3  1  0.500000  0.179702  0.205840  1
  Nd  Nd4  1  0.000000  0.681557  0.794318  1
  Nd  Nd5  1  0.000000  0.318443  0.794318  1
  Mg  Mg6  1  0.500000  0.500000  0.151674  1
  Co  Co7  1  0.500000  0.500000  0.704823  1
  Co  Co8  1  0.000000  0.000000  0.296228  1
  Co  Co9  1  0.000000  0.500000  0.986479  1
  Co  Co10  1  0.500000  0.000000  0.009917  1
  Co  Co11  1  0.500000  0.329635  0.993942  1
  Co  Co12  1  0.500000  0.670365  0.993942  1
  Co  Co13  1  0.000000  0.164286  0.004703  1
  Co  Co14  1  0.000000  0.835714  0.004703  1
  Co  Co15  1  0.500000  0.295156  0.432452  1
  Co  Co16  1  0.500000  0.704844  0.432452  1
  Co  Co17  1  0.000000  0.203209  0.570093  1
  Co  Co18  1  0.000000  0.796791  0.570093  1
  Co  Co19  1  0.500000  0.881322  0.709050  1
  Co  Co20  1  0.500000  0.118678  0.709050  1
  Co  Co21  1  0.000000  0.620816  0.294807  1
  Co  Co22  1  0.000000  0.379184  0.294807  1
  P  P23  1  0.500000  0.500000  0.886764  1
  P  P24  1  0.000000  0.000000  0.114528  1
  P  P25  1  0.500000  0.500000  0.349409  1
  P  P26  1  0.000000  0.000000  0.653254  1
  P  P27  1  0.500000  0.305178  0.614777  1
  P  P28  1  0.500000  0.694822  0.614777  1
  P  P29  1  0.000000  0.193939  0.386876  1
  P  P30  1  0.000000  0.806061  0.386876  1
  P  P31  1  0.500000  0.846423  0.892940  1
  P  P32  1  0.500000  0.153577  0.892940  1
  P  P33  1  0.000000  0.659394  0.101031  1
  P  P34  1  0.000000  0.340606  0.101031  1
  W  W35  1  0.000000  0.000000  0.843595  1
