# generated using pymatgen
data_Er12Mn2Tl3
_symmetry_space_group_name_H-M   'P 1'
_cell_length_a   8.40367433
_cell_length_b   8.40367524
_cell_length_c   8.40367504
_cell_angle_alpha   110.23835758
_cell_angle_beta   110.23835683
_cell_angle_gamma   107.94761701
_symmetry_Int_Tables_number   1
_chemical_formula_structural   Er12Mn2Tl3
_chemical_formula_sum   'Er12 Mn2 Tl3'
_cell_volume   456.62127458
_cell_formula_units_Z   1
loop_
 _symmetry_equiv_pos_site_id
 _symmetry_equiv_pos_as_xyz
  1  'x, y, z'
loop_
 _atom_site_type_symbol
 _atom_site_label
 _atom_site_symmetry_multiplicity
 _atom_site_fract_x
 _atom_site_fract_y
 _atom_site_fract_z
 _atom_site_occupancy
  Er  Er0  1  0.303617  0.303617  0.607233  1
  Er  Er1  1  0.696383  0.696383  0.392767  1
  Er  Er2  1  0.303617  0.696383  0.000000  1
  Er  Er3  1  0.696383  0.303617  0.000000  1
  Er  Er4  1  0.457373  0.210768  0.246605  1
  Er  Er5  1  0.542627  0.789232  0.753395  1
  Er  Er6  1  0.964164  0.210768  0.753395  1
  Er  Er7  1  0.210768  0.964164  0.753395  1
  Er  Er8  1  0.035836  0.789232  0.246605  1
  Er  Er9  1  0.789232  0.035836  0.246605  1
  Er  Er10  1  0.210768  0.457373  0.246605  1
  Er  Er11  1  0.789232  0.542627  0.753395  1
  Mn  Mn12  1  0.393931  0.393931  0.000000  1
  Mn  Mn13  1  0.606069  0.606069  0.000000  1
  Tl  Tl14  1  0.000000  0.000000  0.000000  1
  Tl  Tl15  1  0.500000  0.000000  0.500000  1
  Tl  Tl16  1  0.000000  0.500000  0.500000  1
