# generated using pymatgen
data_Tb9Tm(GaSb)4
_symmetry_space_group_name_H-M   'P 1'
_cell_length_a   8.68732419
_cell_length_b   8.68732407
_cell_length_c   7.95592122
_cell_angle_alpha   90.07990526
_cell_angle_beta   90.07990920
_cell_angle_gamma   125.43962572
_symmetry_Int_Tables_number   1
_chemical_formula_structural   Tb9Tm(GaSb)4
_chemical_formula_sum   'Tb9 Tm1 Ga4 Sb4'
_cell_volume   489.18441032
_cell_formula_units_Z   1
loop_
 _symmetry_equiv_pos_site_id
 _symmetry_equiv_pos_as_xyz
  1  'x, y, z'
loop_
 _atom_site_type_symbol
 _atom_site_label
 _atom_site_symmetry_multiplicity
 _atom_site_fract_x
 _atom_site_fract_y
 _atom_site_fract_z
 _atom_site_occupancy
  Tb  Tb0  1  0.539173  0.801745  0.167635  1
  Tb  Tb1  1  0.300289  0.038505  0.331921  1
  Tb  Tb2  1  0.198255  0.460827  0.832365  1
  Tb  Tb3  1  0.961495  0.699711  0.668079  1
  Tb  Tb4  1  0.699711  0.961495  0.668079  1
  Tb  Tb5  1  0.460827  0.198255  0.832365  1
  Tb  Tb6  1  0.801745  0.539173  0.167635  1
  Tb  Tb7  1  0.038505  0.300289  0.331921  1
  Tb  Tb8  1  0.500000  0.500000  0.500000  1
  Tm  Tm9  1  0.000000  0.000000  0.000000  1
  Ga  Ga10  1  0.625879  0.625879  0.877255  1
  Ga  Ga11  1  0.123305  0.123305  0.625322  1
  Ga  Ga12  1  0.876695  0.876695  0.374678  1
  Ga  Ga13  1  0.374121  0.374121  0.122745  1
  Sb  Sb14  1  0.294801  0.705199  0.500000  1
  Sb  Sb15  1  0.203968  0.796032  0.000000  1
  Sb  Sb16  1  0.705199  0.294801  0.500000  1
  Sb  Sb17  1  0.796032  0.203968  0.000000  1
