# generated using pymatgen
data_Dy5Ho3Ti12Si15Ir
_symmetry_space_group_name_H-M   'P 1'
_cell_length_a   7.06389689
_cell_length_b   7.04851003
_cell_length_c   12.99352205
_cell_angle_alpha   89.90042690
_cell_angle_beta   89.79317003
_cell_angle_gamma   90.04775951
_symmetry_Int_Tables_number   1
_chemical_formula_structural   Dy5Ho3Ti12Si15Ir
_chemical_formula_sum   'Dy5 Ho3 Ti12 Si15 Ir1'
_cell_volume   646.94136840
_cell_formula_units_Z   1
loop_
 _symmetry_equiv_pos_site_id
 _symmetry_equiv_pos_as_xyz
  1  'x, y, z'
loop_
 _atom_site_type_symbol
 _atom_site_label
 _atom_site_symmetry_multiplicity
 _atom_site_fract_x
 _atom_site_fract_y
 _atom_site_fract_z
 _atom_site_occupancy
  Dy  Dy0  1  0.337906  0.002069  0.466551  1
  Dy  Dy1  1  0.498894  0.841575  0.717169  1
  Dy  Dy2  1  0.501650  0.159929  0.216665  1
  Dy  Dy3  1  0.840744  0.497155  0.283401  1
  Dy  Dy4  1  0.157607  0.502966  0.783184  1
  Ho  Ho5  1  0.660891  0.998104  0.967316  1
  Ho  Ho6  1  0.002560  0.338675  0.535038  1
  Ho  Ho7  1  0.999430  0.659371  0.033214  1
  Ti  Ti8  1  0.327559  0.326353  0.001197  1
  Ti  Ti9  1  0.172708  0.827640  0.249748  1
  Ti  Ti10  1  0.834122  0.171316  0.747287  1
  Ti  Ti11  1  0.672258  0.671536  0.498959  1
  Ti  Ti12  1  0.157931  0.010526  0.875315  1
  Ti  Ti13  1  0.492016  0.652535  0.126167  1
  Ti  Ti14  1  0.499361  0.341668  0.627217  1
  Ti  Ti15  1  0.656814  0.496618  0.874862  1
  Ti  Ti16  1  0.347830  0.506104  0.373413  1
  Ti  Ti17  1  0.846302  0.992095  0.374867  1
  Ti  Ti18  1  0.008308  0.151911  0.125401  1
  Ti  Ti19  1  0.992086  0.850269  0.619791  1
  Si  Si20  1  0.371245  0.702287  0.935505  1
  Si  Si21  1  0.631226  0.297008  0.434696  1
  Si  Si22  1  0.703888  0.369845  0.065914  1
  Si  Si23  1  0.300924  0.629735  0.563583  1
  Si  Si24  1  0.796291  0.869020  0.182544  1
  Si  Si25  1  0.129922  0.202830  0.315521  1
  Si  Si26  1  0.868092  0.799698  0.815617  1
  Si  Si27  1  0.292477  0.953300  0.065648  1
  Si  Si28  1  0.546161  0.790379  0.314788  1
  Si  Si29  1  0.458164  0.215102  0.817069  1
  Si  Si30  1  0.786924  0.548841  0.685145  1
  Si  Si31  1  0.208469  0.453740  0.185020  1
  Si  Si32  1  0.705378  0.045083  0.561933  1
  Si  Si33  1  0.952653  0.290994  0.937647  1
  Si  Si34  1  0.046360  0.707732  0.433506  1
  Ir  Ir35  1  0.194852  0.125995  0.689101  1
