# generated using pymatgen
data_Tb8Tm7Sc5Bi12
_symmetry_space_group_name_H-M   'P 1'
_cell_length_a   8.09058619
_cell_length_b   9.31937002
_cell_length_c   11.97319242
_cell_angle_alpha   89.95758258
_cell_angle_beta   90.09078817
_cell_angle_gamma   89.96477325
_symmetry_Int_Tables_number   1
_chemical_formula_structural   Tb8Tm7Sc5Bi12
_chemical_formula_sum   'Tb8 Tm7 Sc5 Bi12'
_cell_volume   902.76717572
_cell_formula_units_Z   1
loop_
 _symmetry_equiv_pos_site_id
 _symmetry_equiv_pos_as_xyz
  1  'x, y, z'
loop_
 _atom_site_type_symbol
 _atom_site_label
 _atom_site_symmetry_multiplicity
 _atom_site_fract_x
 _atom_site_fract_y
 _atom_site_fract_z
 _atom_site_occupancy
  Tb  Tb0  1  0.352706  0.247639  0.283013  1
  Tb  Tb1  1  0.644822  0.749685  0.716171  1
  Tb  Tb2  1  0.145540  0.748997  0.784739  1
  Tb  Tb3  1  0.854539  0.249378  0.215081  1
  Tb  Tb4  1  0.183875  0.249376  0.780500  1
  Tb  Tb5  1  0.815225  0.749505  0.219557  1
  Tb  Tb6  1  0.315940  0.750580  0.280145  1
  Tb  Tb7  1  0.683529  0.249416  0.720792  1
  Tm  Tm8  1  0.805241  0.934376  0.941658  1
  Tm  Tm9  1  0.304332  0.933878  0.558287  1
  Tm  Tm10  1  0.806670  0.566218  0.942544  1
  Tm  Tm11  1  0.695059  0.065894  0.441516  1
  Tm  Tm12  1  0.194650  0.435349  0.058166  1
  Tm  Tm13  1  0.695170  0.433708  0.441654  1
  Tm  Tm14  1  0.304853  0.566437  0.558596  1
  Sc  Sc15  1  0.023764  0.249968  0.511703  1
  Sc  Sc16  1  0.976636  0.749633  0.487033  1
  Sc  Sc17  1  0.477068  0.750045  0.012241  1
  Sc  Sc18  1  0.522086  0.248272  0.988893  1
  Sc  Sc19  1  0.195823  0.069114  0.057004  1
  Bi  Bi20  1  0.401543  0.250285  0.542034  1
  Bi  Bi21  1  0.598906  0.749745  0.457513  1
  Bi  Bi22  1  0.101308  0.757503  0.043652  1
  Bi  Bi23  1  0.904777  0.248150  0.958659  1
  Bi  Bi24  1  0.065415  0.004122  0.331255  1
  Bi  Bi25  1  0.934462  0.995483  0.667001  1
  Bi  Bi26  1  0.433114  0.995510  0.834134  1
  Bi  Bi27  1  0.934290  0.503745  0.667227  1
  Bi  Bi28  1  0.563235  0.004103  0.166236  1
  Bi  Bi29  1  0.065614  0.495498  0.332099  1
  Bi  Bi30  1  0.565119  0.494960  0.167394  1
  Bi  Bi31  1  0.434688  0.503431  0.833505  1
