# generated using pymatgen
data_Tb16Hg4Ir3Pt
_symmetry_space_group_name_H-M   'P 1'
_cell_length_a   9.62955584
_cell_length_b   9.62955679
_cell_length_c   9.62955523
_cell_angle_alpha   60.28252811
_cell_angle_beta   60.28252254
_cell_angle_gamma   60.28252801
_symmetry_Int_Tables_number   1
_chemical_formula_structural   Tb16Hg4Ir3Pt
_chemical_formula_sum   'Tb16 Hg4 Ir3 Pt1'
_cell_volume   635.43605467
_cell_formula_units_Z   1
loop_
 _symmetry_equiv_pos_site_id
 _symmetry_equiv_pos_as_xyz
  1  'x, y, z'
loop_
 _atom_site_type_symbol
 _atom_site_label
 _atom_site_symmetry_multiplicity
 _atom_site_fract_x
 _atom_site_fract_y
 _atom_site_fract_z
 _atom_site_occupancy
  Tb  Tb0  1  0.598929  0.598929  0.598929  1
  Tb  Tb1  1  0.604194  0.604194  0.193882  1
  Tb  Tb2  1  0.604194  0.193882  0.604194  1
  Tb  Tb3  1  0.193882  0.604194  0.604194  1
  Tb  Tb4  1  0.055301  0.441210  0.441210  1
  Tb  Tb5  1  0.438201  0.059823  0.059823  1
  Tb  Tb6  1  0.441210  0.055301  0.441210  1
  Tb  Tb7  1  0.059823  0.438201  0.059823  1
  Tb  Tb8  1  0.441210  0.441210  0.055301  1
  Tb  Tb9  1  0.059823  0.059823  0.438201  1
  Tb  Tb10  1  0.189317  0.812324  0.812324  1
  Tb  Tb11  1  0.812931  0.188223  0.188223  1
  Tb  Tb12  1  0.812324  0.189317  0.812324  1
  Tb  Tb13  1  0.188223  0.812931  0.188223  1
  Tb  Tb14  1  0.812324  0.812324  0.189317  1
  Tb  Tb15  1  0.188223  0.188223  0.812931  1
  Hg  Hg16  1  0.834892  0.834892  0.834892  1
  Hg  Hg17  1  0.835026  0.835026  0.494139  1
  Hg  Hg18  1  0.835026  0.494139  0.835026  1
  Hg  Hg19  1  0.494139  0.835026  0.835026  1
  Ir  Ir20  1  0.392112  0.392112  0.823594  1
  Ir  Ir21  1  0.392112  0.823594  0.392112  1
  Ir  Ir22  1  0.823594  0.392112  0.392112  1
  Pt  Pt23  1  0.392989  0.392989  0.392989  1
