# generated using pymatgen
data_Np2PaAs3
_symmetry_space_group_name_H-M   'P 1'
_cell_length_a   7.08904322
_cell_length_b   7.08904388
_cell_length_c   7.08904400
_cell_angle_alpha   146.30156922
_cell_angle_beta   131.81291945
_cell_angle_gamma   60.08796194
_symmetry_Int_Tables_number   1
_chemical_formula_structural   Np2PaAs3
_chemical_formula_sum   'Np2 Pa1 As3'
_cell_volume   145.96291916
_cell_formula_units_Z   1
loop_
 _symmetry_equiv_pos_site_id
 _symmetry_equiv_pos_as_xyz
  1  'x, y, z'
loop_
 _atom_site_type_symbol
 _atom_site_label
 _atom_site_symmetry_multiplicity
 _atom_site_fract_x
 _atom_site_fract_y
 _atom_site_fract_z
 _atom_site_occupancy
  Np  Np0  1  0.666464  0.666464  0.000000  1
  Np  Np1  1  0.333536  0.333536  0.000000  1
  Pa  Pa2  1  0.000000  0.000000  0.000000  1
  As  As3  1  0.500000  0.000000  0.500000  1
  As  As4  1  0.166077  0.666077  0.500000  1
  As  As5  1  0.833923  0.333923  0.500000  1
