# generated using pymatgen
data_Y3ZrIn2Ir3
_symmetry_space_group_name_H-M   'P 1'
_cell_length_a   7.47523452
_cell_length_b   7.22924906
_cell_length_c   4.18325600
_cell_angle_alpha   90.00000000
_cell_angle_beta   90.00000000
_cell_angle_gamma   118.91729398
_symmetry_Int_Tables_number   1
_chemical_formula_structural   Y3ZrIn2Ir3
_chemical_formula_sum   'Y3 Zr1 In2 Ir3'
_cell_volume   197.87850318
_cell_formula_units_Z   1
loop_
 _symmetry_equiv_pos_site_id
 _symmetry_equiv_pos_as_xyz
  1  'x, y, z'
loop_
 _atom_site_type_symbol
 _atom_site_label
 _atom_site_symmetry_multiplicity
 _atom_site_fract_x
 _atom_site_fract_y
 _atom_site_fract_z
 _atom_site_occupancy
  Y  Y0  1  0.582609  0.587894  0.000000  1
  Y  Y1  1  0.417391  0.005285  0.000000  1
  Y  Y2  1  0.000000  0.393714  0.000000  1
  Zr  Zr3  1  0.000000  0.752441  0.500000  1
  In  In4  1  0.255134  0.253339  0.500000  1
  In  In5  1  0.744866  0.998205  0.500000  1
  Ir  Ir6  1  0.000000  0.981643  0.000000  1
  Ir  Ir7  1  0.678945  0.353213  0.500000  1
  Ir  Ir8  1  0.321055  0.674269  0.500000  1
