# generated using pymatgen
data_Ca3Nd(GePd14)2
_symmetry_space_group_name_H-M   'P 1'
_cell_length_a   8.97914000
_cell_length_b   8.97914000
_cell_length_c   7.17026100
_cell_angle_alpha   90.00000000
_cell_angle_beta   90.00000000
_cell_angle_gamma   90.00000000
_symmetry_Int_Tables_number   1
_chemical_formula_structural   Ca3Nd(GePd14)2
_chemical_formula_sum   'Ca3 Nd1 Ge2 Pd28'
_cell_volume   578.10197146
_cell_formula_units_Z   1
loop_
 _symmetry_equiv_pos_site_id
 _symmetry_equiv_pos_as_xyz
  1  'x, y, z'
loop_
 _atom_site_type_symbol
 _atom_site_label
 _atom_site_symmetry_multiplicity
 _atom_site_fract_x
 _atom_site_fract_y
 _atom_site_fract_z
 _atom_site_occupancy
  Ca  Ca0  1  0.000000  0.500000  0.060711  1
  Ca  Ca1  1  0.000000  0.000000  0.500221  1
  Ca  Ca2  1  0.500000  0.500000  0.500221  1
  Nd  Nd3  1  0.500000  0.000000  0.940365  1
  Ge  Ge4  1  0.500000  0.000000  0.450396  1
  Ge  Ge5  1  0.000000  0.500000  0.550150  1
  Pd  Pd6  1  0.329416  0.829416  0.622435  1
  Pd  Pd7  1  0.329416  0.170584  0.622435  1
  Pd  Pd8  1  0.670584  0.829416  0.622435  1
  Pd  Pd9  1  0.670584  0.170584  0.622435  1
  Pd  Pd10  1  0.169901  0.669901  0.376014  1
  Pd  Pd11  1  0.169901  0.330099  0.376014  1
  Pd  Pd12  1  0.830099  0.669901  0.376014  1
  Pd  Pd13  1  0.830099  0.330099  0.376014  1
  Pd  Pd14  1  0.500000  0.766431  0.254767  1
  Pd  Pd15  1  0.500000  0.233569  0.254767  1
  Pd  Pd16  1  0.266431  0.000000  0.254767  1
  Pd  Pd17  1  0.733569  0.000000  0.254767  1
  Pd  Pd18  1  0.000000  0.733249  0.746364  1
  Pd  Pd19  1  0.000000  0.266751  0.746364  1
  Pd  Pd20  1  0.233249  0.500000  0.746364  1
  Pd  Pd21  1  0.766751  0.500000  0.746364  1
  Pd  Pd22  1  0.500000  0.349015  0.857255  1
  Pd  Pd23  1  0.500000  0.650985  0.857255  1
  Pd  Pd24  1  0.849015  0.000000  0.857255  1
  Pd  Pd25  1  0.150985  0.000000  0.857255  1
  Pd  Pd26  1  0.000000  0.150785  0.142651  1
  Pd  Pd27  1  0.000000  0.849215  0.142651  1
  Pd  Pd28  1  0.650785  0.500000  0.142651  1
  Pd  Pd29  1  0.349215  0.500000  0.142651  1
  Pd  Pd30  1  0.249989  0.749989  0.999998  1
  Pd  Pd31  1  0.249989  0.250011  0.999998  1
  Pd  Pd32  1  0.750011  0.749989  0.999998  1
  Pd  Pd33  1  0.750011  0.250011  0.999998  1
