# generated using pymatgen
data_Dy4YBi2Ir
_symmetry_space_group_name_H-M   'P 1'
_cell_length_a   8.02197800
_cell_length_b   9.00412400
_cell_length_c   12.53781100
_cell_angle_alpha   90.00000000
_cell_angle_beta   90.00000000
_cell_angle_gamma   90.00000000
_symmetry_Int_Tables_number   1
_chemical_formula_structural   Dy4YBi2Ir
_chemical_formula_sum   'Dy16 Y4 Bi8 Ir4'
_cell_volume   905.61717994
_cell_formula_units_Z   4
loop_
 _symmetry_equiv_pos_site_id
 _symmetry_equiv_pos_as_xyz
  1  'x, y, z'
loop_
 _atom_site_type_symbol
 _atom_site_label
 _atom_site_symmetry_multiplicity
 _atom_site_fract_x
 _atom_site_fract_y
 _atom_site_fract_z
 _atom_site_occupancy
  Dy  Dy0  1  0.376924  0.750000  0.693030  1
  Dy  Dy1  1  0.623076  0.250000  0.306970  1
  Dy  Dy2  1  0.876924  0.250000  0.806970  1
  Dy  Dy3  1  0.123076  0.750000  0.193030  1
  Dy  Dy4  1  0.946169  0.750000  0.501307  1
  Dy  Dy5  1  0.053831  0.250000  0.498693  1
  Dy  Dy6  1  0.446169  0.250000  0.998693  1
  Dy  Dy7  1  0.553831  0.750000  0.001307  1
  Dy  Dy8  1  0.676375  0.041806  0.566043  1
  Dy  Dy9  1  0.323625  0.958194  0.433957  1
  Dy  Dy10  1  0.176375  0.958194  0.933957  1
  Dy  Dy11  1  0.323625  0.541806  0.433957  1
  Dy  Dy12  1  0.823625  0.041806  0.066043  1
  Dy  Dy13  1  0.676375  0.458194  0.566043  1
  Dy  Dy14  1  0.823625  0.458194  0.066043  1
  Dy  Dy15  1  0.176375  0.541806  0.933957  1
  Y  Y16  1  0.840564  0.750000  0.792615  1
  Y  Y17  1  0.159436  0.250000  0.207385  1
  Y  Y18  1  0.340564  0.250000  0.707385  1
  Y  Y19  1  0.659436  0.750000  0.292615  1
  Bi  Bi20  1  0.569154  0.491133  0.827491  1
  Bi  Bi21  1  0.430846  0.508867  0.172509  1
  Bi  Bi22  1  0.069154  0.508867  0.672509  1
  Bi  Bi23  1  0.430846  0.991133  0.172509  1
  Bi  Bi24  1  0.930846  0.491133  0.327491  1
  Bi  Bi25  1  0.569154  0.008867  0.827491  1
  Bi  Bi26  1  0.930846  0.008867  0.327491  1
  Bi  Bi27  1  0.069154  0.991133  0.672509  1
  Ir  Ir28  1  0.570080  0.750000  0.509768  1
  Ir  Ir29  1  0.429920  0.250000  0.490232  1
  Ir  Ir30  1  0.070080  0.250000  0.990232  1
  Ir  Ir31  1  0.929920  0.750000  0.009768  1
