# generated using pymatgen
data_CeY(CuSb2)2
_symmetry_space_group_name_H-M   'P 1'
_cell_length_a   4.34387600
_cell_length_b   4.34387600
_cell_length_c   9.81925100
_cell_angle_alpha   90.00000000
_cell_angle_beta   90.00000000
_cell_angle_gamma   90.00000000
_symmetry_Int_Tables_number   1
_chemical_formula_structural   CeY(CuSb2)2
_chemical_formula_sum   'Ce1 Y1 Cu2 Sb4'
_cell_volume   185.28198739
_cell_formula_units_Z   1
loop_
 _symmetry_equiv_pos_site_id
 _symmetry_equiv_pos_as_xyz
  1  'x, y, z'
loop_
 _atom_site_type_symbol
 _atom_site_label
 _atom_site_symmetry_multiplicity
 _atom_site_fract_x
 _atom_site_fract_y
 _atom_site_fract_z
 _atom_site_occupancy
  Ce  Ce0  1  0.000000  0.500000  0.751390  1
  Y  Y1  1  0.500000  0.000000  0.251341  1
  Cu  Cu2  1  0.000000  0.000000  0.001347  1
  Cu  Cu3  1  0.500000  0.500000  0.001347  1
  Sb  Sb4  1  0.500000  0.000000  0.838609  1
  Sb  Sb5  1  0.000000  0.500000  0.158327  1
  Sb  Sb6  1  0.000000  0.000000  0.498820  1
  Sb  Sb7  1  0.500000  0.500000  0.498820  1
