# generated using pymatgen
data_Ti2PdAu7
_symmetry_space_group_name_H-M   'P 1'
_cell_length_a   5.01863470
_cell_length_b   5.01863620
_cell_length_c   9.27042847
_cell_angle_alpha   89.94032322
_cell_angle_beta   89.94032206
_cell_angle_gamma   47.17973574
_symmetry_Int_Tables_number   1
_chemical_formula_structural   Ti2PdAu7
_chemical_formula_sum   'Ti2 Pd1 Au7'
_cell_volume   171.26346911
_cell_formula_units_Z   1
loop_
 _symmetry_equiv_pos_site_id
 _symmetry_equiv_pos_as_xyz
  1  'x, y, z'
loop_
 _atom_site_type_symbol
 _atom_site_label
 _atom_site_symmetry_multiplicity
 _atom_site_fract_x
 _atom_site_fract_y
 _atom_site_fract_z
 _atom_site_occupancy
  Ti  Ti0  1  0.699288  0.699288  0.898291  1
  Ti  Ti1  1  0.199009  0.199009  0.404376  1
  Pd  Pd2  1  0.502188  0.502188  0.493565  1
  Au  Au3  1  0.001414  0.001414  0.994065  1
  Au  Au4  1  0.794771  0.794771  0.597049  1
  Au  Au5  1  0.296073  0.296073  0.100042  1
  Au  Au6  1  0.398326  0.398326  0.802508  1
  Au  Au7  1  0.901087  0.901087  0.308354  1
  Au  Au8  1  0.102239  0.102239  0.696911  1
  Au  Au9  1  0.605605  0.605605  0.204839  1
