# generated using pymatgen
data_ErTm2Lu17Bi12
_symmetry_space_group_name_H-M   'P 1'
_cell_length_a   8.13837057
_cell_length_b   9.39882400
_cell_length_c   11.79713102
_cell_angle_alpha   90.00000000
_cell_angle_beta   90.03895543
_cell_angle_gamma   90.00000000
_symmetry_Int_Tables_number   1
_chemical_formula_structural   ErTm2Lu17Bi12
_chemical_formula_sum   'Er1 Tm2 Lu17 Bi12'
_cell_volume   902.37546869
_cell_formula_units_Z   1
loop_
 _symmetry_equiv_pos_site_id
 _symmetry_equiv_pos_as_xyz
  1  'x, y, z'
loop_
 _atom_site_type_symbol
 _atom_site_label
 _atom_site_symmetry_multiplicity
 _atom_site_fract_x
 _atom_site_fract_y
 _atom_site_fract_z
 _atom_site_occupancy
  Er  Er0  1  0.812729  0.250000  0.282758  1
  Tm  Tm1  1  0.687221  0.750000  0.782816  1
  Tm  Tm2  1  0.187216  0.750000  0.717091  1
  Lu  Lu3  1  0.352727  0.750000  0.217857  1
  Lu  Lu4  1  0.852630  0.750000  0.282173  1
  Lu  Lu5  1  0.647256  0.250000  0.782274  1
  Lu  Lu6  1  0.147470  0.250000  0.717856  1
  Lu  Lu7  1  0.692182  0.566996  0.059120  1
  Lu  Lu8  1  0.191961  0.932936  0.440851  1
  Lu  Lu9  1  0.307894  0.066968  0.941004  1
  Lu  Lu10  1  0.808057  0.433061  0.559081  1
  Lu  Lu11  1  0.307894  0.433032  0.941004  1
  Lu  Lu12  1  0.808057  0.066939  0.559081  1
  Lu  Lu13  1  0.692182  0.933004  0.059120  1
  Lu  Lu14  1  0.191961  0.567064  0.440851  1
  Lu  Lu15  1  0.477639  0.250000  0.489106  1
  Lu  Lu16  1  0.977944  0.250000  0.010857  1
  Lu  Lu17  1  0.522085  0.750000  0.510689  1
  Lu  Lu18  1  0.022271  0.750000  0.989367  1
  Lu  Lu19  1  0.312540  0.250000  0.216775  1
  Bi  Bi20  1  0.402765  0.750000  0.957527  1
  Bi  Bi21  1  0.902605  0.750000  0.542472  1
  Bi  Bi22  1  0.596848  0.250000  0.042901  1
  Bi  Bi23  1  0.097807  0.250000  0.457462  1
  Bi  Bi24  1  0.564779  0.995712  0.324993  1
  Bi  Bi25  1  0.065889  0.504132  0.174826  1
  Bi  Bi26  1  0.434785  0.495619  0.674853  1
  Bi  Bi27  1  0.934579  0.004410  0.825281  1
  Bi  Bi28  1  0.434785  0.004381  0.674853  1
  Bi  Bi29  1  0.934579  0.495590  0.825281  1
  Bi  Bi30  1  0.564779  0.504288  0.324993  1
  Bi  Bi31  1  0.065889  0.995868  0.174826  1
