# generated using pymatgen
data_SrMn2O4
_symmetry_space_group_name_H-M   'P 1'
_cell_length_a   5.74966035
_cell_length_b   5.77064265
_cell_length_c   11.70625505
_cell_angle_alpha   91.04147011
_cell_angle_beta   90.07687947
_cell_angle_gamma   89.97550706
_symmetry_Int_Tables_number   1
_chemical_formula_structural   SrMn2O4
_chemical_formula_sum   'Sr4 Mn8 O16'
_cell_volume   388.34004498
_cell_formula_units_Z   4
loop_
 _symmetry_equiv_pos_site_id
 _symmetry_equiv_pos_as_xyz
  1  'x, y, z'
loop_
 _atom_site_type_symbol
 _atom_site_label
 _atom_site_symmetry_multiplicity
 _atom_site_fract_x
 _atom_site_fract_y
 _atom_site_fract_z
 _atom_site_occupancy
  Sr  Sr0  1  0.827221  0.249485  0.749952  1
  Sr  Sr1  1  0.172814  0.750268  0.249990  1
  Sr  Sr2  1  0.605188  0.250329  0.249904  1
  Sr  Sr3  1  0.394607  0.749580  0.750047  1
  Mn  Mn4  1  0.520160  0.749564  0.490182  1
  Mn  Mn5  1  0.519982  0.750492  0.009829  1
  Mn  Mn6  1  0.480111  0.250491  0.509681  1
  Mn  Mn7  1  0.479673  0.249668  0.990149  1
  Mn  Mn8  1  0.000108  0.500067  0.499900  1
  Mn  Mn9  1  0.000126  0.999912  0.000183  1
  Mn  Mn10  1  0.000104  0.000159  0.499904  1
  Mn  Mn11  1  0.999793  0.499840  0.000147  1
  O  O12  1  0.872670  0.746050  0.405263  1
  O  O13  1  0.872449  0.753974  0.094541  1
  O  O14  1  0.127361  0.254118  0.594564  1
  O  O15  1  0.127169  0.245883  0.905647  1
  O  O16  1  0.130418  0.753902  0.589587  1
  O  O17  1  0.129169  0.745893  0.910175  1
  O  O18  1  0.869715  0.246225  0.410268  1
  O  O19  1  0.871167  0.253779  0.090262  1
  O  O20  1  0.620623  0.504251  0.598618  1
  O  O21  1  0.620236  0.996012  0.901504  1
  O  O22  1  0.382045  0.999199  0.401252  1
  O  O23  1  0.382250  0.500819  0.098675  1
  O  O24  1  0.379528  0.495813  0.401311  1
  O  O25  1  0.379285  0.004187  0.098501  1
  O  O26  1  0.618240  0.000835  0.598611  1
  O  O27  1  0.617789  0.499209  0.901349  1
