# generated using pymatgen
data_LiGd3Pd5
_symmetry_space_group_name_H-M   'P 1'
_cell_length_a   8.32416112
_cell_length_b   8.32416183
_cell_length_c   8.32416147
_cell_angle_alpha   128.73889780
_cell_angle_beta   126.05763291
_cell_angle_gamma   77.62137101
_symmetry_Int_Tables_number   1
_chemical_formula_structural   LiGd3Pd5
_chemical_formula_sum   'Li2 Gd6 Pd10'
_cell_volume   352.70607254
_cell_formula_units_Z   2
loop_
 _symmetry_equiv_pos_site_id
 _symmetry_equiv_pos_as_xyz
  1  'x, y, z'
loop_
 _atom_site_type_symbol
 _atom_site_label
 _atom_site_symmetry_multiplicity
 _atom_site_fract_x
 _atom_site_fract_y
 _atom_site_fract_z
 _atom_site_occupancy
  Li  Li0  1  0.779173  0.250000  0.529173  1
  Li  Li1  1  0.220827  0.750000  0.470827  1
  Gd  Gd2  1  0.218394  0.446410  0.771985  1
  Gd  Gd3  1  0.781606  0.553590  0.228015  1
  Gd  Gd4  1  0.825575  0.053590  0.771985  1
  Gd  Gd5  1  0.174425  0.946410  0.228015  1
  Gd  Gd6  1  0.390433  0.250000  0.140433  1
  Gd  Gd7  1  0.609567  0.750000  0.859567  1
  Pd  Pd8  1  0.166829  0.388478  0.347642  1
  Pd  Pd9  1  0.833171  0.180813  0.221648  1
  Pd  Pd10  1  0.459164  0.111522  0.778352  1
  Pd  Pd11  1  0.540836  0.319187  0.652358  1
  Pd  Pd12  1  0.000000  0.500000  0.000000  1
  Pd  Pd13  1  0.000000  0.000000  0.500000  1
  Pd  Pd14  1  0.459164  0.680813  0.347642  1
  Pd  Pd15  1  0.540836  0.888478  0.221648  1
  Pd  Pd16  1  0.166829  0.819187  0.778352  1
  Pd  Pd17  1  0.833171  0.611522  0.652358  1
