# generated using pymatgen
data_Ta8Cr3TcOs4
_symmetry_space_group_name_H-M   'P 1'
_cell_length_a   6.31919000
_cell_length_b   4.46312300
_cell_length_c   8.92765900
_cell_angle_alpha   90.00000000
_cell_angle_beta   89.99969825
_cell_angle_gamma   90.00000000
_symmetry_Int_Tables_number   1
_chemical_formula_structural   Ta8Cr3TcOs4
_chemical_formula_sum   'Ta8 Cr3 Tc1 Os4'
_cell_volume   251.78964354
_cell_formula_units_Z   1
loop_
 _symmetry_equiv_pos_site_id
 _symmetry_equiv_pos_as_xyz
  1  'x, y, z'
loop_
 _atom_site_type_symbol
 _atom_site_label
 _atom_site_symmetry_multiplicity
 _atom_site_fract_x
 _atom_site_fract_y
 _atom_site_fract_z
 _atom_site_occupancy
  Ta  Ta0  1  0.495466  0.749999  0.125008  1
  Ta  Ta1  1  0.004474  0.749999  0.125022  1
  Ta  Ta2  1  0.497950  0.250000  0.378007  1
  Ta  Ta3  1  0.002035  0.250000  0.378019  1
  Ta  Ta4  1  0.999546  0.749999  0.624963  1
  Ta  Ta5  1  0.500466  0.749999  0.624974  1
  Ta  Ta6  1  0.001990  0.250000  0.872001  1
  Ta  Ta7  1  0.498064  0.250000  0.872007  1
  Cr  Cr8  1  0.249977  0.749999  0.374619  1
  Cr  Cr9  1  0.750023  0.250000  0.625015  1
  Cr  Cr10  1  0.250026  0.749999  0.875333  1
  Tc  Tc11  1  0.749986  0.250000  0.125010  1
  Os  Os12  1  0.249981  0.250000  0.124999  1
  Os  Os13  1  0.749978  0.749999  0.375248  1
  Os  Os14  1  0.250020  0.250000  0.624980  1
  Os  Os15  1  0.750019  0.749999  0.874796  1
