# generated using pymatgen
data_Ho4FeSi4Rh
_symmetry_space_group_name_H-M   'P 1'
_cell_length_a   5.64092467
_cell_length_b   5.64092472
_cell_length_c   10.02246306
_cell_angle_alpha   63.36970463
_cell_angle_beta   63.36970534
_cell_angle_gamma   43.42320100
_symmetry_Int_Tables_number   1
_chemical_formula_structural   Ho4FeSi4Rh
_chemical_formula_sum   'Ho4 Fe1 Si4 Rh1'
_cell_volume   192.01575695
_cell_formula_units_Z   1
loop_
 _symmetry_equiv_pos_site_id
 _symmetry_equiv_pos_as_xyz
  1  'x, y, z'
loop_
 _atom_site_type_symbol
 _atom_site_label
 _atom_site_symmetry_multiplicity
 _atom_site_fract_x
 _atom_site_fract_y
 _atom_site_fract_z
 _atom_site_occupancy
  Ho  Ho0  1  0.002259  0.002259  0.324920  1
  Ho  Ho1  1  0.999223  0.999223  0.673110  1
  Ho  Ho2  1  0.813527  0.813527  0.108372  1
  Ho  Ho3  1  0.186433  0.186433  0.890320  1
  Fe  Fe4  1  0.273292  0.273292  0.375664  1
  Si  Si5  1  0.651278  0.651278  0.430694  1
  Si  Si6  1  0.359035  0.359035  0.558796  1
  Si  Si7  1  0.500913  0.500913  0.127731  1
  Si  Si8  1  0.487743  0.487743  0.881385  1
  Rh  Rh9  1  0.726296  0.726296  0.629007  1
