# generated using pymatgen
data_SrPr2Ga8Ag3
_symmetry_space_group_name_H-M   'P 1'
_cell_length_a   4.46600789
_cell_length_b   8.62719029
_cell_length_c   8.62719049
_cell_angle_alpha   68.50540627
_cell_angle_beta   74.99916075
_cell_angle_gamma   74.99915992
_symmetry_Int_Tables_number   1
_chemical_formula_structural   SrPr2Ga8Ag3
_chemical_formula_sum   'Sr1 Pr2 Ga8 Ag3'
_cell_volume   293.72528682
_cell_formula_units_Z   1
loop_
 _symmetry_equiv_pos_site_id
 _symmetry_equiv_pos_as_xyz
  1  'x, y, z'
loop_
 _atom_site_type_symbol
 _atom_site_label
 _atom_site_symmetry_multiplicity
 _atom_site_fract_x
 _atom_site_fract_y
 _atom_site_fract_z
 _atom_site_occupancy
  Sr  Sr0  1  0.500000  0.500000  0.500000  1
  Pr  Pr1  1  0.198877  0.801123  0.801123  1
  Pr  Pr2  1  0.801123  0.198877  0.198877  1
  Ga  Ga3  1  0.355208  0.363121  0.926463  1
  Ga  Ga4  1  0.644792  0.636879  0.073537  1
  Ga  Ga5  1  0.355208  0.926463  0.363121  1
  Ga  Ga6  1  0.644792  0.073537  0.636879  1
  Ga  Ga7  1  0.161440  0.473401  0.203719  1
  Ga  Ga8  1  0.838560  0.526599  0.796281  1
  Ga  Ga9  1  0.161440  0.203719  0.473401  1
  Ga  Ga10  1  0.838560  0.796281  0.526599  1
  Ag  Ag11  1  0.500000  0.000000  0.000000  1
  Ag  Ag12  1  0.000000  0.805965  0.194035  1
  Ag  Ag13  1  0.000000  0.194035  0.805965  1
