# generated using pymatgen
data_Dy2Ho3Al2Ru3
_symmetry_space_group_name_H-M   'P 1'
_cell_length_a   8.31569688
_cell_length_b   8.31569618
_cell_length_c   8.31569708
_cell_angle_alpha   109.47924346
_cell_angle_beta   109.47924208
_cell_angle_gamma   109.47923829
_symmetry_Int_Tables_number   1
_chemical_formula_structural   Dy2Ho3Al2Ru3
_chemical_formula_sum   'Dy4 Ho6 Al4 Ru6'
_cell_volume   442.53232553
_cell_formula_units_Z   2
loop_
 _symmetry_equiv_pos_site_id
 _symmetry_equiv_pos_as_xyz
  1  'x, y, z'
loop_
 _atom_site_type_symbol
 _atom_site_label
 _atom_site_symmetry_multiplicity
 _atom_site_fract_x
 _atom_site_fract_y
 _atom_site_fract_z
 _atom_site_occupancy
  Dy  Dy0  1  0.785893  0.785893  0.785893  1
  Dy  Dy1  1  0.318738  0.568789  0.749833  1
  Dy  Dy2  1  0.749833  0.318738  0.568789  1
  Dy  Dy3  1  0.568789  0.749833  0.318738  1
  Ho  Ho4  1  0.714362  0.499806  0.000328  1
  Ho  Ho5  1  0.000328  0.714362  0.499806  1
  Ho  Ho6  1  0.499806  0.000328  0.714362  1
  Ho  Ho7  1  0.250094  0.180662  0.930747  1
  Ho  Ho8  1  0.930747  0.250094  0.180662  1
  Ho  Ho9  1  0.180662  0.930747  0.250094  1
  Al  Al10  1  0.409543  0.409543  0.409543  1
  Al  Al11  1  0.089518  0.499961  0.000308  1
  Al  Al12  1  0.000308  0.089518  0.499961  1
  Al  Al13  1  0.499961  0.000308  0.089518  1
  Ru  Ru14  1  0.877333  0.127533  0.750424  1
  Ru  Ru15  1  0.750424  0.877333  0.127533  1
  Ru  Ru16  1  0.127533  0.750424  0.877333  1
  Ru  Ru17  1  0.249799  0.623168  0.373161  1
  Ru  Ru18  1  0.373161  0.249799  0.623168  1
  Ru  Ru19  1  0.623168  0.373161  0.249799  1
