# generated using pymatgen
data_VFe3Sn4(SbO6)4
_symmetry_space_group_name_H-M   'P 1'
_cell_length_a   4.73945809
_cell_length_b   9.47998712
_cell_length_c   9.49789200
_cell_angle_alpha   89.99827855
_cell_angle_beta   90.00042861
_cell_angle_gamma   89.97952814
_symmetry_Int_Tables_number   1
_chemical_formula_structural   VFe3Sn4(SbO6)4
_chemical_formula_sum   'V1 Fe3 Sn4 Sb4 O24'
_cell_volume   426.74027618
_cell_formula_units_Z   1
loop_
 _symmetry_equiv_pos_site_id
 _symmetry_equiv_pos_as_xyz
  1  'x, y, z'
loop_
 _atom_site_type_symbol
 _atom_site_label
 _atom_site_symmetry_multiplicity
 _atom_site_fract_x
 _atom_site_fract_y
 _atom_site_fract_z
 _atom_site_occupancy
  V  V0  1  0.500294  0.750049  0.167341  1
  Fe  Fe1  1  0.999917  0.499774  0.667203  1
  Fe  Fe2  1  0.500238  0.250050  0.167109  1
  Fe  Fe3  1  0.000025  0.000253  0.667235  1
  Sn  Sn4  1  0.499910  0.249993  0.499124  1
  Sn  Sn5  1  0.500113  0.749976  0.500290  1
  Sn  Sn6  1  0.000015  0.000036  0.998899  1
  Sn  Sn7  1  0.999999  0.499968  0.998877  1
  Sb  Sb8  1  0.499963  0.249965  0.832955  1
  Sb  Sb9  1  0.499899  0.749969  0.833126  1
  Sb  Sb10  1  0.000257  0.999697  0.333527  1
  Sb  Sb11  1  0.999782  0.500347  0.333500  1
  O  O12  1  0.194506  0.403179  0.171721  1
  O  O13  1  0.196865  0.901290  0.171186  1
  O  O14  1  0.805504  0.096809  0.171721  1
  O  O15  1  0.803012  0.598735  0.171162  1
  O  O16  1  0.304747  0.152399  0.671534  1
  O  O17  1  0.304365  0.652254  0.672028  1
  O  O18  1  0.695135  0.347537  0.671536  1
  O  O19  1  0.695595  0.847728  0.672025  1
  O  O20  1  0.188522  0.405146  0.497642  1
  O  O21  1  0.189278  0.906053  0.498229  1
  O  O22  1  0.811386  0.094857  0.497638  1
  O  O23  1  0.810689  0.593921  0.498236  1
  O  O24  1  0.311371  0.155574  0.998039  1
  O  O25  1  0.310391  0.655425  0.997558  1
  O  O26  1  0.688686  0.344414  0.997990  1
  O  O27  1  0.689605  0.844626  0.997549  1
  O  O28  1  0.198346  0.400435  0.830390  1
  O  O29  1  0.198426  0.901206  0.830161  1
  O  O30  1  0.801599  0.099516  0.830392  1
  O  O31  1  0.801508  0.598776  0.830166  1
  O  O32  1  0.302112  0.150431  0.329866  1
  O  O33  1  0.300563  0.651070  0.332065  1
  O  O34  1  0.697920  0.349541  0.329909  1
  O  O35  1  0.699459  0.849002  0.332072  1
