# generated using pymatgen
data_Tm2Ni(B2O5)2
_symmetry_space_group_name_H-M   'P 1'
_cell_length_a   4.51451909
_cell_length_b   7.22008200
_cell_length_c   9.38645338
_cell_angle_alpha   89.99995179
_cell_angle_beta   91.20384732
_cell_angle_gamma   90.00000846
_symmetry_Int_Tables_number   1
_chemical_formula_structural   Tm2Ni(B2O5)2
_chemical_formula_sum   'Tm4 Ni2 B8 O20'
_cell_volume   305.88577496
_cell_formula_units_Z   2
loop_
 _symmetry_equiv_pos_site_id
 _symmetry_equiv_pos_as_xyz
  1  'x, y, z'
loop_
 _atom_site_type_symbol
 _atom_site_label
 _atom_site_symmetry_multiplicity
 _atom_site_fract_x
 _atom_site_fract_y
 _atom_site_fract_z
 _atom_site_occupancy
  Tm  Tm0  1  0.002878  0.100266  0.664391  1
  Tm  Tm1  1  0.997123  0.600265  0.835609  1
  Tm  Tm2  1  0.997121  0.899733  0.335609  1
  Tm  Tm3  1  0.002878  0.399734  0.164392  1
  Ni  Ni4  1  0.999999  0.000000  0.000001  1
  Ni  Ni5  1  0.000000  0.500001  0.499999  1
  B  B6  1  0.463164  0.095662  0.161940  1
  B  B7  1  0.536837  0.595662  0.338062  1
  B  B8  1  0.536837  0.904337  0.838061  1
  B  B9  1  0.463164  0.404338  0.661939  1
  B  B10  1  0.472210  0.766586  0.584292  1
  B  B11  1  0.527790  0.266585  0.915708  1
  B  B12  1  0.527790  0.233414  0.415708  1
  B  B13  1  0.472212  0.733415  0.084292  1
  O  O14  1  0.249593  0.894221  0.538217  1
  O  O15  1  0.750407  0.394220  0.961783  1
  O  O16  1  0.750407  0.105780  0.461783  1
  O  O17  1  0.249595  0.605780  0.038217  1
  O  O18  1  0.323088  0.169111  0.295928  1
  O  O19  1  0.676913  0.669112  0.204073  1
  O  O20  1  0.676912  0.830889  0.704072  1
  O  O21  1  0.323089  0.330889  0.795928  1
  O  O22  1  0.331036  0.207710  0.038330  1
  O  O23  1  0.668964  0.707710  0.461671  1
  O  O24  1  0.668966  0.792290  0.961670  1
  O  O25  1  0.331036  0.292290  0.538330  1
  O  O26  1  0.320356  0.905993  0.143479  1
  O  O27  1  0.679645  0.405994  0.356522  1
  O  O28  1  0.679645  0.094006  0.856522  1
  O  O29  1  0.320356  0.594007  0.643479  1
  O  O30  1  0.777842  0.096289  0.167944  1
  O  O31  1  0.222158  0.596289  0.332057  1
  O  O32  1  0.222158  0.903711  0.832056  1
  O  O33  1  0.777842  0.403712  0.667944  1
