# generated using pymatgen
data_BaZn4Ni9
_symmetry_space_group_name_H-M   'P 1'
_cell_length_a   8.22621398
_cell_length_b   8.22621390
_cell_length_c   8.22621341
_cell_angle_alpha   120.58142644
_cell_angle_beta   120.58142861
_cell_angle_gamma   88.99585444
_symmetry_Int_Tables_number   1
_chemical_formula_structural   BaZn4Ni9
_chemical_formula_sum   'Ba2 Zn8 Ni18'
_cell_volume   390.10281166
_cell_formula_units_Z   2
loop_
 _symmetry_equiv_pos_site_id
 _symmetry_equiv_pos_as_xyz
  1  'x, y, z'
loop_
 _atom_site_type_symbol
 _atom_site_label
 _atom_site_symmetry_multiplicity
 _atom_site_fract_x
 _atom_site_fract_y
 _atom_site_fract_z
 _atom_site_occupancy
  Ba  Ba0  1  0.750000  0.750000  0.000000  1
  Ba  Ba1  1  0.250000  0.250000  0.000000  1
  Zn  Zn2  1  0.060653  0.560653  0.863284  1
  Zn  Zn3  1  0.697369  0.197369  0.136716  1
  Zn  Zn4  1  0.560653  0.697369  0.500000  1
  Zn  Zn5  1  0.197369  0.060653  0.500000  1
  Zn  Zn6  1  0.939347  0.439347  0.136716  1
  Zn  Zn7  1  0.302631  0.802631  0.863284  1
  Zn  Zn8  1  0.439347  0.302631  0.500000  1
  Zn  Zn9  1  0.802631  0.939347  0.500000  1
  Ni  Ni10  1  0.065121  0.206862  0.271983  1
  Ni  Ni11  1  0.934879  0.793138  0.728017  1
  Ni  Ni12  1  0.565121  0.293138  0.858260  1
  Ni  Ni13  1  0.434879  0.706862  0.141740  1
  Ni  Ni14  1  0.793138  0.065121  0.858260  1
  Ni  Ni15  1  0.206862  0.934879  0.141740  1
  Ni  Ni16  1  0.706862  0.565121  0.271983  1
  Ni  Ni17  1  0.293138  0.434879  0.728017  1
  Ni  Ni18  1  0.434422  0.934422  0.720067  1
  Ni  Ni19  1  0.214354  0.714354  0.279933  1
  Ni  Ni20  1  0.934422  0.214354  0.500000  1
  Ni  Ni21  1  0.714354  0.434422  0.500000  1
  Ni  Ni22  1  0.565578  0.065578  0.279933  1
  Ni  Ni23  1  0.785646  0.285646  0.720067  1
  Ni  Ni24  1  0.065578  0.785646  0.500000  1
  Ni  Ni25  1  0.285646  0.565578  0.500000  1
  Ni  Ni26  1  0.000000  0.500000  0.500000  1
  Ni  Ni27  1  0.500000  0.000000  0.500000  1
