# generated using pymatgen
data_HfZrAlH
_symmetry_space_group_name_H-M   'P 1'
_cell_length_a   5.57142227
_cell_length_b   5.57142055
_cell_length_c   5.55824996
_cell_angle_alpha   104.18319837
_cell_angle_beta   104.18320655
_cell_angle_gamma   120.73795097
_symmetry_Int_Tables_number   1
_chemical_formula_structural   HfZrAlH
_chemical_formula_sum   'Hf2 Zr2 Al2 H2'
_cell_volume   128.80203646
_cell_formula_units_Z   2
loop_
 _symmetry_equiv_pos_site_id
 _symmetry_equiv_pos_as_xyz
  1  'x, y, z'
loop_
 _atom_site_type_symbol
 _atom_site_label
 _atom_site_symmetry_multiplicity
 _atom_site_fract_x
 _atom_site_fract_y
 _atom_site_fract_z
 _atom_site_occupancy
  Hf  Hf0  1  0.339249  0.160751  0.500000  1
  Hf  Hf1  1  0.660751  0.839249  0.500000  1
  Zr  Zr2  1  0.158566  0.658566  0.817132  1
  Zr  Zr3  1  0.841434  0.341434  0.182868  1
  Al  Al4  1  0.250000  0.250000  0.000000  1
  Al  Al5  1  0.750000  0.750000  0.000000  1
  H  H6  1  0.741145  0.241145  0.500000  1
  H  H7  1  0.258855  0.758855  0.500000  1
