# generated using pymatgen
data_Hf8Mn11Si16Ru
_symmetry_space_group_name_H-M   'P 1'
_cell_length_a   5.13695087
_cell_length_b   9.73175607
_cell_length_c   10.71130141
_cell_angle_alpha   79.11311759
_cell_angle_beta   103.85451702
_cell_angle_gamma   105.36872689
_symmetry_Int_Tables_number   1
_chemical_formula_structural   Hf8Mn11Si16Ru
_chemical_formula_sum   'Hf8 Mn11 Si16 Ru1'
_cell_volume   496.78651860
_cell_formula_units_Z   1
loop_
 _symmetry_equiv_pos_site_id
 _symmetry_equiv_pos_as_xyz
  1  'x, y, z'
loop_
 _atom_site_type_symbol
 _atom_site_label
 _atom_site_symmetry_multiplicity
 _atom_site_fract_x
 _atom_site_fract_y
 _atom_site_fract_z
 _atom_site_occupancy
  Hf  Hf0  1  0.964161  0.529620  0.142555  1
  Hf  Hf1  1  0.707240  0.998374  0.142446  1
  Hf  Hf2  1  0.567005  0.501799  0.358726  1
  Hf  Hf3  1  0.292796  0.969320  0.357066  1
  Hf  Hf4  1  0.705727  0.027924  0.642456  1
  Hf  Hf5  1  0.433225  0.498567  0.641497  1
  Hf  Hf6  1  0.291433  0.000192  0.856944  1
  Hf  Hf7  1  0.033450  0.471134  0.856070  1
  Mn  Mn8  1  0.514949  0.693077  0.064244  1
  Mn  Mn9  1  0.108979  0.874630  0.083288  1
  Mn  Mn10  1  0.647067  0.254683  0.227880  1
  Mn  Mn11  1  0.166701  0.244234  0.275645  1
  Mn  Mn12  1  0.150472  0.625075  0.416820  1
  Mn  Mn13  1  0.757781  0.807572  0.435880  1
  Mn  Mn14  1  0.242536  0.193231  0.563948  1
  Mn  Mn15  1  0.848985  0.375835  0.583064  1
  Mn  Mn16  1  0.835686  0.755269  0.725587  1
  Mn  Mn17  1  0.353236  0.745088  0.773976  1
  Mn  Mn18  1  0.890570  0.125107  0.916358  1
  Si  Si19  1  0.919075  0.275426  0.065766  1
  Si  Si20  1  0.393517  0.429390  0.107177  1
  Si  Si21  1  0.256320  0.117795  0.104233  1
  Si  Si22  1  0.387011  0.749529  0.250128  1
  Si  Si23  1  0.882416  0.749749  0.250152  1
  Si  Si24  1  0.033143  0.380909  0.396963  1
  Si  Si25  1  0.862473  0.072349  0.396509  1
  Si  Si26  1  0.573865  0.223547  0.436918  1
  Si  Si27  1  0.427786  0.775174  0.563699  1
  Si  Si28  1  0.136525  0.926670  0.602744  1
  Si  Si29  1  0.966087  0.620029  0.602127  1
  Si  Si30  1  0.110285  0.248442  0.746677  1
  Si  Si31  1  0.614423  0.248412  0.746681  1
  Si  Si32  1  0.743900  0.880683  0.897777  1
  Si  Si33  1  0.609302  0.578291  0.895963  1
  Si  Si34  1  0.088953  0.723950  0.936469  1
  Ru  Ru35  1  0.482921  0.308926  0.935569  1
