# generated using pymatgen
data_ZrSc(Ni3P2)2
_symmetry_space_group_name_H-M   'P 1'
_cell_length_a   3.64768500
_cell_length_b   10.37443504
_cell_length_c   12.07867405
_cell_angle_alpha   89.99001712
_cell_angle_beta   90.00053269
_cell_angle_gamma   90.00063449
_symmetry_Int_Tables_number   1
_chemical_formula_structural   ZrSc(Ni3P2)2
_chemical_formula_sum   'Zr3 Sc3 Ni18 P12'
_cell_volume   457.08928200
_cell_formula_units_Z   3
loop_
 _symmetry_equiv_pos_site_id
 _symmetry_equiv_pos_as_xyz
  1  'x, y, z'
loop_
 _atom_site_type_symbol
 _atom_site_label
 _atom_site_symmetry_multiplicity
 _atom_site_fract_x
 _atom_site_fract_y
 _atom_site_fract_z
 _atom_site_occupancy
  Zr  Zr0  1  0.251884  0.319785  0.794284  1
  Zr  Zr1  1  0.751871  0.820838  0.205662  1
  Zr  Zr2  1  0.751872  0.179031  0.206078  1
  Sc  Sc3  1  0.752016  0.999873  0.474562  1
  Sc  Sc4  1  0.252022  0.500286  0.525227  1
  Sc  Sc5  1  0.251905  0.678849  0.793373  1
  Ni  Ni6  1  0.751647  0.999743  0.013887  1
  Ni  Ni7  1  0.251638  0.500471  0.985945  1
  Ni  Ni8  1  0.251978  0.197580  0.569507  1
  Ni  Ni9  1  0.251990  0.802084  0.569099  1
  Ni  Ni10  1  0.751971  0.302153  0.430587  1
  Ni  Ni11  1  0.751982  0.698559  0.430695  1
  Ni  Ni12  1  0.251789  0.623310  0.292175  1
  Ni  Ni13  1  0.251794  0.376445  0.292100  1
  Ni  Ni14  1  0.751801  0.875457  0.708214  1
  Ni  Ni15  1  0.751749  0.122443  0.707710  1
  Ni  Ni16  1  0.251723  0.168458  0.004305  1
  Ni  Ni17  1  0.251733  0.831629  0.003507  1
  Ni  Ni18  1  0.751729  0.331548  0.996736  1
  Ni  Ni19  1  0.751721  0.668486  0.995756  1
  Ni  Ni20  1  0.251364  0.000773  0.837091  1
  Ni  Ni21  1  0.751354  0.500254  0.163068  1
  Ni  Ni22  1  0.251982  0.000374  0.300532  1
  Ni  Ni23  1  0.751994  0.500459  0.699544  1
  P  P24  1  0.251998  0.183245  0.384788  1
  P  P25  1  0.252002  0.817152  0.384432  1
  P  P26  1  0.752013  0.316957  0.615754  1
  P  P27  1  0.752010  0.683214  0.616132  1
  P  P28  1  0.251731  0.999883  0.123474  1
  P  P29  1  0.751725  0.500428  0.876104  1
  P  P30  1  0.251717  0.655217  0.112077  1
  P  P31  1  0.251711  0.345267  0.111966  1
  P  P32  1  0.751726  0.844361  0.887645  1
  P  P33  1  0.751729  0.155418  0.887876  1
  P  P34  1  0.251863  0.999640  0.648474  1
  P  P35  1  0.751873  0.500330  0.351635  1
