# generated using pymatgen
data_YbEr3Os8
_symmetry_space_group_name_H-M   'P 1'
_cell_length_a   5.30531400
_cell_length_b   5.30531289
_cell_length_c   8.82432900
_cell_angle_alpha   90.00000000
_cell_angle_beta   90.00000000
_cell_angle_gamma   119.99999442
_symmetry_Int_Tables_number   1
_chemical_formula_structural   YbEr3Os8
_chemical_formula_sum   'Yb1 Er3 Os8'
_cell_volume   215.09704472
_cell_formula_units_Z   1
loop_
 _symmetry_equiv_pos_site_id
 _symmetry_equiv_pos_as_xyz
  1  'x, y, z'
loop_
 _atom_site_type_symbol
 _atom_site_label
 _atom_site_symmetry_multiplicity
 _atom_site_fract_x
 _atom_site_fract_y
 _atom_site_fract_z
 _atom_site_occupancy
  Yb  Yb0  1  0.333333  0.666667  0.063620  1
  Er  Er1  1  0.333333  0.666667  0.429895  1
  Er  Er2  1  0.666667  0.333333  0.565771  1
  Er  Er3  1  0.666667  0.333333  0.938448  1
  Os  Os4  1  0.000000  0.000000  0.500942  1
  Os  Os5  1  0.000000  0.000000  0.000452  1
  Os  Os6  1  0.827911  0.172089  0.250687  1
  Os  Os7  1  0.827911  0.655822  0.250687  1
  Os  Os8  1  0.344178  0.172089  0.250687  1
  Os  Os9  1  0.172797  0.827203  0.749603  1
  Os  Os10  1  0.172797  0.345594  0.749603  1
  Os  Os11  1  0.654406  0.827203  0.749603  1
