# generated using pymatgen
data_YbLuNpO6
_symmetry_space_group_name_H-M   'P 1'
_cell_length_a   5.39824800
_cell_length_b   7.62741038
_cell_length_c   11.46695400
_cell_angle_alpha   74.17407343
_cell_angle_beta   90.00000000
_cell_angle_gamma   90.00000000
_symmetry_Int_Tables_number   1
_chemical_formula_structural   YbLuNpO6
_chemical_formula_sum   'Yb4 Lu4 Np4 O24'
_cell_volume   454.25093779
_cell_formula_units_Z   4
loop_
 _symmetry_equiv_pos_site_id
 _symmetry_equiv_pos_as_xyz
  1  'x, y, z'
loop_
 _atom_site_type_symbol
 _atom_site_label
 _atom_site_symmetry_multiplicity
 _atom_site_fract_x
 _atom_site_fract_y
 _atom_site_fract_z
 _atom_site_occupancy
  Yb  Yb0  1  0.694304  0.500000  0.250000  1
  Yb  Yb1  1  0.305696  0.500000  0.750000  1
  Yb  Yb2  1  0.746907  0.000000  0.250000  1
  Yb  Yb3  1  0.253093  0.000000  0.750000  1
  Lu  Lu4  1  0.183090  0.205626  0.418860  1
  Lu  Lu5  1  0.183090  0.794374  0.081140  1
  Lu  Lu6  1  0.816910  0.794374  0.581140  1
  Lu  Lu7  1  0.816910  0.205626  0.918860  1
  Np  Np8  1  0.255291  0.279405  0.113494  1
  Np  Np9  1  0.255291  0.720595  0.386506  1
  Np  Np10  1  0.744709  0.720595  0.886506  1
  Np  Np11  1  0.744709  0.279405  0.613494  1
  O  O12  1  0.446290  0.201261  0.272664  1
  O  O13  1  0.446290  0.798739  0.227336  1
  O  O14  1  0.553710  0.798739  0.727336  1
  O  O15  1  0.553710  0.201261  0.772664  1
  O  O16  1  0.046198  0.058901  0.098151  1
  O  O17  1  0.046198  0.941099  0.401849  1
  O  O18  1  0.953802  0.941099  0.901849  1
  O  O19  1  0.953802  0.058901  0.598151  1
  O  O20  1  0.977960  0.285008  0.233671  1
  O  O21  1  0.977960  0.714992  0.266329  1
  O  O22  1  0.022040  0.714992  0.766329  1
  O  O23  1  0.022040  0.285008  0.733671  1
  O  O24  1  0.881145  0.377273  0.445721  1
  O  O25  1  0.881145  0.622727  0.054279  1
  O  O26  1  0.118855  0.622727  0.554279  1
  O  O27  1  0.118855  0.377273  0.945721  1
  O  O28  1  0.619356  0.524071  0.611361  1
  O  O29  1  0.619356  0.475929  0.888639  1
  O  O30  1  0.380644  0.475929  0.388639  1
  O  O31  1  0.380644  0.524071  0.111361  1
  O  O32  1  0.453925  0.152424  0.562664  1
  O  O33  1  0.453925  0.847576  0.937336  1
  O  O34  1  0.546075  0.847576  0.437336  1
  O  O35  1  0.546075  0.152424  0.062664  1
