# generated using pymatgen
data_EuTe4Pb3
_symmetry_space_group_name_H-M   'P 1'
_cell_length_a   8.06629366
_cell_length_b   8.06629323
_cell_length_c   8.06939640
_cell_angle_alpha   80.68980318
_cell_angle_beta   80.68980428
_cell_angle_gamma   34.01750990
_symmetry_Int_Tables_number   1
_chemical_formula_structural   EuTe4Pb3
_chemical_formula_sum   'Eu1 Te4 Pb3'
_cell_volume   289.49538966
_cell_formula_units_Z   1
loop_
 _symmetry_equiv_pos_site_id
 _symmetry_equiv_pos_as_xyz
  1  'x, y, z'
loop_
 _atom_site_type_symbol
 _atom_site_label
 _atom_site_symmetry_multiplicity
 _atom_site_fract_x
 _atom_site_fract_y
 _atom_site_fract_z
 _atom_site_occupancy
  Eu  Eu0  1  0.000000  0.000000  0.000000  1
  Te  Te1  1  0.624370  0.624370  0.124212  1
  Te  Te2  1  0.875316  0.875316  0.373895  1
  Te  Te3  1  0.124684  0.124684  0.626105  1
  Te  Te4  1  0.375630  0.375630  0.875788  1
  Pb  Pb5  1  0.249910  0.249910  0.249727  1
  Pb  Pb6  1  0.500000  0.500000  0.500000  1
  Pb  Pb7  1  0.750090  0.750090  0.750273  1
