# generated using pymatgen
data_CsCd4Ga5Se12
_symmetry_space_group_name_H-M   'P 1'
_cell_length_a   9.08984010
_cell_length_b   9.15175315
_cell_length_c   9.36679452
_cell_angle_alpha   108.51203065
_cell_angle_beta   106.56184521
_cell_angle_gamma   108.05871060
_symmetry_Int_Tables_number   1
_chemical_formula_structural   CsCd4Ga5Se12
_chemical_formula_sum   'Cs1 Cd4 Ga5 Se12'
_cell_volume   635.77173852
_cell_formula_units_Z   1
loop_
 _symmetry_equiv_pos_site_id
 _symmetry_equiv_pos_as_xyz
  1  'x, y, z'
loop_
 _atom_site_type_symbol
 _atom_site_label
 _atom_site_symmetry_multiplicity
 _atom_site_fract_x
 _atom_site_fract_y
 _atom_site_fract_z
 _atom_site_occupancy
  Cs  Cs0  1  0.998107  0.001585  0.002274  1
  Cd  Cd1  1  0.488160  0.338866  0.935003  1
  Cd  Cd2  1  0.625959  0.708419  0.402149  1
  Cd  Cd3  1  0.407396  0.642473  0.717901  1
  Cd  Cd4  1  0.715250  0.402760  0.635442  1
  Ga  Ga5  1  0.189024  0.555079  0.026742  1
  Ga  Ga6  1  0.022700  0.186365  0.554168  1
  Ga  Ga7  1  0.562789  0.023304  0.193579  1
  Ga  Ga8  1  0.935689  0.470600  0.333632  1
  Ga  Ga9  1  0.321355  0.929537  0.469152  1
  Se  Se10  1  0.873618  0.632955  0.545619  1
  Se  Se11  1  0.546112  0.885371  0.631954  1
  Se  Se12  1  0.655985  0.582462  0.873489  1
  Se  Se13  1  0.355985  0.432976  0.149048  1
  Se  Se14  1  0.147544  0.372190  0.440486  1
  Se  Se15  1  0.433518  0.139704  0.368397  1
  Se  Se16  1  0.066931  0.674747  0.223265  1
  Se  Se17  1  0.211994  0.065172  0.661846  1
  Se  Se18  1  0.697864  0.216503  0.084703  1
  Se  Se19  1  0.781503  0.936778  0.302431  1
  Se  Se20  1  0.301837  0.784342  0.949552  1
  Se  Se21  1  0.941881  0.299012  0.780371  1
