# generated using pymatgen
data_Dy5Y(Er2Pb3)2
_symmetry_space_group_name_H-M   'P 1'
_cell_length_a   9.05359402
_cell_length_b   9.05359390
_cell_length_c   6.58856300
_cell_angle_alpha   90.00000000
_cell_angle_beta   90.00000000
_cell_angle_gamma   119.99183363
_symmetry_Int_Tables_number   1
_chemical_formula_structural   Dy5Y(Er2Pb3)2
_chemical_formula_sum   'Dy5 Y1 Er4 Pb6'
_cell_volume   467.73416488
_cell_formula_units_Z   1
loop_
 _symmetry_equiv_pos_site_id
 _symmetry_equiv_pos_as_xyz
  1  'x, y, z'
loop_
 _atom_site_type_symbol
 _atom_site_label
 _atom_site_symmetry_multiplicity
 _atom_site_fract_x
 _atom_site_fract_y
 _atom_site_fract_z
 _atom_site_occupancy
  Dy  Dy0  1  0.239205  0.999999  0.750000  1
  Dy  Dy1  1  0.999999  0.239205  0.750000  1
  Dy  Dy2  1  0.239179  0.239179  0.250000  1
  Dy  Dy3  1  0.760806  0.000016  0.250000  1
  Dy  Dy4  1  0.000016  0.760806  0.250000  1
  Y  Y5  1  0.760795  0.760795  0.750000  1
  Er  Er6  1  0.666660  0.333372  0.999969  1
  Er  Er7  1  0.333372  0.666660  0.999969  1
  Er  Er8  1  0.333372  0.666660  0.500031  1
  Er  Er9  1  0.666660  0.333372  0.500031  1
  Pb  Pb10  1  0.394019  0.394019  0.750000  1
  Pb  Pb11  1  0.605961  0.999997  0.750000  1
  Pb  Pb12  1  0.999997  0.605961  0.750000  1
  Pb  Pb13  1  0.605952  0.605952  0.250000  1
  Pb  Pb14  1  0.394024  0.999982  0.250000  1
  Pb  Pb15  1  0.999982  0.394024  0.250000  1
