# generated using pymatgen
data_Er6Al24IrOs6Rh
_symmetry_space_group_name_H-M   'P 1'
_cell_length_a   8.79079591
_cell_length_b   8.79079567
_cell_length_c   9.52418972
_cell_angle_alpha   89.96136191
_cell_angle_beta   90.03863882
_cell_angle_gamma   119.42223077
_symmetry_Int_Tables_number   1
_chemical_formula_structural   Er6Al24IrOs6Rh
_chemical_formula_sum   'Er6 Al24 Ir1 Os6 Rh1'
_cell_volume   641.08268702
_cell_formula_units_Z   1
loop_
 _symmetry_equiv_pos_site_id
 _symmetry_equiv_pos_as_xyz
  1  'x, y, z'
loop_
 _atom_site_type_symbol
 _atom_site_label
 _atom_site_symmetry_multiplicity
 _atom_site_fract_x
 _atom_site_fract_y
 _atom_site_fract_z
 _atom_site_occupancy
  Er  Er0  1  0.187368  0.387113  0.250522  1
  Er  Er1  1  0.812632  0.612887  0.749478  1
  Er  Er2  1  0.612887  0.812632  0.250522  1
  Er  Er3  1  0.387113  0.187368  0.749478  1
  Er  Er4  1  0.195182  0.804818  0.250986  1
  Er  Er5  1  0.804818  0.195182  0.749014  1
  Al  Al6  1  0.332748  0.667252  0.020942  1
  Al  Al7  1  0.667252  0.332748  0.979058  1
  Al  Al8  1  0.667247  0.332753  0.520430  1
  Al  Al9  1  0.332753  0.667247  0.479570  1
  Al  Al10  1  0.162880  0.325025  0.577005  1
  Al  Al11  1  0.837120  0.674975  0.422995  1
  Al  Al12  1  0.674975  0.837120  0.577005  1
  Al  Al13  1  0.838119  0.675605  0.077988  1
  Al  Al14  1  0.325025  0.162880  0.422995  1
  Al  Al15  1  0.161881  0.324395  0.922012  1
  Al  Al16  1  0.164068  0.835932  0.575442  1
  Al  Al17  1  0.324395  0.161881  0.077988  1
  Al  Al18  1  0.835932  0.164068  0.424558  1
  Al  Al19  1  0.675605  0.838119  0.922012  1
  Al  Al20  1  0.835958  0.164042  0.075317  1
  Al  Al21  1  0.164042  0.835958  0.924683  1
  Al  Al22  1  0.559914  0.123163  0.250005  1
  Al  Al23  1  0.440086  0.876837  0.749995  1
  Al  Al24  1  0.876837  0.440086  0.250005  1
  Al  Al25  1  0.123163  0.559914  0.749995  1
  Al  Al26  1  0.559782  0.440218  0.249811  1
  Al  Al27  1  0.440218  0.559782  0.750189  1
  Al  Al28  1  0.999005  0.000995  0.250062  1
  Al  Al29  1  0.000995  0.999005  0.749938  1
  Ir  Ir30  1  0.500000  0.500000  0.500000  1
  Os  Os31  1  0.500000  0.000000  0.000000  1
  Os  Os32  1  0.000000  0.500000  0.000000  1
  Os  Os33  1  0.500000  0.000000  0.500000  1
  Os  Os34  1  0.000000  0.500000  0.500000  1
  Os  Os35  1  0.000000  0.000000  0.000000  1
  Os  Os36  1  0.000000  0.000000  0.500000  1
  Rh  Rh37  1  0.500000  0.500000  0.000000  1
