# generated using pymatgen
data_SmYI18
_symmetry_space_group_name_H-M   'P 1'
_cell_length_a   10.50716348
_cell_length_b   10.50716505
_cell_length_c   10.50716728
_cell_angle_alpha   88.77760421
_cell_angle_beta   88.77760620
_cell_angle_gamma   88.77762153
_symmetry_Int_Tables_number   1
_chemical_formula_structural   SmYI18
_chemical_formula_sum   'Sm1 Y1 I18'
_cell_volume   1159.21565628
_cell_formula_units_Z   1
loop_
 _symmetry_equiv_pos_site_id
 _symmetry_equiv_pos_as_xyz
  1  'x, y, z'
loop_
 _atom_site_type_symbol
 _atom_site_label
 _atom_site_symmetry_multiplicity
 _atom_site_fract_x
 _atom_site_fract_y
 _atom_site_fract_z
 _atom_site_occupancy
  Sm  Sm0  1  0.000000  0.000000  0.000000  1
  Y  Y1  1  0.500000  0.500000  0.500000  1
  I  I2  1  0.749446  0.130344  0.603312  1
  I  I3  1  0.993973  0.040348  0.706523  1
  I  I4  1  0.603312  0.749446  0.130344  1
  I  I5  1  0.959652  0.293477  0.006027  1
  I  I6  1  0.706523  0.993973  0.040348  1
  I  I7  1  0.040348  0.706523  0.993973  1
  I  I8  1  0.006027  0.959652  0.293477  1
  I  I9  1  0.869656  0.396688  0.250554  1
  I  I10  1  0.293477  0.006027  0.959652  1
  I  I11  1  0.250554  0.869656  0.396688  1
  I  I12  1  0.130344  0.603312  0.749446  1
  I  I13  1  0.396688  0.250554  0.869656  1
  I  I14  1  0.789674  0.524323  0.486438  1
  I  I15  1  0.524323  0.486438  0.789674  1
  I  I16  1  0.210326  0.475677  0.513562  1
  I  I17  1  0.475677  0.513562  0.210326  1
  I  I18  1  0.486438  0.789674  0.524323  1
  I  I19  1  0.513562  0.210326  0.475677  1
