# generated using pymatgen
data_DyTm6Co6Sn23
_symmetry_space_group_name_H-M   'P 1'
_cell_length_a   9.66641900
_cell_length_b   9.66641925
_cell_length_c   9.94019400
_cell_angle_alpha   90.00000000
_cell_angle_beta   90.00000000
_cell_angle_gamma   119.99999571
_symmetry_Int_Tables_number   1
_chemical_formula_structural   DyTm6Co6Sn23
_chemical_formula_sum   'Dy1 Tm6 Co6 Sn23'
_cell_volume   804.37164832
_cell_formula_units_Z   1
loop_
 _symmetry_equiv_pos_site_id
 _symmetry_equiv_pos_as_xyz
  1  'x, y, z'
loop_
 _atom_site_type_symbol
 _atom_site_label
 _atom_site_symmetry_multiplicity
 _atom_site_fract_x
 _atom_site_fract_y
 _atom_site_fract_z
 _atom_site_occupancy
  Dy  Dy0  1  0.000000  0.000000  0.000000  1
  Tm  Tm1  1  0.479266  0.520734  0.306120  1
  Tm  Tm2  1  0.520734  0.479266  0.693880  1
  Tm  Tm3  1  0.479266  0.958531  0.306120  1
  Tm  Tm4  1  0.520734  0.041469  0.693880  1
  Tm  Tm5  1  0.041469  0.520734  0.306120  1
  Tm  Tm6  1  0.958531  0.479266  0.693880  1
  Co  Co7  1  0.831940  0.168060  0.197271  1
  Co  Co8  1  0.168060  0.831940  0.802729  1
  Co  Co9  1  0.831940  0.663879  0.197271  1
  Co  Co10  1  0.168060  0.336121  0.802729  1
  Co  Co11  1  0.336121  0.168060  0.197271  1
  Co  Co12  1  0.663879  0.831940  0.802729  1
  Sn  Sn13  1  0.346309  0.000000  0.000000  1
  Sn  Sn14  1  0.653691  0.000000  0.000000  1
  Sn  Sn15  1  0.000000  0.346309  0.000000  1
  Sn  Sn16  1  0.000000  0.653691  0.000000  1
  Sn  Sn17  1  0.653691  0.653691  0.000000  1
  Sn  Sn18  1  0.346309  0.346309  0.000000  1
  Sn  Sn19  1  0.333333  0.666667  0.817558  1
  Sn  Sn20  1  0.666667  0.333333  0.182442  1
  Sn  Sn21  1  0.000000  0.000000  0.500000  1
  Sn  Sn22  1  0.780782  0.219218  0.451740  1
  Sn  Sn23  1  0.219218  0.780782  0.548260  1
  Sn  Sn24  1  0.780782  0.561565  0.451740  1
  Sn  Sn25  1  0.219218  0.438435  0.548260  1
  Sn  Sn26  1  0.438435  0.219218  0.451740  1
  Sn  Sn27  1  0.561565  0.780782  0.548260  1
  Sn  Sn28  1  0.333333  0.666667  0.120778  1
  Sn  Sn29  1  0.666667  0.333333  0.879222  1
  Sn  Sn30  1  0.118772  0.881228  0.274812  1
  Sn  Sn31  1  0.881228  0.118772  0.725188  1
  Sn  Sn32  1  0.118772  0.237543  0.274812  1
  Sn  Sn33  1  0.881228  0.762457  0.725188  1
  Sn  Sn34  1  0.762457  0.881228  0.274812  1
  Sn  Sn35  1  0.237543  0.118772  0.725188  1
