# generated using pymatgen
data_Li6AlP5Rh12
_symmetry_space_group_name_H-M   'P 1'
_cell_length_a   4.08628400
_cell_length_b   5.79896100
_cell_length_c   12.26494000
_cell_angle_alpha   89.99985609
_cell_angle_beta   90.00075697
_cell_angle_gamma   89.99974536
_symmetry_Int_Tables_number   1
_chemical_formula_structural   Li6AlP5Rh12
_chemical_formula_sum   'Li6 Al1 P5 Rh12'
_cell_volume   290.63249024
_cell_formula_units_Z   1
loop_
 _symmetry_equiv_pos_site_id
 _symmetry_equiv_pos_as_xyz
  1  'x, y, z'
loop_
 _atom_site_type_symbol
 _atom_site_label
 _atom_site_symmetry_multiplicity
 _atom_site_fract_x
 _atom_site_fract_y
 _atom_site_fract_z
 _atom_site_occupancy
  Li  Li0  1  0.000007  0.499951  0.998940  1
  Li  Li1  1  0.499733  0.000061  0.169110  1
  Li  Li2  1  0.999781  0.499940  0.333333  1
  Li  Li3  1  0.499999  0.000058  0.497557  1
  Li  Li4  1  0.000278  0.499957  0.667726  1
  Li  Li5  1  0.500207  0.000029  0.833333  1
  Al  Al6  1  0.500166  0.499989  0.833337  1
  P  P7  1  0.999990  0.999969  0.995917  1
  P  P8  1  0.499791  0.500038  0.164409  1
  P  P9  1  0.999821  0.999960  0.333332  1
  P  P10  1  0.500002  0.500035  0.502256  1
  P  P11  1  0.000217  0.999973  0.670746  1
  Rh  Rh12  1  0.499985  0.245685  0.006526  1
  Rh  Rh13  1  0.499967  0.754314  0.006525  1
  Rh  Rh14  1  0.999858  0.249889  0.169418  1
  Rh  Rh15  1  0.999854  0.750119  0.169420  1
  Rh  Rh16  1  0.499872  0.251106  0.333333  1
  Rh  Rh17  1  0.499872  0.748908  0.333334  1
  Rh  Rh18  1  0.000008  0.249888  0.497248  1
  Rh  Rh19  1  0.000006  0.750115  0.497248  1
  Rh  Rh20  1  0.500147  0.245689  0.660142  1
  Rh  Rh21  1  0.500149  0.754317  0.660143  1
  Rh  Rh22  1  0.000151  0.241114  0.833332  1
  Rh  Rh23  1  0.000143  0.758899  0.833335  1
