# generated using pymatgen
data_Hf3Zn3CoNi2
_symmetry_space_group_name_H-M   'P 1'
_cell_length_a   6.91064100
_cell_length_b   6.91064068
_cell_length_c   3.33199400
_cell_angle_alpha   90.00000000
_cell_angle_beta   90.00000000
_cell_angle_gamma   120.00000634
_symmetry_Int_Tables_number   1
_chemical_formula_structural   Hf3Zn3CoNi2
_chemical_formula_sum   'Hf3 Zn3 Co1 Ni2'
_cell_volume   137.80705737
_cell_formula_units_Z   1
loop_
 _symmetry_equiv_pos_site_id
 _symmetry_equiv_pos_as_xyz
  1  'x, y, z'
loop_
 _atom_site_type_symbol
 _atom_site_label
 _atom_site_symmetry_multiplicity
 _atom_site_fract_x
 _atom_site_fract_y
 _atom_site_fract_z
 _atom_site_occupancy
  Hf  Hf0  1  0.408902  0.399548  0.500000  1
  Hf  Hf1  1  0.600452  0.009353  0.500000  1
  Hf  Hf2  1  0.990647  0.591098  0.500000  1
  Zn  Zn3  1  0.736225  0.739345  0.000000  1
  Zn  Zn4  1  0.260655  0.996880  0.000000  1
  Zn  Zn5  1  0.003120  0.263775  0.000000  1
  Co  Co6  1  0.666667  0.333333  0.000000  1
  Ni  Ni7  1  0.333333  0.666667  0.000000  1
  Ni  Ni8  1  0.000000  0.000000  0.500000  1
