# generated using pymatgen
data_Nd2B2Pd3Pt5
_symmetry_space_group_name_H-M   'P 1'
_cell_length_a   5.49788550
_cell_length_b   5.49788450
_cell_length_c   7.69831700
_cell_angle_alpha   90.00000000
_cell_angle_beta   90.00000000
_cell_angle_gamma   119.95091941
_symmetry_Int_Tables_number   1
_chemical_formula_structural   Nd2B2Pd3Pt5
_chemical_formula_sum   'Nd2 B2 Pd3 Pt5'
_cell_volume   201.61939222
_cell_formula_units_Z   1
loop_
 _symmetry_equiv_pos_site_id
 _symmetry_equiv_pos_as_xyz
  1  'x, y, z'
loop_
 _atom_site_type_symbol
 _atom_site_label
 _atom_site_symmetry_multiplicity
 _atom_site_fract_x
 _atom_site_fract_y
 _atom_site_fract_z
 _atom_site_occupancy
  Nd  Nd0  1  0.000000  0.000000  0.501516  1
  Nd  Nd1  1  0.000000  0.000000  0.000820  1
  B  B2  1  0.330985  0.669015  0.999433  1
  B  B3  1  0.669015  0.330985  0.999433  1
  Pd  Pd4  1  0.333269  0.666731  0.499254  1
  Pd  Pd5  1  0.666731  0.333269  0.499254  1
  Pd  Pd6  1  0.500000  0.500000  0.199130  1
  Pt  Pt7  1  0.500000  0.000000  0.198222  1
  Pt  Pt8  1  0.500000  0.000000  0.800009  1
  Pt  Pt9  1  0.000000  0.500000  0.198222  1
  Pt  Pt10  1  0.000000  0.500000  0.800009  1
  Pt  Pt11  1  0.500000  0.500000  0.804697  1
