# generated using pymatgen
data_Tm12Tl2Fe2Ir
_symmetry_space_group_name_H-M   'P 1'
_cell_length_a   8.23878249
_cell_length_b   8.23878277
_cell_length_c   8.23878300
_cell_angle_alpha   108.64664848
_cell_angle_beta   108.64664180
_cell_angle_gamma   111.13326422
_symmetry_Int_Tables_number   1
_chemical_formula_structural   Tm12Tl2Fe2Ir
_chemical_formula_sum   'Tm12 Tl2 Fe2 Ir1'
_cell_volume   430.22159152
_cell_formula_units_Z   1
loop_
 _symmetry_equiv_pos_site_id
 _symmetry_equiv_pos_as_xyz
  1  'x, y, z'
loop_
 _atom_site_type_symbol
 _atom_site_label
 _atom_site_symmetry_multiplicity
 _atom_site_fract_x
 _atom_site_fract_y
 _atom_site_fract_z
 _atom_site_occupancy
  Tm  Tm0  1  0.193323  0.432047  0.238724  1
  Tm  Tm1  1  0.806677  0.567953  0.761276  1
  Tm  Tm2  1  0.193323  0.954600  0.761276  1
  Tm  Tm3  1  0.954600  0.193323  0.761276  1
  Tm  Tm4  1  0.806677  0.045400  0.238724  1
  Tm  Tm5  1  0.045400  0.806677  0.238724  1
  Tm  Tm6  1  0.432047  0.193323  0.238724  1
  Tm  Tm7  1  0.567953  0.806677  0.761276  1
  Tm  Tm8  1  0.308111  0.308111  0.616223  1
  Tm  Tm9  1  0.691889  0.691889  0.383777  1
  Tm  Tm10  1  0.691889  0.308111  0.000000  1
  Tm  Tm11  1  0.308111  0.691889  0.000000  1
  Tl  Tl12  1  0.000000  0.500000  0.500000  1
  Tl  Tl13  1  0.500000  0.000000  0.500000  1
  Fe  Fe14  1  0.385589  0.385589  0.000000  1
  Fe  Fe15  1  0.614411  0.614411  0.000000  1
  Ir  Ir16  1  0.000000  0.000000  0.000000  1
