# generated using pymatgen
data_Nd2ScSi6Pd17Pt3
_symmetry_space_group_name_H-M   'P 1'
_cell_length_a   8.74503373
_cell_length_b   8.74505660
_cell_length_c   8.76137204
_cell_angle_alpha   59.82598279
_cell_angle_beta   59.82599677
_cell_angle_gamma   59.79676932
_symmetry_Int_Tables_number   1
_chemical_formula_structural   Nd2ScSi6Pd17Pt3
_chemical_formula_sum   'Nd2 Sc1 Si6 Pd17 Pt3'
_cell_volume   471.80874714
_cell_formula_units_Z   1
loop_
 _symmetry_equiv_pos_site_id
 _symmetry_equiv_pos_as_xyz
  1  'x, y, z'
loop_
 _atom_site_type_symbol
 _atom_site_label
 _atom_site_symmetry_multiplicity
 _atom_site_fract_x
 _atom_site_fract_y
 _atom_site_fract_z
 _atom_site_occupancy
  Nd  Nd0  1  0.250467  0.250466  0.250533  1
  Nd  Nd1  1  0.749076  0.749077  0.750615  1
  Sc  Sc2  1  0.999940  0.999941  0.000295  1
  Si  Si3  1  0.732612  0.266701  0.265628  1
  Si  Si4  1  0.268035  0.732385  0.733587  1
  Si  Si5  1  0.266701  0.732612  0.265628  1
  Si  Si6  1  0.732385  0.268035  0.733588  1
  Si  Si7  1  0.267246  0.267246  0.732209  1
  Si  Si8  1  0.733859  0.733859  0.266824  1
  Pd  Pd9  1  0.382803  0.846952  0.383234  1
  Pd  Pd10  1  0.616702  0.616701  0.154071  1
  Pd  Pd11  1  0.618685  0.152039  0.614883  1
  Pd  Pd12  1  0.846951  0.382803  0.383235  1
  Pd  Pd13  1  0.152040  0.618685  0.614884  1
  Pd  Pd14  1  0.343003  0.999997  0.000500  1
  Pd  Pd15  1  0.656379  0.999911  0.000815  1
  Pd  Pd16  1  0.999717  0.342943  0.657914  1
  Pd  Pd17  1  0.999409  0.656932  0.344236  1
  Pd  Pd18  1  0.999998  0.343004  0.000500  1
  Pd  Pd19  1  0.656931  0.999408  0.344237  1
  Pd  Pd20  1  0.999912  0.656378  0.000815  1
  Pd  Pd21  1  0.342944  0.999718  0.657912  1
  Pd  Pd22  1  0.999474  0.999473  0.344263  1
  Pd  Pd23  1  0.999715  0.999716  0.657477  1
  Pd  Pd24  1  0.656761  0.342867  0.000416  1
  Pd  Pd25  1  0.342867  0.656761  0.000417  1
  Pt  Pt26  1  0.386244  0.386245  0.386562  1
  Pt  Pt27  1  0.615033  0.615032  0.611419  1
  Pt  Pt28  1  0.384115  0.384115  0.843305  1
