# generated using pymatgen
data_SmGdTc4
_symmetry_space_group_name_H-M   'P 1'
_cell_length_a   5.48619951
_cell_length_b   5.48619941
_cell_length_c   5.48620000
_cell_angle_alpha   59.99999642
_cell_angle_beta   59.99999702
_cell_angle_gamma   60.00000089
_symmetry_Int_Tables_number   1
_chemical_formula_structural   SmGdTc4
_chemical_formula_sum   'Sm1 Gd1 Tc4'
_cell_volume   116.76153745
_cell_formula_units_Z   1
loop_
 _symmetry_equiv_pos_site_id
 _symmetry_equiv_pos_as_xyz
  1  'x, y, z'
loop_
 _atom_site_type_symbol
 _atom_site_label
 _atom_site_symmetry_multiplicity
 _atom_site_fract_x
 _atom_site_fract_y
 _atom_site_fract_z
 _atom_site_occupancy
  Sm  Sm0  1  0.000000  0.000000  0.000000  1
  Gd  Gd1  1  0.750000  0.750000  0.750000  1
  Tc  Tc2  1  0.874628  0.375123  0.375123  1
  Tc  Tc3  1  0.375123  0.874628  0.375123  1
  Tc  Tc4  1  0.375123  0.375123  0.375123  1
  Tc  Tc5  1  0.375123  0.375123  0.874628  1
