# generated using pymatgen
data_TbHo7In3Ir
_symmetry_space_group_name_H-M   'P 1'
_cell_length_a   10.39068809
_cell_length_b   10.39068846
_cell_length_c   7.03768502
_cell_angle_alpha   90.00708577
_cell_angle_beta   89.99291319
_cell_angle_gamma   119.98628190
_symmetry_Int_Tables_number   1
_chemical_formula_structural   TbHo7In3Ir
_chemical_formula_sum   'Tb2 Ho14 In6 Ir2'
_cell_volume   658.12608119
_cell_formula_units_Z   2
loop_
 _symmetry_equiv_pos_site_id
 _symmetry_equiv_pos_as_xyz
  1  'x, y, z'
loop_
 _atom_site_type_symbol
 _atom_site_label
 _atom_site_symmetry_multiplicity
 _atom_site_fract_x
 _atom_site_fract_y
 _atom_site_fract_z
 _atom_site_occupancy
  Tb  Tb0  1  0.532900  0.065887  0.506477  1
  Tb  Tb1  1  0.934113  0.467100  0.506477  1
  Ho  Ho2  1  0.533187  0.466813  0.506609  1
  Ho  Ho3  1  0.466532  0.933061  0.006489  1
  Ho  Ho4  1  0.066939  0.533468  0.006489  1
  Ho  Ho5  1  0.466672  0.533328  0.006524  1
  Ho  Ho6  1  0.176796  0.353029  0.713714  1
  Ho  Ho7  1  0.646971  0.823204  0.713714  1
  Ho  Ho8  1  0.176438  0.823562  0.713966  1
  Ho  Ho9  1  0.823318  0.646973  0.213195  1
  Ho  Ho10  1  0.353027  0.176682  0.213195  1
  Ho  Ho11  1  0.823626  0.176374  0.212986  1
  Ho  Ho12  1  0.666497  0.333503  0.887692  1
  Ho  Ho13  1  0.333479  0.666521  0.387356  1
  Ho  Ho14  1  0.000009  0.999991  0.492995  1
  Ho  Ho15  1  0.999964  0.000036  0.993175  1
  In  In16  1  0.837160  0.674684  0.752171  1
  In  In17  1  0.325316  0.162840  0.752171  1
  In  In18  1  0.837470  0.162530  0.752422  1
  In  In19  1  0.162784  0.325470  0.251918  1
  In  In20  1  0.674530  0.837216  0.251918  1
  In  In21  1  0.162729  0.837271  0.251784  1
  Ir  Ir22  1  0.666212  0.333788  0.281793  1
  Ir  Ir23  1  0.333329  0.666671  0.782813  1
