# generated using pymatgen
data_Ho3Er5(OsI4)2
_symmetry_space_group_name_H-M   'P 1'
_cell_length_a   10.95528570
_cell_length_b   10.95616962
_cell_length_c   6.16654007
_cell_angle_alpha   89.38689686
_cell_angle_beta   89.39806039
_cell_angle_gamma   88.81960826
_symmetry_Int_Tables_number   1
_chemical_formula_structural   Ho3Er5(OsI4)2
_chemical_formula_sum   'Ho3 Er5 Os2 I8'
_cell_volume   739.91868229
_cell_formula_units_Z   1
loop_
 _symmetry_equiv_pos_site_id
 _symmetry_equiv_pos_as_xyz
  1  'x, y, z'
loop_
 _atom_site_type_symbol
 _atom_site_label
 _atom_site_symmetry_multiplicity
 _atom_site_fract_x
 _atom_site_fract_y
 _atom_site_fract_z
 _atom_site_occupancy
  Ho  Ho0  1  0.204649  0.915343  0.997411  1
  Ho  Ho1  1  0.795391  0.084731  0.002542  1
  Ho  Ho2  1  0.084575  0.795471  0.502624  1
  Er  Er3  1  0.915932  0.203106  0.497361  1
  Er  Er4  1  0.798558  0.920107  0.506170  1
  Er  Er5  1  0.201352  0.080021  0.493847  1
  Er  Er6  1  0.079874  0.201590  0.993804  1
  Er  Er7  1  0.919960  0.798505  0.006172  1
  Os  Os8  1  0.999990  0.000001  0.250287  1
  Os  Os9  1  0.999976  0.000032  0.749665  1
  I  I10  1  0.366426  0.841145  0.501912  1
  I  I11  1  0.634047  0.159381  0.498107  1
  I  I12  1  0.158927  0.633635  0.998091  1
  I  I13  1  0.841030  0.366613  0.002046  1
  I  I14  1  0.362383  0.152836  0.004773  1
  I  I15  1  0.637572  0.847362  0.995237  1
  I  I16  1  0.847258  0.637781  0.495250  1
  I  I17  1  0.152100  0.362341  0.504701  1
