# generated using pymatgen
data_CsDy5Ho5(C2I9)2
_symmetry_space_group_name_H-M   'P 1'
_cell_length_a   11.42523889
_cell_length_b   11.45717549
_cell_length_c   11.50213670
_cell_angle_alpha   113.26808188
_cell_angle_beta   86.92409363
_cell_angle_gamma   119.74997823
_symmetry_Int_Tables_number   1
_chemical_formula_structural   CsDy5Ho5(C2I9)2
_chemical_formula_sum   'Cs1 Dy5 Ho5 C4 I18'
_cell_volume   1181.59253377
_cell_formula_units_Z   1
loop_
 _symmetry_equiv_pos_site_id
 _symmetry_equiv_pos_as_xyz
  1  'x, y, z'
loop_
 _atom_site_type_symbol
 _atom_site_label
 _atom_site_symmetry_multiplicity
 _atom_site_fract_x
 _atom_site_fract_y
 _atom_site_fract_z
 _atom_site_occupancy
  Cs  Cs0  1  0.500015  0.999947  0.499976  1
  Dy  Dy1  1  0.104527  0.944961  0.000717  1
  Dy  Dy2  1  0.035756  0.962653  0.676511  1
  Dy  Dy3  1  0.320954  0.274577  0.287673  1
  Dy  Dy4  1  0.723427  0.647793  0.984937  1
  Dy  Dy5  1  0.895476  0.055196  0.999367  1
  Ho  Ho6  1  0.680011  0.725907  0.713074  1
  Ho  Ho7  1  0.275638  0.351364  0.015581  1
  Ho  Ho8  1  0.093010  0.388221  0.289890  1
  Ho  Ho9  1  0.964662  0.037794  0.322620  1
  Ho  Ho10  1  0.907044  0.611818  0.710187  1
  C  C11  1  0.151591  0.219971  0.120538  1
  C  C12  1  0.847804  0.779729  0.879136  1
  C  C13  1  0.923873  0.856101  0.802879  1
  C  C14  1  0.075595  0.143626  0.196714  1
  I  I15  1  0.449637  0.530293  0.831641  1
  I  I16  1  0.383793  0.040098  0.157650  1
  I  I17  1  0.777358  0.855033  0.501226  1
  I  I18  1  0.838844  0.310526  0.153974  1
  I  I19  1  0.549429  0.469492  0.167625  1
  I  I20  1  0.221459  0.144550  0.498299  1
  I  I21  1  0.317957  0.097317  0.830483  1
  I  I22  1  0.682998  0.904233  0.170918  1
  I  I23  1  0.975336  0.757081  0.170625  1
  I  I24  1  0.934370  0.297892  0.500334  1
  I  I25  1  0.025745  0.244593  0.830814  1
  I  I26  1  0.065758  0.700928  0.499078  1
  I  I27  1  0.259997  0.619877  0.181981  1
  I  I28  1  0.740309  0.379081  0.817123  1
  I  I29  1  0.643579  0.436740  0.501916  1
  I  I30  1  0.161034  0.689410  0.845941  1
  I  I31  1  0.616449  0.958572  0.841599  1
  I  I32  1  0.356568  0.564625  0.498974  1
