# generated using pymatgen
data_Ta4Zn7Ga
_symmetry_space_group_name_H-M   'P 1'
_cell_length_a   5.04966900
_cell_length_b   5.04966907
_cell_length_c   8.20445200
_cell_angle_alpha   90.00000000
_cell_angle_beta   90.00000000
_cell_angle_gamma   119.99999301
_symmetry_Int_Tables_number   1
_chemical_formula_structural   Ta4Zn7Ga
_chemical_formula_sum   'Ta4 Zn7 Ga1'
_cell_volume   181.17825380
_cell_formula_units_Z   1
loop_
 _symmetry_equiv_pos_site_id
 _symmetry_equiv_pos_as_xyz
  1  'x, y, z'
loop_
 _atom_site_type_symbol
 _atom_site_label
 _atom_site_symmetry_multiplicity
 _atom_site_fract_x
 _atom_site_fract_y
 _atom_site_fract_z
 _atom_site_occupancy
  Ta  Ta0  1  0.333333  0.666667  0.067567  1
  Ta  Ta1  1  0.666667  0.333333  0.569273  1
  Ta  Ta2  1  0.666667  0.333333  0.932433  1
  Ta  Ta3  1  0.333333  0.666667  0.430727  1
  Zn  Zn4  1  0.000000  0.000000  0.500000  1
  Zn  Zn5  1  0.827141  0.654282  0.253540  1
  Zn  Zn6  1  0.172859  0.827141  0.746460  1
  Zn  Zn7  1  0.654282  0.827141  0.746460  1
  Zn  Zn8  1  0.345718  0.172859  0.253540  1
  Zn  Zn9  1  0.827141  0.172859  0.253540  1
  Zn  Zn10  1  0.172859  0.345718  0.746460  1
  Ga  Ga11  1  0.000000  0.000000  0.000000  1
