# generated using pymatgen
data_Pr16YTm3Sn16
_symmetry_space_group_name_H-M   'P 1'
_cell_length_a   8.25938900
_cell_length_b   8.42023201
_cell_length_c   16.00699600
_cell_angle_alpha   90.00000000
_cell_angle_beta   90.00000000
_cell_angle_gamma   89.99791781
_symmetry_Int_Tables_number   1
_chemical_formula_structural   Pr16YTm3Sn16
_chemical_formula_sum   'Pr16 Y1 Tm3 Sn16'
_cell_volume   1113.22208855
_cell_formula_units_Z   1
loop_
 _symmetry_equiv_pos_site_id
 _symmetry_equiv_pos_as_xyz
  1  'x, y, z'
loop_
 _atom_site_type_symbol
 _atom_site_label
 _atom_site_symmetry_multiplicity
 _atom_site_fract_x
 _atom_site_fract_y
 _atom_site_fract_z
 _atom_site_occupancy
  Pr  Pr0  1  0.367243  0.837984  0.879206  1
  Pr  Pr1  1  0.867257  0.662002  0.620742  1
  Pr  Pr2  1  0.632950  0.162130  0.379295  1
  Pr  Pr3  1  0.132653  0.338149  0.120692  1
  Pr  Pr4  1  0.632950  0.162130  0.120705  1
  Pr  Pr5  1  0.132653  0.338149  0.379308  1
  Pr  Pr6  1  0.367243  0.837984  0.620794  1
  Pr  Pr7  1  0.867257  0.662002  0.879258  1
  Pr  Pr8  1  0.518663  0.318530  0.901315  1
  Pr  Pr9  1  0.018660  0.181500  0.598688  1
  Pr  Pr10  1  0.481330  0.681429  0.401336  1
  Pr  Pr11  1  0.981278  0.818501  0.098661  1
  Pr  Pr12  1  0.481330  0.681429  0.098664  1
  Pr  Pr13  1  0.981278  0.818501  0.401339  1
  Pr  Pr14  1  0.518663  0.318530  0.598685  1
  Pr  Pr15  1  0.018660  0.181500  0.901312  1
  Y  Y16  1  0.301503  0.001730  0.250000  1
  Tm  Tm17  1  0.198788  0.501825  0.750000  1
  Tm  Tm18  1  0.698787  0.998162  0.750000  1
  Tm  Tm19  1  0.801284  0.498113  0.250000  1
  Sn  Sn20  1  0.291911  0.033734  0.044527  1
  Sn  Sn21  1  0.791968  0.466304  0.455124  1
  Sn  Sn22  1  0.708049  0.966398  0.545035  1
  Sn  Sn23  1  0.208072  0.533670  0.954972  1
  Sn  Sn24  1  0.708049  0.966398  0.954965  1
  Sn  Sn25  1  0.208072  0.533670  0.545028  1
  Sn  Sn26  1  0.291911  0.033734  0.455473  1
  Sn  Sn27  1  0.791968  0.466304  0.044876  1
  Sn  Sn28  1  0.563172  0.616426  0.750000  1
  Sn  Sn29  1  0.063140  0.883635  0.750000  1
  Sn  Sn30  1  0.437050  0.383858  0.250000  1
  Sn  Sn31  1  0.936228  0.116509  0.250000  1
  Sn  Sn32  1  0.323630  0.147607  0.750000  1
  Sn  Sn33  1  0.823534  0.352447  0.750000  1
  Sn  Sn34  1  0.676570  0.852324  0.250000  1
  Sn  Sn35  1  0.176243  0.646707  0.250000  1
