# generated using pymatgen
data_ErTl2Ag(Pt2O7)2
_symmetry_space_group_name_H-M   'P 1'
_cell_length_a   7.29485813
_cell_length_b   7.32092508
_cell_length_c   7.21343692
_cell_angle_alpha   59.56948079
_cell_angle_beta   59.62590755
_cell_angle_gamma   60.11771778
_symmetry_Int_Tables_number   1
_chemical_formula_structural   ErTl2Ag(Pt2O7)2
_chemical_formula_sum   'Er1 Tl2 Ag1 Pt4 O14'
_cell_volume   270.97056543
_cell_formula_units_Z   1
loop_
 _symmetry_equiv_pos_site_id
 _symmetry_equiv_pos_as_xyz
  1  'x, y, z'
loop_
 _atom_site_type_symbol
 _atom_site_label
 _atom_site_symmetry_multiplicity
 _atom_site_fract_x
 _atom_site_fract_y
 _atom_site_fract_z
 _atom_site_occupancy
  Er  Er0  1  0.625000  0.125000  0.625000  1
  Tl  Tl1  1  0.625000  0.625000  0.625000  1
  Tl  Tl2  1  0.125000  0.625000  0.625000  1
  Ag  Ag3  1  0.625000  0.625000  0.125000  1
  Pt  Pt4  1  0.625000  0.125000  0.125000  1
  Pt  Pt5  1  0.125000  0.125000  0.125000  1
  Pt  Pt6  1  0.125000  0.625000  0.125000  1
  Pt  Pt7  1  0.125000  0.125000  0.625000  1
  O  O8  1  0.038247  0.459567  0.463940  1
  O  O9  1  0.792000  0.793971  0.210172  1
  O  O10  1  0.792765  0.190069  0.224403  1
  O  O11  1  0.739700  0.748470  0.772129  1
  O  O12  1  0.046142  0.456029  0.039828  1
  O  O13  1  0.462231  0.043224  0.465739  1
  O  O14  1  0.028807  0.043224  0.465739  1
  O  O15  1  0.510300  0.501530  0.477871  1
  O  O16  1  0.221193  0.206776  0.784261  1
  O  O17  1  0.203858  0.793971  0.210172  1
  O  O18  1  0.787769  0.206776  0.784261  1
  O  O19  1  0.457235  0.059931  0.025597  1
  O  O20  1  0.458000  0.456029  0.039828  1
  O  O21  1  0.211753  0.790433  0.786060  1
