# generated using pymatgen
data_Ge(SO4)2
_symmetry_space_group_name_H-M   'P 1'
_cell_length_a   8.68223049
_cell_length_b   8.68222968
_cell_length_c   8.68223066
_cell_angle_alpha   55.27929857
_cell_angle_beta   55.27930537
_cell_angle_gamma   55.27929652
_symmetry_Int_Tables_number   1
_chemical_formula_structural   Ge(SO4)2
_chemical_formula_sum   'Ge3 S6 O24'
_cell_volume   412.01287830
_cell_formula_units_Z   3
loop_
 _symmetry_equiv_pos_site_id
 _symmetry_equiv_pos_as_xyz
  1  'x, y, z'
loop_
 _atom_site_type_symbol
 _atom_site_label
 _atom_site_symmetry_multiplicity
 _atom_site_fract_x
 _atom_site_fract_y
 _atom_site_fract_z
 _atom_site_occupancy
  Ge  Ge0  1  0.152354  0.152354  0.152354  1
  Ge  Ge1  1  0.645629  0.645629  0.645629  1
  Ge  Ge2  1  0.845872  0.845872  0.845872  1
  S  S3  1  0.048019  0.449642  0.755901  1
  S  S4  1  0.449642  0.755901  0.048019  1
  S  S5  1  0.755901  0.048019  0.449642  1
  S  S6  1  0.253026  0.960783  0.540290  1
  S  S7  1  0.540290  0.253026  0.960783  1
  S  S8  1  0.960783  0.540290  0.253026  1
  O  O9  1  0.113303  0.519577  0.288015  1
  O  O10  1  0.288015  0.113303  0.519577  1
  O  O11  1  0.996495  0.327561  0.981809  1
  O  O12  1  0.519577  0.288015  0.113303  1
  O  O13  1  0.021893  0.657058  0.716317  1
  O  O14  1  0.244087  0.358355  0.636501  1
  O  O15  1  0.358355  0.636501  0.244087  1
  O  O16  1  0.327561  0.981809  0.996495  1
  O  O17  1  0.636501  0.244087  0.358355  1
  O  O18  1  0.038815  0.972409  0.680588  1
  O  O19  1  0.289267  0.969812  0.341082  1
  O  O20  1  0.341082  0.289267  0.969812  1
  O  O21  1  0.657058  0.716317  0.021893  1
  O  O22  1  0.716317  0.021893  0.657058  1
  O  O23  1  0.981809  0.996495  0.327561  1
  O  O24  1  0.389989  0.748567  0.625382  1
  O  O25  1  0.680588  0.038815  0.972409  1
  O  O26  1  0.625382  0.389989  0.748567  1
  O  O27  1  0.748567  0.625382  0.389989  1
  O  O28  1  0.969812  0.341082  0.289267  1
  O  O29  1  0.476422  0.719254  0.880889  1
  O  O30  1  0.972409  0.680588  0.038815  1
  O  O31  1  0.719254  0.880889  0.476422  1
  O  O32  1  0.880889  0.476422  0.719254  1
