# generated using pymatgen
data_Ca6La3CePb8
_symmetry_space_group_name_H-M   'P 1'
_cell_length_a   8.11105900
_cell_length_b   8.71273216
_cell_length_c   16.35239000
_cell_angle_alpha   90.01083083
_cell_angle_beta   90.00000000
_cell_angle_gamma   90.00000000
_symmetry_Int_Tables_number   1
_chemical_formula_structural   Ca6La3CePb8
_chemical_formula_sum   'Ca12 La6 Ce2 Pb16'
_cell_volume   1155.61495207
_cell_formula_units_Z   2
loop_
 _symmetry_equiv_pos_site_id
 _symmetry_equiv_pos_as_xyz
  1  'x, y, z'
loop_
 _atom_site_type_symbol
 _atom_site_label
 _atom_site_symmetry_multiplicity
 _atom_site_fract_x
 _atom_site_fract_y
 _atom_site_fract_z
 _atom_site_occupancy
  Ca  Ca0  1  0.673115  0.166326  0.623419  1
  Ca  Ca1  1  0.173115  0.333674  0.876581  1
  Ca  Ca2  1  0.328355  0.833352  0.122421  1
  Ca  Ca3  1  0.828355  0.666648  0.377579  1
  Ca  Ca4  1  0.327133  0.834710  0.376745  1
  Ca  Ca5  1  0.827133  0.665290  0.123255  1
  Ca  Ca6  1  0.673888  0.164996  0.876108  1
  Ca  Ca7  1  0.173888  0.335004  0.623892  1
  Ca  Ca8  1  0.843446  0.497519  0.749850  1
  Ca  Ca9  1  0.343446  0.002481  0.750150  1
  Ca  Ca10  1  0.157423  0.503082  0.250090  1
  Ca  Ca11  1  0.657423  0.996918  0.249910  1
  La  La12  1  0.505009  0.687526  0.595019  1
  La  La13  1  0.005009  0.812474  0.904981  1
  La  La14  1  0.494019  0.312968  0.094290  1
  La  La15  1  0.994019  0.187032  0.405710  1
  La  La16  1  0.493461  0.313127  0.405152  1
  La  La17  1  0.993461  0.186873  0.094848  1
  Ce  Ce18  1  0.505409  0.686258  0.904618  1
  Ce  Ce19  1  0.005409  0.813742  0.595382  1
  Pb  Pb20  1  0.674858  0.963345  0.460914  1
  Pb  Pb21  1  0.174858  0.536655  0.039086  1
  Pb  Pb22  1  0.327290  0.032722  0.958161  1
  Pb  Pb23  1  0.827290  0.467278  0.541839  1
  Pb  Pb24  1  0.321512  0.033463  0.541449  1
  Pb  Pb25  1  0.821512  0.466537  0.958551  1
  Pb  Pb26  1  0.674226  0.961128  0.038836  1
  Pb  Pb27  1  0.174226  0.538872  0.461164  1
  Pb  Pb28  1  0.475924  0.395673  0.751720  1
  Pb  Pb29  1  0.975924  0.104327  0.748280  1
  Pb  Pb30  1  0.524937  0.607079  0.250525  1
  Pb  Pb31  1  0.024937  0.892921  0.249475  1
  Pb  Pb32  1  0.711931  0.851259  0.750441  1
  Pb  Pb33  1  0.211931  0.648741  0.749559  1
  Pb  Pb34  1  0.288062  0.146390  0.249768  1
  Pb  Pb35  1  0.788062  0.353610  0.250232  1
