# generated using pymatgen
data_Er4Ga18Ir3RuRh2
_symmetry_space_group_name_H-M   'P 1'
_cell_length_a   7.55722845
_cell_length_b   7.55722892
_cell_length_c   9.51108002
_cell_angle_alpha   90.03747936
_cell_angle_beta   90.03748337
_cell_angle_gamma   119.80749029
_symmetry_Int_Tables_number   1
_chemical_formula_structural   Er4Ga18Ir3RuRh2
_chemical_formula_sum   'Er4 Ga18 Ir3 Ru1 Rh2'
_cell_volume   471.32929193
_cell_formula_units_Z   1
loop_
 _symmetry_equiv_pos_site_id
 _symmetry_equiv_pos_as_xyz
  1  'x, y, z'
loop_
 _atom_site_type_symbol
 _atom_site_label
 _atom_site_symmetry_multiplicity
 _atom_site_fract_x
 _atom_site_fract_y
 _atom_site_fract_z
 _atom_site_occupancy
  Er  Er0  1  0.996895  0.667254  0.250111  1
  Er  Er1  1  0.002138  0.332483  0.749673  1
  Er  Er2  1  0.667517  0.997862  0.250327  1
  Er  Er3  1  0.332746  0.003105  0.749889  1
  Ga  Ga4  1  0.124761  0.124939  0.250535  1
  Ga  Ga5  1  0.875061  0.875239  0.749465  1
  Ga  Ga6  1  0.998766  0.333799  0.080143  1
  Ga  Ga7  1  0.998630  0.664960  0.919901  1
  Ga  Ga8  1  0.000041  0.666723  0.580246  1
  Ga  Ga9  1  0.333277  0.999959  0.419754  1
  Ga  Ga10  1  0.999887  0.333379  0.419997  1
  Ga  Ga11  1  0.666621  0.000113  0.580003  1
  Ga  Ga12  1  0.666201  0.001234  0.919857  1
  Ga  Ga13  1  0.335040  0.001370  0.080099  1
  Ga  Ga14  1  0.331842  0.331905  0.564552  1
  Ga  Ga15  1  0.668095  0.668158  0.435448  1
  Ga  Ga16  1  0.667770  0.666273  0.064412  1
  Ga  Ga17  1  0.333727  0.332230  0.935588  1
  Ga  Ga18  1  0.338121  0.546118  0.250303  1
  Ga  Ga19  1  0.661920  0.452969  0.750837  1
  Ga  Ga20  1  0.547031  0.338080  0.249163  1
  Ga  Ga21  1  0.453882  0.661879  0.749697  1
  Ir  Ir22  1  0.327951  0.672049  0.000000  1
  Ir  Ir23  1  0.327822  0.672178  0.500000  1
  Ir  Ir24  1  0.672188  0.327812  0.500000  1
  Ru  Ru25  1  0.672228  0.327772  0.000000  1
  Rh  Rh26  1  0.999847  0.000153  0.000000  1
  Rh  Rh27  1  0.999991  0.000009  0.500000  1
