# generated using pymatgen
data_Dy16In4RuPt3
_symmetry_space_group_name_H-M   'P 1'
_cell_length_a   9.69281987
_cell_length_b   9.69281880
_cell_length_c   9.69281871
_cell_angle_alpha   60.01721644
_cell_angle_beta   60.01722585
_cell_angle_gamma   60.01721409
_symmetry_Int_Tables_number   1
_chemical_formula_structural   Dy16In4RuPt3
_chemical_formula_sum   'Dy16 In4 Ru1 Pt3'
_cell_volume   644.17641793
_cell_formula_units_Z   1
loop_
 _symmetry_equiv_pos_site_id
 _symmetry_equiv_pos_as_xyz
  1  'x, y, z'
loop_
 _atom_site_type_symbol
 _atom_site_label
 _atom_site_symmetry_multiplicity
 _atom_site_fract_x
 _atom_site_fract_y
 _atom_site_fract_z
 _atom_site_occupancy
  Dy  Dy0  1  0.350859  0.350859  0.350859  1
  Dy  Dy1  1  0.348580  0.348580  0.950072  1
  Dy  Dy2  1  0.348580  0.950072  0.348580  1
  Dy  Dy3  1  0.950072  0.348580  0.348580  1
  Dy  Dy4  1  0.814207  0.189748  0.189748  1
  Dy  Dy5  1  0.191565  0.808749  0.808749  1
  Dy  Dy6  1  0.189748  0.814207  0.189748  1
  Dy  Dy7  1  0.808749  0.191565  0.808749  1
  Dy  Dy8  1  0.189748  0.189748  0.814207  1
  Dy  Dy9  1  0.808749  0.808749  0.191565  1
  Dy  Dy10  1  0.935737  0.562972  0.562972  1
  Dy  Dy11  1  0.559324  0.938519  0.938519  1
  Dy  Dy12  1  0.562972  0.935737  0.562972  1
  Dy  Dy13  1  0.938519  0.559323  0.938519  1
  Dy  Dy14  1  0.562972  0.562972  0.935737  1
  Dy  Dy15  1  0.938519  0.938519  0.559323  1
  In  In16  1  0.583457  0.583457  0.583457  1
  In  In17  1  0.582871  0.582871  0.251649  1
  In  In18  1  0.582871  0.251649  0.582871  1
  In  In19  1  0.251649  0.582871  0.582871  1
  Ru  Ru20  1  0.141805  0.141805  0.141805  1
  Pt  Pt21  1  0.142550  0.142550  0.573348  1
  Pt  Pt22  1  0.142550  0.573348  0.142550  1
  Pt  Pt23  1  0.573348  0.142550  0.142550  1
