# generated using pymatgen
data_CaLa2(ZnNi2)2
_symmetry_space_group_name_H-M   'P 1'
_cell_length_a   5.44082271
_cell_length_b   5.44082101
_cell_length_c   8.25444376
_cell_angle_alpha   81.86788132
_cell_angle_beta   81.86788521
_cell_angle_gamma   45.71757137
_symmetry_Int_Tables_number   1
_chemical_formula_structural   CaLa2(ZnNi2)2
_chemical_formula_sum   'Ca1 La2 Zn2 Ni4'
_cell_volume   172.86012159
_cell_formula_units_Z   1
loop_
 _symmetry_equiv_pos_site_id
 _symmetry_equiv_pos_as_xyz
  1  'x, y, z'
loop_
 _atom_site_type_symbol
 _atom_site_label
 _atom_site_symmetry_multiplicity
 _atom_site_fract_x
 _atom_site_fract_y
 _atom_site_fract_z
 _atom_site_occupancy
  Ca  Ca0  1  0.374504  0.374504  0.380152  1
  La  La1  1  0.996588  0.996588  0.008313  1
  La  La2  1  0.628812  0.628812  0.613662  1
  Zn  Zn3  1  0.321528  0.321528  0.779647  1
  Zn  Zn4  1  0.677012  0.677012  0.218097  1
  Ni  Ni5  1  0.738524  0.738524  0.913449  1
  Ni  Ni6  1  0.085247  0.085247  0.363990  1
  Ni  Ni7  1  0.920566  0.920566  0.639819  1
  Ni  Ni8  1  0.257219  0.257219  0.082870  1
