# generated using pymatgen
data_Yb7BiN4
_symmetry_space_group_name_H-M   'P 1'
_cell_length_a   3.55836700
_cell_length_b   11.85583000
_cell_length_c   11.31580300
_cell_angle_alpha   90.00000000
_cell_angle_beta   90.00000000
_cell_angle_gamma   90.00000000
_symmetry_Int_Tables_number   1
_chemical_formula_structural   Yb7BiN4
_chemical_formula_sum   'Yb14 Bi2 N8'
_cell_volume   477.38424219
_cell_formula_units_Z   2
loop_
 _symmetry_equiv_pos_site_id
 _symmetry_equiv_pos_as_xyz
  1  'x, y, z'
loop_
 _atom_site_type_symbol
 _atom_site_label
 _atom_site_symmetry_multiplicity
 _atom_site_fract_x
 _atom_site_fract_y
 _atom_site_fract_z
 _atom_site_occupancy
  Yb  Yb0  1  0.500288  0.665071  0.244658  1
  Yb  Yb1  1  0.500288  0.334929  0.755342  1
  Yb  Yb2  1  0.499712  0.165071  0.255342  1
  Yb  Yb3  1  0.499712  0.834929  0.744658  1
  Yb  Yb4  1  0.499210  0.500000  0.000000  1
  Yb  Yb5  1  0.500790  0.000000  0.500000  1
  Yb  Yb6  1  0.000029  0.927960  0.263007  1
  Yb  Yb7  1  0.000029  0.072040  0.736993  1
  Yb  Yb8  1  0.999971  0.427960  0.236993  1
  Yb  Yb9  1  0.999971  0.572040  0.763007  1
  Yb  Yb10  1  0.000993  0.765086  0.481115  1
  Yb  Yb11  1  0.000993  0.234914  0.518885  1
  Yb  Yb12  1  0.999007  0.265086  0.018885  1
  Yb  Yb13  1  0.999007  0.734914  0.981115  1
  Bi  Bi14  1  0.516034  0.500000  0.500000  1
  Bi  Bi15  1  0.483966  0.000000  0.000000  1
  N  N16  1  0.000104  0.600995  0.131698  1
  N  N17  1  0.000104  0.399005  0.868302  1
  N  N18  1  0.999896  0.100995  0.368302  1
  N  N19  1  0.999896  0.899005  0.631698  1
  N  N20  1  0.500140  0.834537  0.359772  1
  N  N21  1  0.500140  0.165463  0.640228  1
  N  N22  1  0.499860  0.334537  0.140228  1
  N  N23  1  0.499860  0.665463  0.859772  1
