# generated using pymatgen
data_CuNi2Ag4RuO8
_symmetry_space_group_name_H-M   'P 1'
_cell_length_a   5.26806002
_cell_length_b   6.19831293
_cell_length_c   7.17842487
_cell_angle_alpha   65.14930847
_cell_angle_beta   104.62445235
_cell_angle_gamma   89.11983818
_symmetry_Int_Tables_number   1
_chemical_formula_structural   CuNi2Ag4RuO8
_chemical_formula_sum   'Cu1 Ni2 Ag4 Ru1 O8'
_cell_volume   203.82394907
_cell_formula_units_Z   1
loop_
 _symmetry_equiv_pos_site_id
 _symmetry_equiv_pos_as_xyz
  1  'x, y, z'
loop_
 _atom_site_type_symbol
 _atom_site_label
 _atom_site_symmetry_multiplicity
 _atom_site_fract_x
 _atom_site_fract_y
 _atom_site_fract_z
 _atom_site_occupancy
  Cu  Cu0  1  0.500029  0.249997  0.500069  1
  Ni  Ni1  1  0.998640  0.002353  0.500775  1
  Ni  Ni2  1  0.001347  0.497711  0.499244  1
  Ag  Ag3  1  0.990308  0.004025  0.992398  1
  Ag  Ag4  1  0.499947  0.249985  0.999976  1
  Ag  Ag5  1  0.009571  0.495855  0.007611  1
  Ag  Ag6  1  0.499935  0.749951  0.999980  1
  Ru  Ru7  1  0.499953  0.750040  0.499992  1
  O  O8  1  0.881086  0.668046  0.667082  1
  O  O9  1  0.391320  0.885053  0.672410  1
  O  O10  1  0.867799  0.175658  0.654815  1
  O  O11  1  0.408783  0.419480  0.659903  1
  O  O12  1  0.119014  0.831968  0.332935  1
  O  O13  1  0.591287  0.080578  0.340069  1
  O  O14  1  0.132224  0.324380  0.345193  1
  O  O15  1  0.608761  0.614922  0.327547  1
