# generated using pymatgen
data_TbPr3NdSn15Rh8
_symmetry_space_group_name_H-M   'P 1'
_cell_length_a   4.54744100
_cell_length_b   7.28399914
_cell_length_c   18.70902576
_cell_angle_alpha   89.92075523
_cell_angle_beta   90.00000000
_cell_angle_gamma   90.00000000
_symmetry_Int_Tables_number   1
_chemical_formula_structural   TbPr3NdSn15Rh8
_chemical_formula_sum   'Tb1 Pr3 Nd1 Sn15 Rh8'
_cell_volume   619.70887589
_cell_formula_units_Z   1
loop_
 _symmetry_equiv_pos_site_id
 _symmetry_equiv_pos_as_xyz
  1  'x, y, z'
loop_
 _atom_site_type_symbol
 _atom_site_label
 _atom_site_symmetry_multiplicity
 _atom_site_fract_x
 _atom_site_fract_y
 _atom_site_fract_z
 _atom_site_occupancy
  Tb  Tb0  1  0.500000  0.489920  0.930803  1
  Pr  Pr1  1  0.500000  0.998961  0.855873  1
  Pr  Pr2  1  0.500000  0.503521  0.357512  1
  Pr  Pr3  1  0.000000  0.003156  0.142684  1
  Nd  Nd4  1  0.000000  0.498892  0.642240  1
  Sn  Sn5  1  0.000000  0.716057  0.807070  1
  Sn  Sn6  1  0.000000  0.783058  0.305334  1
  Sn  Sn7  1  0.500000  0.280995  0.193645  1
  Sn  Sn8  1  0.500000  0.218319  0.693836  1
  Sn  Sn9  1  0.000000  0.850204  0.968678  1
  Sn  Sn10  1  0.000000  0.632461  0.468595  1
  Sn  Sn11  1  0.500000  0.132237  0.030837  1
  Sn  Sn12  1  0.500000  0.366013  0.531674  1
  Sn  Sn13  1  0.000000  0.304671  0.820596  1
  Sn  Sn14  1  0.000000  0.203349  0.317776  1
  Sn  Sn15  1  0.500000  0.700841  0.184276  1
  Sn  Sn16  1  0.500000  0.804159  0.679717  1
  Sn  Sn17  1  0.500000  0.020007  0.433663  1
  Sn  Sn18  1  0.000000  0.509730  0.065966  1
  Sn  Sn19  1  0.000000  0.980202  0.568537  1
  Rh  Rh20  1  0.000000  0.231417  0.965028  1
  Rh  Rh21  1  0.000000  0.248330  0.465338  1
  Rh  Rh22  1  0.500000  0.758902  0.042025  1
  Rh  Rh23  1  0.500000  0.749654  0.533477  1
  Rh  Rh24  1  0.000000  0.017961  0.715935  1
  Rh  Rh25  1  0.000000  0.486825  0.212593  1
  Rh  Rh26  1  0.500000  0.990755  0.289050  1
  Rh  Rh27  1  0.500000  0.519404  0.777240  1
