# generated using pymatgen
data_Y2PaNi3Sb4
_symmetry_space_group_name_H-M   'P 1'
_cell_length_a   8.16752189
_cell_length_b   8.15386317
_cell_length_c   8.16752179
_cell_angle_alpha   109.45038892
_cell_angle_beta   109.29699780
_cell_angle_gamma   109.45038585
_symmetry_Int_Tables_number   1
_chemical_formula_structural   Y2PaNi3Sb4
_chemical_formula_sum   'Y4 Pa2 Ni6 Sb8'
_cell_volume   419.82964800
_cell_formula_units_Z   2
loop_
 _symmetry_equiv_pos_site_id
 _symmetry_equiv_pos_as_xyz
  1  'x, y, z'
loop_
 _atom_site_type_symbol
 _atom_site_label
 _atom_site_symmetry_multiplicity
 _atom_site_fract_x
 _atom_site_fract_y
 _atom_site_fract_z
 _atom_site_occupancy
  Y  Y0  1  0.621540  0.373506  0.249187  1
  Y  Y1  1  0.375514  0.250494  0.625282  1
  Y  Y2  1  0.125282  0.750494  0.875514  1
  Y  Y3  1  0.749187  0.873506  0.121540  1
  Pa  Pa4  1  0.251183  0.625576  0.377544  1
  Pa  Pa5  1  0.877544  0.125576  0.751183  1
  Ni  Ni6  1  0.888341  0.260645  0.121284  1
  Ni  Ni7  1  0.366206  0.621282  0.731963  1
  Ni  Ni8  1  0.621284  0.760645  0.388341  1
  Ni  Ni9  1  0.753767  0.364361  0.631697  1
  Ni  Ni10  1  0.231963  0.121282  0.866206  1
  Ni  Ni11  1  0.131697  0.864361  0.253767  1
  Sb  Sb12  1  0.502352  0.002801  0.846019  1
  Sb  Sb13  1  0.160159  0.157794  0.162817  1
  Sb  Sb14  1  0.841502  0.502619  0.999347  1
  Sb  Sb15  1  0.997572  0.840923  0.496726  1
  Sb  Sb16  1  0.346019  0.502801  0.002352  1
  Sb  Sb17  1  0.996726  0.340923  0.497572  1
  Sb  Sb18  1  0.499347  0.002619  0.341502  1
  Sb  Sb19  1  0.662817  0.657794  0.660159  1
