# generated using pymatgen
data_KTm(SeO3)2
_symmetry_space_group_name_H-M   'P 1'
_cell_length_a   5.71514300
_cell_length_b   8.72655600
_cell_length_c   13.67714400
_cell_angle_alpha   90.00000000
_cell_angle_beta   90.00000000
_cell_angle_gamma   90.00000000
_symmetry_Int_Tables_number   1
_chemical_formula_structural   KTm(SeO3)2
_chemical_formula_sum   'K4 Tm4 Se8 O24'
_cell_volume   682.12725243
_cell_formula_units_Z   4
loop_
 _symmetry_equiv_pos_site_id
 _symmetry_equiv_pos_as_xyz
  1  'x, y, z'
loop_
 _atom_site_type_symbol
 _atom_site_label
 _atom_site_symmetry_multiplicity
 _atom_site_fract_x
 _atom_site_fract_y
 _atom_site_fract_z
 _atom_site_occupancy
  K  K0  1  0.250000  0.991752  0.625271  1
  K  K1  1  0.250000  0.508248  0.125271  1
  K  K2  1  0.750000  0.008248  0.374729  1
  K  K3  1  0.750000  0.491752  0.874729  1
  Tm  Tm4  1  0.250000  0.808776  0.899522  1
  Tm  Tm5  1  0.250000  0.691224  0.399522  1
  Tm  Tm6  1  0.750000  0.191224  0.100478  1
  Tm  Tm7  1  0.750000  0.308776  0.600478  1
  Se  Se8  1  0.750000  0.017523  0.797586  1
  Se  Se9  1  0.750000  0.482477  0.297586  1
  Se  Se10  1  0.250000  0.982477  0.202414  1
  Se  Se11  1  0.250000  0.517523  0.702414  1
  Se  Se12  1  0.750000  0.716645  0.563833  1
  Se  Se13  1  0.750000  0.783355  0.063833  1
  Se  Se14  1  0.250000  0.283355  0.436167  1
  Se  Se15  1  0.250000  0.216645  0.936167  1
  O  O16  1  0.985873  0.894812  0.792974  1
  O  O17  1  0.514127  0.605188  0.292974  1
  O  O18  1  0.485873  0.105188  0.207026  1
  O  O19  1  0.014127  0.394812  0.707026  1
  O  O20  1  0.014127  0.105188  0.207026  1
  O  O21  1  0.485873  0.394812  0.707026  1
  O  O22  1  0.514127  0.894812  0.792974  1
  O  O23  1  0.985873  0.605188  0.292974  1
  O  O24  1  0.750000  0.084545  0.678677  1
  O  O25  1  0.750000  0.415455  0.178677  1
  O  O26  1  0.250000  0.915455  0.321323  1
  O  O27  1  0.250000  0.584545  0.821323  1
  O  O28  1  0.983419  0.794150  0.500349  1
  O  O29  1  0.516581  0.705850  0.000349  1
  O  O30  1  0.483419  0.205850  0.499651  1
  O  O31  1  0.016581  0.294150  0.999651  1
  O  O32  1  0.016581  0.205850  0.499651  1
  O  O33  1  0.483419  0.294150  0.999651  1
  O  O34  1  0.516581  0.794150  0.500349  1
  O  O35  1  0.983419  0.705850  0.000349  1
  O  O36  1  0.750000  0.530554  0.524057  1
  O  O37  1  0.750000  0.969446  0.024057  1
  O  O38  1  0.250000  0.469446  0.475943  1
  O  O39  1  0.250000  0.030554  0.975943  1
