# generated using pymatgen
data_Pa2Fe11CoP7
_symmetry_space_group_name_H-M   'P 1'
_cell_length_a   8.99870449
_cell_length_b   8.99122449
_cell_length_c   3.63196300
_cell_angle_alpha   90.00000000
_cell_angle_beta   90.00000000
_cell_angle_gamma   119.85013095
_symmetry_Int_Tables_number   1
_chemical_formula_structural   Pa2Fe11CoP7
_chemical_formula_sum   'Pa2 Fe11 Co1 P7'
_cell_volume   254.87354674
_cell_formula_units_Z   1
loop_
 _symmetry_equiv_pos_site_id
 _symmetry_equiv_pos_as_xyz
  1  'x, y, z'
loop_
 _atom_site_type_symbol
 _atom_site_label
 _atom_site_symmetry_multiplicity
 _atom_site_fract_x
 _atom_site_fract_y
 _atom_site_fract_z
 _atom_site_occupancy
  Pa  Pa0  1  0.999602  0.998974  0.000000  1
  Pa  Pa1  1  0.336092  0.669705  0.500000  1
  Fe  Fe2  1  0.298447  0.897655  0.000000  1
  Fe  Fe3  1  0.598379  0.700905  0.000000  1
  Fe  Fe4  1  0.815992  0.605745  0.000000  1
  Fe  Fe5  1  0.790538  0.183727  0.000000  1
  Fe  Fe6  1  0.392173  0.208651  0.000000  1
  Fe  Fe7  1  0.048123  0.772190  0.500000  1
  Fe  Fe8  1  0.723874  0.951381  0.500000  1
  Fe  Fe9  1  0.227382  0.277504  0.500000  1
  Fe  Fe10  1  0.896862  0.439050  0.500000  1
  Fe  Fe11  1  0.543412  0.105966  0.500000  1
  Fe  Fe12  1  0.561541  0.455700  0.500000  1
  Co  Co13  1  0.102283  0.400757  0.000000  1
  P  P14  1  0.069824  0.633527  0.000000  1
  P  P15  1  0.563548  0.931955  0.000000  1
  P  P16  1  0.369276  0.437317  0.000000  1
  P  P17  1  0.771437  0.729168  0.500000  1
  P  P18  1  0.955752  0.225164  0.500000  1
  P  P19  1  0.269981  0.042368  0.500000  1
  P  P20  1  0.665480  0.332588  0.000000  1
