# generated using pymatgen
data_Er8Ti10NbSi16Pt
_symmetry_space_group_name_H-M   'P 1'
_cell_length_a   7.02129157
_cell_length_b   7.02129211
_cell_length_c   12.81719958
_cell_angle_alpha   90.22897032
_cell_angle_beta   89.77102568
_cell_angle_gamma   89.72341961
_symmetry_Int_Tables_number   1
_chemical_formula_structural   Er8Ti10NbSi16Pt
_chemical_formula_sum   'Er8 Ti10 Nb1 Si16 Pt1'
_cell_volume   631.85171272
_cell_formula_units_Z   1
loop_
 _symmetry_equiv_pos_site_id
 _symmetry_equiv_pos_as_xyz
  1  'x, y, z'
loop_
 _atom_site_type_symbol
 _atom_site_label
 _atom_site_symmetry_multiplicity
 _atom_site_fract_x
 _atom_site_fract_y
 _atom_site_fract_z
 _atom_site_occupancy
  Er  Er0  1  0.341412  0.002454  0.467404  1
  Er  Er1  1  0.497014  0.842007  0.717451  1
  Er  Er2  1  0.501599  0.157351  0.214427  1
  Er  Er3  1  0.842007  0.497014  0.282549  1
  Er  Er4  1  0.157351  0.501599  0.785573  1
  Er  Er5  1  0.656617  0.999201  0.968969  1
  Er  Er6  1  0.002454  0.341412  0.532596  1
  Er  Er7  1  0.999201  0.656617  0.031031  1
  Ti  Ti8  1  0.175766  0.825976  0.248373  1
  Ti  Ti9  1  0.825976  0.175766  0.751627  1
  Ti  Ti10  1  0.148025  0.004130  0.876726  1
  Ti  Ti11  1  0.494146  0.654218  0.123671  1
  Ti  Ti12  1  0.506983  0.351268  0.626725  1
  Ti  Ti13  1  0.654218  0.494146  0.876329  1
  Ti  Ti14  1  0.351268  0.506983  0.373275  1
  Ti  Ti15  1  0.849634  0.992452  0.374995  1
  Ti  Ti16  1  0.004130  0.148025  0.123274  1
  Ti  Ti17  1  0.992452  0.849634  0.625005  1
  Nb  Nb18  1  0.673091  0.673091  0.500000  1
  Si  Si19  1  0.201552  0.133973  0.685043  1
  Si  Si20  1  0.372022  0.709840  0.931668  1
  Si  Si21  1  0.631562  0.294123  0.433199  1
  Si  Si22  1  0.709840  0.372022  0.068332  1
  Si  Si23  1  0.294123  0.631562  0.566801  1
  Si  Si24  1  0.797273  0.866852  0.182713  1
  Si  Si25  1  0.133973  0.201552  0.314957  1
  Si  Si26  1  0.866852  0.797273  0.817287  1
  Si  Si27  1  0.286347  0.944502  0.064318  1
  Si  Si28  1  0.546843  0.792892  0.313756  1
  Si  Si29  1  0.449350  0.209780  0.815799  1
  Si  Si30  1  0.792892  0.546843  0.686244  1
  Si  Si31  1  0.209780  0.449350  0.184201  1
  Si  Si32  1  0.708050  0.049019  0.565504  1
  Si  Si33  1  0.944502  0.286347  0.935682  1
  Si  Si34  1  0.049019  0.708050  0.434496  1
  Pt  Pt35  1  0.332677  0.332677  0.000000  1
