# generated using pymatgen
data_Zr8TlIn3CuNi7
_symmetry_space_group_name_H-M   'P 1'
_cell_length_a   7.24256153
_cell_length_b   7.24545388
_cell_length_c   6.72969107
_cell_angle_alpha   89.98146675
_cell_angle_beta   89.98074762
_cell_angle_gamma   89.85459255
_symmetry_Int_Tables_number   1
_chemical_formula_structural   Zr8TlIn3CuNi7
_chemical_formula_sum   'Zr8 Tl1 In3 Cu1 Ni7'
_cell_volume   353.14370756
_cell_formula_units_Z   1
loop_
 _symmetry_equiv_pos_site_id
 _symmetry_equiv_pos_as_xyz
  1  'x, y, z'
loop_
 _atom_site_type_symbol
 _atom_site_label
 _atom_site_symmetry_multiplicity
 _atom_site_fract_x
 _atom_site_fract_y
 _atom_site_fract_z
 _atom_site_occupancy
  Zr  Zr0  1  0.661746  0.344610  0.995158  1
  Zr  Zr1  1  0.343498  0.660414  0.994661  1
  Zr  Zr2  1  0.841195  0.839562  0.499838  1
  Zr  Zr3  1  0.152289  0.153886  0.505540  1
  Zr  Zr4  1  0.174496  0.175432  0.996911  1
  Zr  Zr5  1  0.821426  0.820383  0.999753  1
  Zr  Zr6  1  0.321069  0.684368  0.504242  1
  Zr  Zr7  1  0.684823  0.322296  0.503914  1
  Tl  Tl8  1  0.500228  0.000217  0.249494  1
  In  In9  1  0.000102  0.500123  0.249050  1
  In  In10  1  0.002758  0.500665  0.750632  1
  In  In11  1  0.500791  0.002950  0.750518  1
  Cu  Cu12  1  0.373215  0.377171  0.282518  1
  Ni  Ni13  1  0.623791  0.619905  0.275582  1
  Ni  Ni14  1  0.122393  0.872369  0.222706  1
  Ni  Ni15  1  0.876954  0.126371  0.222881  1
  Ni  Ni16  1  0.625234  0.625678  0.723364  1
  Ni  Ni17  1  0.375591  0.375307  0.723272  1
  Ni  Ni18  1  0.124176  0.874482  0.775043  1
  Ni  Ni19  1  0.874226  0.123809  0.774923  1
