# generated using pymatgen
data_HoEr15Cd2(InPd2)2
_symmetry_space_group_name_H-M   'P 1'
_cell_length_a   9.63074130
_cell_length_b   9.63074067
_cell_length_c   9.63344489
_cell_angle_alpha   59.95041423
_cell_angle_beta   59.95041875
_cell_angle_gamma   60.00020930
_symmetry_Int_Tables_number   1
_chemical_formula_structural   HoEr15Cd2(InPd2)2
_chemical_formula_sum   'Ho1 Er15 Cd2 In2 Pd4'
_cell_volume   631.33638669
_cell_formula_units_Z   1
loop_
 _symmetry_equiv_pos_site_id
 _symmetry_equiv_pos_as_xyz
  1  'x, y, z'
loop_
 _atom_site_type_symbol
 _atom_site_label
 _atom_site_symmetry_multiplicity
 _atom_site_fract_x
 _atom_site_fract_y
 _atom_site_fract_z
 _atom_site_occupancy
  Ho  Ho0  1  0.352278  0.352278  0.353238  1
  Er  Er1  1  0.353751  0.353751  0.939352  1
  Er  Er2  1  0.354157  0.938706  0.354097  1
  Er  Er3  1  0.938706  0.354157  0.354097  1
  Er  Er4  1  0.810432  0.190079  0.189376  1
  Er  Er5  1  0.190087  0.810189  0.810106  1
  Er  Er6  1  0.190079  0.810432  0.189376  1
  Er  Er7  1  0.810189  0.190087  0.810106  1
  Er  Er8  1  0.188845  0.188845  0.811500  1
  Er  Er9  1  0.809403  0.809403  0.190741  1
  Er  Er10  1  0.935941  0.566442  0.565545  1
  Er  Er11  1  0.564836  0.936407  0.933539  1
  Er  Er12  1  0.566442  0.935941  0.565545  1
  Er  Er13  1  0.936407  0.564836  0.933539  1
  Er  Er14  1  0.566145  0.566145  0.933934  1
  Er  Er15  1  0.935631  0.935631  0.563856  1
  Cd  Cd16  1  0.582180  0.250536  0.583518  1
  Cd  Cd17  1  0.250536  0.582180  0.583518  1
  In  In18  1  0.582469  0.582469  0.584047  1
  In  In19  1  0.582345  0.582345  0.251200  1
  Pd  Pd20  1  0.144414  0.144414  0.144503  1
  Pd  Pd21  1  0.143668  0.143668  0.567481  1
  Pd  Pd22  1  0.143463  0.567595  0.143893  1
  Pd  Pd23  1  0.567595  0.143463  0.143893  1
