# generated using pymatgen
data_Tb7Dy5(CoTc)2
_symmetry_space_group_name_H-M   'P 1'
_cell_length_a   6.29190538
_cell_length_b   7.18231030
_cell_length_c   9.18380700
_cell_angle_alpha   89.98989270
_cell_angle_beta   89.97998442
_cell_angle_gamma   89.98693755
_symmetry_Int_Tables_number   1
_chemical_formula_structural   Tb7Dy5(CoTc)2
_chemical_formula_sum   'Tb7 Dy5 Co2 Tc2'
_cell_volume   415.02002390
_cell_formula_units_Z   1
loop_
 _symmetry_equiv_pos_site_id
 _symmetry_equiv_pos_as_xyz
  1  'x, y, z'
loop_
 _atom_site_type_symbol
 _atom_site_label
 _atom_site_symmetry_multiplicity
 _atom_site_fract_x
 _atom_site_fract_y
 _atom_site_fract_z
 _atom_site_occupancy
  Tb  Tb0  1  0.823436  0.681870  0.433501  1
  Tb  Tb1  1  0.323598  0.818305  0.933546  1
  Tb  Tb2  1  0.168062  0.326362  0.563646  1
  Tb  Tb3  1  0.668021  0.173609  0.436287  1
  Tb  Tb4  1  0.168092  0.326298  0.936413  1
  Tb  Tb5  1  0.323547  0.818161  0.566492  1
  Tb  Tb6  1  0.823354  0.681900  0.066472  1
  Dy  Dy7  1  0.667996  0.173537  0.063645  1
  Dy  Dy8  1  0.370697  0.546182  0.249953  1
  Dy  Dy9  1  0.143172  0.040304  0.249920  1
  Dy  Dy10  1  0.870313  0.953929  0.750067  1
  Dy  Dy11  1  0.643136  0.459567  0.750020  1
  Co  Co12  1  0.540452  0.885939  0.249971  1
  Co  Co13  1  0.040436  0.614161  0.750008  1
  Tc  Tc14  1  0.962754  0.391591  0.249940  1
  Tc  Tc15  1  0.462934  0.108288  0.750118  1
