# generated using pymatgen
data_Ho2Tm2Zn4Si3Ge
_symmetry_space_group_name_H-M   'P 1'
_cell_length_a   4.16068000
_cell_length_b   4.16067863
_cell_length_c   15.40460500
_cell_angle_alpha   90.00000000
_cell_angle_beta   90.00000000
_cell_angle_gamma   120.00001086
_symmetry_Int_Tables_number   1
_chemical_formula_structural   Ho2Tm2Zn4Si3Ge
_chemical_formula_sum   'Ho2 Tm2 Zn4 Si3 Ge1'
_cell_volume   230.94557154
_cell_formula_units_Z   1
loop_
 _symmetry_equiv_pos_site_id
 _symmetry_equiv_pos_as_xyz
  1  'x, y, z'
loop_
 _atom_site_type_symbol
 _atom_site_label
 _atom_site_symmetry_multiplicity
 _atom_site_fract_x
 _atom_site_fract_y
 _atom_site_fract_z
 _atom_site_occupancy
  Ho  Ho0  1  0.000000  0.000000  0.001817  1
  Ho  Ho1  1  0.000000  0.000000  0.499597  1
  Tm  Tm2  1  0.000000  0.000000  0.250314  1
  Tm  Tm3  1  0.000000  0.000000  0.747951  1
  Zn  Zn4  1  0.333333  0.666667  0.142548  1
  Zn  Zn5  1  0.666667  0.333333  0.853642  1
  Zn  Zn6  1  0.666667  0.333333  0.641179  1
  Zn  Zn7  1  0.333333  0.666667  0.358166  1
  Si  Si8  1  0.333333  0.666667  0.617589  1
  Si  Si9  1  0.666667  0.333333  0.382355  1
  Si  Si10  1  0.666667  0.333333  0.118405  1
  Ge  Ge11  1  0.333333  0.666667  0.886438  1
