# generated using pymatgen
data_Tb8Co(Si4Ag)3
_symmetry_space_group_name_H-M   'P 1'
_cell_length_a   8.19078900
_cell_length_b   8.19078858
_cell_length_c   8.18865700
_cell_angle_alpha   90.00000000
_cell_angle_beta   90.00000000
_cell_angle_gamma   120.00001381
_symmetry_Int_Tables_number   1
_chemical_formula_structural   Tb8Co(Si4Ag)3
_chemical_formula_sum   'Tb8 Co1 Si12 Ag3'
_cell_volume   475.76742777
_cell_formula_units_Z   1
loop_
 _symmetry_equiv_pos_site_id
 _symmetry_equiv_pos_as_xyz
  1  'x, y, z'
loop_
 _atom_site_type_symbol
 _atom_site_label
 _atom_site_symmetry_multiplicity
 _atom_site_fract_x
 _atom_site_fract_y
 _atom_site_fract_z
 _atom_site_occupancy
  Tb  Tb0  1  0.496925  0.993847  0.244071  1
  Tb  Tb1  1  0.494120  0.988239  0.756167  1
  Tb  Tb2  1  0.006153  0.503075  0.244071  1
  Tb  Tb3  1  0.011761  0.505880  0.756167  1
  Tb  Tb4  1  0.496925  0.503075  0.244071  1
  Tb  Tb5  1  0.494120  0.505880  0.756167  1
  Tb  Tb6  1  0.000000  0.000000  0.248834  1
  Tb  Tb7  1  0.000000  0.000000  0.750865  1
  Co  Co8  1  0.333333  0.666667  0.001608  1
  Si  Si9  1  0.174191  0.348381  0.001879  1
  Si  Si10  1  0.839410  0.678821  0.998963  1
  Si  Si11  1  0.651619  0.825809  0.001879  1
  Si  Si12  1  0.836611  0.673222  0.497106  1
  Si  Si13  1  0.321179  0.160590  0.998963  1
  Si  Si14  1  0.162939  0.325878  0.502101  1
  Si  Si15  1  0.174191  0.825809  0.001879  1
  Si  Si16  1  0.326778  0.163389  0.497106  1
  Si  Si17  1  0.839410  0.160590  0.998963  1
  Si  Si18  1  0.674122  0.837061  0.502101  1
  Si  Si19  1  0.836611  0.163389  0.497106  1
  Si  Si20  1  0.162939  0.837061  0.502101  1
  Ag  Ag21  1  0.666667  0.333333  0.995709  1
  Ag  Ag22  1  0.666667  0.333333  0.506233  1
  Ag  Ag23  1  0.333333  0.666667  0.495889  1
