# generated using pymatgen
data_BePBrO3
_symmetry_space_group_name_H-M   'P 1'
_cell_length_a   6.25339782
_cell_length_b   4.99022876
_cell_length_c   7.28640299
_cell_angle_alpha   119.95381690
_cell_angle_beta   138.01479625
_cell_angle_gamma   79.37768331
_symmetry_Int_Tables_number   1
_chemical_formula_structural   BePBrO3
_chemical_formula_sum   'Be1 P1 Br1 O3'
_cell_volume   124.75301495
_cell_formula_units_Z   1
loop_
 _symmetry_equiv_pos_site_id
 _symmetry_equiv_pos_as_xyz
  1  'x, y, z'
loop_
 _atom_site_type_symbol
 _atom_site_label
 _atom_site_symmetry_multiplicity
 _atom_site_fract_x
 _atom_site_fract_y
 _atom_site_fract_z
 _atom_site_occupancy
  Be  Be0  1  0.746874  0.284438  0.618073  1
  P  P1  1  0.024613  0.980338  0.969955  1
  Br  Br2  1  0.730796  0.123976  0.049144  1
  O  O3  1  0.384994  0.212699  0.293672  1
  O  O4  1  0.859287  0.021300  0.697680  1
  O  O5  1  0.003436  0.627247  0.871477  1
