# generated using pymatgen
data_Pr3(Sn2Ir)2
_symmetry_space_group_name_H-M   'P 1'
_cell_length_a   7.69528000
_cell_length_b   7.69528039
_cell_length_c   4.32940000
_cell_angle_alpha   90.00000000
_cell_angle_beta   90.00000000
_cell_angle_gamma   119.99998971
_symmetry_Int_Tables_number   1
_chemical_formula_structural   Pr3(Sn2Ir)2
_chemical_formula_sum   'Pr3 Sn4 Ir2'
_cell_volume   222.02775365
_cell_formula_units_Z   1
loop_
 _symmetry_equiv_pos_site_id
 _symmetry_equiv_pos_as_xyz
  1  'x, y, z'
loop_
 _atom_site_type_symbol
 _atom_site_label
 _atom_site_symmetry_multiplicity
 _atom_site_fract_x
 _atom_site_fract_y
 _atom_site_fract_z
 _atom_site_occupancy
  Pr  Pr0  1  0.605130  0.019824  0.000000  1
  Pr  Pr1  1  0.980176  0.585306  0.000000  1
  Pr  Pr2  1  0.414694  0.394870  0.000000  1
  Sn  Sn3  1  0.251512  0.017818  0.500000  1
  Sn  Sn4  1  0.982182  0.233695  0.500000  1
  Sn  Sn5  1  0.766305  0.748488  0.500000  1
  Sn  Sn6  1  0.333333  0.666667  0.500000  1
  Ir  Ir7  1  0.666667  0.333333  0.500000  1
  Ir  Ir8  1  0.000000  0.000000  0.000000  1
