# generated using pymatgen
data_Sc4B4Sb2(RuRh)5
_symmetry_space_group_name_H-M   'P 1'
_cell_length_a   9.51462254
_cell_length_b   9.50252954
_cell_length_c   3.10594800
_cell_angle_alpha   90.00000000
_cell_angle_beta   90.00000000
_cell_angle_gamma   90.03876934
_symmetry_Int_Tables_number   1
_chemical_formula_structural   Sc4B4Sb2(RuRh)5
_chemical_formula_sum   'Sc4 B4 Sb2 Ru5 Rh5'
_cell_volume   280.81795580
_cell_formula_units_Z   1
loop_
 _symmetry_equiv_pos_site_id
 _symmetry_equiv_pos_as_xyz
  1  'x, y, z'
loop_
 _atom_site_type_symbol
 _atom_site_label
 _atom_site_symmetry_multiplicity
 _atom_site_fract_x
 _atom_site_fract_y
 _atom_site_fract_z
 _atom_site_occupancy
  Sc  Sc0  1  0.831680  0.320571  0.000000  1
  Sc  Sc1  1  0.321626  0.168710  0.000000  1
  Sc  Sc2  1  0.674081  0.831592  0.000000  1
  Sc  Sc3  1  0.173913  0.676071  0.000000  1
  B  B4  1  0.623175  0.117003  0.000000  1
  B  B5  1  0.117382  0.376965  0.000000  1
  B  B6  1  0.881201  0.619710  0.000000  1
  B  B7  1  0.376111  0.883396  0.000000  1
  Sb  Sb8  1  0.000436  0.002493  0.000000  1
  Sb  Sb9  1  0.500200  0.499820  0.000000  1
  Ru  Ru10  1  0.073876  0.221709  0.500000  1
  Ru  Ru11  1  0.218402  0.924382  0.500000  1
  Ru  Ru12  1  0.780063  0.071593  0.500000  1
  Ru  Ru13  1  0.499428  0.999950  0.500000  1
  Ru  Ru14  1  0.000491  0.502249  0.500000  1
  Rh  Rh15  1  0.925179  0.779872  0.500000  1
  Rh  Rh16  1  0.429317  0.720095  0.500000  1
  Rh  Rh17  1  0.572419  0.280012  0.500000  1
  Rh  Rh18  1  0.720663  0.574223  0.500000  1
  Rh  Rh19  1  0.280357  0.429585  0.500000  1
