# generated using pymatgen
data_TbTh2In3Ru2
_symmetry_space_group_name_H-M   'P 1'
_cell_length_a   8.52965079
_cell_length_b   8.52965136
_cell_length_c   5.13236961
_cell_angle_alpha   80.26424899
_cell_angle_beta   80.26424983
_cell_angle_gamma   32.73493811
_symmetry_Int_Tables_number   1
_chemical_formula_structural   TbTh2In3Ru2
_chemical_formula_sum   'Tb1 Th2 In3 Ru2'
_cell_volume   198.75929881
_cell_formula_units_Z   1
loop_
 _symmetry_equiv_pos_site_id
 _symmetry_equiv_pos_as_xyz
  1  'x, y, z'
loop_
 _atom_site_type_symbol
 _atom_site_label
 _atom_site_symmetry_multiplicity
 _atom_site_fract_x
 _atom_site_fract_y
 _atom_site_fract_z
 _atom_site_occupancy
  Tb  Tb0  1  0.000000  0.000000  0.000000  1
  Th  Th1  1  0.828866  0.828866  0.589968  1
  Th  Th2  1  0.171134  0.171134  0.410032  1
  In  In3  1  0.370137  0.370137  0.054137  1
  In  In4  1  0.500000  0.500000  0.500000  1
  In  In5  1  0.629863  0.629863  0.945863  1
  Ru  Ru6  1  0.788493  0.788493  0.120986  1
  Ru  Ru7  1  0.211507  0.211507  0.879014  1
