# generated using pymatgen
data_Pu2SbO2
_symmetry_space_group_name_H-M   'P 1'
_cell_length_a   7.03676504
_cell_length_b   7.03676510
_cell_length_c   7.03676565
_cell_angle_alpha   147.79488658
_cell_angle_beta   147.79489194
_cell_angle_gamma   46.18824688
_symmetry_Int_Tables_number   1
_chemical_formula_structural   Pu2SbO2
_chemical_formula_sum   'Pu2 Sb1 O2'
_cell_volume   98.62376414
_cell_formula_units_Z   1
loop_
 _symmetry_equiv_pos_site_id
 _symmetry_equiv_pos_as_xyz
  1  'x, y, z'
loop_
 _atom_site_type_symbol
 _atom_site_label
 _atom_site_symmetry_multiplicity
 _atom_site_fract_x
 _atom_site_fract_y
 _atom_site_fract_z
 _atom_site_occupancy
  Pu  Pu0  1  0.658133  0.658133  0.000000  1
  Pu  Pu1  1  0.341867  0.341867  0.000000  1
  Sb  Sb2  1  0.000000  0.000000  0.000000  1
  O  O3  1  0.750000  0.250000  0.500000  1
  O  O4  1  0.250000  0.750000  0.500000  1
