# generated using pymatgen
data_EuYH5
_symmetry_space_group_name_H-M   'P 1'
_cell_length_a   6.49994875
_cell_length_b   6.49994910
_cell_length_c   6.49994872
_cell_angle_alpha   130.79919527
_cell_angle_beta   130.79919981
_cell_angle_gamma   72.13231209
_symmetry_Int_Tables_number   1
_chemical_formula_structural   EuYH5
_chemical_formula_sum   'Eu2 Y2 H10'
_cell_volume   153.87522954
_cell_formula_units_Z   2
loop_
 _symmetry_equiv_pos_site_id
 _symmetry_equiv_pos_as_xyz
  1  'x, y, z'
loop_
 _atom_site_type_symbol
 _atom_site_label
 _atom_site_symmetry_multiplicity
 _atom_site_fract_x
 _atom_site_fract_y
 _atom_site_fract_z
 _atom_site_occupancy
  Eu  Eu0  1  0.989499  0.489499  0.500000  1
  Eu  Eu1  1  0.239499  0.239499  0.000000  1
  Y  Y2  1  0.514151  0.014151  0.500000  1
  Y  Y3  1  0.764151  0.764151  0.000000  1
  H  H4  1  0.394724  0.402922  0.547781  1
  H  H5  1  0.855141  0.846942  0.452219  1
  H  H6  1  0.596942  0.105141  0.952219  1
  H  H7  1  0.152922  0.644724  0.047781  1
  H  H8  1  0.394724  0.846942  0.991801  1
  H  H9  1  0.855141  0.402922  0.008199  1
  H  H10  1  0.596942  0.644724  0.491801  1
  H  H11  1  0.152922  0.105141  0.508199  1
  H  H12  1  0.746621  0.246621  0.500000  1
  H  H13  1  0.996621  0.996621  0.000000  1
