# generated using pymatgen
data_NdTh2Ga3Ru2Rh
_symmetry_space_group_name_H-M   'P 1'
_cell_length_a   7.34368644
_cell_length_b   7.10257493
_cell_length_c   4.03557400
_cell_angle_alpha   90.00000000
_cell_angle_beta   90.00000000
_cell_angle_gamma   118.91972854
_symmetry_Int_Tables_number   1
_chemical_formula_structural   NdTh2Ga3Ru2Rh
_chemical_formula_sum   'Nd1 Th2 Ga3 Ru2 Rh1'
_cell_volume   184.24310092
_cell_formula_units_Z   1
loop_
 _symmetry_equiv_pos_site_id
 _symmetry_equiv_pos_as_xyz
  1  'x, y, z'
loop_
 _atom_site_type_symbol
 _atom_site_label
 _atom_site_symmetry_multiplicity
 _atom_site_fract_x
 _atom_site_fract_y
 _atom_site_fract_z
 _atom_site_occupancy
  Nd  Nd0  1  0.000000  0.412553  0.500000  1
  Th  Th1  1  0.580375  0.581968  0.500000  1
  Th  Th2  1  0.419625  0.001593  0.500000  1
  Ga  Ga3  1  0.000000  0.746325  0.000000  1
  Ga  Ga4  1  0.232362  0.239798  0.000000  1
  Ga  Ga5  1  0.767638  0.007436  0.000000  1
  Ru  Ru6  1  0.363006  0.693266  0.000000  1
  Ru  Ru7  1  0.636994  0.330259  0.000000  1
  Rh  Rh8  1  0.000000  0.986802  0.500000  1
