# generated using pymatgen
data_Tb4Dy3Y(B6Ru)4
_symmetry_space_group_name_H-M   'P 1'
_cell_length_a   3.66793100
_cell_length_b   9.15726200
_cell_length_c   11.52950500
_cell_angle_alpha   90.00106357
_cell_angle_beta   90.00000000
_cell_angle_gamma   90.00000000
_symmetry_Int_Tables_number   1
_chemical_formula_structural   Tb4Dy3Y(B6Ru)4
_chemical_formula_sum   'Tb4 Dy3 Y1 B24 Ru4'
_cell_volume   387.25537936
_cell_formula_units_Z   1
loop_
 _symmetry_equiv_pos_site_id
 _symmetry_equiv_pos_as_xyz
  1  'x, y, z'
loop_
 _atom_site_type_symbol
 _atom_site_label
 _atom_site_symmetry_multiplicity
 _atom_site_fract_x
 _atom_site_fract_y
 _atom_site_fract_z
 _atom_site_occupancy
  Tb  Tb0  1  0.000000  0.323257  0.413960  1
  Tb  Tb1  1  0.000000  0.676742  0.586042  1
  Tb  Tb2  1  0.000000  0.823195  0.086005  1
  Tb  Tb3  1  0.000000  0.176794  0.913996  1
  Dy  Dy4  1  0.000000  0.056074  0.627900  1
  Dy  Dy5  1  0.000000  0.443966  0.127829  1
  Dy  Dy6  1  0.000000  0.556022  0.872164  1
  Y  Y7  1  0.000000  0.944078  0.372404  1
  B  B8  1  0.500000  0.554470  0.432721  1
  B  B9  1  0.500000  0.445518  0.567300  1
  B  B10  1  0.500000  0.054469  0.067260  1
  B  B11  1  0.500000  0.945517  0.932689  1
  B  B12  1  0.500000  0.747854  0.419655  1
  B  B13  1  0.500000  0.252046  0.580436  1
  B  B14  1  0.500000  0.247987  0.080390  1
  B  B15  1  0.500000  0.752034  0.919578  1
  B  B16  1  0.500000  0.791091  0.266406  1
  B  B17  1  0.500000  0.208898  0.733490  1
  B  B18  1  0.500000  0.291142  0.233485  1
  B  B19  1  0.500000  0.708886  0.766525  1
  B  B20  1  0.500000  0.632177  0.185302  1
  B  B21  1  0.500000  0.367783  0.814664  1
  B  B22  1  0.500000  0.132341  0.314659  1
  B  B23  1  0.500000  0.867790  0.685372  1
  B  B24  1  0.500000  0.984359  0.212803  1
  B  B25  1  0.500000  0.015598  0.787103  1
  B  B26  1  0.500000  0.484375  0.287070  1
  B  B27  1  0.500000  0.515586  0.712901  1
  B  B28  1  0.500000  0.608786  0.029998  1
  B  B29  1  0.500000  0.391215  0.969985  1
  B  B30  1  0.500000  0.108894  0.470011  1
  B  B31  1  0.500000  0.891143  0.530064  1
  Ru  Ru32  1  0.000000  0.638108  0.321093  1
  Ru  Ru33  1  0.000000  0.361739  0.678882  1
  Ru  Ru34  1  0.000000  0.138321  0.178788  1
  Ru  Ru35  1  0.000000  0.861743  0.821073  1
