# generated using pymatgen
data_Dy5Hg3C
_symmetry_space_group_name_H-M   'P 1'
_cell_length_a   8.98938600
_cell_length_b   8.98938545
_cell_length_c   6.40943200
_cell_angle_alpha   90.00000000
_cell_angle_beta   90.00000000
_cell_angle_gamma   120.00000204
_symmetry_Int_Tables_number   1
_chemical_formula_structural   Dy5Hg3C
_chemical_formula_sum   'Dy10 Hg6 C2'
_cell_volume   448.54931598
_cell_formula_units_Z   2
loop_
 _symmetry_equiv_pos_site_id
 _symmetry_equiv_pos_as_xyz
  1  'x, y, z'
loop_
 _atom_site_type_symbol
 _atom_site_label
 _atom_site_symmetry_multiplicity
 _atom_site_fract_x
 _atom_site_fract_y
 _atom_site_fract_z
 _atom_site_occupancy
  Dy  Dy0  1  0.666667  0.333333  0.000000  1
  Dy  Dy1  1  0.333333  0.666667  0.000000  1
  Dy  Dy2  1  0.333333  0.666667  0.500000  1
  Dy  Dy3  1  0.666667  0.333333  0.500000  1
  Dy  Dy4  1  0.789520  0.789520  0.750000  1
  Dy  Dy5  1  0.210480  0.000000  0.750000  1
  Dy  Dy6  1  0.000000  0.210480  0.750000  1
  Dy  Dy7  1  0.210480  0.210480  0.250000  1
  Dy  Dy8  1  0.789520  0.000000  0.250000  1
  Dy  Dy9  1  0.000000  0.789520  0.250000  1
  Hg  Hg10  1  0.411815  0.411815  0.750000  1
  Hg  Hg11  1  0.588185  0.000000  0.750000  1
  Hg  Hg12  1  0.000000  0.588185  0.750000  1
  Hg  Hg13  1  0.588185  0.588185  0.250000  1
  Hg  Hg14  1  0.411815  0.000000  0.250000  1
  Hg  Hg15  1  0.000000  0.411815  0.250000  1
  C  C16  1  0.000000  0.000000  0.000000  1
  C  C17  1  0.000000  0.000000  0.500000  1
