# generated using pymatgen
data_Sc5SiSn3
_symmetry_space_group_name_H-M   'P 1'
_cell_length_a   8.71187300
_cell_length_b   8.71187246
_cell_length_c   6.02779300
_cell_angle_alpha   90.00000000
_cell_angle_beta   90.00000000
_cell_angle_gamma   119.99999825
_symmetry_Int_Tables_number   1
_chemical_formula_structural   Sc5SiSn3
_chemical_formula_sum   'Sc10 Si2 Sn6'
_cell_volume   396.19775820
_cell_formula_units_Z   2
loop_
 _symmetry_equiv_pos_site_id
 _symmetry_equiv_pos_as_xyz
  1  'x, y, z'
loop_
 _atom_site_type_symbol
 _atom_site_label
 _atom_site_symmetry_multiplicity
 _atom_site_fract_x
 _atom_site_fract_y
 _atom_site_fract_z
 _atom_site_occupancy
  Sc  Sc0  1  0.666667  0.333333  0.000000  1
  Sc  Sc1  1  0.333333  0.666667  0.000000  1
  Sc  Sc2  1  0.333333  0.666667  0.500000  1
  Sc  Sc3  1  0.666667  0.333333  0.500000  1
  Sc  Sc4  1  0.746332  0.746332  0.750000  1
  Sc  Sc5  1  0.253668  0.000000  0.750000  1
  Sc  Sc6  1  0.000000  0.253668  0.750000  1
  Sc  Sc7  1  0.253668  0.253668  0.250000  1
  Sc  Sc8  1  0.746332  0.000000  0.250000  1
  Sc  Sc9  1  0.000000  0.746332  0.250000  1
  Si  Si10  1  0.000000  0.000000  0.000000  1
  Si  Si11  1  0.000000  0.000000  0.500000  1
  Sn  Sn12  1  0.392813  0.392813  0.750000  1
  Sn  Sn13  1  0.607187  0.000000  0.750000  1
  Sn  Sn14  1  0.000000  0.607187  0.750000  1
  Sn  Sn15  1  0.607187  0.607187  0.250000  1
  Sn  Sn16  1  0.392813  0.000000  0.250000  1
  Sn  Sn17  1  0.000000  0.392813  0.250000  1
