# generated using pymatgen
data_Lu4ZnSi6Ir
_symmetry_space_group_name_H-M   'P 1'
_cell_length_a   8.11063800
_cell_length_b   8.11063839
_cell_length_c   7.69229800
_cell_angle_alpha   90.00000000
_cell_angle_beta   90.00000000
_cell_angle_gamma   119.99999841
_symmetry_Int_Tables_number   1
_chemical_formula_structural   Lu4ZnSi6Ir
_chemical_formula_sum   'Lu8 Zn2 Si12 Ir2'
_cell_volume   438.22464333
_cell_formula_units_Z   2
loop_
 _symmetry_equiv_pos_site_id
 _symmetry_equiv_pos_as_xyz
  1  'x, y, z'
loop_
 _atom_site_type_symbol
 _atom_site_label
 _atom_site_symmetry_multiplicity
 _atom_site_fract_x
 _atom_site_fract_y
 _atom_site_fract_z
 _atom_site_occupancy
  Lu  Lu0  1  0.973516  0.486759  0.243616  1
  Lu  Lu1  1  0.513241  0.486759  0.243616  1
  Lu  Lu2  1  0.486759  0.973516  0.756384  1
  Lu  Lu3  1  0.026484  0.513241  0.756384  1
  Lu  Lu4  1  0.486759  0.513241  0.756384  1
  Lu  Lu5  1  0.513241  0.026484  0.243616  1
  Lu  Lu6  1  0.000000  0.000000  0.746566  1
  Lu  Lu7  1  0.000000  0.000000  0.253434  1
  Zn  Zn8  1  0.666667  0.333333  0.568611  1
  Zn  Zn9  1  0.333333  0.666667  0.431389  1
  Si  Si10  1  0.167321  0.832679  0.509886  1
  Si  Si11  1  0.167321  0.334641  0.509886  1
  Si  Si12  1  0.665359  0.832679  0.509886  1
  Si  Si13  1  0.331121  0.165560  0.984770  1
  Si  Si14  1  0.832679  0.665359  0.490114  1
  Si  Si15  1  0.834440  0.165560  0.984770  1
  Si  Si16  1  0.834440  0.668879  0.984770  1
  Si  Si17  1  0.165560  0.331121  0.015230  1
  Si  Si18  1  0.668879  0.834440  0.015230  1
  Si  Si19  1  0.334641  0.167321  0.490114  1
  Si  Si20  1  0.832679  0.167321  0.490114  1
  Si  Si21  1  0.165560  0.834440  0.015230  1
  Ir  Ir22  1  0.333333  0.666667  0.027127  1
  Ir  Ir23  1  0.666667  0.333333  0.972873  1
