# generated using pymatgen
data_Th10Bi6AsPt
_symmetry_space_group_name_H-M   'P 1'
_cell_length_a   9.68705400
_cell_length_b   9.68705499
_cell_length_c   6.58232900
_cell_angle_alpha   90.00000000
_cell_angle_beta   90.00000000
_cell_angle_gamma   119.99999660
_symmetry_Int_Tables_number   1
_chemical_formula_structural   Th10Bi6AsPt
_chemical_formula_sum   'Th10 Bi6 As1 Pt1'
_cell_volume   534.92601335
_cell_formula_units_Z   1
loop_
 _symmetry_equiv_pos_site_id
 _symmetry_equiv_pos_as_xyz
  1  'x, y, z'
loop_
 _atom_site_type_symbol
 _atom_site_label
 _atom_site_symmetry_multiplicity
 _atom_site_fract_x
 _atom_site_fract_y
 _atom_site_fract_z
 _atom_site_occupancy
  Th  Th0  1  0.743978  0.000000  0.251861  1
  Th  Th1  1  0.000000  0.743978  0.251861  1
  Th  Th2  1  0.256022  0.256022  0.251861  1
  Th  Th3  1  0.256022  0.000000  0.748139  1
  Th  Th4  1  0.000000  0.256022  0.748139  1
  Th  Th5  1  0.743978  0.743978  0.748139  1
  Th  Th6  1  0.333333  0.666667  0.500000  1
  Th  Th7  1  0.666667  0.333333  0.500000  1
  Th  Th8  1  0.666667  0.333333  0.000000  1
  Th  Th9  1  0.333333  0.666667  0.000000  1
  Bi  Bi10  1  0.389609  0.000000  0.250648  1
  Bi  Bi11  1  0.000000  0.389609  0.250648  1
  Bi  Bi12  1  0.610391  0.610391  0.250648  1
  Bi  Bi13  1  0.610391  0.000000  0.749352  1
  Bi  Bi14  1  0.000000  0.610391  0.749352  1
  Bi  Bi15  1  0.389609  0.389609  0.749352  1
  As  As16  1  0.000000  0.000000  0.000000  1
  Pt  Pt17  1  0.000000  0.000000  0.500000  1
