# generated using pymatgen
data_DyYAl9CoPt2
_symmetry_space_group_name_H-M   'P 1'
_cell_length_a   7.53041501
_cell_length_b   7.53040318
_cell_length_c   9.38484900
_cell_angle_alpha   90.00000000
_cell_angle_beta   90.00000000
_cell_angle_gamma   119.39536551
_symmetry_Int_Tables_number   1
_chemical_formula_structural   DyYAl9CoPt2
_chemical_formula_sum   'Dy2 Y2 Al18 Co2 Pt4'
_cell_volume   463.66997407
_cell_formula_units_Z   2
loop_
 _symmetry_equiv_pos_site_id
 _symmetry_equiv_pos_as_xyz
  1  'x, y, z'
loop_
 _atom_site_type_symbol
 _atom_site_label
 _atom_site_symmetry_multiplicity
 _atom_site_fract_x
 _atom_site_fract_y
 _atom_site_fract_z
 _atom_site_occupancy
  Dy  Dy0  1  0.993958  0.673086  0.250229  1
  Dy  Dy1  1  0.006042  0.326914  0.750229  1
  Y  Y2  1  0.673099  0.993948  0.249776  1
  Y  Y3  1  0.326901  0.006052  0.749776  1
  Al  Al4  1  0.136818  0.136719  0.249998  1
  Al  Al5  1  0.863182  0.863281  0.749998  1
  Al  Al6  1  0.340539  0.333532  0.552147  1
  Al  Al7  1  0.659461  0.666468  0.052147  1
  Al  Al8  1  0.333445  0.340610  0.947856  1
  Al  Al9  1  0.666555  0.659390  0.447856  1
  Al  Al10  1  0.340244  0.553709  0.242669  1
  Al  Al11  1  0.659756  0.446291  0.742669  1
  Al  Al12  1  0.553874  0.340533  0.257321  1
  Al  Al13  1  0.446126  0.659467  0.757321  1
  Al  Al14  1  0.008122  0.344557  0.074586  1
  Al  Al15  1  0.991878  0.655443  0.574586  1
  Al  Al16  1  0.344412  0.008029  0.425302  1
  Al  Al17  1  0.655588  0.991971  0.925302  1
  Al  Al18  1  0.010923  0.664441  0.925107  1
  Al  Al19  1  0.989077  0.335559  0.425107  1
  Al  Al20  1  0.664593  0.011024  0.575013  1
  Al  Al21  1  0.335407  0.988976  0.075013  1
  Co  Co22  1  0.329660  0.670242  0.000006  1
  Co  Co23  1  0.670340  0.329758  0.500006  1
  Pt  Pt24  1  0.000238  0.999760  0.000003  1
  Pt  Pt25  1  0.999762  0.000240  0.500003  1
  Pt  Pt26  1  0.671975  0.328132  0.999987  1
  Pt  Pt27  1  0.328025  0.671868  0.499987  1
