# generated using pymatgen
data_Nd4MoSeO12
_symmetry_space_group_name_H-M   'P 1'
_cell_length_a   10.31938901
_cell_length_b   10.31938979
_cell_length_c   5.58829155
_cell_angle_alpha   73.85268360
_cell_angle_beta   73.85270013
_cell_angle_gamma   68.70546576
_symmetry_Int_Tables_number   1
_chemical_formula_structural   Nd4MoSeO12
_chemical_formula_sum   'Nd8 Mo2 Se2 O24'
_cell_volume   522.05967442
_cell_formula_units_Z   2
loop_
 _symmetry_equiv_pos_site_id
 _symmetry_equiv_pos_as_xyz
  1  'x, y, z'
loop_
 _atom_site_type_symbol
 _atom_site_label
 _atom_site_symmetry_multiplicity
 _atom_site_fract_x
 _atom_site_fract_y
 _atom_site_fract_z
 _atom_site_occupancy
  Nd  Nd0  1  0.110533  0.889467  0.750000  1
  Nd  Nd1  1  0.890233  0.109767  0.250000  1
  Nd  Nd2  1  0.051971  0.282106  0.628360  1
  Nd  Nd3  1  0.717894  0.948029  0.871640  1
  Nd  Nd4  1  0.946599  0.712912  0.386137  1
  Nd  Nd5  1  0.287088  0.053401  0.113863  1
  Nd  Nd6  1  0.639053  0.360947  0.750000  1
  Nd  Nd7  1  0.366992  0.633008  0.250000  1
  Mo  Mo8  1  0.512263  0.796328  0.548749  1
  Mo  Mo9  1  0.203672  0.487737  0.951251  1
  Se  Se10  1  0.467965  0.212408  0.426523  1
  Se  Se11  1  0.787592  0.532035  0.073477  1
  O  O12  1  0.601504  0.176272  0.175267  1
  O  O13  1  0.823728  0.398496  0.324733  1
  O  O14  1  0.389535  0.828866  0.852192  1
  O  O15  1  0.171134  0.610465  0.647808  1
  O  O16  1  0.476958  0.086830  0.695057  1
  O  O17  1  0.913170  0.523042  0.804943  1
  O  O18  1  0.523454  0.927038  0.246436  1
  O  O19  1  0.072962  0.476546  0.253564  1
  O  O20  1  0.317881  0.220160  0.350940  1
  O  O21  1  0.779840  0.682119  0.149060  1
  O  O22  1  0.675211  0.792898  0.623540  1
  O  O23  1  0.207102  0.324789  0.876460  1
  O  O24  1  0.889574  0.919972  0.086018  1
  O  O25  1  0.080028  0.110426  0.413982  1
  O  O26  1  0.116474  0.069259  0.918662  1
  O  O27  1  0.930741  0.883526  0.581338  1
  O  O28  1  0.166447  0.688768  0.088126  1
  O  O29  1  0.311232  0.833553  0.411874  1
  O  O30  1  0.841948  0.282390  0.886693  1
  O  O31  1  0.717610  0.158052  0.613307  1
  O  O32  1  0.384731  0.457485  0.977383  1
  O  O33  1  0.542515  0.615269  0.522617  1
  O  O34  1  0.629660  0.545295  0.020097  1
  O  O35  1  0.454705  0.370340  0.479903  1
