# generated using pymatgen
data_K6SiMoSe8
_symmetry_space_group_name_H-M   'P 1'
_cell_length_a   9.66429700
_cell_length_b   9.74970000
_cell_length_c   11.45604800
_cell_angle_alpha   90.00000000
_cell_angle_beta   90.00000000
_cell_angle_gamma   90.00000000
_symmetry_Int_Tables_number   1
_chemical_formula_structural   K6SiMoSe8
_chemical_formula_sum   'K12 Si2 Mo2 Se16'
_cell_volume   1079.43462621
_cell_formula_units_Z   2
loop_
 _symmetry_equiv_pos_site_id
 _symmetry_equiv_pos_as_xyz
  1  'x, y, z'
loop_
 _atom_site_type_symbol
 _atom_site_label
 _atom_site_symmetry_multiplicity
 _atom_site_fract_x
 _atom_site_fract_y
 _atom_site_fract_z
 _atom_site_occupancy
  K  K0  1  0.029094  0.801221  0.447601  1
  K  K1  1  0.470906  0.301221  0.552399  1
  K  K2  1  0.569234  0.709150  0.042364  1
  K  K3  1  0.930766  0.209150  0.957636  1
  K  K4  1  0.930766  0.209150  0.542364  1
  K  K5  1  0.569234  0.709150  0.457636  1
  K  K6  1  0.470906  0.301221  0.947601  1
  K  K7  1  0.029094  0.801221  0.052399  1
  K  K8  1  0.128562  0.585530  0.750000  1
  K  K9  1  0.371438  0.085530  0.250000  1
  K  K10  1  0.642693  0.908716  0.750000  1
  K  K11  1  0.857307  0.408716  0.250000  1
  Si  Si12  1  0.774934  0.982459  0.250000  1
  Si  Si13  1  0.725066  0.482459  0.750000  1
  Mo  Mo14  1  0.282567  0.515089  0.250000  1
  Mo  Mo15  1  0.217433  0.015089  0.750000  1
  Se  Se16  1  0.796371  0.746141  0.250000  1
  Se  Se17  1  0.703629  0.246141  0.750000  1
  Se  Se18  1  0.302113  0.754870  0.250000  1
  Se  Se19  1  0.197887  0.254870  0.750000  1
  Se  Se20  1  0.994905  0.919767  0.750000  1
  Se  Se21  1  0.505095  0.419767  0.250000  1
  Se  Se22  1  0.506144  0.580813  0.750000  1
  Se  Se23  1  0.993856  0.080813  0.250000  1
  Se  Se24  1  0.334632  0.946154  0.581679  1
  Se  Se25  1  0.165368  0.446154  0.418321  1
  Se  Se26  1  0.839579  0.546784  0.917827  1
  Se  Se27  1  0.660421  0.046784  0.082173  1
  Se  Se28  1  0.660421  0.046784  0.417827  1
  Se  Se29  1  0.839579  0.546784  0.582173  1
  Se  Se30  1  0.165368  0.446154  0.081679  1
  Se  Se31  1  0.334632  0.946154  0.918321  1
