# generated using pymatgen
data_Ac8TlAu6
_symmetry_space_group_name_H-M   'P 1'
_cell_length_a   8.36143462
_cell_length_b   8.36143593
_cell_length_c   8.36143663
_cell_angle_alpha   70.82173045
_cell_angle_beta   70.82174017
_cell_angle_gamma   70.82172413
_symmetry_Int_Tables_number   1
_chemical_formula_structural   Ac8TlAu6
_chemical_formula_sum   'Ac8 Tl1 Au6'
_cell_volume   505.29685447
_cell_formula_units_Z   1
loop_
 _symmetry_equiv_pos_site_id
 _symmetry_equiv_pos_as_xyz
  1  'x, y, z'
loop_
 _atom_site_type_symbol
 _atom_site_label
 _atom_site_symmetry_multiplicity
 _atom_site_fract_x
 _atom_site_fract_y
 _atom_site_fract_z
 _atom_site_occupancy
  Ac  Ac0  1  0.186425  0.186425  0.186425  1
  Ac  Ac1  1  0.813575  0.813575  0.813575  1
  Ac  Ac2  1  0.379364  0.681068  0.150740  1
  Ac  Ac3  1  0.681068  0.150740  0.379364  1
  Ac  Ac4  1  0.150740  0.379364  0.681068  1
  Ac  Ac5  1  0.620636  0.318932  0.849260  1
  Ac  Ac6  1  0.318932  0.849260  0.620636  1
  Ac  Ac7  1  0.849260  0.620636  0.318932  1
  Tl  Tl8  1  0.000000  0.000000  0.000000  1
  Au  Au9  1  0.044078  0.824527  0.428334  1
  Au  Au10  1  0.824527  0.428334  0.044078  1
  Au  Au11  1  0.428334  0.044078  0.824527  1
  Au  Au12  1  0.955922  0.175473  0.571666  1
  Au  Au13  1  0.175473  0.571666  0.955922  1
  Au  Au14  1  0.571666  0.955922  0.175473  1
