# generated using pymatgen
data_MnBi3Ru2(PtO7)2
_symmetry_space_group_name_H-M   'P 1'
_cell_length_a   7.25657423
_cell_length_b   7.25608799
_cell_length_c   7.25657593
_cell_angle_alpha   61.11830050
_cell_angle_beta   61.11546133
_cell_angle_gamma   61.11829861
_symmetry_Int_Tables_number   1
_chemical_formula_structural   MnBi3Ru2(PtO7)2
_chemical_formula_sum   'Mn1 Bi3 Ru2 Pt2 O14'
_cell_volume   276.97308859
_cell_formula_units_Z   1
loop_
 _symmetry_equiv_pos_site_id
 _symmetry_equiv_pos_as_xyz
  1  'x, y, z'
loop_
 _atom_site_type_symbol
 _atom_site_label
 _atom_site_symmetry_multiplicity
 _atom_site_fract_x
 _atom_site_fract_y
 _atom_site_fract_z
 _atom_site_occupancy
  Mn  Mn0  1  0.125000  0.125000  0.125000  1
  Bi  Bi1  1  0.125000  0.125000  0.625000  1
  Bi  Bi2  1  0.125000  0.625000  0.125000  1
  Bi  Bi3  1  0.625000  0.125000  0.125000  1
  Ru  Ru4  1  0.625000  0.625000  0.125000  1
  Ru  Ru5  1  0.125000  0.625000  0.625000  1
  Pt  Pt6  1  0.625000  0.125000  0.625000  1
  Pt  Pt7  1  0.625000  0.625000  0.625000  1
  O  O8  1  0.238276  0.244162  0.238276  1
  O  O9  1  0.011724  0.005838  0.011724  1
  O  O10  1  0.537988  0.960410  0.537988  1
  O  O11  1  0.309070  0.673358  0.309070  1
  O  O12  1  0.540486  0.542138  0.958697  1
  O  O13  1  0.958697  0.542138  0.540486  1
  O  O14  1  0.533516  0.954330  0.962792  1
  O  O15  1  0.962792  0.954330  0.533516  1
  O  O16  1  0.940930  0.576642  0.940930  1
  O  O17  1  0.716484  0.295670  0.287208  1
  O  O18  1  0.291303  0.707862  0.709514  1
  O  O19  1  0.712012  0.289590  0.712012  1
  O  O20  1  0.287208  0.295670  0.716484  1
  O  O21  1  0.709514  0.707862  0.291303  1
