# generated using pymatgen
data_Ga10NiIr
_symmetry_space_group_name_H-M   'P 1'
_cell_length_a   6.69985450
_cell_length_b   6.69985424
_cell_length_c   6.69985419
_cell_angle_alpha   122.57385875
_cell_angle_beta   122.57385220
_cell_angle_gamma   85.59691779
_symmetry_Int_Tables_number   1
_chemical_formula_structural   Ga10NiIr
_chemical_formula_sum   'Ga10 Ni1 Ir1'
_cell_volume   203.72848909
_cell_formula_units_Z   1
loop_
 _symmetry_equiv_pos_site_id
 _symmetry_equiv_pos_as_xyz
  1  'x, y, z'
loop_
 _atom_site_type_symbol
 _atom_site_label
 _atom_site_symmetry_multiplicity
 _atom_site_fract_x
 _atom_site_fract_y
 _atom_site_fract_z
 _atom_site_occupancy
  Ga  Ga0  1  0.006954  0.006954  0.000000  1
  Ga  Ga1  1  0.493046  0.493046  0.000000  1
  Ga  Ga2  1  0.007376  0.505559  0.797002  1
  Ga  Ga3  1  0.708557  0.210374  0.202998  1
  Ga  Ga4  1  0.505559  0.708557  0.498184  1
  Ga  Ga5  1  0.210374  0.007376  0.501816  1
  Ga  Ga6  1  0.994441  0.492624  0.202998  1
  Ga  Ga7  1  0.289626  0.791443  0.797002  1
  Ga  Ga8  1  0.492624  0.289626  0.498184  1
  Ga  Ga9  1  0.791443  0.994441  0.501816  1
  Ni  Ni10  1  0.250000  0.250000  0.000000  1
  Ir  Ir11  1  0.750000  0.750000  0.000000  1
