# generated using pymatgen
data_Ba10PWN10
_symmetry_space_group_name_H-M   'P 1'
_cell_length_a   8.07872967
_cell_length_b   8.07872937
_cell_length_c   9.45354265
_cell_angle_alpha   76.04083844
_cell_angle_beta   76.04083793
_cell_angle_gamma   95.99275786
_symmetry_Int_Tables_number   1
_chemical_formula_structural   Ba10PWN10
_chemical_formula_sum   'Ba10 P1 W1 N10'
_cell_volume   572.36439575
_cell_formula_units_Z   1
loop_
 _symmetry_equiv_pos_site_id
 _symmetry_equiv_pos_as_xyz
  1  'x, y, z'
loop_
 _atom_site_type_symbol
 _atom_site_label
 _atom_site_symmetry_multiplicity
 _atom_site_fract_x
 _atom_site_fract_y
 _atom_site_fract_z
 _atom_site_occupancy
  Ba  Ba0  1  0.389504  0.403706  0.374329  1
  Ba  Ba1  1  0.596294  0.610496  0.625671  1
  Ba  Ba2  1  0.669469  0.669951  0.004215  1
  Ba  Ba3  1  0.330049  0.330531  0.995785  1
  Ba  Ba4  1  0.929638  0.913055  0.202484  1
  Ba  Ba5  1  0.086945  0.070362  0.797516  1
  Ba  Ba6  1  0.552438  0.084361  0.757078  1
  Ba  Ba7  1  0.915639  0.447562  0.242922  1
  Ba  Ba8  1  0.430194  0.899658  0.240910  1
  Ba  Ba9  1  0.100342  0.569806  0.759090  1
  P  P10  1  0.241965  0.758035  0.000000  1
  W  W11  1  0.757690  0.242310  0.000000  1
  N  N12  1  0.652968  0.651641  0.312288  1
  N  N13  1  0.348359  0.347032  0.687712  1
  N  N14  1  0.717334  0.012990  0.986379  1
  N  N15  1  0.987010  0.282666  0.013621  1
  N  N16  1  0.278707  0.967275  0.004860  1
  N  N17  1  0.032725  0.721293  0.995140  1
  N  N18  1  0.378388  0.729604  0.844736  1
  N  N19  1  0.270396  0.621612  0.155263  1
  N  N20  1  0.599421  0.265478  0.174283  1
  N  N21  1  0.734522  0.400579  0.825716  1
