# generated using pymatgen
data_Er3Lu17(HgBi5)2
_symmetry_space_group_name_H-M   'P 1'
_cell_length_a   8.10124900
_cell_length_b   9.36621300
_cell_length_c   11.81781300
_cell_angle_alpha   90.00000000
_cell_angle_beta   90.00031119
_cell_angle_gamma   90.00000000
_symmetry_Int_Tables_number   1
_chemical_formula_structural   Er3Lu17(HgBi5)2
_chemical_formula_sum   'Er3 Lu17 Hg2 Bi10'
_cell_volume   896.71229490
_cell_formula_units_Z   1
loop_
 _symmetry_equiv_pos_site_id
 _symmetry_equiv_pos_as_xyz
  1  'x, y, z'
loop_
 _atom_site_type_symbol
 _atom_site_label
 _atom_site_symmetry_multiplicity
 _atom_site_fract_x
 _atom_site_fract_y
 _atom_site_fract_z
 _atom_site_occupancy
  Er  Er0  1  0.809339  0.750000  0.216147  1
  Er  Er1  1  0.309223  0.750000  0.283564  1
  Er  Er2  1  0.684677  0.250000  0.715038  1
  Lu  Lu3  1  0.033555  0.250000  0.507987  1
  Lu  Lu4  1  0.980231  0.750000  0.490873  1
  Lu  Lu5  1  0.479728  0.750000  0.008889  1
  Lu  Lu6  1  0.533241  0.250000  0.991961  1
  Lu  Lu7  1  0.351920  0.250000  0.290818  1
  Lu  Lu8  1  0.653659  0.750000  0.718385  1
  Lu  Lu9  1  0.153530  0.750000  0.781933  1
  Lu  Lu10  1  0.851567  0.250000  0.208921  1
  Lu  Lu11  1  0.184384  0.250000  0.785676  1
  Lu  Lu12  1  0.187095  0.071186  0.057243  1
  Lu  Lu13  1  0.807253  0.945044  0.941247  1
  Lu  Lu14  1  0.307471  0.945377  0.559071  1
  Lu  Lu15  1  0.807253  0.554956  0.941247  1
  Lu  Lu16  1  0.687237  0.071113  0.442318  1
  Lu  Lu17  1  0.187095  0.428814  0.057243  1
  Lu  Lu18  1  0.687237  0.428887  0.442318  1
  Lu  Lu19  1  0.307471  0.554623  0.559071  1
  Hg  Hg20  1  0.404652  0.250000  0.542175  1
  Hg  Hg21  1  0.906502  0.250000  0.957513  1
  Bi  Bi22  1  0.596911  0.750000  0.458574  1
  Bi  Bi23  1  0.096900  0.750000  0.041699  1
  Bi  Bi24  1  0.058254  0.002610  0.323174  1
  Bi  Bi25  1  0.940289  0.997933  0.676803  1
  Bi  Bi26  1  0.439190  0.998037  0.823400  1
  Bi  Bi27  1  0.940289  0.502067  0.676803  1
  Bi  Bi28  1  0.558203  0.002530  0.176668  1
  Bi  Bi29  1  0.058254  0.497390  0.323174  1
  Bi  Bi30  1  0.558203  0.497470  0.176668  1
  Bi  Bi31  1  0.439190  0.501963  0.823400  1
