# generated using pymatgen
data_Sc8Al14Ru7S
_symmetry_space_group_name_H-M   'P 1'
_cell_length_a   8.86995432
_cell_length_b   8.86995409
_cell_length_c   8.86995400
_cell_angle_alpha   120.09889340
_cell_angle_beta   119.95348153
_cell_angle_gamma   89.95469377
_symmetry_Int_Tables_number   1
_chemical_formula_structural   Sc8Al14Ru7S
_chemical_formula_sum   'Sc8 Al14 Ru7 S1'
_cell_volume   493.26030387
_cell_formula_units_Z   1
loop_
 _symmetry_equiv_pos_site_id
 _symmetry_equiv_pos_as_xyz
  1  'x, y, z'
loop_
 _atom_site_type_symbol
 _atom_site_label
 _atom_site_symmetry_multiplicity
 _atom_site_fract_x
 _atom_site_fract_y
 _atom_site_fract_z
 _atom_site_occupancy
  Sc  Sc0  1  0.799054  0.290976  0.084590  1
  Sc  Sc1  1  0.206387  0.290976  0.491922  1
  Sc  Sc2  1  0.202222  0.702222  0.500000  1
  Sc  Sc3  1  0.206387  0.714465  0.915410  1
  Sc  Sc4  1  0.799054  0.714465  0.508078  1
  Sc  Sc5  1  0.787944  0.287944  0.500000  1
  Sc  Sc6  1  0.379306  0.114380  0.735074  1
  Sc  Sc7  1  0.379306  0.644231  0.264926  1
  Al  Al8  1  0.164908  0.331640  0.166730  1
  Al  Al9  1  0.164908  0.998177  0.833270  1
  Al  Al10  1  0.162788  0.335287  0.827500  1
  Al  Al11  1  0.507785  0.335287  0.172500  1
  Al  Al12  1  0.835686  0.665526  0.829842  1
  Al  Al13  1  0.835686  0.005844  0.170158  1
  Al  Al14  1  0.836329  0.665255  0.171074  1
  Al  Al15  1  0.494182  0.665255  0.828926  1
  Al  Al16  1  0.376172  0.120097  0.256075  1
  Al  Al17  1  0.864023  0.120097  0.743925  1
  Al  Al18  1  0.620357  0.875052  0.254695  1
  Al  Al19  1  0.620357  0.365664  0.745305  1
  Al  Al20  1  0.623823  0.880349  0.743474  1
  Al  Al21  1  0.136874  0.880349  0.256526  1
  Ru  Ru22  1  0.992620  0.998275  0.496741  1
  Ru  Ru23  1  0.501534  0.998275  0.005656  1
  Ru  Ru24  1  0.503142  0.503142  0.000000  1
  Ru  Ru25  1  0.501534  0.495878  0.503259  1
  Ru  Ru26  1  0.992620  0.495878  0.994344  1
  Ru  Ru27  1  0.999761  0.999761  0.000000  1
  Ru  Ru28  1  0.508981  0.008981  0.500000  1
  S  S29  1  0.996270  0.496270  0.500000  1
