# generated using pymatgen
data_Sc4CrFe4Os3
_symmetry_space_group_name_H-M   'P 1'
_cell_length_a   5.06185574
_cell_length_b   4.97050713
_cell_length_c   8.41150500
_cell_angle_alpha   90.00000000
_cell_angle_beta   90.00000000
_cell_angle_gamma   120.46553530
_symmetry_Int_Tables_number   1
_chemical_formula_structural   Sc4CrFe4Os3
_chemical_formula_sum   'Sc4 Cr1 Fe4 Os3'
_cell_volume   182.41407106
_cell_formula_units_Z   1
loop_
 _symmetry_equiv_pos_site_id
 _symmetry_equiv_pos_as_xyz
  1  'x, y, z'
loop_
 _atom_site_type_symbol
 _atom_site_label
 _atom_site_symmetry_multiplicity
 _atom_site_fract_x
 _atom_site_fract_y
 _atom_site_fract_z
 _atom_site_occupancy
  Sc  Sc0  1  0.666256  0.334612  0.688089  1
  Sc  Sc1  1  0.332418  0.666882  0.814187  1
  Sc  Sc2  1  0.332418  0.666882  0.185813  1
  Sc  Sc3  1  0.666256  0.334612  0.311911  1
  Cr  Cr4  1  0.170445  0.334199  0.500000  1
  Fe  Fe5  1  0.167499  0.825489  0.500000  1
  Fe  Fe6  1  0.348157  0.173574  0.000000  1
  Fe  Fe7  1  0.829315  0.656460  0.000000  1
  Fe  Fe8  1  0.828977  0.171269  0.000000  1
  Os  Os9  1  0.004992  0.007935  0.245384  1
  Os  Os10  1  0.004992  0.007935  0.754616  1
  Os  Os11  1  0.648833  0.819592  0.500000  1
