# generated using pymatgen
data_NdNbP7Ru12
_symmetry_space_group_name_H-M   'P 1'
_cell_length_a   9.41621100
_cell_length_b   9.41621081
_cell_length_c   3.91232600
_cell_angle_alpha   90.00000000
_cell_angle_beta   90.00000000
_cell_angle_gamma   120.00000325
_symmetry_Int_Tables_number   1
_chemical_formula_structural   NdNbP7Ru12
_chemical_formula_sum   'Nd1 Nb1 P7 Ru12'
_cell_volume   300.41250577
_cell_formula_units_Z   1
loop_
 _symmetry_equiv_pos_site_id
 _symmetry_equiv_pos_as_xyz
  1  'x, y, z'
loop_
 _atom_site_type_symbol
 _atom_site_label
 _atom_site_symmetry_multiplicity
 _atom_site_fract_x
 _atom_site_fract_y
 _atom_site_fract_z
 _atom_site_occupancy
  Nd  Nd0  1  0.333333  0.666667  0.000000  1
  Nb  Nb1  1  0.666667  0.333333  0.500000  1
  P  P2  1  0.602103  0.718755  0.500000  1
  P  P3  1  0.000000  0.000000  0.000000  1
  P  P4  1  0.281245  0.883348  0.500000  1
  P  P5  1  0.116652  0.397897  0.500000  1
  P  P6  1  0.886634  0.573164  0.000000  1
  P  P7  1  0.426836  0.313471  0.000000  1
  P  P8  1  0.686529  0.113366  0.000000  1
  Ru  Ru9  1  0.561667  0.961342  0.500000  1
  Ru  Ru10  1  0.399675  0.438333  0.500000  1
  Ru  Ru11  1  0.912960  0.122341  0.500000  1
  Ru  Ru12  1  0.209381  0.087040  0.500000  1
  Ru  Ru13  1  0.877659  0.790619  0.500000  1
  Ru  Ru14  1  0.726692  0.888415  0.000000  1
  Ru  Ru15  1  0.111585  0.838275  0.000000  1
  Ru  Ru16  1  0.161725  0.273308  0.000000  1
  Ru  Ru17  1  0.430454  0.079223  0.000000  1
  Ru  Ru18  1  0.920777  0.351232  0.000000  1
  Ru  Ru19  1  0.648768  0.569546  0.000000  1
  Ru  Ru20  1  0.038658  0.600325  0.500000  1
