# generated using pymatgen
data_Sr4Al6RuO16
_symmetry_space_group_name_H-M   'P 1'
_cell_length_a   8.28700751
_cell_length_b   8.28700691
_cell_length_c   8.28700695
_cell_angle_alpha   109.95394112
_cell_angle_beta   109.95393653
_cell_angle_gamma   108.51003711
_symmetry_Int_Tables_number   1
_chemical_formula_structural   Sr4Al6RuO16
_chemical_formula_sum   'Sr4 Al6 Ru1 O16'
_cell_volume   438.00570197
_cell_formula_units_Z   1
loop_
 _symmetry_equiv_pos_site_id
 _symmetry_equiv_pos_as_xyz
  1  'x, y, z'
loop_
 _atom_site_type_symbol
 _atom_site_label
 _atom_site_symmetry_multiplicity
 _atom_site_fract_x
 _atom_site_fract_y
 _atom_site_fract_z
 _atom_site_occupancy
  Sr  Sr0  1  0.507443  0.007443  0.014886  1
  Sr  Sr1  1  0.992557  0.007443  0.500000  1
  Sr  Sr2  1  0.992557  0.492557  0.985114  1
  Sr  Sr3  1  0.507443  0.492557  0.500000  1
  Al  Al4  1  0.496687  0.245049  0.748362  1
  Al  Al5  1  0.750000  0.250000  0.500000  1
  Al  Al6  1  0.251675  0.503313  0.748362  1
  Al  Al7  1  0.250000  0.750000  0.500000  1
  Al  Al8  1  0.496687  0.748325  0.251638  1
  Al  Al9  1  0.754951  0.503313  0.251638  1
  Ru  Ru10  1  0.000000  0.000000  0.000000  1
  O  O11  1  0.652550  0.997897  0.345347  1
  O  O12  1  0.327279  0.664095  0.663184  1
  O  O13  1  0.661163  0.338837  0.000000  1
  O  O14  1  0.335905  0.999090  0.663184  1
  O  O15  1  0.002103  0.347450  0.654653  1
  O  O16  1  0.661163  0.661163  0.322326  1
  O  O17  1  0.652550  0.307202  0.654653  1
  O  O18  1  0.000910  0.664095  0.336816  1
  O  O19  1  0.338837  0.661163  0.000000  1
  O  O20  1  0.335905  0.672721  0.336816  1
  O  O21  1  0.692798  0.347450  0.345347  1
  O  O22  1  0.338837  0.338837  0.677674  1
  O  O23  1  0.890034  0.736833  0.846800  1
  O  O24  1  0.956767  0.109966  0.846800  1
  O  O25  1  0.263167  0.109966  0.153200  1
  O  O26  1  0.890034  0.043233  0.153200  1
