# generated using pymatgen
data_CsAl2I7
_symmetry_space_group_name_H-M   'P 1'
_cell_length_a   12.53173100
_cell_length_b   12.35194832
_cell_length_c   16.77321569
_cell_angle_alpha   55.68995080
_cell_angle_beta   90.00000000
_cell_angle_gamma   90.00000000
_symmetry_Int_Tables_number   1
_chemical_formula_structural   CsAl2I7
_chemical_formula_sum   'Cs4 Al8 I28'
_cell_volume   2144.58180292
_cell_formula_units_Z   4
loop_
 _symmetry_equiv_pos_site_id
 _symmetry_equiv_pos_as_xyz
  1  'x, y, z'
loop_
 _atom_site_type_symbol
 _atom_site_label
 _atom_site_symmetry_multiplicity
 _atom_site_fract_x
 _atom_site_fract_y
 _atom_site_fract_z
 _atom_site_occupancy
  Cs  Cs0  1  0.381805  0.888430  0.380668  1
  Cs  Cs1  1  0.881805  0.111570  0.119332  1
  Cs  Cs2  1  0.618195  0.111570  0.619332  1
  Cs  Cs3  1  0.118195  0.888430  0.880668  1
  Al  Al4  1  0.286178  0.595676  0.801155  1
  Al  Al5  1  0.786178  0.404324  0.698845  1
  Al  Al6  1  0.713822  0.404324  0.198845  1
  Al  Al7  1  0.213822  0.595676  0.301155  1
  Al  Al8  1  0.216827  0.175635  0.544002  1
  Al  Al9  1  0.716827  0.824365  0.955998  1
  Al  Al10  1  0.783173  0.824365  0.455998  1
  Al  Al11  1  0.283173  0.175635  0.044002  1
  I  I12  1  0.406859  0.379193  0.917268  1
  I  I13  1  0.906859  0.620807  0.582732  1
  I  I14  1  0.593141  0.620807  0.082732  1
  I  I15  1  0.093141  0.379193  0.417268  1
  I  I16  1  0.132967  0.156634  0.949972  1
  I  I17  1  0.632967  0.843366  0.550028  1
  I  I18  1  0.867033  0.843366  0.050028  1
  I  I19  1  0.367033  0.156634  0.449972  1
  I  I20  1  0.211754  0.210632  0.169576  1
  I  I21  1  0.711754  0.789368  0.330424  1
  I  I22  1  0.788246  0.789368  0.830424  1
  I  I23  1  0.288246  0.210632  0.669576  1
  I  I24  1  0.416687  0.989364  0.114350  1
  I  I25  1  0.916687  0.010636  0.385650  1
  I  I26  1  0.583313  0.010636  0.885650  1
  I  I27  1  0.083313  0.989364  0.614350  1
  I  I28  1  0.225989  0.612502  0.143743  1
  I  I29  1  0.725989  0.387498  0.356257  1
  I  I30  1  0.774011  0.387498  0.856257  1
  I  I31  1  0.274011  0.612502  0.643743  1
  I  I32  1  0.105004  0.774843  0.294567  1
  I  I33  1  0.605004  0.225157  0.205433  1
  I  I34  1  0.894996  0.225157  0.705433  1
  I  I35  1  0.394996  0.774843  0.794567  1
  I  I36  1  0.394419  0.564656  0.379192  1
  I  I37  1  0.894419  0.435344  0.120808  1
  I  I38  1  0.605581  0.435344  0.620808  1
  I  I39  1  0.105581  0.564656  0.879192  1
