# generated using pymatgen
data_CePrCr2N5
_symmetry_space_group_name_H-M   'P 1'
_cell_length_a   7.21049300
_cell_length_b   3.82905700
_cell_length_c   3.82903100
_cell_angle_alpha   90.00000000
_cell_angle_beta   90.00000000
_cell_angle_gamma   90.00000000
_symmetry_Int_Tables_number   1
_chemical_formula_structural   CePrCr2N5
_chemical_formula_sum   'Ce1 Pr1 Cr2 N5'
_cell_volume   105.71720520
_cell_formula_units_Z   1
loop_
 _symmetry_equiv_pos_site_id
 _symmetry_equiv_pos_as_xyz
  1  'x, y, z'
loop_
 _atom_site_type_symbol
 _atom_site_label
 _atom_site_symmetry_multiplicity
 _atom_site_fract_x
 _atom_site_fract_y
 _atom_site_fract_z
 _atom_site_occupancy
  Ce  Ce0  1  0.000000  0.000000  0.000000  1
  Pr  Pr1  1  0.500000  0.000000  0.000000  1
  Cr  Cr2  1  0.250805  0.500002  0.500002  1
  Cr  Cr3  1  0.749196  0.500002  0.500002  1
  N  N4  1  0.215890  0.500002  0.000000  1
  N  N5  1  0.784111  0.500002  0.000000  1
  N  N6  1  0.215887  0.000000  0.500002  1
  N  N7  1  0.784114  0.000000  0.500002  1
  N  N8  1  0.500000  0.500002  0.500002  1
