# generated using pymatgen
data_Cs3K(BiAu)2
_symmetry_space_group_name_H-M   'P 1'
_cell_length_a   6.91247300
_cell_length_b   7.17957990
_cell_length_c   7.29839900
_cell_angle_alpha   90.00000000
_cell_angle_beta   90.00000000
_cell_angle_gamma   108.96951185
_symmetry_Int_Tables_number   1
_chemical_formula_structural   Cs3K(BiAu)2
_chemical_formula_sum   'Cs3 K1 Bi2 Au2'
_cell_volume   342.53870620
_cell_formula_units_Z   1
loop_
 _symmetry_equiv_pos_site_id
 _symmetry_equiv_pos_as_xyz
  1  'x, y, z'
loop_
 _atom_site_type_symbol
 _atom_site_label
 _atom_site_symmetry_multiplicity
 _atom_site_fract_x
 _atom_site_fract_y
 _atom_site_fract_z
 _atom_site_occupancy
  Cs  Cs0  1  0.154812  0.482079  0.750000  1
  Cs  Cs1  1  0.494110  0.148559  0.750000  1
  Cs  Cs2  1  0.853586  0.520005  0.250000  1
  K  K3  1  0.525642  0.862540  0.250000  1
  Bi  Bi4  1  0.259030  0.243449  0.250000  1
  Bi  Bi5  1  0.739799  0.740700  0.750000  1
  Au  Au6  1  0.986511  0.001334  0.498257  1
  Au  Au7  1  0.986511  0.001334  0.001743  1
