# generated using pymatgen
data_Ba3SrTc2O9
_symmetry_space_group_name_H-M   'P 1'
_cell_length_a   6.07716583
_cell_length_b   6.07865864
_cell_length_c   15.15419703
_cell_angle_alpha   90.74143593
_cell_angle_beta   91.44257516
_cell_angle_gamma   119.57500038
_symmetry_Int_Tables_number   1
_chemical_formula_structural   Ba3SrTc2O9
_chemical_formula_sum   'Ba6 Sr2 Tc4 O18'
_cell_volume   486.51232105
_cell_formula_units_Z   2
loop_
 _symmetry_equiv_pos_site_id
 _symmetry_equiv_pos_as_xyz
  1  'x, y, z'
loop_
 _atom_site_type_symbol
 _atom_site_label
 _atom_site_symmetry_multiplicity
 _atom_site_fract_x
 _atom_site_fract_y
 _atom_site_fract_z
 _atom_site_occupancy
  Ba  Ba0  1  0.320355  0.652792  0.399994  1
  Ba  Ba1  1  0.679645  0.347208  0.600006  1
  Ba  Ba2  1  0.659941  0.330158  0.895426  1
  Ba  Ba3  1  0.973739  0.000090  0.251759  1
  Ba  Ba4  1  0.026261  0.999910  0.748241  1
  Ba  Ba5  1  0.340059  0.669842  0.104574  1
  Sr  Sr6  1  0.000000  0.000000  0.000000  1
  Sr  Sr7  1  0.000000  0.000000  0.500000  1
  Tc  Tc8  1  0.308386  0.643006  0.839536  1
  Tc  Tc9  1  0.639727  0.312138  0.338886  1
  Tc  Tc10  1  0.360273  0.687862  0.661114  1
  Tc  Tc11  1  0.691614  0.356994  0.160464  1
  O  O12  1  0.222949  0.417363  0.574437  1
  O  O13  1  0.876342  0.217737  0.102876  1
  O  O14  1  0.248477  0.887441  0.596445  1
  O  O15  1  0.777051  0.582637  0.425563  1
  O  O16  1  0.568830  0.757274  0.928775  1
  O  O17  1  0.473290  0.497854  0.752341  1
  O  O18  1  0.890766  0.685059  0.111034  1
  O  O19  1  0.431170  0.242726  0.071225  1
  O  O20  1  0.109234  0.314941  0.888966  1
  O  O21  1  0.690018  0.850772  0.612443  1
  O  O22  1  0.123658  0.782263  0.897124  1
  O  O23  1  0.039975  0.529649  0.733009  1
  O  O24  1  0.526710  0.502146  0.247659  1
  O  O25  1  0.960025  0.470351  0.266991  1
  O  O26  1  0.751523  0.112559  0.403555  1
  O  O27  1  0.309982  0.149228  0.387557  1
  O  O28  1  0.508652  0.040450  0.235068  1
  O  O29  1  0.491348  0.959550  0.764932  1
