# generated using pymatgen
data_ErLu3Th6(Si3C)2
_symmetry_space_group_name_H-M   'P 1'
_cell_length_a   8.70346800
_cell_length_b   8.70346853
_cell_length_c   6.31512400
_cell_angle_alpha   90.00000000
_cell_angle_beta   90.00000000
_cell_angle_gamma   119.99999799
_symmetry_Int_Tables_number   1
_chemical_formula_structural   ErLu3Th6(Si3C)2
_chemical_formula_sum   'Er1 Lu3 Th6 Si6 C2'
_cell_volume   414.28310560
_cell_formula_units_Z   1
loop_
 _symmetry_equiv_pos_site_id
 _symmetry_equiv_pos_as_xyz
  1  'x, y, z'
loop_
 _atom_site_type_symbol
 _atom_site_label
 _atom_site_symmetry_multiplicity
 _atom_site_fract_x
 _atom_site_fract_y
 _atom_site_fract_z
 _atom_site_occupancy
  Er  Er0  1  0.666667  0.333333  0.500000  1
  Lu  Lu1  1  0.666667  0.333333  0.000000  1
  Lu  Lu2  1  0.333333  0.666667  0.000000  1
  Lu  Lu3  1  0.333333  0.666667  0.500000  1
  Th  Th4  1  0.765380  0.765555  0.750221  1
  Th  Th5  1  0.234445  0.999825  0.750221  1
  Th  Th6  1  0.000175  0.234620  0.750221  1
  Th  Th7  1  0.234445  0.234620  0.249779  1
  Th  Th8  1  0.765380  0.999825  0.249779  1
  Th  Th9  1  0.000175  0.765555  0.249779  1
  Si  Si10  1  0.402776  0.403314  0.750405  1
  Si  Si11  1  0.596686  0.999462  0.750405  1
  Si  Si12  1  0.000538  0.597224  0.750405  1
  Si  Si13  1  0.596686  0.597224  0.249595  1
  Si  Si14  1  0.402776  0.999462  0.249595  1
  Si  Si15  1  0.000538  0.403314  0.249595  1
  C  C16  1  0.000000  0.000000  0.000000  1
  C  C17  1  0.000000  0.000000  0.500000  1
