# generated using pymatgen
data_RbFeCoP2
_symmetry_space_group_name_H-M   'P 1'
_cell_length_a   7.39404201
_cell_length_b   7.39404210
_cell_length_c   7.39404267
_cell_angle_alpha   150.80992026
_cell_angle_beta   150.80992859
_cell_angle_gamma   41.75380781
_symmetry_Int_Tables_number   1
_chemical_formula_structural   RbFeCoP2
_chemical_formula_sum   'Rb1 Fe1 Co1 P2'
_cell_volume   95.93250690
_cell_formula_units_Z   1
loop_
 _symmetry_equiv_pos_site_id
 _symmetry_equiv_pos_as_xyz
  1  'x, y, z'
loop_
 _atom_site_type_symbol
 _atom_site_label
 _atom_site_symmetry_multiplicity
 _atom_site_fract_x
 _atom_site_fract_y
 _atom_site_fract_z
 _atom_site_occupancy
  Rb  Rb0  1  0.000000  0.000000  0.000000  1
  Fe  Fe1  1  0.750000  0.250000  0.500000  1
  Co  Co2  1  0.250000  0.750000  0.500000  1
  P  P3  1  0.334507  0.334507  0.000000  1
  P  P4  1  0.665493  0.665493  0.000000  1
