# generated using pymatgen
data_NdY2TmCdNi
_symmetry_space_group_name_H-M   'P 1'
_cell_length_a   9.62984708
_cell_length_b   9.62984769
_cell_length_c   9.63965300
_cell_angle_alpha   59.96631526
_cell_angle_beta   59.96631315
_cell_angle_gamma   60.06737905
_symmetry_Int_Tables_number   1
_chemical_formula_structural   NdY2TmCdNi
_chemical_formula_sum   'Nd4 Y8 Tm4 Cd4 Ni4'
_cell_volume   632.09788185
_cell_formula_units_Z   4
loop_
 _symmetry_equiv_pos_site_id
 _symmetry_equiv_pos_as_xyz
  1  'x, y, z'
loop_
 _atom_site_type_symbol
 _atom_site_label
 _atom_site_symmetry_multiplicity
 _atom_site_fract_x
 _atom_site_fract_y
 _atom_site_fract_z
 _atom_site_occupancy
  Nd  Nd0  1  0.600863  0.600863  0.599752  1
  Nd  Nd1  1  0.600863  0.600863  0.198520  1
  Nd  Nd2  1  0.599752  0.198520  0.600863  1
  Nd  Nd3  1  0.198520  0.599752  0.600863  1
  Y  Y4  1  0.435377  0.435377  0.064623  1
  Y  Y5  1  0.064623  0.064623  0.435377  1
  Y  Y6  1  0.185727  0.814273  0.814273  1
  Y  Y7  1  0.814273  0.185727  0.185727  1
  Y  Y8  1  0.814273  0.185727  0.814273  1
  Y  Y9  1  0.185727  0.814273  0.185727  1
  Y  Y10  1  0.814147  0.814147  0.185853  1
  Y  Y11  1  0.185853  0.185853  0.814147  1
  Tm  Tm12  1  0.063906  0.436094  0.436094  1
  Tm  Tm13  1  0.436094  0.063906  0.063906  1
  Tm  Tm14  1  0.436094  0.063906  0.436094  1
  Tm  Tm15  1  0.063906  0.436094  0.063906  1
  Cd  Cd16  1  0.831870  0.831870  0.831959  1
  Cd  Cd17  1  0.831870  0.831870  0.504300  1
  Cd  Cd18  1  0.831959  0.504300  0.831870  1
  Cd  Cd19  1  0.504300  0.831959  0.831870  1
  Ni  Ni20  1  0.389636  0.389636  0.393262  1
  Ni  Ni21  1  0.389636  0.389636  0.827468  1
  Ni  Ni22  1  0.393262  0.827468  0.389636  1
  Ni  Ni23  1  0.827468  0.393262  0.389636  1
