# generated using pymatgen
data_Sc8Ti8Nb3ReSi16
_symmetry_space_group_name_H-M   'P 1'
_cell_length_a   6.86064718
_cell_length_b   6.86064683
_cell_length_c   12.58509290
_cell_angle_alpha   90.10132051
_cell_angle_beta   90.10132136
_cell_angle_gamma   90.06072224
_symmetry_Int_Tables_number   1
_chemical_formula_structural   Sc8Ti8Nb3ReSi16
_chemical_formula_sum   'Sc8 Ti8 Nb3 Re1 Si16'
_cell_volume   592.35897261
_cell_formula_units_Z   1
loop_
 _symmetry_equiv_pos_site_id
 _symmetry_equiv_pos_as_xyz
  1  'x, y, z'
loop_
 _atom_site_type_symbol
 _atom_site_label
 _atom_site_symmetry_multiplicity
 _atom_site_fract_x
 _atom_site_fract_y
 _atom_site_fract_z
 _atom_site_occupancy
  Sc  Sc0  1  0.999725  0.658657  0.031325  1
  Sc  Sc1  1  0.998991  0.341643  0.534280  1
  Sc  Sc2  1  0.341343  0.000275  0.468675  1
  Sc  Sc3  1  0.158513  0.499002  0.782019  1
  Sc  Sc4  1  0.841967  0.499739  0.282890  1
  Sc  Sc5  1  0.500261  0.158033  0.217110  1
  Sc  Sc6  1  0.500998  0.841487  0.717981  1
  Sc  Sc7  1  0.658357  0.001009  0.965720  1
  Ti  Ti8  1  0.991477  0.848567  0.627479  1
  Ti  Ti9  1  0.007309  0.148112  0.124018  1
  Ti  Ti10  1  0.851888  0.992691  0.375982  1
  Ti  Ti11  1  0.351214  0.506634  0.377064  1
  Ti  Ti12  1  0.649045  0.495460  0.876739  1
  Ti  Ti13  1  0.504540  0.350955  0.623261  1
  Ti  Ti14  1  0.493366  0.648786  0.122936  1
  Ti  Ti15  1  0.151433  0.008523  0.872521  1
  Nb  Nb16  1  0.672270  0.671663  0.501849  1
  Nb  Nb17  1  0.171529  0.828471  0.250000  1
  Nb  Nb18  1  0.328337  0.327730  0.998151  1
  Re  Re19  1  0.827589  0.172411  0.750000  1
  Si  Si20  1  0.046539  0.701257  0.436771  1
  Si  Si21  1  0.636011  0.292148  0.429469  1
  Si  Si22  1  0.363416  0.707539  0.928392  1
  Si  Si23  1  0.203446  0.135439  0.679082  1
  Si  Si24  1  0.292461  0.636584  0.571608  1
  Si  Si25  1  0.707852  0.363989  0.070531  1
  Si  Si26  1  0.792844  0.863897  0.179321  1
  Si  Si27  1  0.136103  0.207156  0.320679  1
  Si  Si28  1  0.950967  0.296530  0.932968  1
  Si  Si29  1  0.703470  0.049033  0.567032  1
  Si  Si30  1  0.201260  0.453232  0.185944  1
  Si  Si31  1  0.797131  0.541722  0.687818  1
  Si  Si32  1  0.458278  0.202869  0.812182  1
  Si  Si33  1  0.546768  0.798740  0.314056  1
  Si  Si34  1  0.298743  0.953461  0.063229  1
  Si  Si35  1  0.864561  0.796554  0.820918  1
