# generated using pymatgen
data_NdThU2(ReB6)2
_symmetry_space_group_name_H-M   'P 1'
_cell_length_a   3.71064400
_cell_length_b   9.39987525
_cell_length_c   11.53277030
_cell_angle_alpha   89.97375035
_cell_angle_beta   90.00000000
_cell_angle_gamma   90.00000000
_symmetry_Int_Tables_number   1
_chemical_formula_structural   NdThU2(ReB6)2
_chemical_formula_sum   'Nd2 Th2 U4 Re4 B24'
_cell_volume   402.25826540
_cell_formula_units_Z   2
loop_
 _symmetry_equiv_pos_site_id
 _symmetry_equiv_pos_as_xyz
  1  'x, y, z'
loop_
 _atom_site_type_symbol
 _atom_site_label
 _atom_site_symmetry_multiplicity
 _atom_site_fract_x
 _atom_site_fract_y
 _atom_site_fract_z
 _atom_site_occupancy
  Nd  Nd0  1  0.000000  0.337472  0.408439  1
  Nd  Nd1  1  0.000000  0.662528  0.591561  1
  Th  Th2  1  0.000000  0.835405  0.092398  1
  Th  Th3  1  0.000000  0.164595  0.907602  1
  U  U4  1  0.000000  0.958150  0.397792  1
  U  U5  1  0.000000  0.041850  0.602208  1
  U  U6  1  0.000000  0.458290  0.103221  1
  U  U7  1  0.000000  0.541710  0.896779  1
  Re  Re8  1  0.000000  0.648635  0.316430  1
  Re  Re9  1  0.000000  0.351365  0.683570  1
  Re  Re10  1  0.000000  0.147232  0.181819  1
  Re  Re11  1  0.000000  0.852768  0.818181  1
  B  B12  1  0.500000  0.555792  0.427942  1
  B  B13  1  0.500000  0.444208  0.572058  1
  B  B14  1  0.500000  0.056541  0.073107  1
  B  B15  1  0.500000  0.943459  0.926893  1
  B  B16  1  0.500000  0.745429  0.421343  1
  B  B17  1  0.500000  0.254571  0.578657  1
  B  B18  1  0.500000  0.246209  0.079450  1
  B  B19  1  0.500000  0.753791  0.920550  1
  B  B20  1  0.500000  0.802537  0.275334  1
  B  B21  1  0.500000  0.197463  0.724666  1
  B  B22  1  0.500000  0.302925  0.225440  1
  B  B23  1  0.500000  0.697075  0.774560  1
  B  B24  1  0.500000  0.644090  0.188153  1
  B  B25  1  0.500000  0.355910  0.811847  1
  B  B26  1  0.500000  0.144922  0.312392  1
  B  B27  1  0.500000  0.855078  0.687608  1
  B  B28  1  0.500000  0.992722  0.221574  1
  B  B29  1  0.500000  0.007278  0.778426  1
  B  B30  1  0.500000  0.492211  0.279513  1
  B  B31  1  0.500000  0.507789  0.720487  1
  B  B32  1  0.500000  0.636766  0.037116  1
  B  B33  1  0.500000  0.363234  0.962884  1
  B  B34  1  0.500000  0.136672  0.462813  1
  B  B35  1  0.500000  0.863328  0.537187  1
