# generated using pymatgen
data_Ta5Re4Ru
_symmetry_space_group_name_H-M   'P 1'
_cell_length_a   3.20342100
_cell_length_b   3.20342100
_cell_length_c   16.01592400
_cell_angle_alpha   90.00000000
_cell_angle_beta   90.00000000
_cell_angle_gamma   90.00000000
_symmetry_Int_Tables_number   1
_chemical_formula_structural   Ta5Re4Ru
_chemical_formula_sum   'Ta5 Re4 Ru1'
_cell_volume   164.35390824
_cell_formula_units_Z   1
loop_
 _symmetry_equiv_pos_site_id
 _symmetry_equiv_pos_as_xyz
  1  'x, y, z'
loop_
 _atom_site_type_symbol
 _atom_site_label
 _atom_site_symmetry_multiplicity
 _atom_site_fract_x
 _atom_site_fract_y
 _atom_site_fract_z
 _atom_site_occupancy
  Ta  Ta0  1  0.000000  0.000000  0.898312  1
  Ta  Ta1  1  0.000000  0.000000  0.101688  1
  Ta  Ta2  1  0.000000  0.000000  0.300988  1
  Ta  Ta3  1  0.000000  0.000000  0.500000  1
  Ta  Ta4  1  0.000000  0.000000  0.699012  1
  Re  Re5  1  0.500000  0.500000  0.198854  1
  Re  Re6  1  0.500000  0.500000  0.399968  1
  Re  Re7  1  0.500000  0.500000  0.600032  1
  Re  Re8  1  0.500000  0.500000  0.801146  1
  Ru  Ru9  1  0.500000  0.500000  0.000000  1
