# generated using pymatgen
data_NdZnSiRh3
_symmetry_space_group_name_H-M   'P 1'
_cell_length_a   6.75551555
_cell_length_b   6.77556886
_cell_length_c   6.75551607
_cell_angle_alpha   130.74068964
_cell_angle_beta   112.88241026
_cell_angle_gamma   87.51908507
_symmetry_Int_Tables_number   1
_chemical_formula_structural   NdZnSiRh3
_chemical_formula_sum   'Nd2 Zn2 Si2 Rh6'
_cell_volume   205.80080289
_cell_formula_units_Z   2
loop_
 _symmetry_equiv_pos_site_id
 _symmetry_equiv_pos_as_xyz
  1  'x, y, z'
loop_
 _atom_site_type_symbol
 _atom_site_label
 _atom_site_symmetry_multiplicity
 _atom_site_fract_x
 _atom_site_fract_y
 _atom_site_fract_z
 _atom_site_occupancy
  Nd  Nd0  1  0.746889  0.014561  0.267672  1
  Nd  Nd1  1  0.253111  0.985439  0.732328  1
  Zn  Zn2  1  0.571535  0.343661  0.772126  1
  Zn  Zn3  1  0.428465  0.656339  0.227874  1
  Si  Si4  1  0.097130  0.332111  0.234981  1
  Si  Si5  1  0.902870  0.667889  0.765019  1
  Rh  Rh6  1  0.211635  0.500000  0.711635  1
  Rh  Rh7  1  0.770848  0.000000  0.770848  1
  Rh  Rh8  1  0.788365  0.500000  0.288365  1
  Rh  Rh9  1  0.229152  0.000000  0.229152  1
  Rh  Rh10  1  0.500000  0.500000  0.500000  1
  Rh  Rh11  1  0.000000  0.500000  0.000000  1
