# generated using pymatgen
data_HoPa5Ni6(SnBi)4
_symmetry_space_group_name_H-M   'P 1'
_cell_length_a   8.25300658
_cell_length_b   8.25252808
_cell_length_c   8.25782712
_cell_angle_alpha   109.43316392
_cell_angle_beta   109.56644031
_cell_angle_gamma   109.54427978
_symmetry_Int_Tables_number   1
_chemical_formula_structural   HoPa5Ni6(SnBi)4
_chemical_formula_sum   'Ho1 Pa5 Ni6 Sn4 Bi4'
_cell_volume   432.25762463
_cell_formula_units_Z   1
loop_
 _symmetry_equiv_pos_site_id
 _symmetry_equiv_pos_as_xyz
  1  'x, y, z'
loop_
 _atom_site_type_symbol
 _atom_site_label
 _atom_site_symmetry_multiplicity
 _atom_site_fract_x
 _atom_site_fract_y
 _atom_site_fract_z
 _atom_site_occupancy
  Ho  Ho0  1  0.753291  0.376547  0.624251  1
  Pa  Pa1  1  0.126303  0.883933  0.246601  1
  Pa  Pa2  1  0.368562  0.612717  0.745623  1
  Pa  Pa3  1  0.888640  0.249441  0.129565  1
  Pa  Pa4  1  0.619712  0.744814  0.373512  1
  Pa  Pa5  1  0.243311  0.130956  0.881272  1
  Ni  Ni6  1  0.611212  0.374282  0.237929  1
  Ni  Ni7  1  0.889655  0.121042  0.757939  1
  Ni  Ni8  1  0.360226  0.245905  0.620940  1
  Ni  Ni9  1  0.126321  0.761016  0.885990  1
  Ni  Ni10  1  0.249546  0.618278  0.368630  1
  Ni  Ni11  1  0.762047  0.881682  0.126671  1
  Sn  Sn12  1  0.340000  0.336824  0.340025  1
  Sn  Sn13  1  0.161618  0.501335  0.996548  1
  Sn  Sn14  1  0.995161  0.163880  0.500198  1
  Sn  Sn15  1  0.826598  0.827455  0.827631  1
  Bi  Bi16  1  0.504950  0.001243  0.168139  1
  Bi  Bi17  1  0.671165  0.499474  0.997133  1
  Bi  Bi18  1  0.501863  0.001794  0.669543  1
  Bi  Bi19  1  0.999816  0.667383  0.501863  1
