# generated using pymatgen
data_Ag2PtRhF12
_symmetry_space_group_name_H-M   'P 1'
_cell_length_a   5.27501971
_cell_length_b   5.28637303
_cell_length_c   10.41698549
_cell_angle_alpha   75.57771839
_cell_angle_beta   75.73213831
_cell_angle_gamma   60.16316480
_symmetry_Int_Tables_number   1
_chemical_formula_structural   Ag2PtRhF12
_chemical_formula_sum   'Ag2 Pt1 Rh1 F12'
_cell_volume   241.42943703
_cell_formula_units_Z   1
loop_
 _symmetry_equiv_pos_site_id
 _symmetry_equiv_pos_as_xyz
  1  'x, y, z'
loop_
 _atom_site_type_symbol
 _atom_site_label
 _atom_site_symmetry_multiplicity
 _atom_site_fract_x
 _atom_site_fract_y
 _atom_site_fract_z
 _atom_site_occupancy
  Ag  Ag0  1  0.498663  0.501171  0.499195  1
  Ag  Ag1  1  0.998216  0.000672  0.000818  1
  Pt  Pt2  1  0.729710  0.764388  0.749927  1
  Rh  Rh3  1  0.270440  0.235980  0.250106  1
  F  F4  1  0.463696  0.806426  0.635022  1
  F  F5  1  0.532846  0.199363  0.361891  1
  F  F6  1  0.775302  0.100865  0.636500  1
  F  F7  1  0.229450  0.900402  0.360419  1
  F  F8  1  0.689083  0.428817  0.864125  1
  F  F9  1  0.305736  0.569348  0.138169  1
  F  F10  1  0.996525  0.720323  0.864952  1
  F  F11  1  0.008145  0.275187  0.137118  1
  F  F12  1  0.606233  0.971117  0.139675  1
  F  F13  1  0.393222  0.031494  0.863935  1
  F  F14  1  0.938660  0.491436  0.363108  1
  F  F15  1  0.064074  0.503011  0.635041  1
