# generated using pymatgen
data_Ho12CoTcNi3Bi
_symmetry_space_group_name_H-M   'P 1'
_cell_length_a   8.29404166
_cell_length_b   8.29408427
_cell_length_c   8.29404234
_cell_angle_alpha   111.64345039
_cell_angle_beta   109.93648189
_cell_angle_gamma   106.86926073
_symmetry_Int_Tables_number   1
_chemical_formula_structural   Ho12CoTcNi3Bi
_chemical_formula_sum   'Ho12 Co1 Tc1 Ni3 Bi1'
_cell_volume   438.44037858
_cell_formula_units_Z   1
loop_
 _symmetry_equiv_pos_site_id
 _symmetry_equiv_pos_as_xyz
  1  'x, y, z'
loop_
 _atom_site_type_symbol
 _atom_site_label
 _atom_site_symmetry_multiplicity
 _atom_site_fract_x
 _atom_site_fract_y
 _atom_site_fract_z
 _atom_site_occupancy
  Ho  Ho0  1  0.817431  0.715005  0.535383  1
  Ho  Ho1  1  0.179611  0.282040  0.464613  1
  Ho  Ho2  1  0.179623  0.715005  0.897573  1
  Ho  Ho3  1  0.817427  0.282040  0.102430  1
  Ho  Ho4  1  0.688082  0.378705  0.690624  1
  Ho  Ho5  1  0.315538  0.623146  0.307607  1
  Ho  Ho6  1  0.688100  0.997413  0.309313  1
  Ho  Ho7  1  0.315523  0.007977  0.692453  1
  Ho  Ho8  1  0.590068  0.783927  0.806173  1
  Ho  Ho9  1  0.410135  0.215830  0.194262  1
  Ho  Ho10  1  0.977753  0.783927  0.193859  1
  Ho  Ho11  1  0.021568  0.215830  0.805695  1
  Co  Co12  1  0.885262  0.385241  0.499979  1
  Tc  Tc13  1  0.999292  0.999295  0.000003  1
  Ni  Ni14  1  0.635149  0.999305  0.635842  1
  Ni  Ni15  1  0.363463  0.999305  0.364156  1
  Ni  Ni16  1  0.116013  0.616042  0.500029  1
  Bi  Bi17  1  0.499960  0.499966  0.000005  1
