# generated using pymatgen
data_Fe5CoMo12(IrN2)2
_symmetry_space_group_name_H-M   'P 1'
_cell_length_a   6.75506369
_cell_length_b   6.74943163
_cell_length_c   6.75230298
_cell_angle_alpha   90.27889708
_cell_angle_beta   90.27712284
_cell_angle_gamma   89.67390091
_symmetry_Int_Tables_number   1
_chemical_formula_structural   Fe5CoMo12(IrN2)2
_chemical_formula_sum   'Fe5 Co1 Mo12 Ir2 N4'
_cell_volume   307.84447948
_cell_formula_units_Z   1
loop_
 _symmetry_equiv_pos_site_id
 _symmetry_equiv_pos_as_xyz
  1  'x, y, z'
loop_
 _atom_site_type_symbol
 _atom_site_label
 _atom_site_symmetry_multiplicity
 _atom_site_fract_x
 _atom_site_fract_y
 _atom_site_fract_z
 _atom_site_occupancy
  Fe  Fe0  1  0.319184  0.319254  0.433099  1
  Fe  Fe1  1  0.066772  0.565357  0.325522  1
  Fe  Fe2  1  0.430547  0.075085  0.189366  1
  Fe  Fe3  1  0.569004  0.436102  0.673826  1
  Fe  Fe4  1  0.929428  0.924291  0.809639  1
  Co  Co5  1  0.817808  0.681425  0.566713  1
  Mo  Mo6  1  0.623832  0.048024  0.542411  1
  Mo  Mo7  1  0.124758  0.949846  0.456378  1
  Mo  Mo8  1  0.873679  0.549276  0.950463  1
  Mo  Mo9  1  0.375126  0.451174  0.047249  1
  Mo  Mo10  1  0.205269  0.620039  0.700578  1
  Mo  Mo11  1  0.296015  0.127426  0.799696  1
  Mo  Mo12  1  0.797452  0.871533  0.202363  1
  Mo  Mo13  1  0.705368  0.379429  0.298503  1
  Mo  Mo14  1  0.050453  0.206658  0.129773  1
  Mo  Mo15  1  0.949893  0.296513  0.623714  1
  Mo  Mo16  1  0.549769  0.795736  0.872575  1
  Mo  Mo17  1  0.453477  0.704696  0.376425  1
  Ir  Ir18  1  0.682770  0.183214  0.931897  1
  Ir  Ir19  1  0.182745  0.816415  0.068258  1
  N  N20  1  0.374759  0.873872  0.627095  1
  N  N21  1  0.873973  0.124449  0.373819  1
  N  N22  1  0.123391  0.374442  0.877507  1
  N  N23  1  0.624527  0.625745  0.123132  1
