# generated using pymatgen
data_DyHf3(Si3Ni5)4
_symmetry_space_group_name_H-M   'P 1'
_cell_length_a   3.72421000
_cell_length_b   6.58659748
_cell_length_c   18.40481719
_cell_angle_alpha   90.09882032
_cell_angle_beta   90.00000000
_cell_angle_gamma   90.00000000
_symmetry_Int_Tables_number   1
_chemical_formula_structural   DyHf3(Si3Ni5)4
_chemical_formula_sum   'Dy1 Hf3 Si12 Ni20'
_cell_volume   451.46714176
_cell_formula_units_Z   1
loop_
 _symmetry_equiv_pos_site_id
 _symmetry_equiv_pos_as_xyz
  1  'x, y, z'
loop_
 _atom_site_type_symbol
 _atom_site_label
 _atom_site_symmetry_multiplicity
 _atom_site_fract_x
 _atom_site_fract_y
 _atom_site_fract_z
 _atom_site_occupancy
  Dy  Dy0  1  0.250000  0.876921  0.142898  1
  Hf  Hf1  1  0.250000  0.621422  0.643502  1
  Hf  Hf2  1  0.750000  0.378888  0.357779  1
  Hf  Hf3  1  0.750000  0.119647  0.855148  1
  Si  Si4  1  0.250000  0.853212  0.922689  1
  Si  Si5  1  0.750000  0.158808  0.075079  1
  Si  Si6  1  0.750000  0.351516  0.577857  1
  Si  Si7  1  0.250000  0.646556  0.424480  1
  Si  Si8  1  0.750000  0.622545  0.759678  1
  Si  Si9  1  0.250000  0.377412  0.241388  1
  Si  Si10  1  0.250000  0.405422  0.910060  1
  Si  Si11  1  0.750000  0.580981  0.083759  1
  Si  Si12  1  0.750000  0.906218  0.586464  1
  Si  Si13  1  0.250000  0.094563  0.415559  1
  Si  Si14  1  0.250000  0.122081  0.739045  1
  Si  Si15  1  0.750000  0.877706  0.263826  1
  Ni  Ni16  1  0.250000  0.134182  0.993147  1
  Ni  Ni17  1  0.750000  0.378943  0.980834  1
  Ni  Ni18  1  0.750000  0.121189  0.487007  1
  Ni  Ni19  1  0.250000  0.613988  0.010621  1
  Ni  Ni20  1  0.250000  0.359840  0.116634  1
  Ni  Ni21  1  0.750000  0.648020  0.883644  1
  Ni  Ni22  1  0.750000  0.854233  0.387575  1
  Ni  Ni23  1  0.250000  0.143899  0.615223  1
  Ni  Ni24  1  0.250000  0.072277  0.296045  1
  Ni  Ni25  1  0.750000  0.928685  0.706478  1
  Ni  Ni26  1  0.750000  0.568317  0.207212  1
  Ni  Ni27  1  0.250000  0.430307  0.790829  1
  Ni  Ni28  1  0.750000  0.629007  0.506675  1
  Ni  Ni29  1  0.250000  0.370456  0.496263  1
  Ni  Ni30  1  0.250000  0.820169  0.799189  1
  Ni  Ni31  1  0.750000  0.185133  0.202279  1
  Ni  Ni32  1  0.750000  0.318700  0.700022  1
  Ni  Ni33  1  0.250000  0.679446  0.302282  1
  Ni  Ni34  1  0.250000  0.879325  0.514672  1
  Ni  Ni35  1  0.750000  0.869991  0.004163  1
