# generated using pymatgen
data_Sr2TaH9
_symmetry_space_group_name_H-M   'P 1'
_cell_length_a   9.16974500
_cell_length_b   9.16974292
_cell_length_c   5.24764500
_cell_angle_alpha   90.00000000
_cell_angle_beta   90.00000000
_cell_angle_gamma   120.00000391
_symmetry_Int_Tables_number   1
_chemical_formula_structural   Sr2TaH9
_chemical_formula_sum   'Sr6 Ta3 H27'
_cell_volume   382.12854508
_cell_formula_units_Z   3
loop_
 _symmetry_equiv_pos_site_id
 _symmetry_equiv_pos_as_xyz
  1  'x, y, z'
loop_
 _atom_site_type_symbol
 _atom_site_label
 _atom_site_symmetry_multiplicity
 _atom_site_fract_x
 _atom_site_fract_y
 _atom_site_fract_z
 _atom_site_occupancy
  Sr  Sr0  1  0.000000  0.266476  0.500000  1
  Sr  Sr1  1  0.733524  0.733524  0.500000  1
  Sr  Sr2  1  0.266476  0.000000  0.500000  1
  Sr  Sr3  1  0.000000  0.600422  0.000000  1
  Sr  Sr4  1  0.399578  0.399578  0.000000  1
  Sr  Sr5  1  0.600422  0.000000  0.000000  1
  Ta  Ta6  1  0.666667  0.333333  0.500000  1
  Ta  Ta7  1  0.333333  0.666667  0.500000  1
  Ta  Ta8  1  0.000000  0.000000  0.000000  1
  H  H9  1  0.809088  0.331506  0.757076  1
  H  H10  1  0.668494  0.477581  0.757076  1
  H  H11  1  0.522419  0.190912  0.757076  1
  H  H12  1  0.190912  0.522419  0.242924  1
  H  H13  1  0.522419  0.190912  0.242924  1
  H  H14  1  0.809088  0.331506  0.242924  1
  H  H15  1  0.668494  0.477581  0.242924  1
  H  H16  1  0.331506  0.809088  0.757076  1
  H  H17  1  0.477581  0.668494  0.757076  1
  H  H18  1  0.202284  0.000000  0.000000  1
  H  H19  1  0.797716  0.797716  0.000000  1
  H  H20  1  0.000000  0.202284  0.000000  1
  H  H21  1  0.854031  0.000000  0.247725  1
  H  H22  1  0.145969  0.145969  0.752275  1
  H  H23  1  0.000000  0.854031  0.752275  1
  H  H24  1  0.000000  0.854031  0.247725  1
  H  H25  1  0.145969  0.145969  0.247725  1
  H  H26  1  0.854031  0.000000  0.752275  1
  H  H27  1  0.136354  0.672767  0.500000  1
  H  H28  1  0.536413  0.863646  0.500000  1
  H  H29  1  0.327233  0.463587  0.500000  1
  H  H30  1  0.463587  0.327233  0.500000  1
  H  H31  1  0.863646  0.536413  0.500000  1
  H  H32  1  0.672767  0.136354  0.500000  1
  H  H33  1  0.190912  0.522419  0.757076  1
  H  H34  1  0.331506  0.809088  0.242924  1
  H  H35  1  0.477581  0.668494  0.242924  1
