# generated using pymatgen
data_Tb3Y2Er(B7W)2
_symmetry_space_group_name_H-M   'P 1'
_cell_length_a   8.19219482
_cell_length_b   8.19219427
_cell_length_c   9.50458758
_cell_angle_alpha   89.89071658
_cell_angle_beta   90.10928292
_cell_angle_gamma   155.60308362
_symmetry_Int_Tables_number   1
_chemical_formula_structural   Tb3Y2Er(B7W)2
_chemical_formula_sum   'Tb3 Y2 Er1 B14 W2'
_cell_volume   263.47613615
_cell_formula_units_Z   1
loop_
 _symmetry_equiv_pos_site_id
 _symmetry_equiv_pos_as_xyz
  1  'x, y, z'
loop_
 _atom_site_type_symbol
 _atom_site_label
 _atom_site_symmetry_multiplicity
 _atom_site_fract_x
 _atom_site_fract_y
 _atom_site_fract_z
 _atom_site_occupancy
  Tb  Tb0  1  0.892912  0.107088  0.939289  1
  Tb  Tb1  1  0.107431  0.892569  0.061017  1
  Tb  Tb2  1  0.892408  0.107592  0.560603  1
  Y  Y3  1  0.754442  0.245558  0.250006  1
  Y  Y4  1  0.244808  0.755192  0.749670  1
  Er  Er5  1  0.106586  0.893414  0.440429  1
  B  B6  1  0.544609  0.455391  0.251546  1
  B  B7  1  0.456619  0.543381  0.749666  1
  B  B8  1  0.520276  0.479724  0.908232  1
  B  B9  1  0.480488  0.519512  0.092606  1
  B  B10  1  0.480695  0.519305  0.408804  1
  B  B11  1  0.520411  0.479589  0.591243  1
  B  B12  1  0.635271  0.364729  0.852675  1
  B  B13  1  0.364875  0.635125  0.147959  1
  B  B14  1  0.727711  0.272289  0.966895  1
  B  B15  1  0.272509  0.727491  0.032994  1
  B  B16  1  0.271375  0.728625  0.466217  1
  B  B17  1  0.726660  0.273340  0.531836  1
  B  B18  1  0.634845  0.365155  0.645878  1
  B  B19  1  0.364560  0.635440  0.352172  1
  W  W20  1  0.053714  0.946286  0.749570  1
  W  W21  1  0.946795  0.053205  0.250691  1
