# generated using pymatgen
data_Dy3Th2Ga2Ru3
_symmetry_space_group_name_H-M   'P 1'
_cell_length_a   8.42667148
_cell_length_b   8.44700422
_cell_length_c   8.44284900
_cell_angle_alpha   109.94265687
_cell_angle_beta   109.74863339
_cell_angle_gamma   109.59315521
_symmetry_Int_Tables_number   1
_chemical_formula_structural   Dy3Th2Ga2Ru3
_chemical_formula_sum   'Dy6 Th4 Ga4 Ru6'
_cell_volume   457.57927859
_cell_formula_units_Z   2
loop_
 _symmetry_equiv_pos_site_id
 _symmetry_equiv_pos_as_xyz
  1  'x, y, z'
loop_
 _atom_site_type_symbol
 _atom_site_label
 _atom_site_symmetry_multiplicity
 _atom_site_fract_x
 _atom_site_fract_y
 _atom_site_fract_z
 _atom_site_occupancy
  Dy  Dy0  1  0.773311  0.771383  0.773869  1
  Dy  Dy1  1  0.310196  0.563367  0.748373  1
  Dy  Dy2  1  0.752123  0.315204  0.562693  1
  Dy  Dy3  1  0.565217  0.745954  0.307278  1
  Dy  Dy4  1  0.723693  0.505729  0.997285  1
  Dy  Dy5  1  0.993920  0.721202  0.502897  1
  Th  Th6  1  0.503455  0.995714  0.711422  1
  Th  Th7  1  0.255331  0.197736  0.946037  1
  Th  Th8  1  0.942935  0.251353  0.193216  1
  Th  Th9  1  0.190015  0.943457  0.247943  1
  Ga  Ga10  1  0.410601  0.407899  0.409603  1
  Ga  Ga11  1  0.098431  0.502972  0.999799  1
  Ga  Ga12  1  0.993985  0.095804  0.503355  1
  Ga  Ga13  1  0.501616  0.996977  0.098202  1
  Ru  Ru14  1  0.876744  0.119503  0.757354  1
  Ru  Ru15  1  0.755072  0.884130  0.119748  1
  Ru  Ru16  1  0.119347  0.756054  0.886491  1
  Ru  Ru17  1  0.244560  0.624290  0.380007  1
  Ru  Ru18  1  0.370772  0.230975  0.619512  1
  Ru  Ru19  1  0.618675  0.370298  0.234919  1
