# generated using pymatgen
data_NdTh3Sc4(ReB6)4
_symmetry_space_group_name_H-M   'P 1'
_cell_length_a   3.68075700
_cell_length_b   9.09893338
_cell_length_c   11.55589148
_cell_angle_alpha   89.96693864
_cell_angle_beta   90.00000000
_cell_angle_gamma   90.00000000
_symmetry_Int_Tables_number   1
_chemical_formula_structural   NdTh3Sc4(ReB6)4
_chemical_formula_sum   'Nd1 Th3 Sc4 Re4 B24'
_cell_volume   387.01786643
_cell_formula_units_Z   1
loop_
 _symmetry_equiv_pos_site_id
 _symmetry_equiv_pos_as_xyz
  1  'x, y, z'
loop_
 _atom_site_type_symbol
 _atom_site_label
 _atom_site_symmetry_multiplicity
 _atom_site_fract_x
 _atom_site_fract_y
 _atom_site_fract_z
 _atom_site_occupancy
  Nd  Nd0  1  0.000000  0.321365  0.414050  1
  Th  Th1  1  0.000000  0.677273  0.584980  1
  Th  Th2  1  0.000000  0.820941  0.085644  1
  Th  Th3  1  0.000000  0.179149  0.914874  1
  Sc  Sc4  1  0.000000  0.945787  0.371758  1
  Sc  Sc5  1  0.000000  0.055914  0.627515  1
  Sc  Sc6  1  0.000000  0.444722  0.128352  1
  Sc  Sc7  1  0.000000  0.554185  0.872770  1
  Re  Re8  1  0.000000  0.642542  0.317000  1
  Re  Re9  1  0.000000  0.358521  0.683404  1
  Re  Re10  1  0.000000  0.140462  0.182272  1
  Re  Re11  1  0.000000  0.858843  0.817171  1
  B  B12  1  0.500000  0.556845  0.429357  1
  B  B13  1  0.500000  0.442899  0.570347  1
  B  B14  1  0.500000  0.057014  0.071202  1
  B  B15  1  0.500000  0.942765  0.928749  1
  B  B16  1  0.500000  0.753818  0.415969  1
  B  B17  1  0.500000  0.246058  0.583713  1
  B  B18  1  0.500000  0.254370  0.084492  1
  B  B19  1  0.500000  0.745658  0.915783  1
  B  B20  1  0.500000  0.793845  0.265922  1
  B  B21  1  0.500000  0.206268  0.733980  1
  B  B22  1  0.500000  0.294353  0.234557  1
  B  B23  1  0.500000  0.706158  0.765763  1
  B  B24  1  0.500000  0.628328  0.184189  1
  B  B25  1  0.500000  0.371479  0.815978  1
  B  B26  1  0.500000  0.128702  0.316418  1
  B  B27  1  0.500000  0.871539  0.683846  1
  B  B28  1  0.500000  0.983785  0.215948  1
  B  B29  1  0.500000  0.016311  0.784127  1
  B  B30  1  0.500000  0.483131  0.284330  1
  B  B31  1  0.500000  0.516103  0.715363  1
  B  B32  1  0.500000  0.596180  0.025794  1
  B  B33  1  0.500000  0.403864  0.974554  1
  B  B34  1  0.500000  0.095771  0.474267  1
  B  B35  1  0.500000  0.905053  0.525561  1
