# generated using pymatgen
data_Nd8CdHgPt2
_symmetry_space_group_name_H-M   'P 1'
_cell_length_a   10.02375531
_cell_length_b   10.02375512
_cell_length_c   10.03163700
_cell_angle_alpha   59.97398204
_cell_angle_beta   59.97398266
_cell_angle_gamma   59.97821067
_symmetry_Int_Tables_number   1
_chemical_formula_structural   Nd8CdHgPt2
_chemical_formula_sum   'Nd16 Cd2 Hg2 Pt4'
_cell_volume   712.32027064
_cell_formula_units_Z   2
loop_
 _symmetry_equiv_pos_site_id
 _symmetry_equiv_pos_as_xyz
  1  'x, y, z'
loop_
 _atom_site_type_symbol
 _atom_site_label
 _atom_site_symmetry_multiplicity
 _atom_site_fract_x
 _atom_site_fract_y
 _atom_site_fract_z
 _atom_site_occupancy
  Nd  Nd0  1  0.350713  0.350713  0.349758  1
  Nd  Nd1  1  0.350713  0.350713  0.948816  1
  Nd  Nd2  1  0.352541  0.944699  0.351380  1
  Nd  Nd3  1  0.944699  0.352541  0.351380  1
  Nd  Nd4  1  0.808775  0.191362  0.192622  1
  Nd  Nd5  1  0.191362  0.808775  0.807241  1
  Nd  Nd6  1  0.191362  0.808775  0.192622  1
  Nd  Nd7  1  0.808775  0.191362  0.807241  1
  Nd  Nd8  1  0.191403  0.191403  0.808597  1
  Nd  Nd9  1  0.807263  0.807263  0.192737  1
  Nd  Nd10  1  0.936417  0.562917  0.565101  1
  Nd  Nd11  1  0.562917  0.936417  0.935565  1
  Nd  Nd12  1  0.562917  0.936417  0.565101  1
  Nd  Nd13  1  0.936417  0.562917  0.935565  1
  Nd  Nd14  1  0.562715  0.562715  0.937285  1
  Nd  Nd15  1  0.934912  0.934912  0.565088  1
  Cd  Cd16  1  0.580034  0.258360  0.580804  1
  Cd  Cd17  1  0.258360  0.580034  0.580804  1
  Hg  Hg18  1  0.583788  0.583788  0.585914  1
  Hg  Hg19  1  0.583788  0.583788  0.246511  1
  Pt  Pt20  1  0.143178  0.143178  0.144126  1
  Pt  Pt21  1  0.143178  0.143178  0.569518  1
  Pt  Pt22  1  0.142381  0.571397  0.143111  1
  Pt  Pt23  1  0.571397  0.142381  0.143111  1
