# generated using pymatgen
data_Tb5Dy(LuIn4)2
_symmetry_space_group_name_H-M   'P 1'
_cell_length_a   6.54560838
_cell_length_b   6.54560738
_cell_length_c   10.00609200
_cell_angle_alpha   90.00000000
_cell_angle_beta   90.00000000
_cell_angle_gamma   98.42271344
_symmetry_Int_Tables_number   1
_chemical_formula_structural   Tb5Dy(LuIn4)2
_chemical_formula_sum   'Tb5 Dy1 Lu2 In8'
_cell_volume   424.08690928
_cell_formula_units_Z   1
loop_
 _symmetry_equiv_pos_site_id
 _symmetry_equiv_pos_as_xyz
  1  'x, y, z'
loop_
 _atom_site_type_symbol
 _atom_site_label
 _atom_site_symmetry_multiplicity
 _atom_site_fract_x
 _atom_site_fract_y
 _atom_site_fract_z
 _atom_site_occupancy
  Tb  Tb0  1  0.465916  0.465916  0.750000  1
  Tb  Tb1  1  0.245473  0.754625  0.499910  1
  Tb  Tb2  1  0.245473  0.754625  0.000090  1
  Tb  Tb3  1  0.754625  0.245473  0.499910  1
  Tb  Tb4  1  0.754625  0.245473  0.000090  1
  Dy  Dy5  1  0.534015  0.534015  0.250000  1
  Lu  Lu6  1  0.978178  0.978178  0.250000  1
  Lu  Lu7  1  0.021465  0.021465  0.750000  1
  In  In8  1  0.251652  0.251652  0.021731  1
  In  In9  1  0.748432  0.748432  0.978541  1
  In  In10  1  0.251652  0.251652  0.478269  1
  In  In11  1  0.748432  0.748432  0.521459  1
  In  In12  1  0.483440  0.023464  0.250000  1
  In  In13  1  0.976535  0.516622  0.750000  1
  In  In14  1  0.516622  0.976535  0.750000  1
  In  In15  1  0.023464  0.483440  0.250000  1
