# generated using pymatgen
data_Pr8Er12In13Sn3
_symmetry_space_group_name_H-M   'P 1'
_cell_length_a   8.00431018
_cell_length_b   8.38751106
_cell_length_c   15.82275066
_cell_angle_alpha   90.01284155
_cell_angle_beta   90.10316744
_cell_angle_gamma   90.00470534
_symmetry_Int_Tables_number   1
_chemical_formula_structural   Pr8Er12In13Sn3
_chemical_formula_sum   'Pr8 Er12 In13 Sn3'
_cell_volume   1062.27823566
_cell_formula_units_Z   1
loop_
 _symmetry_equiv_pos_site_id
 _symmetry_equiv_pos_as_xyz
  1  'x, y, z'
loop_
 _atom_site_type_symbol
 _atom_site_label
 _atom_site_symmetry_multiplicity
 _atom_site_fract_x
 _atom_site_fract_y
 _atom_site_fract_z
 _atom_site_occupancy
  Pr  Pr0  1  0.494556  0.316487  0.906268  1
  Pr  Pr1  1  0.993514  0.182277  0.592971  1
  Pr  Pr2  1  0.505328  0.682353  0.406794  1
  Pr  Pr3  1  0.006203  0.820418  0.093835  1
  Pr  Pr4  1  0.506356  0.679044  0.093528  1
  Pr  Pr5  1  0.005023  0.819422  0.406024  1
  Pr  Pr6  1  0.494645  0.319867  0.593568  1
  Pr  Pr7  1  0.994490  0.181356  0.905842  1
  Er  Er8  1  0.331934  0.834701  0.874924  1
  Er  Er9  1  0.830264  0.666308  0.624939  1
  Er  Er10  1  0.668122  0.166977  0.375210  1
  Er  Er11  1  0.169613  0.330910  0.125185  1
  Er  Er12  1  0.666676  0.169408  0.124560  1
  Er  Er13  1  0.166579  0.330937  0.375978  1
  Er  Er14  1  0.332937  0.829961  0.623991  1
  Er  Er15  1  0.833381  0.669891  0.875845  1
  Er  Er16  1  0.166482  0.497764  0.749775  1
  Er  Er17  1  0.666329  0.001477  0.750994  1
  Er  Er18  1  0.833771  0.501478  0.248963  1
  Er  Er19  1  0.332226  0.998160  0.249458  1
  In  In20  1  0.331643  0.036874  0.041192  1
  In  In21  1  0.827870  0.463314  0.457993  1
  In  In22  1  0.671066  0.962577  0.542101  1
  In  In23  1  0.172137  0.537547  0.958584  1
  In  In24  1  0.669951  0.963840  0.959825  1
  In  In25  1  0.532065  0.615848  0.752676  1
  In  In26  1  0.032423  0.883904  0.746925  1
  In  In27  1  0.467488  0.384195  0.253063  1
  In  In28  1  0.966378  0.116848  0.248986  1
  In  In29  1  0.290773  0.135071  0.748363  1
  In  In30  1  0.791213  0.365515  0.749692  1
  In  In31  1  0.708596  0.864620  0.250515  1
  In  In32  1  0.208682  0.634788  0.250439  1
  Sn  Sn33  1  0.168312  0.536221  0.540950  1
  Sn  Sn34  1  0.330765  0.036321  0.458975  1
  Sn  Sn35  1  0.832210  0.463322  0.041071  1
