# generated using pymatgen
data_K5Rb5Ba2(NbAs4)2
_symmetry_space_group_name_H-M   'P 1'
_cell_length_a   10.77308803
_cell_length_b   10.76784705
_cell_length_c   8.19326988
_cell_angle_alpha   88.85425788
_cell_angle_beta   88.97134428
_cell_angle_gamma   120.75581267
_symmetry_Int_Tables_number   1
_chemical_formula_structural   K5Rb5Ba2(NbAs4)2
_chemical_formula_sum   'K5 Rb5 Ba2 Nb2 As8'
_cell_volume   816.16543198
_cell_formula_units_Z   1
loop_
 _symmetry_equiv_pos_site_id
 _symmetry_equiv_pos_as_xyz
  1  'x, y, z'
loop_
 _atom_site_type_symbol
 _atom_site_label
 _atom_site_symmetry_multiplicity
 _atom_site_fract_x
 _atom_site_fract_y
 _atom_site_fract_z
 _atom_site_occupancy
  K  K0  1  0.466422  0.526757  0.609465  1
  K  K1  1  0.058030  0.526922  0.610436  1
  K  K2  1  0.526644  0.466226  0.109890  1
  K  K3  1  0.528830  0.058227  0.110303  1
  K  K4  1  0.859733  0.145680  0.785125  1
  Rb  Rb5  1  0.294043  0.153698  0.825353  1
  Rb  Rb6  1  0.855345  0.718270  0.769092  1
  Rb  Rb7  1  0.141030  0.865306  0.287867  1
  Rb  Rb8  1  0.718269  0.855975  0.269618  1
  Rb  Rb9  1  0.153309  0.293938  0.326385  1
  Ba  Ba10  1  0.465013  0.935155  0.600952  1
  Ba  Ba11  1  0.935063  0.463087  0.102173  1
  Nb  Nb12  1  0.668652  0.331782  0.501944  1
  Nb  Nb13  1  0.332503  0.667076  0.998669  1
  As  As14  1  0.682606  0.334426  0.809403  1
  As  As15  1  0.335538  0.680946  0.305996  1
  As  As16  1  0.201627  0.790383  0.893824  1
  As  As17  1  0.586976  0.799429  0.879881  1
  As  As18  1  0.193380  0.405367  0.918500  1
  As  As19  1  0.791937  0.199675  0.398450  1
  As  As20  1  0.408775  0.197554  0.420466  1
  As  As21  1  0.796276  0.584123  0.380607  1
