# generated using pymatgen
data_Pr4Al19Ir5
_symmetry_space_group_name_H-M   'P 1'
_cell_length_a   7.67094336
_cell_length_b   7.67095456
_cell_length_c   9.64028684
_cell_angle_alpha   89.71367931
_cell_angle_beta   89.71369538
_cell_angle_gamma   119.12605104
_symmetry_Int_Tables_number   1
_chemical_formula_structural   Pr4Al19Ir5
_chemical_formula_sum   'Pr4 Al19 Ir5'
_cell_volume   495.51326124
_cell_formula_units_Z   1
loop_
 _symmetry_equiv_pos_site_id
 _symmetry_equiv_pos_as_xyz
  1  'x, y, z'
loop_
 _atom_site_type_symbol
 _atom_site_label
 _atom_site_symmetry_multiplicity
 _atom_site_fract_x
 _atom_site_fract_y
 _atom_site_fract_z
 _atom_site_occupancy
  Pr  Pr0  1  0.996052  0.680529  0.246897  1
  Pr  Pr1  1  0.003948  0.319471  0.753103  1
  Pr  Pr2  1  0.680529  0.996052  0.246897  1
  Pr  Pr3  1  0.319471  0.003948  0.753103  1
  Al  Al4  1  0.142331  0.142331  0.261872  1
  Al  Al5  1  0.857669  0.857669  0.738128  1
  Al  Al6  1  0.007780  0.351285  0.079374  1
  Al  Al7  1  0.992220  0.648715  0.920626  1
  Al  Al8  1  0.999608  0.662825  0.567552  1
  Al  Al9  1  0.337175  0.000392  0.432448  1
  Al  Al10  1  0.000392  0.337175  0.432448  1
  Al  Al11  1  0.662825  0.999608  0.567552  1
  Al  Al12  1  0.648715  0.992220  0.920626  1
  Al  Al13  1  0.351285  0.007780  0.079374  1
  Al  Al14  1  0.332867  0.332867  0.542464  1
  Al  Al15  1  0.667133  0.667133  0.457536  1
  Al  Al16  1  0.650808  0.650808  0.058908  1
  Al  Al17  1  0.349192  0.349192  0.941092  1
  Al  Al18  1  0.339644  0.551274  0.252752  1
  Al  Al19  1  0.660356  0.448726  0.747248  1
  Al  Al20  1  0.551274  0.339644  0.252751  1
  Al  Al21  1  0.448726  0.660356  0.747249  1
  Al  Al22  1  0.000000  0.000000  0.000000  1
  Ir  Ir23  1  0.671679  0.328321  0.000000  1
  Ir  Ir24  1  0.328321  0.671679  0.000000  1
  Ir  Ir25  1  0.329937  0.670064  0.500000  1
  Ir  Ir26  1  0.670063  0.329936  0.500000  1
  Ir  Ir27  1  0.000000  0.000000  0.500000  1
