# generated using pymatgen
data_Tb5PaNi20P13
_symmetry_space_group_name_H-M   'P 1'
_cell_length_a   12.65577151
_cell_length_b   12.67528175
_cell_length_c   3.77029900
_cell_angle_alpha   90.00000000
_cell_angle_beta   90.00000000
_cell_angle_gamma   119.91648934
_symmetry_Int_Tables_number   1
_chemical_formula_structural   Tb5PaNi20P13
_chemical_formula_sum   'Tb5 Pa1 Ni20 P13'
_cell_volume   524.22474780
_cell_formula_units_Z   1
loop_
 _symmetry_equiv_pos_site_id
 _symmetry_equiv_pos_as_xyz
  1  'x, y, z'
loop_
 _atom_site_type_symbol
 _atom_site_label
 _atom_site_symmetry_multiplicity
 _atom_site_fract_x
 _atom_site_fract_y
 _atom_site_fract_z
 _atom_site_occupancy
  Tb  Tb0  1  0.469017  0.186774  0.000000  1
  Tb  Tb1  1  0.716905  0.530681  0.000000  1
  Tb  Tb2  1  0.531823  0.813011  0.500000  1
  Tb  Tb3  1  0.280857  0.468468  0.500000  1
  Tb  Tb4  1  0.187342  0.718593  0.500000  1
  Pa  Pa5  1  0.810764  0.283453  0.000000  1
  Ni  Ni6  1  0.333082  0.666479  0.000000  1
  Ni  Ni7  1  0.669493  0.332973  0.500000  1
  Ni  Ni8  1  0.195640  0.089948  0.000000  1
  Ni  Ni9  1  0.894435  0.804901  0.000000  1
  Ni  Ni10  1  0.910197  0.105824  0.000000  1
  Ni  Ni11  1  0.849017  0.927743  0.500000  1
  Ni  Ni12  1  0.079149  0.150325  0.500000  1
  Ni  Ni13  1  0.072329  0.921434  0.500000  1
  Ni  Ni14  1  0.437247  0.415013  0.000000  1
  Ni  Ni15  1  0.977987  0.561640  0.000000  1
  Ni  Ni16  1  0.585844  0.022833  0.000000  1
  Ni  Ni17  1  0.564707  0.587346  0.500000  1
  Ni  Ni18  1  0.022012  0.435121  0.500000  1
  Ni  Ni19  1  0.411450  0.976653  0.500000  1
  Ni  Ni20  1  0.077997  0.320251  0.000000  1
  Ni  Ni21  1  0.241410  0.921147  0.000000  1
  Ni  Ni22  1  0.679364  0.757766  0.000000  1
  Ni  Ni23  1  0.928051  0.684559  0.500000  1
  Ni  Ni24  1  0.754586  0.072053  0.500000  1
  Ni  Ni25  1  0.317034  0.244997  0.500000  1
  P  P26  1  0.234182  0.280748  0.000000  1
  P  P27  1  0.046843  0.765816  0.000000  1
  P  P28  1  0.719418  0.952792  0.000000  1
  P  P29  1  0.766700  0.722588  0.500000  1
  P  P30  1  0.955564  0.232689  0.500000  1
  P  P31  1  0.277911  0.044853  0.500000  1
  P  P32  1  0.476650  0.613517  0.000000  1
  P  P33  1  0.137347  0.523128  0.000000  1
  P  P34  1  0.386527  0.863045  0.000000  1
  P  P35  1  0.523774  0.386204  0.500000  1
  P  P36  1  0.865536  0.480409  0.500000  1
  P  P37  1  0.611652  0.134280  0.500000  1
  P  P38  1  0.000159  0.999941  0.000000  1
