# generated using pymatgen
data_Re(TeI2)2
_symmetry_space_group_name_H-M   'P 1'
_cell_length_a   11.72778335
_cell_length_b   11.72778532
_cell_length_c   11.72778344
_cell_angle_alpha   115.29742063
_cell_angle_beta   115.29741183
_cell_angle_gamma   98.35846043
_symmetry_Int_Tables_number   1
_chemical_formula_structural   Re(TeI2)2
_chemical_formula_sum   'Re4 Te8 I16'
_cell_volume   1207.72273288
_cell_formula_units_Z   4
loop_
 _symmetry_equiv_pos_site_id
 _symmetry_equiv_pos_as_xyz
  1  'x, y, z'
loop_
 _atom_site_type_symbol
 _atom_site_label
 _atom_site_symmetry_multiplicity
 _atom_site_fract_x
 _atom_site_fract_y
 _atom_site_fract_z
 _atom_site_occupancy
  Re  Re0  1  0.208034  0.848197  0.421457  1
  Re  Re1  1  0.151803  0.573261  0.359837  1
  Re  Re2  1  0.426739  0.786577  0.578543  1
  Re  Re3  1  0.213423  0.791966  0.640163  1
  Te  Te4  1  0.631111  0.684752  0.575919  1
  Te  Te5  1  0.395560  0.014014  0.714959  1
  Te  Te6  1  0.315248  0.891167  0.946360  1
  Te  Te7  1  0.299055  0.680601  0.285041  1
  Te  Te8  1  0.108833  0.055193  0.424081  1
  Te  Te9  1  0.985986  0.700945  0.381544  1
  Te  Te10  1  0.944807  0.368889  0.053640  1
  Te  Te11  1  0.319399  0.604440  0.618456  1
  I  I12  1  0.694962  0.410011  0.961912  1
  I  I13  1  0.121571  0.993456  0.775860  1
  I  I14  1  0.948333  0.357355  0.311672  1
  I  I15  1  0.589989  0.551901  0.284950  1
  I  I16  1  0.549324  0.143055  0.137157  1
  I  I17  1  0.587834  0.450676  0.593730  1
  I  I18  1  0.006544  0.782403  0.128114  1
  I  I19  1  0.045683  0.636660  0.688328  1
  I  I20  1  0.448099  0.733051  0.038088  1
  I  I21  1  0.642645  0.954317  0.590978  1
  I  I22  1  0.217597  0.345712  0.224140  1
  I  I23  1  0.363340  0.051667  0.409022  1
  I  I24  1  0.654288  0.878429  0.871886  1
  I  I25  1  0.266949  0.305038  0.715050  1
  I  I26  1  0.856945  0.994102  0.406270  1
  I  I27  1  0.005898  0.412166  0.862843  1
