# generated using pymatgen
data_GdTl2Br5
_symmetry_space_group_name_H-M   'P 1'
_cell_length_a   8.41221400
_cell_length_b   9.06747300
_cell_length_c   13.58731700
_cell_angle_alpha   90.00000000
_cell_angle_beta   90.00000000
_cell_angle_gamma   90.00000000
_symmetry_Int_Tables_number   1
_chemical_formula_structural   GdTl2Br5
_chemical_formula_sum   'Gd4 Tl8 Br20'
_cell_volume   1036.40688926
_cell_formula_units_Z   4
loop_
 _symmetry_equiv_pos_site_id
 _symmetry_equiv_pos_as_xyz
  1  'x, y, z'
loop_
 _atom_site_type_symbol
 _atom_site_label
 _atom_site_symmetry_multiplicity
 _atom_site_fract_x
 _atom_site_fract_y
 _atom_site_fract_z
 _atom_site_occupancy
  Gd  Gd0  1  0.926051  0.750000  0.503898  1
  Gd  Gd1  1  0.073949  0.250000  0.496102  1
  Gd  Gd2  1  0.426051  0.250000  0.996102  1
  Gd  Gd3  1  0.573949  0.750000  0.003898  1
  Tl  Tl4  1  0.946562  0.004949  0.827555  1
  Tl  Tl5  1  0.053438  0.995051  0.172445  1
  Tl  Tl6  1  0.446562  0.995051  0.672445  1
  Tl  Tl7  1  0.053438  0.504949  0.172445  1
  Tl  Tl8  1  0.553438  0.004949  0.327555  1
  Tl  Tl9  1  0.946562  0.495051  0.827555  1
  Tl  Tl10  1  0.553438  0.495051  0.327555  1
  Tl  Tl11  1  0.446562  0.504949  0.672445  1
  Br  Br12  1  0.123337  0.750000  0.676652  1
  Br  Br13  1  0.876663  0.250000  0.323348  1
  Br  Br14  1  0.623337  0.250000  0.823348  1
  Br  Br15  1  0.376663  0.750000  0.176652  1
  Br  Br16  1  0.835121  0.043403  0.576040  1
  Br  Br17  1  0.164879  0.956597  0.423960  1
  Br  Br18  1  0.335121  0.956597  0.923960  1
  Br  Br19  1  0.164879  0.543403  0.423960  1
  Br  Br20  1  0.664879  0.043403  0.076040  1
  Br  Br21  1  0.835121  0.456597  0.576040  1
  Br  Br22  1  0.664879  0.456597  0.076040  1
  Br  Br23  1  0.335121  0.543403  0.923960  1
  Br  Br24  1  0.581492  0.750000  0.509227  1
  Br  Br25  1  0.418508  0.250000  0.490773  1
  Br  Br26  1  0.081492  0.250000  0.990773  1
  Br  Br27  1  0.918508  0.750000  0.009227  1
  Br  Br28  1  0.660649  0.750000  0.798329  1
  Br  Br29  1  0.339351  0.250000  0.201671  1
  Br  Br30  1  0.160649  0.250000  0.701671  1
  Br  Br31  1  0.839351  0.750000  0.298329  1
