# generated using pymatgen
data_Zr12Zn8PdPt3N4
_symmetry_space_group_name_H-M   'P 1'
_cell_length_a   8.61987772
_cell_length_b   8.60168326
_cell_length_c   8.61987800
_cell_angle_alpha   59.93000326
_cell_angle_beta   59.99999892
_cell_angle_gamma   59.92999918
_symmetry_Int_Tables_number   1
_chemical_formula_structural   Zr12Zn8PdPt3N4
_chemical_formula_sum   'Zr12 Zn8 Pd1 Pt3 N4'
_cell_volume   451.45073107
_cell_formula_units_Z   1
loop_
 _symmetry_equiv_pos_site_id
 _symmetry_equiv_pos_as_xyz
  1  'x, y, z'
loop_
 _atom_site_type_symbol
 _atom_site_label
 _atom_site_symmetry_multiplicity
 _atom_site_fract_x
 _atom_site_fract_y
 _atom_site_fract_z
 _atom_site_occupancy
  Zr  Zr0  1  0.811766  0.189779  0.186688  1
  Zr  Zr1  1  0.189112  0.811367  0.189112  1
  Zr  Zr2  1  0.810409  0.811367  0.189112  1
  Zr  Zr3  1  0.189112  0.811367  0.810409  1
  Zr  Zr4  1  0.811766  0.189779  0.811766  1
  Zr  Zr5  1  0.186688  0.189779  0.811766  1
  Zr  Zr6  1  0.438234  0.060221  0.063312  1
  Zr  Zr7  1  0.060888  0.438633  0.060888  1
  Zr  Zr8  1  0.439591  0.438633  0.060888  1
  Zr  Zr9  1  0.060888  0.438633  0.439591  1
  Zr  Zr10  1  0.438234  0.060221  0.438234  1
  Zr  Zr11  1  0.063312  0.060221  0.438234  1
  Zn  Zn12  1  0.417449  0.417161  0.747940  1
  Zn  Zn13  1  0.417449  0.417161  0.417449  1
  Zn  Zn14  1  0.747940  0.417161  0.417449  1
  Zn  Zn15  1  0.417318  0.748043  0.417318  1
  Zn  Zn16  1  0.832551  0.832839  0.502060  1
  Zn  Zn17  1  0.832551  0.832839  0.832551  1
  Zn  Zn18  1  0.502060  0.832839  0.832551  1
  Zn  Zn19  1  0.832682  0.501957  0.832682  1
  Pd  Pd20  1  0.625000  0.125000  0.625000  1
  Pt  Pt21  1  0.625000  0.625000  0.125000  1
  Pt  Pt22  1  0.625000  0.625000  0.625000  1
  Pt  Pt23  1  0.125000  0.625000  0.625000  1
  N  N24  1  0.125000  0.125000  0.625000  1
  N  N25  1  0.125000  0.125000  0.125000  1
  N  N26  1  0.625000  0.125000  0.125000  1
  N  N27  1  0.125000  0.625000  0.125000  1
