# generated using pymatgen
data_Sm(Ga3Pt)3
_symmetry_space_group_name_H-M   'P 1'
_cell_length_a   10.48646302
_cell_length_b   10.48648227
_cell_length_c   10.48600472
_cell_angle_alpha   42.55420152
_cell_angle_beta   42.54973812
_cell_angle_gamma   42.54998174
_symmetry_Int_Tables_number   1
_chemical_formula_structural   Sm(Ga3Pt)3
_chemical_formula_sum   'Sm2 Ga18 Pt6'
_cell_volume   477.53818970
_cell_formula_units_Z   2
loop_
 _symmetry_equiv_pos_site_id
 _symmetry_equiv_pos_as_xyz
  1  'x, y, z'
loop_
 _atom_site_type_symbol
 _atom_site_label
 _atom_site_symmetry_multiplicity
 _atom_site_fract_x
 _atom_site_fract_y
 _atom_site_fract_z
 _atom_site_occupancy
  Sm  Sm0  1  0.166852  0.166863  0.166839  1
  Sm  Sm1  1  0.833157  0.833134  0.833155  1
  Ga  Ga2  1  0.048775  0.048819  0.048813  1
  Ga  Ga3  1  0.702439  0.500001  0.297559  1
  Ga  Ga4  1  0.666187  0.333866  0.999943  1
  Ga  Ga5  1  0.107716  0.437508  0.767134  1
  Ga  Ga6  1  0.437515  0.767157  0.107703  1
  Ga  Ga7  1  0.383973  0.383923  0.383956  1
  Ga  Ga8  1  0.333631  0.999969  0.666395  1
  Ga  Ga9  1  0.616060  0.616071  0.616018  1
  Ga  Ga10  1  0.232865  0.562491  0.892295  1
  Ga  Ga11  1  0.562489  0.892272  0.232841  1
  Ga  Ga12  1  0.499983  0.297556  0.702463  1
  Ga  Ga13  1  0.767170  0.107724  0.437508  1
  Ga  Ga14  1  0.951169  0.951200  0.951224  1
  Ga  Ga15  1  0.297537  0.702447  0.500015  1
  Ga  Ga16  1  0.000093  0.666193  0.333723  1
  Ga  Ga17  1  0.714770  0.714783  0.714727  1
  Ga  Ga18  1  0.285258  0.285207  0.285253  1
  Ga  Ga19  1  0.892287  0.232835  0.562490  1
  Pt  Pt20  1  0.240952  0.921634  0.581665  1
  Pt  Pt21  1  0.921637  0.581659  0.240949  1
  Pt  Pt22  1  0.759064  0.418330  0.078361  1
  Pt  Pt23  1  0.078374  0.759075  0.418300  1
  Pt  Pt24  1  0.418350  0.078364  0.759040  1
  Pt  Pt25  1  0.581697  0.240919  0.921632  1
