# generated using pymatgen
data_Nd4Mg3Au10
_symmetry_space_group_name_H-M   'P 1'
_cell_length_a   8.70466579
_cell_length_b   8.70466464
_cell_length_c   10.33751100
_cell_angle_alpha   90.00000000
_cell_angle_beta   90.00000000
_cell_angle_gamma   108.22449191
_symmetry_Int_Tables_number   1
_chemical_formula_structural   Nd4Mg3Au10
_chemical_formula_sum   'Nd8 Mg6 Au20'
_cell_volume   743.99476087
_cell_formula_units_Z   2
loop_
 _symmetry_equiv_pos_site_id
 _symmetry_equiv_pos_as_xyz
  1  'x, y, z'
loop_
 _atom_site_type_symbol
 _atom_site_label
 _atom_site_symmetry_multiplicity
 _atom_site_fract_x
 _atom_site_fract_y
 _atom_site_fract_z
 _atom_site_occupancy
  Nd  Nd0  1  0.699779  0.300221  0.000000  1
  Nd  Nd1  1  0.300221  0.699779  0.000000  1
  Nd  Nd2  1  0.800221  0.199779  0.500000  1
  Nd  Nd3  1  0.199779  0.800221  0.500000  1
  Nd  Nd4  1  0.303084  0.303084  0.202760  1
  Nd  Nd5  1  0.696916  0.696916  0.797240  1
  Nd  Nd6  1  0.196916  0.196916  0.702760  1
  Nd  Nd7  1  0.803084  0.803084  0.297240  1
  Mg  Mg8  1  0.013877  0.513877  0.250000  1
  Mg  Mg9  1  0.986123  0.486123  0.750000  1
  Mg  Mg10  1  0.486123  0.986123  0.750000  1
  Mg  Mg11  1  0.513877  0.013877  0.250000  1
  Mg  Mg12  1  0.000000  0.000000  0.000000  1
  Mg  Mg13  1  0.500000  0.500000  0.500000  1
  Au  Au14  1  0.097806  0.097806  0.404537  1
  Au  Au15  1  0.902194  0.902194  0.595463  1
  Au  Au16  1  0.402194  0.402194  0.904537  1
  Au  Au17  1  0.597806  0.597806  0.095463  1
  Au  Au18  1  0.883946  0.166359  0.206643  1
  Au  Au19  1  0.116054  0.833641  0.793357  1
  Au  Au20  1  0.616054  0.333641  0.706643  1
  Au  Au21  1  0.666359  0.383946  0.293357  1
  Au  Au22  1  0.383946  0.666359  0.293357  1
  Au  Au23  1  0.333641  0.616054  0.706643  1
  Au  Au24  1  0.833641  0.116054  0.793357  1
  Au  Au25  1  0.166359  0.883946  0.206643  1
  Au  Au26  1  0.934828  0.657084  0.021348  1
  Au  Au27  1  0.065172  0.342916  0.978652  1
  Au  Au28  1  0.565172  0.842916  0.521348  1
  Au  Au29  1  0.157084  0.434828  0.478652  1
  Au  Au30  1  0.434828  0.157084  0.478652  1
  Au  Au31  1  0.842916  0.565172  0.521348  1
  Au  Au32  1  0.342916  0.065172  0.978652  1
  Au  Au33  1  0.657084  0.934828  0.021348  1
