# generated using pymatgen
data_U2TcWC4
_symmetry_space_group_name_H-M   'P 1'
_cell_length_a   3.19278600
_cell_length_b   5.63276100
_cell_length_c   11.05994300
_cell_angle_alpha   90.00000000
_cell_angle_beta   90.00000000
_cell_angle_gamma   90.00000000
_symmetry_Int_Tables_number   1
_chemical_formula_structural   U2TcWC4
_chemical_formula_sum   'U4 Tc2 W2 C8'
_cell_volume   198.90423201
_cell_formula_units_Z   2
loop_
 _symmetry_equiv_pos_site_id
 _symmetry_equiv_pos_as_xyz
  1  'x, y, z'
loop_
 _atom_site_type_symbol
 _atom_site_label
 _atom_site_symmetry_multiplicity
 _atom_site_fract_x
 _atom_site_fract_y
 _atom_site_fract_z
 _atom_site_occupancy
  U  U0  1  0.250000  0.078508  0.856402  1
  U  U1  1  0.250000  0.578508  0.643598  1
  U  U2  1  0.750000  0.918694  0.140350  1
  U  U3  1  0.750000  0.418694  0.359650  1
  Tc  Tc4  1  0.750000  0.577416  0.898658  1
  Tc  Tc5  1  0.750000  0.077416  0.601342  1
  W  W6  1  0.250000  0.421449  0.101699  1
  W  W7  1  0.250000  0.921449  0.398301  1
  C  C8  1  0.250000  0.165261  0.243113  1
  C  C9  1  0.250000  0.665261  0.256887  1
  C  C10  1  0.750000  0.839352  0.754699  1
  C  C11  1  0.750000  0.339352  0.745301  1
  C  C12  1  0.250000  0.746970  0.992872  1
  C  C13  1  0.250000  0.246970  0.507128  1
  C  C14  1  0.750000  0.252350  0.006680  1
  C  C15  1  0.750000  0.752350  0.493320  1
