# generated using pymatgen
data_NbAl7(IrRu)4
_symmetry_space_group_name_H-M   'P 1'
_cell_length_a   6.08041000
_cell_length_b   4.28784600
_cell_length_c   8.58408300
_cell_angle_alpha   90.00000000
_cell_angle_beta   89.99962465
_cell_angle_gamma   90.00000000
_symmetry_Int_Tables_number   1
_chemical_formula_structural   NbAl7(IrRu)4
_chemical_formula_sum   'Nb1 Al7 Ir4 Ru4'
_cell_volume   223.80302477
_cell_formula_units_Z   1
loop_
 _symmetry_equiv_pos_site_id
 _symmetry_equiv_pos_as_xyz
  1  'x, y, z'
loop_
 _atom_site_type_symbol
 _atom_site_label
 _atom_site_symmetry_multiplicity
 _atom_site_fract_x
 _atom_site_fract_y
 _atom_site_fract_z
 _atom_site_occupancy
  Nb  Nb0  1  0.998898  0.749999  0.124997  1
  Al  Al1  1  0.499361  0.749999  0.125012  1
  Al  Al2  1  0.000216  0.250001  0.379390  1
  Al  Al3  1  0.499971  0.250001  0.378810  1
  Al  Al4  1  0.500061  0.749999  0.624988  1
  Al  Al5  1  0.000794  0.749999  0.624997  1
  Al  Al6  1  0.499962  0.250001  0.871185  1
  Al  Al7  1  0.000228  0.250001  0.870605  1
  Ir  Ir8  1  0.740656  0.250001  0.124997  1
  Ir  Ir9  1  0.254141  0.749999  0.377818  1
  Ir  Ir10  1  0.750606  0.250001  0.625009  1
  Ir  Ir11  1  0.254159  0.749999  0.872184  1
  Ru  Ru12  1  0.255225  0.250001  0.124998  1
  Ru  Ru13  1  0.747015  0.749999  0.376907  1
  Ru  Ru14  1  0.251683  0.250001  0.625000  1
  Ru  Ru15  1  0.747021  0.749999  0.873101  1
