# generated using pymatgen
data_U2Si2P5Ru12
_symmetry_space_group_name_H-M   'P 1'
_cell_length_a   9.50354593
_cell_length_b   9.47866034
_cell_length_c   3.89673200
_cell_angle_alpha   90.00000000
_cell_angle_beta   90.00000000
_cell_angle_gamma   119.70205492
_symmetry_Int_Tables_number   1
_chemical_formula_structural   U2Si2P5Ru12
_chemical_formula_sum   'U2 Si2 P5 Ru12'
_cell_volume   304.90171967
_cell_formula_units_Z   1
loop_
 _symmetry_equiv_pos_site_id
 _symmetry_equiv_pos_as_xyz
  1  'x, y, z'
loop_
 _atom_site_type_symbol
 _atom_site_label
 _atom_site_symmetry_multiplicity
 _atom_site_fract_x
 _atom_site_fract_y
 _atom_site_fract_z
 _atom_site_occupancy
  U  U0  1  0.666234  0.335322  0.500000  1
  U  U1  1  0.332968  0.665617  0.000000  1
  Si  Si2  1  0.603102  0.712983  0.500000  1
  Si  Si3  1  0.000099  0.997352  0.000000  1
  P  P4  1  0.286965  0.888554  0.500000  1
  P  P5  1  0.111116  0.395050  0.500000  1
  P  P6  1  0.890777  0.589666  0.000000  1
  P  P7  1  0.412700  0.306324  0.000000  1
  P  P8  1  0.694986  0.110004  0.000000  1
  Ru  Ru9  1  0.552523  0.944726  0.500000  1
  Ru  Ru10  1  0.384969  0.440535  0.500000  1
  Ru  Ru11  1  0.902945  0.123749  0.500000  1
  Ru  Ru12  1  0.213278  0.090846  0.500000  1
  Ru  Ru13  1  0.884652  0.783006  0.500000  1
  Ru  Ru14  1  0.721171  0.883130  0.000000  1
  Ru  Ru15  1  0.124461  0.837703  0.000000  1
  Ru  Ru16  1  0.157656  0.279283  0.000000  1
  Ru  Ru17  1  0.436930  0.077625  0.000000  1
  Ru  Ru18  1  0.923464  0.363339  0.000000  1
  Ru  Ru19  1  0.637634  0.564684  0.000000  1
  Ru  Ru20  1  0.061371  0.610500  0.500000  1
