# generated using pymatgen
data_Hf7Ti(V3Ge4)4
_symmetry_space_group_name_H-M   'P 1'
_cell_length_a   6.58347861
_cell_length_b   6.72609583
_cell_length_c   12.76055319
_cell_angle_alpha   89.96496998
_cell_angle_beta   89.94343617
_cell_angle_gamma   89.92741867
_symmetry_Int_Tables_number   1
_chemical_formula_structural   Hf7Ti(V3Ge4)4
_chemical_formula_sum   'Hf7 Ti1 V12 Ge16'
_cell_volume   565.05060015
_cell_formula_units_Z   1
loop_
 _symmetry_equiv_pos_site_id
 _symmetry_equiv_pos_as_xyz
  1  'x, y, z'
loop_
 _atom_site_type_symbol
 _atom_site_label
 _atom_site_symmetry_multiplicity
 _atom_site_fract_x
 _atom_site_fract_y
 _atom_site_fract_z
 _atom_site_occupancy
  Hf  Hf0  1  0.488781  0.673445  0.091449  1
  Hf  Hf1  1  0.989450  0.826646  0.409087  1
  Hf  Hf2  1  0.512022  0.326692  0.591326  1
  Hf  Hf3  1  0.011596  0.173296  0.909892  1
  Hf  Hf4  1  0.510906  0.326668  0.910114  1
  Hf  Hf5  1  0.011156  0.173285  0.591325  1
  Hf  Hf6  1  0.487980  0.673893  0.406999  1
  Ti  Ti7  1  0.985939  0.825078  0.091256  1
  V  V8  1  0.340147  0.007841  0.249675  1
  V  V9  1  0.838827  0.490615  0.249910  1
  V  V10  1  0.661423  0.991607  0.750661  1
  V  V11  1  0.161076  0.508836  0.750200  1
  V  V12  1  0.662163  0.159443  0.124959  1
  V  V13  1  0.161491  0.341582  0.373627  1
  V  V14  1  0.337086  0.841423  0.625252  1
  V  V15  1  0.836616  0.658652  0.874723  1
  V  V16  1  0.338724  0.841598  0.874784  1
  V  V17  1  0.837669  0.658057  0.625581  1
  V  V18  1  0.664330  0.157704  0.374366  1
  V  V19  1  0.164026  0.341668  0.125047  1
  Ge  Ge20  1  0.696020  0.852221  0.248224  1
  Ge  Ge21  1  0.187663  0.651151  0.246814  1
  Ge  Ge22  1  0.308373  0.147915  0.750314  1
  Ge  Ge23  1  0.808537  0.352000  0.750772  1
  Ge  Ge24  1  0.681829  0.952408  0.959290  1
  Ge  Ge25  1  0.179091  0.546356  0.542590  1
  Ge  Ge26  1  0.322146  0.047150  0.456633  1
  Ge  Ge27  1  0.824208  0.457727  0.044154  1
  Ge  Ge28  1  0.314656  0.041438  0.044132  1
  Ge  Ge29  1  0.820857  0.453533  0.456854  1
  Ge  Ge30  1  0.678086  0.952839  0.543139  1
  Ge  Ge31  1  0.176396  0.550027  0.958340  1
  Ge  Ge32  1  0.468352  0.374854  0.250217  1
  Ge  Ge33  1  0.970298  0.122562  0.248107  1
  Ge  Ge34  1  0.530802  0.625084  0.750016  1
  Ge  Ge35  1  0.031275  0.874706  0.750169  1
