# generated using pymatgen
data_Sr2FeNi3P4
_symmetry_space_group_name_H-M   'P 1'
_cell_length_a   5.45071783
_cell_length_b   6.31009388
_cell_length_c   5.44770333
_cell_angle_alpha   64.27910209
_cell_angle_beta   90.01988381
_cell_angle_gamma   90.00282275
_symmetry_Int_Tables_number   1
_chemical_formula_structural   Sr2FeNi3P4
_chemical_formula_sum   'Sr2 Fe1 Ni3 P4'
_cell_volume   168.80627461
_cell_formula_units_Z   1
loop_
 _symmetry_equiv_pos_site_id
 _symmetry_equiv_pos_as_xyz
  1  'x, y, z'
loop_
 _atom_site_type_symbol
 _atom_site_label
 _atom_site_symmetry_multiplicity
 _atom_site_fract_x
 _atom_site_fract_y
 _atom_site_fract_z
 _atom_site_occupancy
  Sr  Sr0  1  0.997322  0.000024  0.000014  1
  Sr  Sr1  1  0.502662  0.000014  0.499922  1
  Fe  Fe2  1  0.250396  0.499336  0.500365  1
  Ni  Ni3  1  0.249515  0.498821  0.000599  1
  Ni  Ni4  1  0.750365  0.501224  0.999345  1
  Ni  Ni5  1  0.749657  0.500779  0.499679  1
  P  P6  1  0.494740  0.703536  0.151532  1
  P  P7  1  0.005351  0.702926  0.643740  1
  P  P8  1  0.003950  0.297047  0.356316  1
  P  P9  1  0.496042  0.296291  0.848491  1
