# generated using pymatgen
data_Nd5B2(Rh4Pb)3
_symmetry_space_group_name_H-M   'P 1'
_cell_length_a   5.93128300
_cell_length_b   5.93128296
_cell_length_c   13.99623600
_cell_angle_alpha   90.00000000
_cell_angle_beta   90.00000000
_cell_angle_gamma   119.99999463
_symmetry_Int_Tables_number   1
_chemical_formula_structural   Nd5B2(Rh4Pb)3
_chemical_formula_sum   'Nd5 B2 Rh12 Pb3'
_cell_volume   426.42160588
_cell_formula_units_Z   1
loop_
 _symmetry_equiv_pos_site_id
 _symmetry_equiv_pos_as_xyz
  1  'x, y, z'
loop_
 _atom_site_type_symbol
 _atom_site_label
 _atom_site_symmetry_multiplicity
 _atom_site_fract_x
 _atom_site_fract_y
 _atom_site_fract_z
 _atom_site_occupancy
  Nd  Nd0  1  0.000000  0.000000  0.750000  1
  Nd  Nd1  1  0.333333  0.666667  0.406435  1
  Nd  Nd2  1  0.666667  0.333333  0.910438  1
  Nd  Nd3  1  0.666667  0.333333  0.589562  1
  Nd  Nd4  1  0.333333  0.666667  0.093565  1
  B  B5  1  0.000000  0.000000  0.499248  1
  B  B6  1  0.000000  0.000000  0.000752  1
  Rh  Rh7  1  0.338724  0.169363  0.411147  1
  Rh  Rh8  1  0.830637  0.169363  0.411147  1
  Rh  Rh9  1  0.830637  0.661276  0.411147  1
  Rh  Rh10  1  0.171664  0.343326  0.917635  1
  Rh  Rh11  1  0.656674  0.828336  0.582365  1
  Rh  Rh12  1  0.656674  0.828336  0.917635  1
  Rh  Rh13  1  0.338724  0.169363  0.088853  1
  Rh  Rh14  1  0.171664  0.343326  0.582365  1
  Rh  Rh15  1  0.171664  0.828336  0.582365  1
  Rh  Rh16  1  0.830637  0.169363  0.088853  1
  Rh  Rh17  1  0.830637  0.661276  0.088853  1
  Rh  Rh18  1  0.171664  0.828336  0.917635  1
  Pb  Pb19  1  0.000000  0.000000  0.250000  1
  Pb  Pb20  1  0.333333  0.666667  0.750000  1
  Pb  Pb21  1  0.666667  0.333333  0.250000  1
