# generated using pymatgen
data_LaEr19(CoBi5)2
_symmetry_space_group_name_H-M   'P 1'
_cell_length_a   8.02107771
_cell_length_b   9.37061800
_cell_length_c   12.09299757
_cell_angle_alpha   90.00000000
_cell_angle_beta   90.33589167
_cell_angle_gamma   90.00000000
_symmetry_Int_Tables_number   1
_chemical_formula_structural   LaEr19(CoBi5)2
_chemical_formula_sum   'La1 Er19 Co2 Bi10'
_cell_volume   908.92376884
_cell_formula_units_Z   1
loop_
 _symmetry_equiv_pos_site_id
 _symmetry_equiv_pos_as_xyz
  1  'x, y, z'
loop_
 _atom_site_type_symbol
 _atom_site_label
 _atom_site_symmetry_multiplicity
 _atom_site_fract_x
 _atom_site_fract_y
 _atom_site_fract_z
 _atom_site_occupancy
  La  La0  1  0.577594  0.500000  0.774943  1
  Er  Er1  1  0.432704  0.176774  0.562700  1
  Er  Er2  1  0.567222  0.822864  0.062614  1
  Er  Er3  1  0.073700  0.731389  0.435768  1
  Er  Er4  1  0.924729  0.269296  0.936729  1
  Er  Er5  1  0.073700  0.268611  0.435768  1
  Er  Er6  1  0.924729  0.730704  0.936729  1
  Er  Er7  1  0.432704  0.823226  0.562700  1
  Er  Er8  1  0.567222  0.177136  0.062614  1
  Er  Er9  1  0.427618  0.500000  0.272276  1
  Er  Er10  1  0.905287  0.000000  0.201000  1
  Er  Er11  1  0.095692  0.000000  0.697845  1
  Er  Er12  1  0.256227  0.500000  0.993601  1
  Er  Er13  1  0.744036  0.500000  0.493030  1
  Er  Er14  1  0.192582  0.000000  0.997321  1
  Er  Er15  1  0.803314  0.000000  0.493555  1
  Er  Er16  1  0.089317  0.500000  0.717266  1
  Er  Er17  1  0.912301  0.500000  0.222004  1
  Er  Er18  1  0.370897  0.000000  0.308720  1
  Er  Er19  1  0.630946  0.000000  0.808849  1
  Co  Co20  1  0.177861  0.000000  0.487408  1
  Co  Co21  1  0.823094  0.000000  0.990347  1
  Bi  Bi22  1  0.821478  0.746943  0.667925  1
  Bi  Bi23  1  0.185010  0.258795  0.171857  1
  Bi  Bi24  1  0.679056  0.241810  0.325299  1
  Bi  Bi25  1  0.313948  0.761985  0.826651  1
  Bi  Bi26  1  0.679056  0.758190  0.325299  1
  Bi  Bi27  1  0.313948  0.238015  0.826651  1
  Bi  Bi28  1  0.821478  0.253057  0.667925  1
  Bi  Bi29  1  0.185010  0.741205  0.171857  1
  Bi  Bi30  1  0.345392  0.500000  0.525334  1
  Bi  Bi31  1  0.652152  0.500000  0.037419  1
