# generated using pymatgen
data_Sm3C2Br3
_symmetry_space_group_name_H-M   'P 1'
_cell_length_a   10.15743400
_cell_length_b   10.15743490
_cell_length_c   16.84735900
_cell_angle_alpha   90.00000000
_cell_angle_beta   90.00000000
_cell_angle_gamma   112.23592420
_symmetry_Int_Tables_number   1
_chemical_formula_structural   Sm3C2Br3
_chemical_formula_sum   'Sm24 C16 Br24'
_cell_volume   1608.93667058
_cell_formula_units_Z   8
loop_
 _symmetry_equiv_pos_site_id
 _symmetry_equiv_pos_as_xyz
  1  'x, y, z'
loop_
 _atom_site_type_symbol
 _atom_site_label
 _atom_site_symmetry_multiplicity
 _atom_site_fract_x
 _atom_site_fract_y
 _atom_site_fract_z
 _atom_site_occupancy
  Sm  Sm0  1  0.975208  0.483938  0.623468  1
  Sm  Sm1  1  0.024792  0.516062  0.123468  1
  Sm  Sm2  1  0.516062  0.024792  0.876532  1
  Sm  Sm3  1  0.483938  0.975208  0.376532  1
  Sm  Sm4  1  0.874394  0.125606  0.750000  1
  Sm  Sm5  1  0.125606  0.874394  0.250000  1
  Sm  Sm6  1  0.889307  0.179583  0.519629  1
  Sm  Sm7  1  0.110693  0.820417  0.019629  1
  Sm  Sm8  1  0.820417  0.110693  0.980371  1
  Sm  Sm9  1  0.179583  0.889307  0.480371  1
  Sm  Sm10  1  0.245323  0.276705  0.602171  1
  Sm  Sm11  1  0.754677  0.723295  0.102171  1
  Sm  Sm12  1  0.723295  0.754677  0.897829  1
  Sm  Sm13  1  0.276705  0.245323  0.397829  1
  Sm  Sm14  1  0.946601  0.485575  0.898170  1
  Sm  Sm15  1  0.053399  0.514425  0.398170  1
  Sm  Sm16  1  0.514425  0.053399  0.601830  1
  Sm  Sm17  1  0.485575  0.946601  0.101830  1
  Sm  Sm18  1  0.354867  0.612948  0.503514  1
  Sm  Sm19  1  0.645133  0.387052  0.003514  1
  Sm  Sm20  1  0.387052  0.645133  0.996486  1
  Sm  Sm21  1  0.612948  0.354867  0.496486  1
  Sm  Sm22  1  0.670152  0.329848  0.750000  1
  Sm  Sm23  1  0.329848  0.670152  0.250000  1
  C  C24  1  0.836268  0.641105  0.975119  1
  C  C25  1  0.163732  0.358895  0.475119  1
  C  C26  1  0.358895  0.163732  0.524881  1
  C  C27  1  0.641105  0.836268  0.024881  1
  C  C28  1  0.786729  0.224709  0.650521  1
  C  C29  1  0.213271  0.775291  0.150521  1
  C  C30  1  0.775291  0.213271  0.849479  1
  C  C31  1  0.224709  0.786729  0.349479  1
  C  C32  1  0.725037  0.283529  0.593397  1
  C  C33  1  0.274963  0.716471  0.093397  1
  C  C34  1  0.716471  0.274963  0.906603  1
  C  C35  1  0.283529  0.725037  0.406603  1
  C  C36  1  0.098536  0.413161  0.532697  1
  C  C37  1  0.901464  0.586839  0.032697  1
  C  C38  1  0.586839  0.901464  0.967303  1
  C  C39  1  0.413161  0.098536  0.467303  1
  Br  Br40  1  0.255200  0.769837  0.627987  1
  Br  Br41  1  0.744800  0.230163  0.127987  1
  Br  Br42  1  0.230163  0.744800  0.872013  1
  Br  Br43  1  0.769837  0.255200  0.372013  1
  Br  Br44  1  0.519279  0.514303  0.628083  1
  Br  Br45  1  0.480721  0.485697  0.128083  1
  Br  Br46  1  0.485697  0.480721  0.871917  1
  Br  Br47  1  0.514303  0.519279  0.371917  1
  Br  Br48  1  0.114946  0.358291  0.996660  1
  Br  Br49  1  0.885054  0.641709  0.496660  1
  Br  Br50  1  0.641709  0.885054  0.503340  1
  Br  Br51  1  0.358291  0.114946  0.003340  1
  Br  Br52  1  0.132512  0.396672  0.756776  1
  Br  Br53  1  0.867488  0.603328  0.256776  1
  Br  Br54  1  0.603328  0.867488  0.743224  1
  Br  Br55  1  0.396672  0.132512  0.243224  1
  Br  Br56  1  0.868752  0.627631  0.758199  1
  Br  Br57  1  0.131248  0.372369  0.258199  1
  Br  Br58  1  0.372369  0.131248  0.741801  1
  Br  Br59  1  0.627631  0.868752  0.241801  1
  Br  Br60  1  0.994551  0.002015  0.116278  1
  Br  Br61  1  0.005449  0.997985  0.616278  1
  Br  Br62  1  0.997985  0.005449  0.383722  1
  Br  Br63  1  0.002015  0.994551  0.883722  1
