# generated using pymatgen
data_Ni10SbP7
_symmetry_space_group_name_H-M   'P 1'
_cell_length_a   6.86490300
_cell_length_b   6.86490241
_cell_length_c   11.20350900
_cell_angle_alpha   90.00000000
_cell_angle_beta   90.00000000
_cell_angle_gamma   119.99999802
_symmetry_Int_Tables_number   1
_chemical_formula_structural   Ni10SbP7
_chemical_formula_sum   'Ni20 Sb2 P14'
_cell_volume   457.24975411
_cell_formula_units_Z   2
loop_
 _symmetry_equiv_pos_site_id
 _symmetry_equiv_pos_as_xyz
  1  'x, y, z'
loop_
 _atom_site_type_symbol
 _atom_site_label
 _atom_site_symmetry_multiplicity
 _atom_site_fract_x
 _atom_site_fract_y
 _atom_site_fract_z
 _atom_site_occupancy
  Ni  Ni0  1  0.927521  0.463760  0.373412  1
  Ni  Ni1  1  0.463760  0.536240  0.873412  1
  Ni  Ni2  1  0.000000  0.000000  0.197771  1
  Ni  Ni3  1  0.000000  0.000000  0.697771  1
  Ni  Ni4  1  0.536240  0.072479  0.373412  1
  Ni  Ni5  1  0.463760  0.927521  0.873412  1
  Ni  Ni6  1  0.072479  0.536240  0.873412  1
  Ni  Ni7  1  0.536240  0.463760  0.373412  1
  Ni  Ni8  1  0.796691  0.203309  0.744472  1
  Ni  Ni9  1  0.593381  0.796691  0.244472  1
  Ni  Ni10  1  0.203309  0.406619  0.244472  1
  Ni  Ni11  1  0.796691  0.593381  0.744472  1
  Ni  Ni12  1  0.406619  0.203309  0.744472  1
  Ni  Ni13  1  0.203309  0.796691  0.244472  1
  Ni  Ni14  1  0.455497  0.544503  0.588987  1
  Ni  Ni15  1  0.910995  0.455497  0.088987  1
  Ni  Ni16  1  0.544503  0.089005  0.088987  1
  Ni  Ni17  1  0.455497  0.910995  0.588987  1
  Ni  Ni18  1  0.089005  0.544503  0.588987  1
  Ni  Ni19  1  0.544503  0.455497  0.088987  1
  Sb  Sb20  1  0.666667  0.333333  0.556116  1
  Sb  Sb21  1  0.333333  0.666667  0.056116  1
  P  P22  1  0.000000  0.000000  0.501374  1
  P  P23  1  0.000000  0.000000  0.001374  1
  P  P24  1  0.821192  0.178808  0.943634  1
  P  P25  1  0.642381  0.821192  0.443634  1
  P  P26  1  0.178808  0.357619  0.443634  1
  P  P27  1  0.821192  0.642381  0.943634  1
  P  P28  1  0.357619  0.178808  0.943634  1
  P  P29  1  0.178808  0.821192  0.443634  1
  P  P30  1  0.180726  0.819274  0.730966  1
  P  P31  1  0.361454  0.180726  0.230966  1
  P  P32  1  0.819274  0.638546  0.230966  1
  P  P33  1  0.180726  0.361454  0.730966  1
  P  P34  1  0.638546  0.819274  0.730966  1
  P  P35  1  0.819274  0.180726  0.230966  1
