# generated using pymatgen
data_Nd4B4SbIr9
_symmetry_space_group_name_H-M   'P 1'
_cell_length_a   10.98745952
_cell_length_b   10.98745903
_cell_length_c   10.98745889
_cell_angle_alpha   29.69539054
_cell_angle_beta   29.69539392
_cell_angle_gamma   29.69539296
_symmetry_Int_Tables_number   1
_chemical_formula_structural   Nd4B4SbIr9
_chemical_formula_sum   'Nd4 B4 Sb1 Ir9'
_cell_volume   288.21452967
_cell_formula_units_Z   1
loop_
 _symmetry_equiv_pos_site_id
 _symmetry_equiv_pos_as_xyz
  1  'x, y, z'
loop_
 _atom_site_type_symbol
 _atom_site_label
 _atom_site_symmetry_multiplicity
 _atom_site_fract_x
 _atom_site_fract_y
 _atom_site_fract_z
 _atom_site_occupancy
  Nd  Nd0  1  0.147930  0.147930  0.147930  1
  Nd  Nd1  1  0.950812  0.950812  0.950812  1
  Nd  Nd2  1  0.852070  0.852070  0.852070  1
  Nd  Nd3  1  0.049188  0.049188  0.049188  1
  B  B4  1  0.616831  0.616831  0.616831  1
  B  B5  1  0.716831  0.716831  0.716831  1
  B  B6  1  0.383169  0.383169  0.383169  1
  B  B7  1  0.283169  0.283169  0.283169  1
  Sb  Sb8  1  0.500000  0.500000  0.500000  1
  Ir  Ir9  1  0.404278  0.906636  0.404278  1
  Ir  Ir10  1  0.906636  0.404278  0.404278  1
  Ir  Ir11  1  0.500000  0.500000  0.000000  1
  Ir  Ir12  1  0.500000  0.000000  0.500000  1
  Ir  Ir13  1  0.000000  0.500000  0.500000  1
  Ir  Ir14  1  0.595722  0.093364  0.595722  1
  Ir  Ir15  1  0.595722  0.595722  0.093364  1
  Ir  Ir16  1  0.093364  0.595722  0.595722  1
  Ir  Ir17  1  0.404278  0.404278  0.906636  1
