# generated using pymatgen
data_MoIr5W2
_symmetry_space_group_name_H-M   'P 1'
_cell_length_a   5.58584336
_cell_length_b   5.55498651
_cell_length_c   4.44281300
_cell_angle_alpha   90.00000000
_cell_angle_beta   90.00000000
_cell_angle_gamma   119.81743856
_symmetry_Int_Tables_number   1
_chemical_formula_structural   MoIr5W2
_chemical_formula_sum   'Mo1 Ir5 W2'
_cell_volume   119.60695204
_cell_formula_units_Z   1
loop_
 _symmetry_equiv_pos_site_id
 _symmetry_equiv_pos_as_xyz
  1  'x, y, z'
loop_
 _atom_site_type_symbol
 _atom_site_label
 _atom_site_symmetry_multiplicity
 _atom_site_fract_x
 _atom_site_fract_y
 _atom_site_fract_z
 _atom_site_occupancy
  Mo  Mo0  1  0.668793  0.834397  0.750000  1
  Ir  Ir1  1  0.330134  0.165067  0.250000  1
  Ir  Ir2  1  0.833640  0.169241  0.250000  1
  Ir  Ir3  1  0.170987  0.332231  0.750000  1
  Ir  Ir4  1  0.170987  0.838756  0.750000  1
  Ir  Ir5  1  0.833640  0.664398  0.250000  1
  W  W6  1  0.663393  0.331696  0.750000  1
  W  W7  1  0.328425  0.664213  0.250000  1
