# generated using pymatgen
data_Er8In2NiIr
_symmetry_space_group_name_H-M   'P 1'
_cell_length_a   9.52280696
_cell_length_b   9.54040368
_cell_length_c   9.54042700
_cell_angle_alpha   60.33154418
_cell_angle_beta   60.06043961
_cell_angle_gamma   60.05894824
_symmetry_Int_Tables_number   1
_chemical_formula_structural   Er8In2NiIr
_chemical_formula_sum   'Er16 In4 Ni2 Ir2'
_cell_volume   614.97033556
_cell_formula_units_Z   2
loop_
 _symmetry_equiv_pos_site_id
 _symmetry_equiv_pos_as_xyz
  1  'x, y, z'
loop_
 _atom_site_type_symbol
 _atom_site_label
 _atom_site_symmetry_multiplicity
 _atom_site_fract_x
 _atom_site_fract_y
 _atom_site_fract_z
 _atom_site_occupancy
  Er  Er0  1  0.061027  0.060996  0.435506  1
  Er  Er1  1  0.649562  0.047851  0.653005  1
  Er  Er2  1  0.190987  0.808480  0.188111  1
  Er  Er3  1  0.442534  0.061002  0.435493  1
  Er  Er4  1  0.190974  0.188137  0.808465  1
  Er  Er5  1  0.650867  0.652499  0.652491  1
  Er  Er6  1  0.044095  0.652612  0.652602  1
  Er  Er7  1  0.438174  0.061850  0.061833  1
  Er  Er8  1  0.649550  0.653005  0.047874  1
  Er  Er9  1  0.190050  0.809958  0.809901  1
  Er  Er10  1  0.812657  0.187884  0.808684  1
  Er  Er11  1  0.809522  0.190517  0.190504  1
  Er  Er12  1  0.812679  0.808688  0.187868  1
  Er  Er13  1  0.060960  0.439080  0.439067  1
  Er  Er14  1  0.442535  0.435529  0.060990  1
  Er  Er15  1  0.061010  0.435534  0.060999  1
  In  In16  1  0.748527  0.417400  0.417362  1
  In  In17  1  0.416850  0.417383  0.749118  1
  In  In18  1  0.416806  0.748970  0.417498  1
  In  In19  1  0.416483  0.417562  0.417572  1
  Ni  Ni20  1  0.854888  0.859829  0.859846  1
  Ni  Ni21  1  0.424582  0.859722  0.859721  1
  Ir  Ir22  1  0.857359  0.860230  0.425258  1
  Ir  Ir23  1  0.857327  0.425282  0.860234  1
