# generated using pymatgen
data_Tb8Lu2Ga3NiBi2
_symmetry_space_group_name_H-M   'P 1'
_cell_length_a   8.56270479
_cell_length_b   8.56270564
_cell_length_c   8.75227052
_cell_angle_alpha   124.37556231
_cell_angle_beta   124.37556606
_cell_angle_gamma   81.12787543
_symmetry_Int_Tables_number   1
_chemical_formula_structural   Tb8Lu2Ga3NiBi2
_chemical_formula_sum   'Tb8 Lu2 Ga3 Ni1 Bi2'
_cell_volume   424.19631628
_cell_formula_units_Z   1
loop_
 _symmetry_equiv_pos_site_id
 _symmetry_equiv_pos_as_xyz
  1  'x, y, z'
loop_
 _atom_site_type_symbol
 _atom_site_label
 _atom_site_symmetry_multiplicity
 _atom_site_fract_x
 _atom_site_fract_y
 _atom_site_fract_z
 _atom_site_occupancy
  Tb  Tb0  1  0.780658  0.296836  0.796612  1
  Tb  Tb1  1  0.203164  0.719342  0.203388  1
  Tb  Tb2  1  0.484046  0.000224  0.203388  1
  Tb  Tb3  1  0.303154  0.459661  0.500000  1
  Tb  Tb4  1  0.040339  0.196846  0.500000  1
  Tb  Tb5  1  0.499776  0.015954  0.796612  1
  Tb  Tb6  1  0.705954  0.516481  0.500000  1
  Tb  Tb7  1  0.983519  0.794046  0.500000  1
  Lu  Lu8  1  0.994584  0.997466  0.992052  1
  Lu  Lu9  1  0.502534  0.505416  0.007948  1
  Ga  Ga10  1  0.149406  0.646621  0.796026  1
  Ga  Ga11  1  0.853379  0.350594  0.203974  1
  Ga  Ga12  1  0.635076  0.864924  0.500000  1
  Ni  Ni13  1  0.375350  0.124650  0.500000  1
  Bi  Bi14  1  0.244529  0.255471  0.000000  1
  Bi  Bi15  1  0.744529  0.755471  0.000000  1
