# generated using pymatgen
data_Th4ICl15
_symmetry_space_group_name_H-M   'P 1'
_cell_length_a   7.45821846
_cell_length_b   7.55448179
_cell_length_c   12.76695387
_cell_angle_alpha   68.45910945
_cell_angle_beta   89.29578269
_cell_angle_gamma   90.43311249
_symmetry_Int_Tables_number   1
_chemical_formula_structural   Th4ICl15
_chemical_formula_sum   'Th4 I1 Cl15'
_cell_volume   668.98035214
_cell_formula_units_Z   1
loop_
 _symmetry_equiv_pos_site_id
 _symmetry_equiv_pos_as_xyz
  1  'x, y, z'
loop_
 _atom_site_type_symbol
 _atom_site_label
 _atom_site_symmetry_multiplicity
 _atom_site_fract_x
 _atom_site_fract_y
 _atom_site_fract_z
 _atom_site_occupancy
  Th  Th0  1  0.507825  0.005803  0.317972  1
  Th  Th1  1  0.002842  0.000905  0.175878  1
  Th  Th2  1  0.498076  0.001273  0.681135  1
  Th  Th3  1  0.994658  0.005221  0.817944  1
  I  I4  1  0.168945  0.738951  0.414114  1
  Cl  Cl5  1  0.848708  0.130818  0.342768  1
  Cl  Cl6  1  0.344233  0.889198  0.146476  1
  Cl  Cl7  1  0.158578  0.865004  0.659593  1
  Cl  Cl8  1  0.656646  0.140247  0.841735  1
  Cl  Cl9  1  0.066260  0.231683  0.946737  1
  Cl  Cl10  1  0.582206  0.784159  0.550554  1
  Cl  Cl11  1  0.929605  0.776066  0.048043  1
  Cl  Cl12  1  0.434155  0.225373  0.451062  1
  Cl  Cl13  1  0.750093  0.730223  0.806811  1
  Cl  Cl14  1  0.256462  0.275706  0.694644  1
  Cl  Cl15  1  0.242531  0.268164  0.203776  1
  Cl  Cl16  1  0.730841  0.730922  0.296633  1
  Cl  Cl17  1  0.319255  0.824178  0.894095  1
  Cl  Cl18  1  0.826653  0.183204  0.605072  1
  Cl  Cl19  1  0.681428  0.192902  0.104960  1
