# generated using pymatgen
data_DyLu3Ru7W
_symmetry_space_group_name_H-M   'P 1'
_cell_length_a   5.45374400
_cell_length_b   5.16834300
_cell_length_c   8.95039333
_cell_angle_alpha   89.97339918
_cell_angle_beta   90.00000000
_cell_angle_gamma   121.84414717
_symmetry_Int_Tables_number   1
_chemical_formula_structural   DyLu3Ru7W
_chemical_formula_sum   'Dy1 Lu3 Ru7 W1'
_cell_volume   214.31105316
_cell_formula_units_Z   1
loop_
 _symmetry_equiv_pos_site_id
 _symmetry_equiv_pos_as_xyz
  1  'x, y, z'
loop_
 _atom_site_type_symbol
 _atom_site_label
 _atom_site_symmetry_multiplicity
 _atom_site_fract_x
 _atom_site_fract_y
 _atom_site_fract_z
 _atom_site_occupancy
  Dy  Dy0  1  0.335721  0.671444  0.432348  1
  Lu  Lu1  1  0.673568  0.347135  0.563933  1
  Lu  Lu2  1  0.673457  0.346913  0.936964  1
  Lu  Lu3  1  0.334921  0.669844  0.067438  1
  Ru  Ru4  1  0.169641  0.818752  0.751069  1
  Ru  Ru5  1  0.331652  0.163143  0.248505  1
  Ru  Ru6  1  0.820606  0.641209  0.248800  1
  Ru  Ru7  1  0.649112  0.818752  0.751069  1
  Ru  Ru8  1  0.009718  0.019437  0.001646  1
  Ru  Ru9  1  0.831492  0.163143  0.248505  1
  Ru  Ru10  1  0.009203  0.018407  0.498665  1
  W  W11  1  0.160910  0.321820  0.751057  1
