# generated using pymatgen
data_CaTb15(DyIr3)4
_symmetry_space_group_name_H-M   'P 1'
_cell_length_a   10.92118260
_cell_length_b   10.94886995
_cell_length_c   6.40799835
_cell_angle_alpha   90.00933624
_cell_angle_beta   90.21648098
_cell_angle_gamma   89.91621988
_symmetry_Int_Tables_number   1
_chemical_formula_structural   CaTb15(DyIr3)4
_chemical_formula_sum   'Ca1 Tb15 Dy4 Ir12'
_cell_volume   766.22759267
_cell_formula_units_Z   1
loop_
 _symmetry_equiv_pos_site_id
 _symmetry_equiv_pos_as_xyz
  1  'x, y, z'
loop_
 _atom_site_type_symbol
 _atom_site_label
 _atom_site_symmetry_multiplicity
 _atom_site_fract_x
 _atom_site_fract_y
 _atom_site_fract_z
 _atom_site_occupancy
  Ca  Ca0  1  0.288815  0.089264  0.376611  1
  Tb  Tb1  1  0.291452  0.911670  0.882748  1
  Tb  Tb2  1  0.709534  0.087193  0.879967  1
  Tb  Tb3  1  0.709623  0.912226  0.380761  1
  Tb  Tb4  1  0.589288  0.791204  0.879699  1
  Tb  Tb5  1  0.585785  0.208003  0.380613  1
  Tb  Tb6  1  0.410908  0.793604  0.380641  1
  Tb  Tb7  1  0.412465  0.208130  0.882268  1
  Tb  Tb8  1  0.208936  0.412221  0.621311  1
  Tb  Tb9  1  0.210019  0.587536  0.118695  1
  Tb  Tb10  1  0.790644  0.410975  0.120135  1
  Tb  Tb11  1  0.791449  0.587587  0.618881  1
  Tb  Tb12  1  0.912125  0.708351  0.119289  1
  Tb  Tb13  1  0.911398  0.290475  0.621764  1
  Tb  Tb14  1  0.087779  0.709040  0.620549  1
  Tb  Tb15  1  0.088105  0.292017  0.121561  1
  Dy  Dy16  1  0.002682  0.000180  0.500559  1
  Dy  Dy17  1  0.998996  0.999908  0.000571  1
  Dy  Dy18  1  0.500984  0.501123  0.997654  1
  Dy  Dy19  1  0.499594  0.501336  0.497581  1
  Ir  Ir20  1  0.847506  0.152753  0.252014  1
  Ir  Ir21  1  0.848821  0.846766  0.747642  1
  Ir  Ir22  1  0.150755  0.153744  0.759885  1
  Ir  Ir23  1  0.147969  0.840017  0.243909  1
  Ir  Ir24  1  0.651672  0.346336  0.749195  1
  Ir  Ir25  1  0.652717  0.653369  0.250827  1
  Ir  Ir26  1  0.347184  0.354569  0.244512  1
  Ir  Ir27  1  0.346884  0.654381  0.748253  1
  Ir  Ir28  1  0.503019  0.998673  0.121248  1
  Ir  Ir29  1  0.503260  0.998335  0.627349  1
  Ir  Ir30  1  0.999791  0.499556  0.876352  1
  Ir  Ir31  1  0.999838  0.499459  0.376955  1
