# generated using pymatgen
data_Dy2Si7(Ir3Rh)3
_symmetry_space_group_name_H-M   'P 1'
_cell_length_a   9.75273300
_cell_length_b   9.75273306
_cell_length_c   3.88405300
_cell_angle_alpha   90.00000000
_cell_angle_beta   90.00000000
_cell_angle_gamma   120.00000097
_symmetry_Int_Tables_number   1
_chemical_formula_structural   Dy2Si7(Ir3Rh)3
_chemical_formula_sum   'Dy2 Si7 Ir9 Rh3'
_cell_volume   319.93993102
_cell_formula_units_Z   1
loop_
 _symmetry_equiv_pos_site_id
 _symmetry_equiv_pos_as_xyz
  1  'x, y, z'
loop_
 _atom_site_type_symbol
 _atom_site_label
 _atom_site_symmetry_multiplicity
 _atom_site_fract_x
 _atom_site_fract_y
 _atom_site_fract_z
 _atom_site_occupancy
  Dy  Dy0  1  0.333333  0.666667  0.741998  1
  Dy  Dy1  1  0.666667  0.333333  0.240808  1
  Si  Si2  1  0.000000  0.000000  0.686824  1
  Si  Si3  1  0.405617  0.290237  0.741398  1
  Si  Si4  1  0.709763  0.115381  0.741398  1
  Si  Si5  1  0.884619  0.594383  0.741398  1
  Si  Si6  1  0.597171  0.710519  0.239924  1
  Si  Si7  1  0.289481  0.886650  0.239924  1
  Si  Si8  1  0.113350  0.402829  0.239924  1
  Ir  Ir9  1  0.442608  0.065440  0.740645  1
  Ir  Ir10  1  0.934560  0.377168  0.740645  1
  Ir  Ir11  1  0.622832  0.557392  0.740645  1
  Ir  Ir12  1  0.556671  0.940977  0.239903  1
  Ir  Ir13  1  0.059023  0.615694  0.239903  1
  Ir  Ir14  1  0.384306  0.443329  0.239903  1
  Ir  Ir15  1  0.152192  0.272832  0.738895  1
  Ir  Ir16  1  0.727168  0.879361  0.738895  1
  Ir  Ir17  1  0.120639  0.847808  0.738895  1
  Rh  Rh18  1  0.863119  0.753701  0.242691  1
  Rh  Rh19  1  0.246299  0.109417  0.242691  1
  Rh  Rh20  1  0.890583  0.136881  0.242691  1
