# generated using pymatgen
data_Tb5NdZn4IrPd12
_symmetry_space_group_name_H-M   'P 1'
_cell_length_a   8.27943139
_cell_length_b   8.27943089
_cell_length_c   8.27943107
_cell_angle_alpha   109.41289973
_cell_angle_beta   109.50037867
_cell_angle_gamma   109.50040069
_symmetry_Int_Tables_number   1
_chemical_formula_structural   Tb5NdZn4IrPd12
_chemical_formula_sum   'Tb5 Nd1 Zn4 Ir1 Pd12'
_cell_volume   436.89719447
_cell_formula_units_Z   1
loop_
 _symmetry_equiv_pos_site_id
 _symmetry_equiv_pos_as_xyz
  1  'x, y, z'
loop_
 _atom_site_type_symbol
 _atom_site_label
 _atom_site_symmetry_multiplicity
 _atom_site_fract_x
 _atom_site_fract_y
 _atom_site_fract_z
 _atom_site_occupancy
  Tb  Tb0  1  0.703508  0.704026  0.000518  1
  Tb  Tb1  1  0.296492  0.000518  0.297011  1
  Tb  Tb2  1  0.000000  0.296636  0.296636  1
  Tb  Tb3  1  0.296492  0.297011  0.000518  1
  Tb  Tb4  1  0.703508  0.000518  0.704026  1
  Nd  Nd5  1  0.000000  0.707016  0.707016  1
  Zn  Zn6  1  0.000000  0.999973  0.498325  1
  Zn  Zn7  1  0.000000  0.498325  0.999973  1
  Zn  Zn8  1  0.501648  0.999973  0.999973  1
  Zn  Zn9  1  0.498352  0.498325  0.498325  1
  Ir  Ir10  1  0.000000  0.005500  0.005500  1
  Pd  Pd11  1  0.334144  0.333928  0.668072  1
  Pd  Pd12  1  0.665856  0.999784  0.333928  1
  Pd  Pd13  1  0.000000  0.667108  0.330919  1
  Pd  Pd14  1  0.665856  0.333928  0.999784  1
  Pd  Pd15  1  0.334144  0.668072  0.333928  1
  Pd  Pd16  1  0.000000  0.330919  0.667108  1
  Pd  Pd17  1  0.335505  0.665103  0.000608  1
  Pd  Pd18  1  0.335505  0.000608  0.665103  1
  Pd  Pd19  1  0.663811  0.330919  0.330919  1
  Pd  Pd20  1  0.664495  0.665103  0.329598  1
  Pd  Pd21  1  0.664495  0.329598  0.665103  1
  Pd  Pd22  1  0.336189  0.667108  0.667108  1
