# generated using pymatgen
data_Tb5Dy7Ir3Pt
_symmetry_space_group_name_H-M   'P 1'
_cell_length_a   6.41013446
_cell_length_b   7.20605815
_cell_length_c   9.37297741
_cell_angle_alpha   90.00705417
_cell_angle_beta   90.03313993
_cell_angle_gamma   90.02505437
_symmetry_Int_Tables_number   1
_chemical_formula_structural   Tb5Dy7Ir3Pt
_chemical_formula_sum   'Tb5 Dy7 Ir3 Pt1'
_cell_volume   432.95459624
_cell_formula_units_Z   1
loop_
 _symmetry_equiv_pos_site_id
 _symmetry_equiv_pos_as_xyz
  1  'x, y, z'
loop_
 _atom_site_type_symbol
 _atom_site_label
 _atom_site_symmetry_multiplicity
 _atom_site_fract_x
 _atom_site_fract_y
 _atom_site_fract_z
 _atom_site_occupancy
  Tb  Tb0  1  0.330918  0.676280  0.060787  1
  Tb  Tb1  1  0.866734  0.528357  0.250147  1
  Tb  Tb2  1  0.627970  0.035530  0.250064  1
  Tb  Tb3  1  0.130275  0.466103  0.749868  1
  Tb  Tb4  1  0.368574  0.965741  0.749892  1
  Dy  Dy5  1  0.173390  0.181027  0.439414  1
  Dy  Dy6  1  0.673499  0.321742  0.563372  1
  Dy  Dy7  1  0.825640  0.822669  0.934678  1
  Dy  Dy8  1  0.673568  0.321653  0.936497  1
  Dy  Dy9  1  0.825572  0.822539  0.565146  1
  Dy  Dy10  1  0.330991  0.676044  0.439142  1
  Dy  Dy11  1  0.173267  0.180996  0.060616  1
  Ir  Ir12  1  0.447954  0.383610  0.250303  1
  Ir  Ir13  1  0.951572  0.116490  0.750046  1
  Ir  Ir14  1  0.548672  0.616229  0.749733  1
  Pt  Pt15  1  0.051404  0.884992  0.250295  1
