# generated using pymatgen
data_Dy5(CoO6)2
_symmetry_space_group_name_H-M   'P 1'
_cell_length_a   6.74334615
_cell_length_b   6.74334612
_cell_length_c   7.18186320
_cell_angle_alpha   74.53053904
_cell_angle_beta   74.53053895
_cell_angle_gamma   50.53019302
_symmetry_Int_Tables_number   1
_chemical_formula_structural   Dy5(CoO6)2
_chemical_formula_sum   'Dy5 Co2 O12'
_cell_volume   240.89114484
_cell_formula_units_Z   1
loop_
 _symmetry_equiv_pos_site_id
 _symmetry_equiv_pos_as_xyz
  1  'x, y, z'
loop_
 _atom_site_type_symbol
 _atom_site_label
 _atom_site_symmetry_multiplicity
 _atom_site_fract_x
 _atom_site_fract_y
 _atom_site_fract_z
 _atom_site_occupancy
  Dy  Dy0  1  0.305588  0.305588  0.355901  1
  Dy  Dy1  1  0.694412  0.694412  0.644099  1
  Dy  Dy2  1  0.308074  0.308074  0.835027  1
  Dy  Dy3  1  0.691926  0.691926  0.164973  1
  Dy  Dy4  1  0.000000  0.000000  0.500000  1
  Co  Co5  1  0.755912  0.244088  0.000000  1
  Co  Co6  1  0.244088  0.755912  0.000000  1
  O  O7  1  0.900737  0.417382  0.920748  1
  O  O8  1  0.417382  0.900737  0.920748  1
  O  O9  1  0.099263  0.582618  0.079252  1
  O  O10  1  0.582618  0.099263  0.079252  1
  O  O11  1  0.097267  0.598305  0.575656  1
  O  O12  1  0.598305  0.097267  0.575656  1
  O  O13  1  0.902733  0.401695  0.424344  1
  O  O14  1  0.401695  0.902733  0.424344  1
  O  O15  1  0.999816  0.999816  0.829181  1
  O  O16  1  0.000184  0.000184  0.170819  1
  O  O17  1  0.500084  0.500084  0.825195  1
  O  O18  1  0.499916  0.499916  0.174805  1
