# generated using pymatgen
data_Y10Si5Sb
_symmetry_space_group_name_H-M   'P 1'
_cell_length_a   8.53349300
_cell_length_b   8.57159686
_cell_length_c   6.38152600
_cell_angle_alpha   90.00000000
_cell_angle_beta   90.00000000
_cell_angle_gamma   119.85305337
_symmetry_Int_Tables_number   1
_chemical_formula_structural   Y10Si5Sb
_chemical_formula_sum   'Y10 Si5 Sb1'
_cell_volume   404.84140105
_cell_formula_units_Z   1
loop_
 _symmetry_equiv_pos_site_id
 _symmetry_equiv_pos_as_xyz
  1  'x, y, z'
loop_
 _atom_site_type_symbol
 _atom_site_label
 _atom_site_symmetry_multiplicity
 _atom_site_fract_x
 _atom_site_fract_y
 _atom_site_fract_z
 _atom_site_occupancy
  Y  Y0  1  0.987894  0.746735  0.750000  1
  Y  Y1  1  0.999031  0.244161  0.250000  1
  Y  Y2  1  0.754870  0.755839  0.250000  1
  Y  Y3  1  0.764535  0.000000  0.750000  1
  Y  Y4  1  0.241159  0.253265  0.750000  1
  Y  Y5  1  0.242093  0.000000  0.250000  1
  Y  Y6  1  0.331587  0.657299  0.496475  1
  Y  Y7  1  0.674288  0.342701  0.003525  1
  Y  Y8  1  0.674288  0.342701  0.496475  1
  Y  Y9  1  0.331587  0.657299  0.003525  1
  Si  Si10  1  0.393062  0.391093  0.250000  1
  Si  Si11  1  0.001969  0.608907  0.250000  1
  Si  Si12  1  0.998916  0.393943  0.750000  1
  Si  Si13  1  0.604973  0.606057  0.750000  1
  Si  Si14  1  0.607532  0.000000  0.250000  1
  Sb  Sb15  1  0.392216  0.000000  0.750000  1
