# generated using pymatgen
data_Ho3ErTmSi3
_symmetry_space_group_name_H-M   'P 1'
_cell_length_a   8.38581600
_cell_length_b   8.38581590
_cell_length_c   6.28093200
_cell_angle_alpha   90.00000000
_cell_angle_beta   90.00000000
_cell_angle_gamma   120.00000827
_symmetry_Int_Tables_number   1
_chemical_formula_structural   Ho3ErTmSi3
_chemical_formula_sum   'Ho6 Er2 Tm2 Si6'
_cell_volume   382.51224299
_cell_formula_units_Z   2
loop_
 _symmetry_equiv_pos_site_id
 _symmetry_equiv_pos_as_xyz
  1  'x, y, z'
loop_
 _atom_site_type_symbol
 _atom_site_label
 _atom_site_symmetry_multiplicity
 _atom_site_fract_x
 _atom_site_fract_y
 _atom_site_fract_z
 _atom_site_occupancy
  Ho  Ho0  1  0.756683  0.756683  0.249915  1
  Ho  Ho1  1  0.243317  0.000000  0.249915  1
  Ho  Ho2  1  0.000000  0.243317  0.249915  1
  Ho  Ho3  1  0.243317  0.243317  0.750085  1
  Ho  Ho4  1  0.756683  0.000000  0.750085  1
  Ho  Ho5  1  0.000000  0.756683  0.750085  1
  Er  Er6  1  0.666667  0.333333  0.500000  1
  Er  Er7  1  0.333333  0.666667  0.500000  1
  Tm  Tm8  1  0.333333  0.666667  0.000000  1
  Tm  Tm9  1  0.666667  0.333333  0.000000  1
  Si  Si10  1  0.394286  0.394286  0.249810  1
  Si  Si11  1  0.605714  0.000000  0.249810  1
  Si  Si12  1  0.000000  0.605714  0.249810  1
  Si  Si13  1  0.605714  0.605714  0.750190  1
  Si  Si14  1  0.394286  0.000000  0.750190  1
  Si  Si15  1  0.000000  0.394286  0.750190  1
