# generated using pymatgen
data_Ac16Rh15
_symmetry_space_group_name_H-M   'P 1'
_cell_length_a   9.01998600
_cell_length_b   10.04200849
_cell_length_c   10.05115806
_cell_angle_alpha   76.23583147
_cell_angle_beta   90.00000000
_cell_angle_gamma   90.00000000
_symmetry_Int_Tables_number   1
_chemical_formula_structural   Ac16Rh15
_chemical_formula_sum   'Ac16 Rh15'
_cell_volume   884.27725730
_cell_formula_units_Z   1
loop_
 _symmetry_equiv_pos_site_id
 _symmetry_equiv_pos_as_xyz
  1  'x, y, z'
loop_
 _atom_site_type_symbol
 _atom_site_label
 _atom_site_symmetry_multiplicity
 _atom_site_fract_x
 _atom_site_fract_y
 _atom_site_fract_z
 _atom_site_occupancy
  Ac  Ac0  1  0.245530  0.545864  0.286530  1
  Ac  Ac1  1  0.000000  0.290548  0.048740  1
  Ac  Ac2  1  0.748802  0.040628  0.792294  1
  Ac  Ac3  1  0.500000  0.793672  0.538384  1
  Ac  Ac4  1  0.000000  0.709452  0.951260  1
  Ac  Ac5  1  0.754470  0.454136  0.713470  1
  Ac  Ac6  1  0.500000  0.206328  0.461616  1
  Ac  Ac7  1  0.251198  0.959372  0.207706  1
  Ac  Ac8  1  0.500000  0.292918  0.044820  1
  Ac  Ac9  1  0.251198  0.040628  0.792294  1
  Ac  Ac10  1  0.000000  0.791763  0.538304  1
  Ac  Ac11  1  0.754470  0.545864  0.286530  1
  Ac  Ac12  1  0.748802  0.959372  0.207706  1
  Ac  Ac13  1  0.500000  0.707082  0.955180  1
  Ac  Ac14  1  0.245530  0.454136  0.713470  1
  Ac  Ac15  1  0.000000  0.208237  0.461696  1
  Rh  Rh16  1  0.249892  0.500000  0.000000  1
  Rh  Rh17  1  0.000000  0.249008  0.754677  1
  Rh  Rh18  1  0.746771  0.000000  0.500000  1
  Rh  Rh19  1  0.500000  0.750851  0.246759  1
  Rh  Rh20  1  0.000000  0.750992  0.245323  1
  Rh  Rh21  1  0.750108  0.500000  0.000000  1
  Rh  Rh22  1  0.500000  0.249149  0.753241  1
  Rh  Rh23  1  0.253229  0.000000  0.500000  1
  Rh  Rh24  1  0.000000  0.500000  0.500000  1
  Rh  Rh25  1  0.746841  0.252958  0.255289  1
  Rh  Rh26  1  0.500000  0.000000  0.000000  1
  Rh  Rh27  1  0.253159  0.747042  0.744711  1
  Rh  Rh28  1  0.253159  0.252958  0.255289  1
  Rh  Rh29  1  0.000000  0.000000  0.000000  1
  Rh  Rh30  1  0.746841  0.747042  0.744711  1
