# generated using pymatgen
data_CuTe19
_symmetry_space_group_name_H-M   'P 1'
_cell_length_a   7.96740280
_cell_length_b   8.94102754
_cell_length_c   10.12016500
_cell_angle_alpha   103.09486428
_cell_angle_beta   96.93454965
_cell_angle_gamma   107.31739481
_symmetry_Int_Tables_number   1
_chemical_formula_structural   CuTe19
_chemical_formula_sum   'Cu1 Te19'
_cell_volume   656.48094483
_cell_formula_units_Z   1
loop_
 _symmetry_equiv_pos_site_id
 _symmetry_equiv_pos_as_xyz
  1  'x, y, z'
loop_
 _atom_site_type_symbol
 _atom_site_label
 _atom_site_symmetry_multiplicity
 _atom_site_fract_x
 _atom_site_fract_y
 _atom_site_fract_z
 _atom_site_occupancy
  Cu  Cu0  1  0.000000  0.500000  0.000000  1
  Te  Te1  1  0.801359  0.575430  0.620349  1
  Te  Te2  1  0.612735  0.196833  0.191588  1
  Te  Te3  1  0.387265  0.803167  0.808412  1
  Te  Te4  1  0.599164  0.687148  0.190114  1
  Te  Te5  1  0.198641  0.424570  0.379651  1
  Te  Te6  1  0.400836  0.312852  0.809886  1
  Te  Te7  1  0.000000  0.000000  0.000000  1
  Te  Te8  1  0.197718  0.916694  0.395955  1
  Te  Te9  1  0.802282  0.083306  0.604045  1
  Te  Te10  1  0.724750  0.620957  0.917301  1
  Te  Te11  1  0.512424  0.251997  0.496811  1
  Te  Te12  1  0.705870  0.140543  0.906951  1
  Te  Te13  1  0.294130  0.859457  0.093049  1
  Te  Te14  1  0.487576  0.748003  0.503189  1
  Te  Te15  1  0.089166  0.475832  0.745080  1
  Te  Te16  1  0.275250  0.379043  0.082699  1
  Te  Te17  1  0.911023  0.032611  0.296791  1
  Te  Te18  1  0.088977  0.967389  0.703209  1
  Te  Te19  1  0.910834  0.524168  0.254920  1
