# generated using pymatgen
data_KRb3Os2O9
_symmetry_space_group_name_H-M   'P 1'
_cell_length_a   6.42116200
_cell_length_b   6.42116151
_cell_length_c   15.48910500
_cell_angle_alpha   90.00000000
_cell_angle_beta   90.00000000
_cell_angle_gamma   119.99998193
_symmetry_Int_Tables_number   1
_chemical_formula_structural   KRb3Os2O9
_chemical_formula_sum   'K2 Rb6 Os4 O18'
_cell_volume   553.07528923
_cell_formula_units_Z   2
loop_
 _symmetry_equiv_pos_site_id
 _symmetry_equiv_pos_as_xyz
  1  'x, y, z'
loop_
 _atom_site_type_symbol
 _atom_site_label
 _atom_site_symmetry_multiplicity
 _atom_site_fract_x
 _atom_site_fract_y
 _atom_site_fract_z
 _atom_site_occupancy
  K  K0  1  0.000000  0.000000  0.500000  1
  K  K1  1  0.000000  0.000000  0.000000  1
  Rb  Rb2  1  0.000000  0.000000  0.250000  1
  Rb  Rb3  1  0.000000  0.000000  0.750000  1
  Rb  Rb4  1  0.333333  0.666667  0.390577  1
  Rb  Rb5  1  0.666667  0.333333  0.609423  1
  Rb  Rb6  1  0.666667  0.333333  0.890577  1
  Rb  Rb7  1  0.333333  0.666667  0.109423  1
  Os  Os8  1  0.666667  0.333333  0.343948  1
  Os  Os9  1  0.333333  0.666667  0.656052  1
  Os  Os10  1  0.333333  0.666667  0.843948  1
  Os  Os11  1  0.666667  0.333333  0.156052  1
  O  O12  1  0.538762  0.461238  0.250000  1
  O  O13  1  0.538762  0.077522  0.250000  1
  O  O14  1  0.922478  0.461238  0.250000  1
  O  O15  1  0.461238  0.538762  0.750000  1
  O  O16  1  0.461238  0.922478  0.750000  1
  O  O17  1  0.077522  0.538762  0.750000  1
  O  O18  1  0.380118  0.190059  0.399465  1
  O  O19  1  0.809941  0.190059  0.399465  1
  O  O20  1  0.809941  0.619882  0.399465  1
  O  O21  1  0.619882  0.809941  0.600535  1
  O  O22  1  0.190059  0.809941  0.600535  1
  O  O23  1  0.190059  0.380118  0.600535  1
  O  O24  1  0.619882  0.809941  0.899465  1
  O  O25  1  0.190059  0.809941  0.899465  1
  O  O26  1  0.190059  0.380118  0.899465  1
  O  O27  1  0.380118  0.190059  0.100535  1
  O  O28  1  0.809941  0.190059  0.100535  1
  O  O29  1  0.809941  0.619882  0.100535  1
