# generated using pymatgen
data_NbGa3Cu3Ni5Pt4
_symmetry_space_group_name_H-M   'P 1'
_cell_length_a   3.84022000
_cell_length_b   3.76635400
_cell_length_c   14.72739900
_cell_angle_alpha   90.00000000
_cell_angle_beta   90.00000000
_cell_angle_gamma   90.00000000
_symmetry_Int_Tables_number   1
_chemical_formula_structural   NbGa3Cu3Ni5Pt4
_chemical_formula_sum   'Nb1 Ga3 Cu3 Ni5 Pt4'
_cell_volume   213.01161992
_cell_formula_units_Z   1
loop_
 _symmetry_equiv_pos_site_id
 _symmetry_equiv_pos_as_xyz
  1  'x, y, z'
loop_
 _atom_site_type_symbol
 _atom_site_label
 _atom_site_symmetry_multiplicity
 _atom_site_fract_x
 _atom_site_fract_y
 _atom_site_fract_z
 _atom_site_occupancy
  Nb  Nb0  1  0.000000  0.000000  0.000000  1
  Ga  Ga1  1  0.000000  0.000000  0.255833  1
  Ga  Ga2  1  0.000000  0.000000  0.500000  1
  Ga  Ga3  1  0.000000  0.000000  0.744167  1
  Cu  Cu4  1  0.500000  0.500000  0.252165  1
  Cu  Cu5  1  0.500000  0.500000  0.500000  1
  Cu  Cu6  1  0.500000  0.500000  0.747835  1
  Ni  Ni7  1  0.500000  0.500000  0.000000  1
  Ni  Ni8  1  0.000000  0.500000  0.124702  1
  Ni  Ni9  1  0.000000  0.500000  0.376914  1
  Ni  Ni10  1  0.000000  0.500000  0.623086  1
  Ni  Ni11  1  0.000000  0.500000  0.875298  1
  Pt  Pt12  1  0.500000  0.000000  0.127903  1
  Pt  Pt13  1  0.500000  0.000000  0.376748  1
  Pt  Pt14  1  0.500000  0.000000  0.623252  1
  Pt  Pt15  1  0.500000  0.000000  0.872097  1
