# generated using pymatgen
data_Pr8Hg2IrPt
_symmetry_space_group_name_H-M   'P 1'
_cell_length_a   10.04040701
_cell_length_b   10.04040753
_cell_length_c   10.02684700
_cell_angle_alpha   60.04467058
_cell_angle_beta   60.04466889
_cell_angle_gamma   60.27155991
_symmetry_Int_Tables_number   1
_chemical_formula_structural   Pr8Hg2IrPt
_chemical_formula_sum   'Pr16 Hg4 Ir2 Pt2'
_cell_volume   716.68702836
_cell_formula_units_Z   2
loop_
 _symmetry_equiv_pos_site_id
 _symmetry_equiv_pos_as_xyz
  1  'x, y, z'
loop_
 _atom_site_type_symbol
 _atom_site_label
 _atom_site_symmetry_multiplicity
 _atom_site_fract_x
 _atom_site_fract_y
 _atom_site_fract_z
 _atom_site_occupancy
  Pr  Pr0  1  0.351486  0.351486  0.347079  1
  Pr  Pr1  1  0.351486  0.351486  0.949949  1
  Pr  Pr2  1  0.356663  0.941890  0.350722  1
  Pr  Pr3  1  0.941890  0.356663  0.350722  1
  Pr  Pr4  1  0.805536  0.190673  0.191562  1
  Pr  Pr5  1  0.190673  0.805536  0.812228  1
  Pr  Pr6  1  0.190673  0.805536  0.191562  1
  Pr  Pr7  1  0.805536  0.190673  0.812228  1
  Pr  Pr8  1  0.191242  0.191242  0.808758  1
  Pr  Pr9  1  0.809769  0.809769  0.190231  1
  Pr  Pr10  1  0.940286  0.562490  0.560775  1
  Pr  Pr11  1  0.562490  0.940286  0.936449  1
  Pr  Pr12  1  0.562490  0.940286  0.560775  1
  Pr  Pr13  1  0.940286  0.562490  0.936449  1
  Pr  Pr14  1  0.562335  0.562335  0.937665  1
  Pr  Pr15  1  0.939736  0.939736  0.560264  1
  Hg  Hg16  1  0.584643  0.584643  0.584568  1
  Hg  Hg17  1  0.584643  0.584643  0.246144  1
  Hg  Hg18  1  0.584012  0.246568  0.584710  1
  Hg  Hg19  1  0.246568  0.584012  0.584710  1
  Ir  Ir20  1  0.141435  0.571795  0.143385  1
  Ir  Ir21  1  0.571795  0.141435  0.143385  1
  Pt  Pt22  1  0.142162  0.142162  0.145646  1
  Pt  Pt23  1  0.142162  0.142162  0.570030  1
