# generated using pymatgen
data_Lu19ScSiSb11
_symmetry_space_group_name_H-M   'P 1'
_cell_length_a   7.88126466
_cell_length_b   9.09446000
_cell_length_c   11.55550449
_cell_angle_alpha   90.00000000
_cell_angle_beta   89.81097613
_cell_angle_gamma   90.00000000
_symmetry_Int_Tables_number   1
_chemical_formula_structural   Lu19ScSiSb11
_chemical_formula_sum   'Lu19 Sc1 Si1 Sb11'
_cell_volume   828.24605562
_cell_formula_units_Z   1
loop_
 _symmetry_equiv_pos_site_id
 _symmetry_equiv_pos_as_xyz
  1  'x, y, z'
loop_
 _atom_site_type_symbol
 _atom_site_label
 _atom_site_symmetry_multiplicity
 _atom_site_fract_x
 _atom_site_fract_y
 _atom_site_fract_z
 _atom_site_occupancy
  Lu  Lu0  1  0.186787  0.568223  0.443026  1
  Lu  Lu1  1  0.695555  0.938010  0.061397  1
  Lu  Lu2  1  0.808142  0.049563  0.560732  1
  Lu  Lu3  1  0.303394  0.436833  0.940108  1
  Lu  Lu4  1  0.808142  0.450437  0.560732  1
  Lu  Lu5  1  0.303394  0.063167  0.940108  1
  Lu  Lu6  1  0.186787  0.931777  0.443026  1
  Lu  Lu7  1  0.695555  0.561990  0.061397  1
  Lu  Lu8  1  0.029272  0.750000  0.989380  1
  Lu  Lu9  1  0.538377  0.750000  0.510032  1
  Lu  Lu10  1  0.474711  0.250000  0.490554  1
  Lu  Lu11  1  0.173438  0.750000  0.711410  1
  Lu  Lu12  1  0.691013  0.750000  0.777473  1
  Lu  Lu13  1  0.814476  0.250000  0.279366  1
  Lu  Lu14  1  0.312526  0.250000  0.218782  1
  Lu  Lu15  1  0.856137  0.750000  0.293309  1
  Lu  Lu16  1  0.352962  0.750000  0.215090  1
  Lu  Lu17  1  0.146461  0.250000  0.715393  1
  Lu  Lu18  1  0.647784  0.250000  0.783966  1
  Sc  Sc19  1  0.971799  0.250000  0.010946  1
  Si  Si20  1  0.912537  0.750000  0.537063  1
  Sb  Sb21  1  0.934579  0.494292  0.827549  1
  Sb  Sb22  1  0.433771  0.001698  0.674079  1
  Sb  Sb23  1  0.064865  0.997886  0.172796  1
  Sb  Sb24  1  0.565008  0.502434  0.325798  1
  Sb  Sb25  1  0.064865  0.502114  0.172796  1
  Sb  Sb26  1  0.565008  0.997566  0.325798  1
  Sb  Sb27  1  0.934579  0.005708  0.827549  1
  Sb  Sb28  1  0.433771  0.498302  0.674079  1
  Sb  Sb29  1  0.412065  0.750000  0.957414  1
  Sb  Sb30  1  0.089563  0.250000  0.458904  1
  Sb  Sb31  1  0.592684  0.250000  0.039944  1
