# generated using pymatgen
data_Tm6Lu10Cd4NiRu3
_symmetry_space_group_name_H-M   'P 1'
_cell_length_a   9.40232637
_cell_length_b   9.45695777
_cell_length_c   9.45695700
_cell_angle_alpha   60.00000618
_cell_angle_beta   59.80761248
_cell_angle_gamma   59.80762600
_symmetry_Int_Tables_number   1
_chemical_formula_structural   Tm6Lu10Cd4NiRu3
_chemical_formula_sum   'Tm6 Lu10 Cd4 Ni1 Ru3'
_cell_volume   592.86281647
_cell_formula_units_Z   1
loop_
 _symmetry_equiv_pos_site_id
 _symmetry_equiv_pos_as_xyz
  1  'x, y, z'
loop_
 _atom_site_type_symbol
 _atom_site_label
 _atom_site_symmetry_multiplicity
 _atom_site_fract_x
 _atom_site_fract_y
 _atom_site_fract_z
 _atom_site_occupancy
  Tm  Tm0  1  0.938968  0.560713  0.560713  1
  Tm  Tm1  1  0.558881  0.937929  0.937929  1
  Tm  Tm2  1  0.558881  0.937929  0.565260  1
  Tm  Tm3  1  0.938968  0.560713  0.939604  1
  Tm  Tm4  1  0.558881  0.565260  0.937929  1
  Tm  Tm5  1  0.938968  0.939604  0.560713  1
  Lu  Lu6  1  0.351018  0.345705  0.345705  1
  Lu  Lu7  1  0.351018  0.345705  0.957574  1
  Lu  Lu8  1  0.351018  0.957574  0.345705  1
  Lu  Lu9  1  0.958045  0.347318  0.347318  1
  Lu  Lu10  1  0.811759  0.187840  0.187840  1
  Lu  Lu11  1  0.187314  0.812452  0.812452  1
  Lu  Lu12  1  0.187314  0.812452  0.187782  1
  Lu  Lu13  1  0.811759  0.187840  0.812562  1
  Lu  Lu14  1  0.187314  0.187782  0.812452  1
  Lu  Lu15  1  0.811759  0.812562  0.187840  1
  Cd  Cd16  1  0.579078  0.580508  0.580508  1
  Cd  Cd17  1  0.579078  0.580508  0.259909  1
  Cd  Cd18  1  0.579078  0.259909  0.580508  1
  Cd  Cd19  1  0.256955  0.581015  0.581015  1
  Ni  Ni20  1  0.576190  0.141271  0.141271  1
  Ru  Ru21  1  0.142586  0.141063  0.141063  1
  Ru  Ru22  1  0.142586  0.141063  0.575289  1
  Ru  Ru23  1  0.142586  0.575289  0.141063  1
