# generated using pymatgen
data_PrNdFe4(CoB2)4
_symmetry_space_group_name_H-M   'P 1'
_cell_length_a   7.06953700
_cell_length_b   7.06688100
_cell_length_c   3.80441100
_cell_angle_alpha   90.00000000
_cell_angle_beta   90.00000000
_cell_angle_gamma   89.99609285
_symmetry_Int_Tables_number   1
_chemical_formula_structural   PrNdFe4(CoB2)4
_chemical_formula_sum   'Pr1 Nd1 Fe4 Co4 B8'
_cell_volume   190.06676295
_cell_formula_units_Z   1
loop_
 _symmetry_equiv_pos_site_id
 _symmetry_equiv_pos_as_xyz
  1  'x, y, z'
loop_
 _atom_site_type_symbol
 _atom_site_label
 _atom_site_symmetry_multiplicity
 _atom_site_fract_x
 _atom_site_fract_y
 _atom_site_fract_z
 _atom_site_occupancy
  Pr  Pr0  1  0.000000  0.000000  0.999325  1
  Nd  Nd1  1  0.500000  0.500000  0.499444  1
  Fe  Fe2  1  0.367405  0.113386  0.605524  1
  Fe  Fe3  1  0.632595  0.886614  0.605524  1
  Fe  Fe4  1  0.612925  0.133254  0.105498  1
  Fe  Fe5  1  0.387075  0.866746  0.105498  1
  Co  Co6  1  0.139339  0.386021  0.892381  1
  Co  Co7  1  0.860661  0.613979  0.892381  1
  Co  Co8  1  0.885542  0.361445  0.392434  1
  Co  Co9  1  0.114458  0.638555  0.392434  1
  B  B10  1  0.663895  0.799767  0.106245  1
  B  B11  1  0.336105  0.200233  0.106245  1
  B  B12  1  0.300710  0.835399  0.605774  1
  B  B13  1  0.699290  0.164601  0.605774  1
  B  B14  1  0.836039  0.703257  0.396626  1
  B  B15  1  0.163961  0.296743  0.396626  1
  B  B16  1  0.204203  0.663192  0.896132  1
  B  B17  1  0.795797  0.336808  0.896132  1
