# generated using pymatgen
data_Ca5BiRh2
_symmetry_space_group_name_H-M   'P 1'
_cell_length_a   7.79240800
_cell_length_b   7.79240800
_cell_length_c   14.75625000
_cell_angle_alpha   90.00000000
_cell_angle_beta   90.00000000
_cell_angle_gamma   90.00000000
_symmetry_Int_Tables_number   1
_chemical_formula_structural   Ca5BiRh2
_chemical_formula_sum   'Ca20 Bi4 Rh8'
_cell_volume   896.02344111
_cell_formula_units_Z   4
loop_
 _symmetry_equiv_pos_site_id
 _symmetry_equiv_pos_as_xyz
  1  'x, y, z'
loop_
 _atom_site_type_symbol
 _atom_site_label
 _atom_site_symmetry_multiplicity
 _atom_site_fract_x
 _atom_site_fract_y
 _atom_site_fract_z
 _atom_site_occupancy
  Ca  Ca0  1  0.168237  0.170586  0.120527  1
  Ca  Ca1  1  0.670585  0.331763  0.120527  1
  Ca  Ca2  1  0.329414  0.668237  0.120527  1
  Ca  Ca3  1  0.831763  0.829414  0.120527  1
  Ca  Ca4  1  0.500000  0.000000  0.248115  1
  Ca  Ca5  1  0.000000  0.500000  0.251885  1
  Ca  Ca6  1  0.170586  0.168237  0.379473  1
  Ca  Ca7  1  0.668237  0.329414  0.379473  1
  Ca  Ca8  1  0.331763  0.670585  0.379473  1
  Ca  Ca9  1  0.829414  0.831763  0.379473  1
  Ca  Ca10  1  0.831763  0.170586  0.620527  1
  Ca  Ca11  1  0.329414  0.331763  0.620527  1
  Ca  Ca12  1  0.670585  0.668237  0.620527  1
  Ca  Ca13  1  0.168237  0.829414  0.620527  1
  Ca  Ca14  1  0.500000  0.000000  0.748115  1
  Ca  Ca15  1  0.000000  0.500000  0.751885  1
  Ca  Ca16  1  0.829414  0.168237  0.879473  1
  Ca  Ca17  1  0.331763  0.329414  0.879473  1
  Ca  Ca18  1  0.668237  0.670585  0.879473  1
  Ca  Ca19  1  0.170586  0.831763  0.879473  1
  Bi  Bi20  1  0.500000  0.000000  0.000711  1
  Bi  Bi21  1  0.000000  0.500000  0.499289  1
  Bi  Bi22  1  0.500000  0.000000  0.500711  1
  Bi  Bi23  1  0.000000  0.500000  0.999289  1
  Rh  Rh24  1  0.876744  0.123257  0.250000  1
  Rh  Rh25  1  0.376743  0.376743  0.250000  1
  Rh  Rh26  1  0.623257  0.623257  0.250000  1
  Rh  Rh27  1  0.123257  0.876744  0.250000  1
  Rh  Rh28  1  0.123257  0.123257  0.750000  1
  Rh  Rh29  1  0.623257  0.376743  0.750000  1
  Rh  Rh30  1  0.376743  0.623257  0.750000  1
  Rh  Rh31  1  0.876744  0.876744  0.750000  1
