# generated using pymatgen
data_Ho7Lu3(Co2Ag)2
_symmetry_space_group_name_H-M   'P 1'
_cell_length_a   8.45152557
_cell_length_b   8.50362901
_cell_length_c   8.47454320
_cell_angle_alpha   127.72265017
_cell_angle_beta   127.54937843
_cell_angle_gamma   77.24118046
_symmetry_Int_Tables_number   1
_chemical_formula_structural   Ho7Lu3(Co2Ag)2
_chemical_formula_sum   'Ho7 Lu3 Co4 Ag2'
_cell_volume   370.55098648
_cell_formula_units_Z   1
loop_
 _symmetry_equiv_pos_site_id
 _symmetry_equiv_pos_as_xyz
  1  'x, y, z'
loop_
 _atom_site_type_symbol
 _atom_site_label
 _atom_site_symmetry_multiplicity
 _atom_site_fract_x
 _atom_site_fract_y
 _atom_site_fract_z
 _atom_site_occupancy
  Ho  Ho0  1  0.472239  0.971833  0.178066  1
  Ho  Ho1  1  0.794172  0.293767  0.821934  1
  Ho  Ho2  1  0.527800  0.028725  0.822678  1
  Ho  Ho3  1  0.026733  0.206429  0.500000  1
  Ho  Ho4  1  0.295531  0.471366  0.500000  1
  Ho  Ho5  1  0.205122  0.706047  0.177322  1
  Ho  Ho6  1  0.971232  0.793966  0.500000  1
  Lu  Lu7  1  0.707410  0.530054  0.500000  1
  Lu  Lu8  1  0.999058  0.999156  0.999155  1
  Lu  Lu9  1  0.499903  0.500000  0.000845  1
  Co  Co10  1  0.135201  0.635960  0.772202  1
  Co  Co11  1  0.862998  0.363757  0.227798  1
  Co  Co12  1  0.637071  0.862667  0.500000  1
  Co  Co13  1  0.362451  0.136354  0.500000  1
  Ag  Ag14  1  0.253442  0.251862  0.003804  1
  Ag  Ag15  1  0.749638  0.748058  0.996196  1
