# generated using pymatgen
data_Ho2Th2CrReC4
_symmetry_space_group_name_H-M   'P 1'
_cell_length_a   5.22645300
_cell_length_b   6.65770400
_cell_length_c   9.77538400
_cell_angle_alpha   90.00000000
_cell_angle_beta   90.00000000
_cell_angle_gamma   90.00000000
_symmetry_Int_Tables_number   1
_chemical_formula_structural   Ho2Th2CrReC4
_chemical_formula_sum   'Ho4 Th4 Cr2 Re2 C8'
_cell_volume   340.14599234
_cell_formula_units_Z   2
loop_
 _symmetry_equiv_pos_site_id
 _symmetry_equiv_pos_as_xyz
  1  'x, y, z'
loop_
 _atom_site_type_symbol
 _atom_site_label
 _atom_site_symmetry_multiplicity
 _atom_site_fract_x
 _atom_site_fract_y
 _atom_site_fract_z
 _atom_site_occupancy
  Ho  Ho0  1  0.250000  0.833438  0.053233  1
  Ho  Ho1  1  0.750000  0.666562  0.553233  1
  Ho  Ho2  1  0.250000  0.322705  0.445307  1
  Ho  Ho3  1  0.750000  0.177295  0.945307  1
  Th  Th4  1  0.250000  0.473780  0.791287  1
  Th  Th5  1  0.750000  0.026220  0.291287  1
  Th  Th6  1  0.250000  0.970727  0.710277  1
  Th  Th7  1  0.750000  0.529273  0.210277  1
  Cr  Cr8  1  0.250000  0.270799  0.138758  1
  Cr  Cr9  1  0.750000  0.229201  0.638758  1
  Re  Re10  1  0.250000  0.770104  0.360809  1
  Re  Re11  1  0.750000  0.729896  0.860809  1
  C  C12  1  0.250000  0.180037  0.957045  1
  C  C13  1  0.750000  0.830619  0.049983  1
  C  C14  1  0.250000  0.669381  0.549983  1
  C  C15  1  0.750000  0.319963  0.457045  1
  C  C16  1  0.250000  0.046851  0.259176  1
  C  C17  1  0.750000  0.453149  0.759176  1
  C  C18  1  0.250000  0.532218  0.234124  1
  C  C19  1  0.750000  0.967782  0.734124  1
