# generated using pymatgen
data_Ce4Al18OsPd5
_symmetry_space_group_name_H-M   'P 1'
_cell_length_a   7.70170029
_cell_length_b   7.70170081
_cell_length_c   9.58905189
_cell_angle_alpha   89.92275766
_cell_angle_beta   89.92275558
_cell_angle_gamma   119.49603697
_symmetry_Int_Tables_number   1
_chemical_formula_structural   Ce4Al18OsPd5
_chemical_formula_sum   'Ce4 Al18 Os1 Pd5'
_cell_volume   495.06376581
_cell_formula_units_Z   1
loop_
 _symmetry_equiv_pos_site_id
 _symmetry_equiv_pos_as_xyz
  1  'x, y, z'
loop_
 _atom_site_type_symbol
 _atom_site_label
 _atom_site_symmetry_multiplicity
 _atom_site_fract_x
 _atom_site_fract_y
 _atom_site_fract_z
 _atom_site_occupancy
  Ce  Ce0  1  0.996170  0.670565  0.248770  1
  Ce  Ce1  1  0.003830  0.329435  0.751230  1
  Ce  Ce2  1  0.670565  0.996170  0.248770  1
  Ce  Ce3  1  0.329435  0.003830  0.751230  1
  Al  Al4  1  0.001140  0.330307  0.073739  1
  Al  Al5  1  0.998860  0.669693  0.926261  1
  Al  Al6  1  0.995533  0.664529  0.575425  1
  Al  Al7  1  0.335471  0.004467  0.424575  1
  Al  Al8  1  0.004467  0.335471  0.424575  1
  Al  Al9  1  0.664529  0.995533  0.575425  1
  Al  Al10  1  0.669693  0.998860  0.926261  1
  Al  Al11  1  0.330307  0.001140  0.073739  1
  Al  Al12  1  0.334964  0.334964  0.556837  1
  Al  Al13  1  0.665036  0.665036  0.443163  1
  Al  Al14  1  0.670538  0.670538  0.049484  1
  Al  Al15  1  0.329462  0.329462  0.950516  1
  Al  Al16  1  0.131323  0.131323  0.247097  1
  Al  Al17  1  0.868677  0.868677  0.752903  1
  Al  Al18  1  0.342768  0.546895  0.249660  1
  Al  Al19  1  0.657232  0.453105  0.750340  1
  Al  Al20  1  0.546895  0.342768  0.249660  1
  Al  Al21  1  0.453105  0.657232  0.750340  1
  Os  Os22  1  0.000000  0.000000  0.000000  1
  Pd  Pd23  1  0.670215  0.329785  0.000000  1
  Pd  Pd24  1  0.329785  0.670215  0.000000  1
  Pd  Pd25  1  0.328489  0.671511  0.500000  1
  Pd  Pd26  1  0.671511  0.328489  0.500000  1
  Pd  Pd27  1  0.000000  0.000000  0.500000  1
