# generated using pymatgen
data_MnS8Cl3
_symmetry_space_group_name_H-M   'P 1'
_cell_length_a   8.28240791
_cell_length_b   9.62979518
_cell_length_c   12.06833201
_cell_angle_alpha   98.91830771
_cell_angle_beta   111.70958951
_cell_angle_gamma   102.65137305
_symmetry_Int_Tables_number   1
_chemical_formula_structural   MnS8Cl3
_chemical_formula_sum   'Mn2 S16 Cl6'
_cell_volume   842.46107156
_cell_formula_units_Z   2
loop_
 _symmetry_equiv_pos_site_id
 _symmetry_equiv_pos_as_xyz
  1  'x, y, z'
loop_
 _atom_site_type_symbol
 _atom_site_label
 _atom_site_symmetry_multiplicity
 _atom_site_fract_x
 _atom_site_fract_y
 _atom_site_fract_z
 _atom_site_occupancy
  Mn  Mn0  1  0.820441  0.971077  0.860884  1
  Mn  Mn1  1  0.179559  0.028923  0.139116  1
  S  S2  1  0.848622  0.512062  0.806555  1
  S  S3  1  0.151378  0.487938  0.193445  1
  S  S4  1  0.711389  0.431355  0.617010  1
  S  S5  1  0.288611  0.568645  0.382990  1
  S  S6  1  0.735033  0.224884  0.566969  1
  S  S7  1  0.264967  0.775116  0.433031  1
  S  S8  1  0.944079  0.242778  0.511207  1
  S  S9  1  0.055921  0.757222  0.488793  1
  S  S10  1  0.894755  0.351520  0.150298  1
  S  S11  1  0.105245  0.648480  0.849702  1
  S  S12  1  0.708756  0.467849  0.103567  1
  S  S13  1  0.291244  0.532151  0.896433  1
  S  S14  1  0.661991  0.540784  0.255681  1
  S  S15  1  0.338009  0.459216  0.744319  1
  S  S16  1  0.823017  0.755651  0.343966  1
  S  S17  1  0.176983  0.244349  0.656034  1
  Cl  Cl18  1  0.561182  0.011115  0.817143  1
  Cl  Cl19  1  0.438818  0.988885  0.182857  1
  Cl  Cl20  1  0.862056  0.941065  0.056964  1
  Cl  Cl21  1  0.137944  0.058935  0.943036  1
  Cl  Cl22  1  0.784869  0.874712  0.677143  1
  Cl  Cl23  1  0.215131  0.125288  0.322857  1
