# generated using pymatgen
data_Tm6Zr4(SnSb)3
_symmetry_space_group_name_H-M   'P 1'
_cell_length_a   6.00467400
_cell_length_b   8.75533363
_cell_length_c   8.75533414
_cell_angle_alpha   59.99825693
_cell_angle_beta   90.00003218
_cell_angle_gamma   89.99997167
_symmetry_Int_Tables_number   1
_chemical_formula_structural   Tm6Zr4(SnSb)3
_chemical_formula_sum   'Tm6 Zr4 Sn3 Sb3'
_cell_volume   398.61887797
_cell_formula_units_Z   1
loop_
 _symmetry_equiv_pos_site_id
 _symmetry_equiv_pos_as_xyz
  1  'x, y, z'
loop_
 _atom_site_type_symbol
 _atom_site_label
 _atom_site_symmetry_multiplicity
 _atom_site_fract_x
 _atom_site_fract_y
 _atom_site_fract_z
 _atom_site_occupancy
  Tm  Tm0  1  0.749998  0.242088  0.757912  1
  Tm  Tm1  1  0.750001  0.757909  0.000015  1
  Tm  Tm2  1  0.750001  0.999985  0.242091  1
  Tm  Tm3  1  0.250000  0.757874  0.242126  1
  Tm  Tm4  1  0.250000  0.242127  0.999987  1
  Tm  Tm5  1  0.250000  0.000013  0.757873  1
  Zr  Zr6  1  0.498856  0.333333  0.333336  1
  Zr  Zr7  1  0.498856  0.666664  0.666667  1
  Zr  Zr8  1  0.001142  0.666664  0.666666  1
  Zr  Zr9  1  0.001142  0.333334  0.333336  1
  Sn  Sn10  1  0.250018  0.397446  0.602554  1
  Sn  Sn11  1  0.249997  0.602591  0.000002  1
  Sn  Sn12  1  0.249997  0.999998  0.397409  1
  Sb  Sb13  1  0.749999  0.602418  0.397582  1
  Sb  Sb14  1  0.749997  0.397561  0.000005  1
  Sb  Sb15  1  0.749997  0.999995  0.602439  1
