# generated using pymatgen
data_La6Nd10Cd4CoNi3
_symmetry_space_group_name_H-M   'P 1'
_cell_length_a   9.89096881
_cell_length_b   9.93474251
_cell_length_c   9.93474269
_cell_angle_alpha   59.62717733
_cell_angle_beta   60.02234307
_cell_angle_gamma   60.02235199
_symmetry_Int_Tables_number   1
_chemical_formula_structural   La6Nd10Cd4CoNi3
_chemical_formula_sum   'La6 Nd10 Cd4 Co1 Ni3'
_cell_volume   688.56388385
_cell_formula_units_Z   1
loop_
 _symmetry_equiv_pos_site_id
 _symmetry_equiv_pos_as_xyz
  1  'x, y, z'
loop_
 _atom_site_type_symbol
 _atom_site_label
 _atom_site_symmetry_multiplicity
 _atom_site_fract_x
 _atom_site_fract_y
 _atom_site_fract_z
 _atom_site_occupancy
  La  La0  1  0.596167  0.598103  0.598103  1
  La  La1  1  0.596376  0.593318  0.208315  1
  La  La2  1  0.596376  0.208315  0.593318  1
  La  La3  1  0.207421  0.597453  0.597453  1
  La  La4  1  0.070660  0.436686  0.436686  1
  La  La5  1  0.437475  0.061021  0.061021  1
  Nd  Nd6  1  0.440212  0.063680  0.440274  1
  Nd  Nd7  1  0.057915  0.440314  0.058708  1
  Nd  Nd8  1  0.440212  0.440274  0.063680  1
  Nd  Nd9  1  0.057915  0.058708  0.440314  1
  Nd  Nd10  1  0.187240  0.814434  0.814434  1
  Nd  Nd11  1  0.811139  0.184943  0.184943  1
  Nd  Nd12  1  0.813259  0.188781  0.813073  1
  Nd  Nd13  1  0.186797  0.810307  0.186327  1
  Nd  Nd14  1  0.813259  0.813073  0.188781  1
  Nd  Nd15  1  0.186797  0.186327  0.810307  1
  Cd  Cd16  1  0.831094  0.829258  0.829258  1
  Cd  Cd17  1  0.829817  0.831905  0.508716  1
  Cd  Cd18  1  0.829817  0.508716  0.831905  1
  Cd  Cd19  1  0.509074  0.829895  0.829895  1
  Co  Co20  1  0.386435  0.395828  0.395828  1
  Ni  Ni21  1  0.394271  0.389406  0.824980  1
  Ni  Ni22  1  0.394271  0.824980  0.389406  1
  Ni  Ni23  1  0.826003  0.394273  0.394273  1
