# generated using pymatgen
data_LiTa3(Ti3B10)2
_symmetry_space_group_name_H-M   'P 1'
_cell_length_a   6.10194618
_cell_length_b   6.92063353
_cell_length_c   7.21217772
_cell_angle_alpha   93.10778113
_cell_angle_beta   102.22234975
_cell_angle_gamma   116.16889261
_symmetry_Int_Tables_number   1
_chemical_formula_structural   LiTa3(Ti3B10)2
_chemical_formula_sum   'Li1 Ta3 Ti6 B20'
_cell_volume   263.34264231
_cell_formula_units_Z   1
loop_
 _symmetry_equiv_pos_site_id
 _symmetry_equiv_pos_as_xyz
  1  'x, y, z'
loop_
 _atom_site_type_symbol
 _atom_site_label
 _atom_site_symmetry_multiplicity
 _atom_site_fract_x
 _atom_site_fract_y
 _atom_site_fract_z
 _atom_site_occupancy
  Li  Li0  1  0.000151  0.000291  0.001809  1
  Ta  Ta1  1  0.499597  0.999666  0.000191  1
  Ta  Ta2  1  0.000919  0.201229  0.600090  1
  Ta  Ta3  1  0.000182  0.601504  0.799692  1
  Ti  Ti4  1  0.500179  0.799956  0.399160  1
  Ti  Ti5  1  0.999782  0.398127  0.200289  1
  Ti  Ti6  1  0.499731  0.200121  0.599931  1
  Ti  Ti7  1  0.999308  0.799583  0.399875  1
  Ti  Ti8  1  0.500999  0.601262  0.800612  1
  Ti  Ti9  1  0.499337  0.398774  0.199591  1
  B  B10  1  0.333389  0.233805  0.868714  1
  B  B11  1  0.334317  0.631149  0.071130  1
  B  B12  1  0.167700  0.364153  0.939179  1
  B  B13  1  0.330909  0.032539  0.267438  1
  B  B14  1  0.164968  0.766329  0.135757  1
  B  B15  1  0.834681  0.231365  0.870545  1
  B  B16  1  0.166292  0.166280  0.329736  1
  B  B17  1  0.833190  0.634236  0.067550  1
  B  B18  1  0.334239  0.433603  0.464463  1
  B  B19  1  0.666513  0.367947  0.933789  1
  B  B20  1  0.835100  0.032671  0.264717  1
  B  B21  1  0.668133  0.765868  0.134025  1
  B  B22  1  0.334599  0.835828  0.661719  1
  B  B23  1  0.168320  0.569308  0.528996  1
  B  B24  1  0.664695  0.165470  0.333595  1
  B  B25  1  0.831366  0.434641  0.461471  1
  B  B26  1  0.165917  0.967676  0.733346  1
  B  B27  1  0.832544  0.833138  0.667718  1
  B  B28  1  0.665178  0.567550  0.530459  1
  B  B29  1  0.667763  0.965932  0.734414  1
