# generated using pymatgen
data_Sm5ErAl18(Si3Os4)2
_symmetry_space_group_name_H-M   'P 1'
_cell_length_a   8.75167164
_cell_length_b   8.72159720
_cell_length_c   9.60980300
_cell_angle_alpha   90.00000000
_cell_angle_beta   90.00000000
_cell_angle_gamma   120.15793798
_symmetry_Int_Tables_number   1
_chemical_formula_structural   Sm5ErAl18(Si3Os4)2
_chemical_formula_sum   'Sm5 Er1 Al18 Si6 Os8'
_cell_volume   634.21831506
_cell_formula_units_Z   1
loop_
 _symmetry_equiv_pos_site_id
 _symmetry_equiv_pos_as_xyz
  1  'x, y, z'
loop_
 _atom_site_type_symbol
 _atom_site_label
 _atom_site_symmetry_multiplicity
 _atom_site_fract_x
 _atom_site_fract_y
 _atom_site_fract_z
 _atom_site_occupancy
  Sm  Sm0  1  0.191644  0.383134  0.250000  1
  Sm  Sm1  1  0.808602  0.616896  0.750000  1
  Sm  Sm2  1  0.613668  0.809331  0.250000  1
  Sm  Sm3  1  0.386179  0.190632  0.750000  1
  Sm  Sm4  1  0.196273  0.808638  0.250000  1
  Er  Er5  1  0.800391  0.193401  0.750000  1
  Al  Al6  1  0.164210  0.329826  0.578300  1
  Al  Al7  1  0.834567  0.668944  0.422992  1
  Al  Al8  1  0.670824  0.835391  0.576535  1
  Al  Al9  1  0.834567  0.668944  0.077008  1
  Al  Al10  1  0.330409  0.165759  0.424886  1
  Al  Al11  1  0.164210  0.329826  0.921700  1
  Al  Al12  1  0.164532  0.834205  0.575945  1
  Al  Al13  1  0.330409  0.165759  0.075114  1
  Al  Al14  1  0.835879  0.165686  0.426233  1
  Al  Al15  1  0.670824  0.835391  0.923465  1
  Al  Al16  1  0.835879  0.165686  0.073767  1
  Al  Al17  1  0.164532  0.834205  0.924055  1
  Al  Al18  1  0.871142  0.431511  0.250000  1
  Al  Al19  1  0.127558  0.566329  0.750000  1
  Al  Al20  1  0.561009  0.432018  0.250000  1
  Al  Al21  1  0.438821  0.568058  0.750000  1
  Al  Al22  1  0.999478  0.998175  0.250000  1
  Al  Al23  1  0.997719  0.004299  0.750000  1
  Si  Si24  1  0.332360  0.663602  0.035718  1
  Si  Si25  1  0.668587  0.335541  0.962295  1
  Si  Si26  1  0.668587  0.335541  0.537705  1
  Si  Si27  1  0.332360  0.663602  0.464282  1
  Si  Si28  1  0.564569  0.128323  0.250000  1
  Si  Si29  1  0.437647  0.872948  0.750000  1
  Os  Os30  1  0.501100  0.000608  0.998758  1
  Os  Os31  1  0.999459  0.498942  0.999195  1
  Os  Os32  1  0.501100  0.000608  0.501242  1
  Os  Os33  1  0.500336  0.499801  0.999714  1
  Os  Os34  1  0.999459  0.498942  0.500805  1
  Os  Os35  1  0.500336  0.499801  0.500286  1
  Os  Os36  1  0.000385  0.999846  0.000043  1
  Os  Os37  1  0.000385  0.999846  0.499957  1
