# generated using pymatgen
data_DyY7Ti12Si15P
_symmetry_space_group_name_H-M   'P 1'
_cell_length_a   7.04786077
_cell_length_b   7.05467185
_cell_length_c   12.95547501
_cell_angle_alpha   90.00348043
_cell_angle_beta   89.90589877
_cell_angle_gamma   90.02874406
_symmetry_Int_Tables_number   1
_chemical_formula_structural   DyY7Ti12Si15P
_chemical_formula_sum   'Dy1 Y7 Ti12 Si15 P1'
_cell_volume   644.14973528
_cell_formula_units_Z   1
loop_
 _symmetry_equiv_pos_site_id
 _symmetry_equiv_pos_as_xyz
  1  'x, y, z'
loop_
 _atom_site_type_symbol
 _atom_site_label
 _atom_site_symmetry_multiplicity
 _atom_site_fract_x
 _atom_site_fract_y
 _atom_site_fract_z
 _atom_site_occupancy
  Dy  Dy0  1  0.338683  0.999846  0.467004  1
  Y  Y1  1  0.997284  0.659614  0.033590  1
  Y  Y2  1  0.003204  0.344622  0.532133  1
  Y  Y3  1  0.659708  0.997379  0.966611  1
  Y  Y4  1  0.159653  0.502945  0.782700  1
  Y  Y5  1  0.842186  0.498791  0.284657  1
  Y  Y6  1  0.502649  0.159979  0.217197  1
  Y  Y7  1  0.497517  0.841318  0.716523  1
  Ti  Ti8  1  0.343569  0.510930  0.374938  1
  Ti  Ti9  1  0.850122  0.987847  0.377306  1
  Ti  Ti10  1  0.008366  0.152188  0.124040  1
  Ti  Ti11  1  0.992816  0.845718  0.620547  1
  Ti  Ti12  1  0.508927  0.346433  0.625690  1
  Ti  Ti13  1  0.151818  0.008323  0.876284  1
  Ti  Ti14  1  0.674476  0.673718  0.499391  1
  Ti  Ti15  1  0.826972  0.173348  0.749642  1
  Ti  Ti16  1  0.172123  0.825797  0.251878  1
  Ti  Ti17  1  0.326847  0.326652  0.000065  1
  Ti  Ti18  1  0.491557  0.652059  0.126555  1
  Ti  Ti19  1  0.652287  0.491515  0.873719  1
  Si  Si20  1  0.952995  0.290884  0.935171  1
  Si  Si21  1  0.709708  0.047734  0.564546  1
  Si  Si22  1  0.209176  0.452532  0.185349  1
  Si  Si23  1  0.790835  0.547136  0.685219  1
  Si  Si24  1  0.452550  0.209375  0.814660  1
  Si  Si25  1  0.546662  0.790978  0.314810  1
  Si  Si26  1  0.290804  0.952731  0.065171  1
  Si  Si27  1  0.797001  0.870650  0.184717  1
  Si  Si28  1  0.302042  0.628838  0.567331  1
  Si  Si29  1  0.702476  0.369952  0.065571  1
  Si  Si30  1  0.628702  0.297412  0.434175  1
  Si  Si31  1  0.370071  0.702600  0.934564  1
  Si  Si32  1  0.130212  0.202038  0.315617  1
  Si  Si33  1  0.201012  0.130177  0.683937  1
  Si  Si34  1  0.870415  0.797679  0.814545  1
  P  P35  1  0.044567  0.710263  0.434145  1
