# generated using pymatgen
data_Yb3Zn8Ru
_symmetry_space_group_name_H-M   'P 1'
_cell_length_a   5.31905443
_cell_length_b   5.31905608
_cell_length_c   9.34072524
_cell_angle_alpha   73.45766587
_cell_angle_beta   73.45765084
_cell_angle_gamma   60.00001253
_symmetry_Int_Tables_number   1
_chemical_formula_structural   Yb3Zn8Ru
_chemical_formula_sum   'Yb3 Zn8 Ru1'
_cell_volume   216.14278728
_cell_formula_units_Z   1
loop_
 _symmetry_equiv_pos_site_id
 _symmetry_equiv_pos_as_xyz
  1  'x, y, z'
loop_
 _atom_site_type_symbol
 _atom_site_label
 _atom_site_symmetry_multiplicity
 _atom_site_fract_x
 _atom_site_fract_y
 _atom_site_fract_z
 _atom_site_occupancy
  Yb  Yb0  1  0.147065  0.147065  0.558802  1
  Yb  Yb1  1  0.852935  0.852935  0.441198  1
  Yb  Yb2  1  0.000000  0.000000  0.000000  1
  Zn  Zn3  1  0.087865  0.582110  0.747916  1
  Zn  Zn4  1  0.582110  0.582110  0.747916  1
  Zn  Zn5  1  0.582110  0.087865  0.747916  1
  Zn  Zn6  1  0.912135  0.417890  0.252084  1
  Zn  Zn7  1  0.417890  0.417890  0.252084  1
  Zn  Zn8  1  0.417890  0.912135  0.252084  1
  Zn  Zn9  1  0.330699  0.330699  0.007905  1
  Zn  Zn10  1  0.669301  0.669301  0.992095  1
  Ru  Ru11  1  0.500000  0.500000  0.500000  1
