# generated using pymatgen
data_La2Y3Co2
_symmetry_space_group_name_H-M   'P 1'
_cell_length_a   8.93030062
_cell_length_b   8.93030092
_cell_length_c   6.96740387
_cell_angle_alpha   84.72549649
_cell_angle_beta   84.72550353
_cell_angle_gamma   42.65888046
_symmetry_Int_Tables_number   1
_chemical_formula_structural   La2Y3Co2
_chemical_formula_sum   'La4 Y6 Co4'
_cell_volume   374.68983917
_cell_formula_units_Z   2
loop_
 _symmetry_equiv_pos_site_id
 _symmetry_equiv_pos_as_xyz
  1  'x, y, z'
loop_
 _atom_site_type_symbol
 _atom_site_label
 _atom_site_symmetry_multiplicity
 _atom_site_fract_x
 _atom_site_fract_y
 _atom_site_fract_z
 _atom_site_occupancy
  La  La0  1  0.016988  0.787987  0.896410  1
  La  La1  1  0.212013  0.983012  0.603590  1
  La  La2  1  0.983012  0.212013  0.103590  1
  La  La3  1  0.787987  0.016988  0.396410  1
  Y  Y4  1  0.359946  0.214253  0.821031  1
  Y  Y5  1  0.785747  0.640054  0.678969  1
  Y  Y6  1  0.640054  0.785747  0.178969  1
  Y  Y7  1  0.214253  0.359946  0.321031  1
  Y  Y8  1  0.571889  0.428111  0.750000  1
  Y  Y9  1  0.428111  0.571889  0.250000  1
  Co  Co10  1  0.169767  0.603843  0.583387  1
  Co  Co11  1  0.396157  0.830233  0.916613  1
  Co  Co12  1  0.830233  0.396157  0.416613  1
  Co  Co13  1  0.603843  0.169767  0.083387  1
