# generated using pymatgen
data_Sr3Eu3(InP2)4
_symmetry_space_group_name_H-M   'P 1'
_cell_length_a   4.35602800
_cell_length_b   6.74800147
_cell_length_c   16.43198941
_cell_angle_alpha   90.31019197
_cell_angle_beta   90.00000000
_cell_angle_gamma   90.00000000
_symmetry_Int_Tables_number   1
_chemical_formula_structural   Sr3Eu3(InP2)4
_chemical_formula_sum   'Sr3 Eu3 In4 P8'
_cell_volume   483.00276060
_cell_formula_units_Z   1
loop_
 _symmetry_equiv_pos_site_id
 _symmetry_equiv_pos_as_xyz
  1  'x, y, z'
loop_
 _atom_site_type_symbol
 _atom_site_label
 _atom_site_symmetry_multiplicity
 _atom_site_fract_x
 _atom_site_fract_y
 _atom_site_fract_z
 _atom_site_occupancy
  Sr  Sr0  1  0.000000  0.212081  0.301793  1
  Sr  Sr1  1  0.000000  0.787033  0.697372  1
  Sr  Sr2  1  0.500000  0.287289  0.802808  1
  Eu  Eu3  1  0.500000  0.706829  0.197006  1
  Eu  Eu4  1  0.500000  0.000200  0.001109  1
  Eu  Eu5  1  0.000000  0.499679  0.499430  1
  In  In6  1  0.500000  0.860798  0.411813  1
  In  In7  1  0.500000  0.138006  0.585577  1
  In  In8  1  0.000000  0.638920  0.915546  1
  In  In9  1  0.000000  0.363750  0.086893  1
  P  P10  1  0.500000  0.240269  0.165410  1
  P  P11  1  0.500000  0.764322  0.836169  1
  P  P12  1  0.000000  0.264949  0.664758  1
  P  P13  1  0.000000  0.733296  0.331147  1
  P  P14  1  0.000000  0.750028  0.070922  1
  P  P15  1  0.000000  0.253290  0.933846  1
  P  P16  1  0.500000  0.752871  0.565766  1
  P  P17  1  0.500000  0.246392  0.432634  1
