# generated using pymatgen
data_Pr2Y9In9Ni4
_symmetry_space_group_name_H-M   'P 1'
_cell_length_a   13.04187615
_cell_length_b   13.04187608
_cell_length_c   3.67459400
_cell_angle_alpha   90.00000000
_cell_angle_beta   90.00000000
_cell_angle_gamma   111.31097634
_symmetry_Int_Tables_number   1
_chemical_formula_structural   Pr2Y9In9Ni4
_chemical_formula_sum   'Pr2 Y9 In9 Ni4'
_cell_volume   582.27623023
_cell_formula_units_Z   1
loop_
 _symmetry_equiv_pos_site_id
 _symmetry_equiv_pos_as_xyz
  1  'x, y, z'
loop_
 _atom_site_type_symbol
 _atom_site_label
 _atom_site_symmetry_multiplicity
 _atom_site_fract_x
 _atom_site_fract_y
 _atom_site_fract_z
 _atom_site_occupancy
  Pr  Pr0  1  0.341401  0.658599  0.500000  1
  Pr  Pr1  1  0.658599  0.341401  0.500000  1
  Y  Y2  1  0.500000  0.500000  0.500000  1
  Y  Y3  1  0.814410  0.814410  0.500000  1
  Y  Y4  1  0.185590  0.185590  0.500000  1
  Y  Y5  1  0.578960  0.919392  0.500000  1
  Y  Y6  1  0.421040  0.080608  0.500000  1
  Y  Y7  1  0.919392  0.578960  0.500000  1
  Y  Y8  1  0.080608  0.421040  0.500000  1
  Y  Y9  1  0.126275  0.873725  0.500000  1
  Y  Y10  1  0.873725  0.126275  0.500000  1
  In  In11  1  0.338515  0.870789  0.000000  1
  In  In12  1  0.661485  0.129211  0.000000  1
  In  In13  1  0.870789  0.338515  0.000000  1
  In  In14  1  0.129211  0.661485  0.000000  1
  In  In15  1  0.582149  0.722587  0.000000  1
  In  In16  1  0.417851  0.277413  0.000000  1
  In  In17  1  0.722587  0.582149  0.000000  1
  In  In18  1  0.277413  0.417851  0.000000  1
  In  In19  1  0.000000  0.000000  0.000000  1
  Ni  Ni20  1  0.748773  0.951967  0.000000  1
  Ni  Ni21  1  0.251227  0.048033  0.000000  1
  Ni  Ni22  1  0.951967  0.748773  0.000000  1
  Ni  Ni23  1  0.048033  0.251227  0.000000  1
