# generated using pymatgen
data_DyLu(PPt)2
_symmetry_space_group_name_H-M   'P 1'
_cell_length_a   4.08978900
_cell_length_b   4.08978997
_cell_length_c   15.57979500
_cell_angle_alpha   90.00000000
_cell_angle_beta   90.00000000
_cell_angle_gamma   120.00000025
_symmetry_Int_Tables_number   1
_chemical_formula_structural   DyLu(PPt)2
_chemical_formula_sum   'Dy2 Lu2 P4 Pt4'
_cell_volume   225.68062577
_cell_formula_units_Z   2
loop_
 _symmetry_equiv_pos_site_id
 _symmetry_equiv_pos_as_xyz
  1  'x, y, z'
loop_
 _atom_site_type_symbol
 _atom_site_label
 _atom_site_symmetry_multiplicity
 _atom_site_fract_x
 _atom_site_fract_y
 _atom_site_fract_z
 _atom_site_occupancy
  Dy  Dy0  1  0.000000  0.000000  0.500000  1
  Dy  Dy1  1  0.000000  0.000000  0.000000  1
  Lu  Lu2  1  0.000000  0.000000  0.250000  1
  Lu  Lu3  1  0.000000  0.000000  0.750000  1
  P  P4  1  0.333333  0.666667  0.882413  1
  P  P5  1  0.666667  0.333333  0.117587  1
  P  P6  1  0.666667  0.333333  0.382413  1
  P  P7  1  0.333333  0.666667  0.617587  1
  Pt  Pt8  1  0.333333  0.666667  0.364310  1
  Pt  Pt9  1  0.666667  0.333333  0.635690  1
  Pt  Pt10  1  0.666667  0.333333  0.864310  1
  Pt  Pt11  1  0.333333  0.666667  0.135690  1
