# generated using pymatgen
data_Ho20CoHg8Os3
_symmetry_space_group_name_H-M   'P 1'
_cell_length_a   7.55489072
_cell_length_b   9.13261400
_cell_length_c   12.20844289
_cell_angle_alpha   90.00000000
_cell_angle_beta   89.60505876
_cell_angle_gamma   90.00000000
_symmetry_Int_Tables_number   1
_chemical_formula_structural   Ho20CoHg8Os3
_chemical_formula_sum   'Ho20 Co1 Hg8 Os3'
_cell_volume   842.31250354
_cell_formula_units_Z   1
loop_
 _symmetry_equiv_pos_site_id
 _symmetry_equiv_pos_as_xyz
  1  'x, y, z'
loop_
 _atom_site_type_symbol
 _atom_site_label
 _atom_site_symmetry_multiplicity
 _atom_site_fract_x
 _atom_site_fract_y
 _atom_site_fract_z
 _atom_site_occupancy
  Ho  Ho0  1  0.343949  0.750000  0.715915  1
  Ho  Ho1  1  0.658730  0.250000  0.279771  1
  Ho  Ho2  1  0.843151  0.250000  0.781059  1
  Ho  Ho3  1  0.158061  0.750000  0.218786  1
  Ho  Ho4  1  0.876957  0.750000  0.810677  1
  Ho  Ho5  1  0.126854  0.250000  0.189747  1
  Ho  Ho6  1  0.374531  0.250000  0.688980  1
  Ho  Ho7  1  0.615920  0.750000  0.316550  1
  Ho  Ho8  1  0.673470  0.536634  0.576218  1
  Ho  Ho9  1  0.324562  0.466234  0.424031  1
  Ho  Ho10  1  0.175904  0.465800  0.923433  1
  Ho  Ho11  1  0.324562  0.033766  0.424031  1
  Ho  Ho12  1  0.823525  0.534167  0.077358  1
  Ho  Ho13  1  0.673470  0.963366  0.576218  1
  Ho  Ho14  1  0.823525  0.965833  0.077358  1
  Ho  Ho15  1  0.175904  0.034200  0.923433  1
  Ho  Ho16  1  0.055544  0.750000  0.499091  1
  Ho  Ho17  1  0.951560  0.250000  0.499429  1
  Ho  Ho18  1  0.547523  0.250000  0.000961  1
  Ho  Ho19  1  0.451099  0.750000  0.997688  1
  Co  Co20  1  0.426971  0.750000  0.499074  1
  Hg  Hg21  1  0.576566  0.507426  0.833558  1
  Hg  Hg22  1  0.424723  0.494134  0.165914  1
  Hg  Hg23  1  0.077586  0.493502  0.664102  1
  Hg  Hg24  1  0.424723  0.005866  0.165914  1
  Hg  Hg25  1  0.922124  0.508786  0.335050  1
  Hg  Hg26  1  0.576566  0.992574  0.833558  1
  Hg  Hg27  1  0.922124  0.991214  0.335050  1
  Hg  Hg28  1  0.077586  0.006498  0.664102  1
  Os  Os29  1  0.072108  0.750000  0.998112  1
  Os  Os30  1  0.927436  0.250000  0.003252  1
  Os  Os31  1  0.572687  0.250000  0.501584  1
