# generated using pymatgen
data_Pr7C3Cl10
_symmetry_space_group_name_H-M   'P 1'
_cell_length_a   8.97636203
_cell_length_b   10.86976569
_cell_length_c   13.20733000
_cell_angle_alpha   86.39215284
_cell_angle_beta   107.65571873
_cell_angle_gamma   113.28695100
_symmetry_Int_Tables_number   1
_chemical_formula_structural   Pr7C3Cl10
_chemical_formula_sum   'Pr14 C6 Cl20'
_cell_volume   1125.52570130
_cell_formula_units_Z   2
loop_
 _symmetry_equiv_pos_site_id
 _symmetry_equiv_pos_as_xyz
  1  'x, y, z'
loop_
 _atom_site_type_symbol
 _atom_site_label
 _atom_site_symmetry_multiplicity
 _atom_site_fract_x
 _atom_site_fract_y
 _atom_site_fract_z
 _atom_site_occupancy
  Pr  Pr0  1  0.595983  0.217690  0.575014  1
  Pr  Pr1  1  0.404017  0.782310  0.424986  1
  Pr  Pr2  1  0.943589  0.381763  0.819104  1
  Pr  Pr3  1  0.056411  0.618237  0.180896  1
  Pr  Pr4  1  0.682073  0.451020  0.922259  1
  Pr  Pr5  1  0.317927  0.548980  0.077741  1
  Pr  Pr6  1  0.072402  0.761842  0.898717  1
  Pr  Pr7  1  0.927598  0.238158  0.101283  1
  Pr  Pr8  1  0.303142  0.412287  0.363755  1
  Pr  Pr9  1  0.696858  0.587713  0.636245  1
  Pr  Pr10  1  0.687818  0.711649  0.312081  1
  Pr  Pr11  1  0.312182  0.288351  0.687919  1
  Pr  Pr12  1  0.470819  0.944082  0.171497  1
  Pr  Pr13  1  0.529181  0.055918  0.828503  1
  C  C14  1  0.602265  0.266191  0.766191  1
  C  C15  1  0.397735  0.733809  0.233809  1
  C  C16  1  0.981159  0.437939  0.023033  1
  C  C17  1  0.018841  0.562061  0.976967  1
  C  C18  1  0.640267  0.390347  0.720447  1
  C  C19  1  0.359733  0.609653  0.279553  1
  Cl  Cl20  1  0.663637  0.456578  0.438108  1
  Cl  Cl21  1  0.336363  0.543422  0.561892  1
  Cl  Cl22  1  0.050852  0.635983  0.707366  1
  Cl  Cl23  1  0.949148  0.364017  0.292634  1
  Cl  Cl24  1  0.943905  0.255447  0.629580  1
  Cl  Cl25  1  0.056095  0.744553  0.370420  1
  Cl  Cl26  1  0.722488  0.715716  0.828113  1
  Cl  Cl27  1  0.277512  0.284284  0.171887  1
  Cl  Cl28  1  0.319414  0.419842  0.877765  1
  Cl  Cl29  1  0.680586  0.580158  0.122235  1
  Cl  Cl30  1  0.566286  0.184416  0.031179  1
  Cl  Cl31  1  0.433714  0.815584  0.968821  1
  Cl  Cl32  1  0.515307  0.057759  0.368191  1
  Cl  Cl33  1  0.484693  0.942241  0.631809  1
  Cl  Cl34  1  0.883266  0.106547  0.907879  1
  Cl  Cl35  1  0.116734  0.893453  0.092121  1
  Cl  Cl36  1  0.188706  0.028180  0.776142  1
  Cl  Cl37  1  0.811294  0.971820  0.223858  1
  Cl  Cl38  1  0.241509  0.162757  0.488368  1
  Cl  Cl39  1  0.758491  0.837243  0.511632  1
