# generated using pymatgen
data_Li5AlAu2
_symmetry_space_group_name_H-M   'P 1'
_cell_length_a   4.49787823
_cell_length_b   6.11229350
_cell_length_c   4.49891826
_cell_angle_alpha   89.84816351
_cell_angle_beta   89.99001132
_cell_angle_gamma   89.98318564
_symmetry_Int_Tables_number   1
_chemical_formula_structural   Li5AlAu2
_chemical_formula_sum   'Li5 Al1 Au2'
_cell_volume   123.68540246
_cell_formula_units_Z   1
loop_
 _symmetry_equiv_pos_site_id
 _symmetry_equiv_pos_as_xyz
  1  'x, y, z'
loop_
 _atom_site_type_symbol
 _atom_site_label
 _atom_site_symmetry_multiplicity
 _atom_site_fract_x
 _atom_site_fract_y
 _atom_site_fract_z
 _atom_site_occupancy
  Li  Li0  1  0.130000  0.952293  0.189849  1
  Li  Li1  1  0.630603  0.452114  0.677036  1
  Li  Li2  1  0.630593  0.952248  0.675612  1
  Li  Li3  1  0.130951  0.187655  0.692962  1
  Li  Li4  1  0.629880  0.716781  0.171443  1
  Al  Al5  1  0.129929  0.452208  0.191311  1
  Au  Au6  1  0.130598  0.684797  0.690345  1
  Au  Au7  1  0.629824  0.219532  0.179109  1
