# generated using pymatgen
data_K3Sr(CeSe3)2
_symmetry_space_group_name_H-M   'P 1'
_cell_length_a   7.62126662
_cell_length_b   7.62126613
_cell_length_c   8.06181126
_cell_angle_alpha   99.05773457
_cell_angle_beta   99.05774189
_cell_angle_gamma   120.02328904
_symmetry_Int_Tables_number   1
_chemical_formula_structural   K3Sr(CeSe3)2
_chemical_formula_sum   'K3 Sr1 Ce2 Se6'
_cell_volume   384.79396259
_cell_formula_units_Z   1
loop_
 _symmetry_equiv_pos_site_id
 _symmetry_equiv_pos_as_xyz
  1  'x, y, z'
loop_
 _atom_site_type_symbol
 _atom_site_label
 _atom_site_symmetry_multiplicity
 _atom_site_fract_x
 _atom_site_fract_y
 _atom_site_fract_z
 _atom_site_occupancy
  K  K0  1  0.836686  0.163314  0.500000  1
  K  K1  1  0.500000  0.500000  0.500000  1
  K  K2  1  0.163314  0.836686  0.500000  1
  Sr  Sr3  1  0.000000  0.000000  0.000000  1
  Ce  Ce4  1  0.667136  0.332864  0.000000  1
  Ce  Ce5  1  0.332864  0.667136  0.000000  1
  Se  Se6  1  0.718202  0.718202  0.207949  1
  Se  Se7  1  0.421658  0.069943  0.209010  1
  Se  Se8  1  0.069943  0.421658  0.209010  1
  Se  Se9  1  0.930058  0.578343  0.790991  1
  Se  Se10  1  0.578343  0.930058  0.790991  1
  Se  Se11  1  0.281799  0.281799  0.792051  1
