# generated using pymatgen
data_Ho5Co11Si5P7Ru8
_symmetry_space_group_name_H-M   'P 1'
_cell_length_a   12.29557123
_cell_length_b   12.32119969
_cell_length_c   3.75682700
_cell_angle_alpha   90.00000000
_cell_angle_beta   90.00000000
_cell_angle_gamma   119.77143400
_symmetry_Int_Tables_number   1
_chemical_formula_structural   Ho5Co11Si5P7Ru8
_chemical_formula_sum   'Ho5 Co11 Si5 P7 Ru8'
_cell_volume   494.02530334
_cell_formula_units_Z   1
loop_
 _symmetry_equiv_pos_site_id
 _symmetry_equiv_pos_as_xyz
  1  'x, y, z'
loop_
 _atom_site_type_symbol
 _atom_site_label
 _atom_site_symmetry_multiplicity
 _atom_site_fract_x
 _atom_site_fract_y
 _atom_site_fract_z
 _atom_site_occupancy
  Ho  Ho0  1  0.667182  0.333603  0.000000  1
  Ho  Ho1  1  0.330172  0.662616  0.000000  1
  Ho  Ho2  1  0.817939  0.816963  0.500000  1
  Ho  Ho3  1  0.181253  0.001138  0.500000  1
  Ho  Ho4  1  0.998468  0.180452  0.500000  1
  Co  Co5  1  0.128183  0.476604  0.500000  1
  Co  Co6  1  0.807300  0.171815  0.000000  1
  Co  Co7  1  0.829216  0.633186  0.000000  1
  Co  Co8  1  0.364291  0.195451  0.000000  1
  Co  Co9  1  0.173074  0.805416  0.000000  1
  Co  Co10  1  0.632816  0.824626  0.000000  1
  Co  Co11  1  0.193453  0.372583  0.000000  1
  Co  Co12  1  0.272514  0.281390  0.500000  1
  Co  Co13  1  0.725900  0.998700  0.500000  1
  Co  Co14  1  0.001183  0.725219  0.500000  1
  Co  Co15  1  0.001130  0.000355  0.000000  1
  Si  Si16  1  0.683877  0.157733  0.500000  1
  Si  Si17  1  0.845675  0.525043  0.500000  1
  Si  Si18  1  0.473599  0.319750  0.500000  1
  Si  Si19  1  0.156342  0.678235  0.500000  1
  Si  Si20  1  0.524436  0.842339  0.500000  1
  P  P21  1  0.310089  0.476056  0.500000  1
  P  P22  1  0.177800  0.181051  0.000000  1
  P  P23  1  0.820437  0.998255  0.000000  1
  P  P24  1  0.000653  0.820644  0.000000  1
  P  P25  1  0.634795  0.634468  0.000000  1
  P  P26  1  0.365520  0.999834  0.000000  1
  P  P27  1  0.004215  0.365161  0.000000  1
  Ru  Ru28  1  0.881602  0.351396  0.500000  1
  Ru  Ru29  1  0.650210  0.524980  0.500000  1
  Ru  Ru30  1  0.475539  0.126660  0.500000  1
  Ru  Ru31  1  0.349181  0.873427  0.500000  1
  Ru  Ru32  1  0.515195  0.644359  0.500000  1
  Ru  Ru33  1  0.439766  0.441658  0.000000  1
  Ru  Ru34  1  0.560362  0.000341  0.000000  1
  Ru  Ru35  1  0.006630  0.558494  0.000000  1
