# generated using pymatgen
data_Na2V3Co2(NiAs)7
_symmetry_space_group_name_H-M   'P 1'
_cell_length_a   9.47029440
_cell_length_b   9.47395216
_cell_length_c   3.77031600
_cell_angle_alpha   90.00000000
_cell_angle_beta   90.00000000
_cell_angle_gamma   119.95430528
_symmetry_Int_Tables_number   1
_chemical_formula_structural   Na2V3Co2(NiAs)7
_chemical_formula_sum   'Na2 V3 Co2 Ni7 As7'
_cell_volume   293.09123887
_cell_formula_units_Z   1
loop_
 _symmetry_equiv_pos_site_id
 _symmetry_equiv_pos_as_xyz
  1  'x, y, z'
loop_
 _atom_site_type_symbol
 _atom_site_label
 _atom_site_symmetry_multiplicity
 _atom_site_fract_x
 _atom_site_fract_y
 _atom_site_fract_z
 _atom_site_occupancy
  Na  Na0  1  0.333818  0.666778  0.000000  1
  Na  Na1  1  0.667150  0.333735  0.500000  1
  V  V2  1  0.214913  0.119087  0.500000  1
  V  V3  1  0.880049  0.095918  0.500000  1
  V  V4  1  0.903293  0.784756  0.500000  1
  Co  Co5  1  0.121003  0.278580  0.000000  1
  Co  Co6  1  0.722442  0.843448  0.000000  1
  Ni  Ni7  1  0.157030  0.878170  0.000000  1
  Ni  Ni8  1  0.430026  0.375373  0.000000  1
  Ni  Ni9  1  0.626496  0.055301  0.000000  1
  Ni  Ni10  1  0.944838  0.569359  0.000000  1
  Ni  Ni11  1  0.046886  0.430186  0.500000  1
  Ni  Ni12  1  0.568906  0.616327  0.500000  1
  Ni  Ni13  1  0.383102  0.952513  0.500000  1
  As  As14  1  0.289467  0.408832  0.500000  1
  As  As15  1  0.590226  0.879624  0.500000  1
  As  As16  1  0.118622  0.708817  0.500000  1
  As  As17  1  0.413567  0.119887  0.000000  1
  As  As18  1  0.882062  0.292548  0.000000  1
  As  As19  1  0.707233  0.589379  0.000000  1
  As  As20  1  0.998869  0.001382  0.000000  1
