# generated using pymatgen
data_CsPtRhSe4
_symmetry_space_group_name_H-M   'P 1'
_cell_length_a   6.58112000
_cell_length_b   7.61840500
_cell_length_c   16.69807700
_cell_angle_alpha   90.00000000
_cell_angle_beta   90.00000000
_cell_angle_gamma   90.00000000
_symmetry_Int_Tables_number   1
_chemical_formula_structural   CsPtRhSe4
_chemical_formula_sum   'Cs4 Pt4 Rh4 Se16'
_cell_volume   837.20213180
_cell_formula_units_Z   4
loop_
 _symmetry_equiv_pos_site_id
 _symmetry_equiv_pos_as_xyz
  1  'x, y, z'
loop_
 _atom_site_type_symbol
 _atom_site_label
 _atom_site_symmetry_multiplicity
 _atom_site_fract_x
 _atom_site_fract_y
 _atom_site_fract_z
 _atom_site_occupancy
  Cs  Cs0  1  0.349454  0.000000  0.000000  1
  Cs  Cs1  1  0.650546  0.500000  0.500000  1
  Cs  Cs2  1  0.031221  0.000000  0.500000  1
  Cs  Cs3  1  0.968779  0.500000  0.000000  1
  Pt  Pt4  1  0.500000  0.250000  0.250000  1
  Pt  Pt5  1  0.500000  0.750000  0.750000  1
  Pt  Pt6  1  0.500000  0.750000  0.250000  1
  Pt  Pt7  1  0.500000  0.250000  0.750000  1
  Rh  Rh8  1  0.002221  0.000000  0.250872  1
  Rh  Rh9  1  0.002221  0.000000  0.749128  1
  Rh  Rh10  1  0.997779  0.500000  0.249128  1
  Rh  Rh11  1  0.997779  0.500000  0.750872  1
  Se  Se12  1  0.837167  0.250593  0.325925  1
  Se  Se13  1  0.837167  0.749407  0.674075  1
  Se  Se14  1  0.162833  0.750593  0.174075  1
  Se  Se15  1  0.162833  0.249407  0.825925  1
  Se  Se16  1  0.162833  0.249407  0.174075  1
  Se  Se17  1  0.162833  0.750593  0.825925  1
  Se  Se18  1  0.837167  0.749407  0.325925  1
  Se  Se19  1  0.837167  0.250593  0.674075  1
  Se  Se20  1  0.673506  0.000000  0.175234  1
  Se  Se21  1  0.673506  0.000000  0.824766  1
  Se  Se22  1  0.326494  0.500000  0.324766  1
  Se  Se23  1  0.326494  0.500000  0.675234  1
  Se  Se24  1  0.335692  0.000000  0.325206  1
  Se  Se25  1  0.335692  0.000000  0.674794  1
  Se  Se26  1  0.664308  0.500000  0.174794  1
  Se  Se27  1  0.664308  0.500000  0.825206  1
