# generated using pymatgen
data_KTbDyCuSe4
_symmetry_space_group_name_H-M   'P 1'
_cell_length_a   7.33836111
_cell_length_b   7.33836089
_cell_length_c   14.41097300
_cell_angle_alpha   90.00000000
_cell_angle_beta   90.00000000
_cell_angle_gamma   147.34229999
_symmetry_Int_Tables_number   1
_chemical_formula_structural   KTbDyCuSe4
_chemical_formula_sum   'K2 Tb2 Dy2 Cu2 Se8'
_cell_volume   418.77293698
_cell_formula_units_Z   2
loop_
 _symmetry_equiv_pos_site_id
 _symmetry_equiv_pos_as_xyz
  1  'x, y, z'
loop_
 _atom_site_type_symbol
 _atom_site_label
 _atom_site_symmetry_multiplicity
 _atom_site_fract_x
 _atom_site_fract_y
 _atom_site_fract_z
 _atom_site_occupancy
  K  K0  1  0.110917  0.889083  0.250000  1
  K  K1  1  0.889083  0.110917  0.750000  1
  Tb  Tb2  1  0.634361  0.365639  0.935092  1
  Tb  Tb3  1  0.365639  0.634361  0.435092  1
  Dy  Dy4  1  0.634533  0.365467  0.565016  1
  Dy  Dy5  1  0.365467  0.634533  0.065016  1
  Cu  Cu6  1  0.161124  0.838876  0.749975  1
  Cu  Cu7  1  0.838876  0.161124  0.249975  1
  Se  Se8  1  0.000385  0.999615  0.500190  1
  Se  Se9  1  0.999615  0.000385  0.000190  1
  Se  Se10  1  0.734956  0.265044  0.111871  1
  Se  Se11  1  0.265719  0.734281  0.888250  1
  Se  Se12  1  0.564534  0.435466  0.749606  1
  Se  Se13  1  0.734281  0.265719  0.388250  1
  Se  Se14  1  0.435466  0.564534  0.249606  1
  Se  Se15  1  0.265044  0.734956  0.611871  1
