# generated using pymatgen
data_MgZr(ZnRh2)2
_symmetry_space_group_name_H-M   'P 1'
_cell_length_a   6.17928900
_cell_length_b   6.17993600
_cell_length_c   6.32583000
_cell_angle_alpha   90.00009164
_cell_angle_beta   89.99891683
_cell_angle_gamma   89.99938807
_symmetry_Int_Tables_number   1
_chemical_formula_structural   MgZr(ZnRh2)2
_chemical_formula_sum   'Mg2 Zr2 Zn4 Rh8'
_cell_volume   241.56833239
_cell_formula_units_Z   2
loop_
 _symmetry_equiv_pos_site_id
 _symmetry_equiv_pos_as_xyz
  1  'x, y, z'
loop_
 _atom_site_type_symbol
 _atom_site_label
 _atom_site_symmetry_multiplicity
 _atom_site_fract_x
 _atom_site_fract_y
 _atom_site_fract_z
 _atom_site_occupancy
  Mg  Mg0  1  0.750007  0.250003  0.999993  1
  Mg  Mg1  1  0.249993  0.749996  0.999997  1
  Zr  Zr2  1  0.250057  0.749995  0.499990  1
  Zr  Zr3  1  0.749941  0.250003  0.499995  1
  Zn  Zn4  1  0.250059  0.250000  0.999981  1
  Zn  Zn5  1  0.749941  0.750000  0.000026  1
  Zn  Zn6  1  0.749967  0.749998  0.499976  1
  Zn  Zn7  1  0.250033  0.250001  0.500001  1
  Rh  Rh8  1  0.499983  0.000010  0.244167  1
  Rh  Rh9  1  0.499979  0.499989  0.244153  1
  Rh  Rh10  1  0.999995  0.000004  0.244216  1
  Rh  Rh11  1  0.999992  0.499993  0.244213  1
  Rh  Rh12  1  0.000005  0.999999  0.755795  1
  Rh  Rh13  1  0.000008  0.500007  0.755795  1
  Rh  Rh14  1  0.500020  0.999991  0.755846  1
  Rh  Rh15  1  0.500020  0.500009  0.755851  1
