# generated using pymatgen
data_YHo3(Si4Tc3)2
_symmetry_space_group_name_H-M   'P 1'
_cell_length_a   6.78428556
_cell_length_b   6.77015617
_cell_length_c   6.77326002
_cell_angle_alpha   69.77724681
_cell_angle_beta   89.99757232
_cell_angle_gamma   89.95540381
_symmetry_Int_Tables_number   1
_chemical_formula_structural   YHo3(Si4Tc3)2
_chemical_formula_sum   'Y1 Ho3 Si8 Tc6'
_cell_volume   291.92276593
_cell_formula_units_Z   1
loop_
 _symmetry_equiv_pos_site_id
 _symmetry_equiv_pos_as_xyz
  1  'x, y, z'
loop_
 _atom_site_type_symbol
 _atom_site_label
 _atom_site_symmetry_multiplicity
 _atom_site_fract_x
 _atom_site_fract_y
 _atom_site_fract_z
 _atom_site_occupancy
  Y  Y0  1  0.667660  0.441730  0.191316  1
  Ho  Ho1  1  0.167817  0.057695  0.808491  1
  Ho  Ho2  1  0.331937  0.557937  0.808088  1
  Ho  Ho3  1  0.832261  0.942148  0.191667  1
  Si  Si4  1  0.448388  0.121823  0.102421  1
  Si  Si5  1  0.949089  0.377679  0.896764  1
  Si  Si6  1  0.551173  0.877957  0.896985  1
  Si  Si7  1  0.051784  0.622573  0.102465  1
  Si  Si8  1  0.858798  0.130941  0.513383  1
  Si  Si9  1  0.357912  0.368585  0.487488  1
  Si  Si10  1  0.141474  0.868523  0.487359  1
  Si  Si11  1  0.641568  0.631755  0.513431  1
  Tc  Tc12  1  0.499711  0.999423  0.500381  1
  Tc  Tc13  1  0.000632  0.500033  0.500459  1
  Tc  Tc14  1  0.150081  0.242540  0.239461  1
  Tc  Tc15  1  0.650071  0.257371  0.760223  1
  Tc  Tc16  1  0.850380  0.757907  0.760203  1
  Tc  Tc17  1  0.349264  0.743379  0.239415  1
