# generated using pymatgen
data_La6Zn4Pd7Pt6
_symmetry_space_group_name_H-M   'P 1'
_cell_length_a   8.46956181
_cell_length_b   8.46524670
_cell_length_c   8.47383929
_cell_angle_alpha   109.63155143
_cell_angle_beta   109.41165437
_cell_angle_gamma   109.37048678
_symmetry_Int_Tables_number   1
_chemical_formula_structural   La6Zn4Pd7Pt6
_chemical_formula_sum   'La6 Zn4 Pd7 Pt6'
_cell_volume   467.68858826
_cell_formula_units_Z   1
loop_
 _symmetry_equiv_pos_site_id
 _symmetry_equiv_pos_as_xyz
  1  'x, y, z'
loop_
 _atom_site_type_symbol
 _atom_site_label
 _atom_site_symmetry_multiplicity
 _atom_site_fract_x
 _atom_site_fract_y
 _atom_site_fract_z
 _atom_site_occupancy
  La  La0  1  0.698655  0.697837  0.001300  1
  La  La1  1  0.301345  0.999182  0.302645  1
  La  La2  1  0.000000  0.300958  0.300507  1
  La  La3  1  0.302629  0.302945  0.000075  1
  La  La4  1  0.697371  0.000316  0.697446  1
  La  La5  1  0.000000  0.698157  0.697226  1
  Zn  Zn6  1  0.000000  0.000150  0.499542  1
  Zn  Zn7  1  0.000000  0.499728  0.999899  1
  Zn  Zn8  1  0.500736  0.000447  0.000576  1
  Zn  Zn9  1  0.499264  0.499711  0.499840  1
  Pd  Pd10  1  0.000000  0.331383  0.669919  1
  Pd  Pd11  1  0.330349  0.670300  0.000367  1
  Pd  Pd12  1  0.330819  0.000552  0.670896  1
  Pd  Pd13  1  0.660918  0.330989  0.331550  1
  Pd  Pd14  1  0.669181  0.669733  0.340076  1
  Pd  Pd15  1  0.669651  0.339950  0.670017  1
  Pd  Pd16  1  0.339082  0.670072  0.670634  1
  Pt  Pt17  1  0.329010  0.329826  0.658413  1
  Pt  Pt18  1  0.670990  0.000816  0.329403  1
  Pt  Pt19  1  0.000000  0.670565  0.330622  1
  Pt  Pt20  1  0.670868  0.329121  0.000737  1
  Pt  Pt21  1  0.329132  0.658254  0.329869  1
  Pt  Pt22  1  0.000000  0.999007  0.998443  1
