# generated using pymatgen
data_Ho3U(TcB4)4
_symmetry_space_group_name_H-M   'P 1'
_cell_length_a   3.59864800
_cell_length_b   5.94578800
_cell_length_c   11.50953600
_cell_angle_alpha   89.99858531
_cell_angle_beta   90.00000000
_cell_angle_gamma   90.00000000
_symmetry_Int_Tables_number   1
_chemical_formula_structural   Ho3U(TcB4)4
_chemical_formula_sum   'Ho3 U1 Tc4 B16'
_cell_volume   246.26721792
_cell_formula_units_Z   1
loop_
 _symmetry_equiv_pos_site_id
 _symmetry_equiv_pos_as_xyz
  1  'x, y, z'
loop_
 _atom_site_type_symbol
 _atom_site_label
 _atom_site_symmetry_multiplicity
 _atom_site_fract_x
 _atom_site_fract_y
 _atom_site_fract_z
 _atom_site_occupancy
  Ho  Ho0  1  0.000000  0.626533  0.650400  1
  Ho  Ho1  1  0.000000  0.372544  0.351039  1
  Ho  Ho2  1  0.000000  0.129287  0.849899  1
  U  U3  1  0.000000  0.871398  0.149362  1
  Tc  Tc4  1  0.000000  0.639761  0.912756  1
  Tc  Tc5  1  0.000000  0.360910  0.093447  1
  Tc  Tc6  1  0.000000  0.134367  0.587606  1
  Tc  Tc7  1  0.000000  0.867572  0.408592  1
  B  B8  1  0.500000  0.977151  0.692304  1
  B  B9  1  0.500000  0.020099  0.306285  1
  B  B10  1  0.500000  0.476512  0.808026  1
  B  B11  1  0.500000  0.527646  0.191731  1
  B  B12  1  0.500000  0.864491  0.969996  1
  B  B13  1  0.500000  0.133367  0.032445  1
  B  B14  1  0.500000  0.364739  0.531073  1
  B  B15  1  0.500000  0.636540  0.468070  1
  B  B16  1  0.500000  0.786975  0.813926  1
  B  B17  1  0.500000  0.207562  0.185305  1
  B  B18  1  0.500000  0.288409  0.684988  1
  B  B19  1  0.500000  0.712975  0.312751  1
  B  B20  1  0.500000  0.886977  0.546734  1
  B  B21  1  0.500000  0.113868  0.453070  1
  B  B22  1  0.500000  0.386677  0.952892  1
  B  B23  1  0.500000  0.613641  0.047304  1
