# generated using pymatgen
data_Tm20(InGa3)3
_symmetry_space_group_name_H-M   'P 1'
_cell_length_a   7.61273800
_cell_length_b   7.61273800
_cell_length_c   14.11124000
_cell_angle_alpha   90.00000000
_cell_angle_beta   90.00000000
_cell_angle_gamma   90.00000000
_symmetry_Int_Tables_number   1
_chemical_formula_structural   Tm20(InGa3)3
_chemical_formula_sum   'Tm20 In3 Ga9'
_cell_volume   817.79969646
_cell_formula_units_Z   1
loop_
 _symmetry_equiv_pos_site_id
 _symmetry_equiv_pos_as_xyz
  1  'x, y, z'
loop_
 _atom_site_type_symbol
 _atom_site_label
 _atom_site_symmetry_multiplicity
 _atom_site_fract_x
 _atom_site_fract_y
 _atom_site_fract_z
 _atom_site_occupancy
  Tm  Tm0  1  0.673111  0.161347  0.103660  1
  Tm  Tm1  1  0.168754  0.666884  0.607359  1
  Tm  Tm2  1  0.326889  0.838653  0.103660  1
  Tm  Tm3  1  0.831246  0.333116  0.607359  1
  Tm  Tm4  1  0.838653  0.673111  0.103660  1
  Tm  Tm5  1  0.333116  0.168754  0.607359  1
  Tm  Tm6  1  0.161347  0.326889  0.103660  1
  Tm  Tm7  1  0.666884  0.831246  0.607359  1
  Tm  Tm8  1  0.838653  0.326889  0.896340  1
  Tm  Tm9  1  0.333116  0.831246  0.392641  1
  Tm  Tm10  1  0.161347  0.673111  0.896340  1
  Tm  Tm11  1  0.666884  0.168754  0.392641  1
  Tm  Tm12  1  0.673111  0.838653  0.896340  1
  Tm  Tm13  1  0.168754  0.333116  0.392641  1
  Tm  Tm14  1  0.326889  0.161347  0.896340  1
  Tm  Tm15  1  0.831246  0.666884  0.392641  1
  Tm  Tm16  1  0.500000  0.500000  0.756493  1
  Tm  Tm17  1  0.000000  0.000000  0.250079  1
  Tm  Tm18  1  0.000000  0.000000  0.749921  1
  Tm  Tm19  1  0.500000  0.500000  0.243507  1
  In  In20  1  0.500000  0.500000  0.500000  1
  In  In21  1  0.500000  0.500000  0.000000  1
  In  In22  1  0.000000  0.000000  0.500000  1
  Ga  Ga23  1  0.624137  0.124793  0.751231  1
  Ga  Ga24  1  0.124793  0.624137  0.248769  1
  Ga  Ga25  1  0.875207  0.375863  0.248769  1
  Ga  Ga26  1  0.375863  0.875207  0.751231  1
  Ga  Ga27  1  0.875207  0.624137  0.751231  1
  Ga  Ga28  1  0.375863  0.124793  0.248769  1
  Ga  Ga29  1  0.124793  0.375863  0.751231  1
  Ga  Ga30  1  0.624137  0.875207  0.248769  1
  Ga  Ga31  1  0.000000  0.000000  0.000000  1
