# generated using pymatgen
data_Y3Tm(Ni7P4)2
_symmetry_space_group_name_H-M   'P 1'
_cell_length_a   3.70114000
_cell_length_b   9.16551270
_cell_length_c   10.25845397
_cell_angle_alpha   90.33640415
_cell_angle_beta   90.00000000
_cell_angle_gamma   90.00000000
_symmetry_Int_Tables_number   1
_chemical_formula_structural   Y3Tm(Ni7P4)2
_chemical_formula_sum   'Y3 Tm1 Ni14 P8'
_cell_volume   347.98995290
_cell_formula_units_Z   1
loop_
 _symmetry_equiv_pos_site_id
 _symmetry_equiv_pos_as_xyz
  1  'x, y, z'
loop_
 _atom_site_type_symbol
 _atom_site_label
 _atom_site_symmetry_multiplicity
 _atom_site_fract_x
 _atom_site_fract_y
 _atom_site_fract_z
 _atom_site_occupancy
  Y  Y0  1  0.500000  0.942383  0.895844  1
  Y  Y1  1  0.000000  0.435317  0.178952  1
  Y  Y2  1  0.500000  0.564652  0.678433  1
  Tm  Tm3  1  0.000000  0.057513  0.395050  1
  Ni  Ni4  1  0.000000  0.056243  0.697883  1
  Ni  Ni5  1  0.500000  0.944613  0.200734  1
  Ni  Ni6  1  0.000000  0.725579  0.509604  1
  Ni  Ni7  1  0.500000  0.273866  0.010325  1
  Ni  Ni8  1  0.000000  0.097683  0.094565  1
  Ni  Ni9  1  0.500000  0.903909  0.592506  1
  Ni  Ni10  1  0.000000  0.746553  0.273871  1
  Ni  Ni11  1  0.500000  0.254210  0.773042  1
  Ni  Ni12  1  0.000000  0.305301  0.601410  1
  Ni  Ni13  1  0.500000  0.694536  0.103338  1
  Ni  Ni14  1  0.000000  0.686000  0.912124  1
  Ni  Ni15  1  0.500000  0.312320  0.411992  1
  Ni  Ni16  1  0.000000  0.417369  0.870081  1
  Ni  Ni17  1  0.500000  0.582402  0.370700  1
  P  P18  1  0.000000  0.180786  0.889309  1
  P  P19  1  0.500000  0.820118  0.388729  1
  P  P20  1  0.000000  0.846082  0.084401  1
  P  P21  1  0.500000  0.153726  0.582430  1
  P  P22  1  0.000000  0.809628  0.714364  1
  P  P23  1  0.500000  0.189680  0.215330  1
  P  P24  1  0.000000  0.480002  0.461540  1
  P  P25  1  0.500000  0.519529  0.961639  1
