# generated using pymatgen
data_Dy9Lu(Bi2Ir)2
_symmetry_space_group_name_H-M   'P 1'
_cell_length_a   7.98887299
_cell_length_b   9.01064184
_cell_length_c   12.50529223
_cell_angle_alpha   89.92886247
_cell_angle_beta   90.23759417
_cell_angle_gamma   89.90481604
_symmetry_Int_Tables_number   1
_chemical_formula_structural   Dy9Lu(Bi2Ir)2
_chemical_formula_sum   'Dy18 Lu2 Bi8 Ir4'
_cell_volume   900.18219287
_cell_formula_units_Z   2
loop_
 _symmetry_equiv_pos_site_id
 _symmetry_equiv_pos_as_xyz
  1  'x, y, z'
loop_
 _atom_site_type_symbol
 _atom_site_label
 _atom_site_symmetry_multiplicity
 _atom_site_fract_x
 _atom_site_fract_y
 _atom_site_fract_z
 _atom_site_occupancy
  Dy  Dy0  1  0.840321  0.750312  0.793041  1
  Dy  Dy1  1  0.159679  0.249688  0.206959  1
  Dy  Dy2  1  0.341553  0.249393  0.706191  1
  Dy  Dy3  1  0.658447  0.750607  0.293809  1
  Dy  Dy4  1  0.377515  0.751126  0.692197  1
  Dy  Dy5  1  0.622485  0.248874  0.307803  1
  Dy  Dy6  1  0.876869  0.249866  0.806578  1
  Dy  Dy7  1  0.123131  0.750134  0.193422  1
  Dy  Dy8  1  0.945336  0.751667  0.501617  1
  Dy  Dy9  1  0.054664  0.248333  0.498383  1
  Dy  Dy10  1  0.446570  0.249926  0.998626  1
  Dy  Dy11  1  0.553430  0.750074  0.001374  1
  Dy  Dy12  1  0.176672  0.957924  0.933863  1
  Dy  Dy13  1  0.323618  0.541602  0.434203  1
  Dy  Dy14  1  0.823328  0.042076  0.066137  1
  Dy  Dy15  1  0.676382  0.458398  0.565797  1
  Dy  Dy16  1  0.823341  0.457904  0.066013  1
  Dy  Dy17  1  0.176659  0.542096  0.933987  1
  Lu  Lu18  1  0.670695  0.041873  0.564742  1
  Lu  Lu19  1  0.329305  0.958127  0.435258  1
  Bi  Bi20  1  0.569038  0.490834  0.827252  1
  Bi  Bi21  1  0.430962  0.509166  0.172748  1
  Bi  Bi22  1  0.068979  0.509151  0.672503  1
  Bi  Bi23  1  0.430606  0.990798  0.172996  1
  Bi  Bi24  1  0.931021  0.490849  0.327497  1
  Bi  Bi25  1  0.569394  0.009202  0.827004  1
  Bi  Bi26  1  0.932939  0.008926  0.327685  1
  Bi  Bi27  1  0.067061  0.991074  0.672315  1
  Ir  Ir28  1  0.569789  0.753207  0.508627  1
  Ir  Ir29  1  0.430211  0.246793  0.491373  1
  Ir  Ir30  1  0.070804  0.249958  0.990843  1
  Ir  Ir31  1  0.929196  0.750042  0.009157  1
