# generated using pymatgen
data_Th10CuSn5Bi2
_symmetry_space_group_name_H-M   'P 1'
_cell_length_a   9.62267786
_cell_length_b   9.62267768
_cell_length_c   6.64277437
_cell_angle_alpha   89.98097248
_cell_angle_beta   89.98097457
_cell_angle_gamma   120.04466690
_symmetry_Int_Tables_number   1
_chemical_formula_structural   Th10CuSn5Bi2
_chemical_formula_sum   'Th10 Cu1 Sn5 Bi2'
_cell_volume   532.44686472
_cell_formula_units_Z   1
loop_
 _symmetry_equiv_pos_site_id
 _symmetry_equiv_pos_as_xyz
  1  'x, y, z'
loop_
 _atom_site_type_symbol
 _atom_site_label
 _atom_site_symmetry_multiplicity
 _atom_site_fract_x
 _atom_site_fract_y
 _atom_site_fract_z
 _atom_site_occupancy
  Th  Th0  1  0.004067  0.727487  0.767205  1
  Th  Th1  1  0.271725  0.271725  0.768114  1
  Th  Th2  1  0.329908  0.667238  0.498663  1
  Th  Th3  1  0.667238  0.329908  0.498663  1
  Th  Th4  1  0.726034  0.726034  0.232387  1
  Th  Th5  1  0.727487  0.004067  0.767205  1
  Th  Th6  1  0.000378  0.274329  0.233262  1
  Th  Th7  1  0.274329  0.000378  0.233262  1
  Th  Th8  1  0.330828  0.667705  0.001201  1
  Th  Th9  1  0.667705  0.330828  0.001201  1
  Cu  Cu10  1  0.999635  0.999635  0.001044  1
  Sn  Sn11  1  0.000982  0.381894  0.746047  1
  Sn  Sn12  1  0.381894  0.000982  0.746047  1
  Sn  Sn13  1  0.619189  0.999443  0.253879  1
  Sn  Sn14  1  0.381199  0.381199  0.254346  1
  Sn  Sn15  1  0.999443  0.619189  0.253879  1
  Bi  Bi16  1  0.618767  0.618767  0.743685  1
  Bi  Bi17  1  0.999192  0.999192  0.499911  1
