# generated using pymatgen
data_Dy3TiMnC6
_symmetry_space_group_name_H-M   'P 1'
_cell_length_a   8.22735200
_cell_length_b   8.22735164
_cell_length_c   5.02732300
_cell_angle_alpha   90.00000000
_cell_angle_beta   90.00000000
_cell_angle_gamma   119.99999340
_symmetry_Int_Tables_number   1
_chemical_formula_structural   Dy3TiMnC6
_chemical_formula_sum   'Dy6 Ti2 Mn2 C12'
_cell_volume   294.70505677
_cell_formula_units_Z   2
loop_
 _symmetry_equiv_pos_site_id
 _symmetry_equiv_pos_as_xyz
  1  'x, y, z'
loop_
 _atom_site_type_symbol
 _atom_site_label
 _atom_site_symmetry_multiplicity
 _atom_site_fract_x
 _atom_site_fract_y
 _atom_site_fract_z
 _atom_site_occupancy
  Dy  Dy0  1  0.619921  0.678599  0.750000  1
  Dy  Dy1  1  0.941322  0.619921  0.250000  1
  Dy  Dy2  1  0.678599  0.058678  0.250000  1
  Dy  Dy3  1  0.321401  0.941322  0.750000  1
  Dy  Dy4  1  0.058678  0.380079  0.750000  1
  Dy  Dy5  1  0.380079  0.321401  0.250000  1
  Ti  Ti6  1  0.000000  0.000000  0.500000  1
  Ti  Ti7  1  0.000000  0.000000  0.000000  1
  Mn  Mn8  1  0.666667  0.333333  0.750000  1
  Mn  Mn9  1  0.333333  0.666667  0.250000  1
  C  C10  1  0.963798  0.761550  0.750000  1
  C  C11  1  0.202249  0.963798  0.250000  1
  C  C12  1  0.761550  0.797751  0.250000  1
  C  C13  1  0.238450  0.202249  0.750000  1
  C  C14  1  0.797751  0.036202  0.750000  1
  C  C15  1  0.036202  0.238450  0.250000  1
  C  C16  1  0.862508  0.569510  0.750000  1
  C  C17  1  0.292998  0.862508  0.250000  1
  C  C18  1  0.569510  0.707002  0.250000  1
  C  C19  1  0.430490  0.292998  0.750000  1
  C  C20  1  0.137492  0.430490  0.250000  1
  C  C21  1  0.707002  0.137492  0.750000  1
