# generated using pymatgen
data_PrNdTa2Bi2O11
_symmetry_space_group_name_H-M   'P 1'
_cell_length_a   6.69745455
_cell_length_b   7.76277141
_cell_length_c   9.93649245
_cell_angle_alpha   101.22851422
_cell_angle_beta   90.68556092
_cell_angle_gamma   90.04349786
_symmetry_Int_Tables_number   1
_chemical_formula_structural   PrNdTa2Bi2O11
_chemical_formula_sum   'Pr2 Nd2 Ta4 Bi4 O22'
_cell_volume   506.67880636
_cell_formula_units_Z   2
loop_
 _symmetry_equiv_pos_site_id
 _symmetry_equiv_pos_as_xyz
  1  'x, y, z'
loop_
 _atom_site_type_symbol
 _atom_site_label
 _atom_site_symmetry_multiplicity
 _atom_site_fract_x
 _atom_site_fract_y
 _atom_site_fract_z
 _atom_site_occupancy
  Pr  Pr0  1  0.749923  0.369580  0.483372  1
  Pr  Pr1  1  0.250077  0.630420  0.516628  1
  Nd  Nd2  1  0.759005  0.873087  0.488011  1
  Nd  Nd3  1  0.240995  0.126913  0.511989  1
  Ta  Ta4  1  0.915104  0.701873  0.808008  1
  Ta  Ta5  1  0.084896  0.298127  0.191992  1
  Ta  Ta6  1  0.916233  0.200697  0.809547  1
  Ta  Ta7  1  0.083767  0.799303  0.190453  1
  Bi  Bi8  1  0.431201  0.954882  0.816337  1
  Bi  Bi9  1  0.568799  0.045118  0.183663  1
  Bi  Bi10  1  0.396135  0.454721  0.827318  1
  Bi  Bi11  1  0.603865  0.545279  0.172682  1
  O  O12  1  0.217654  0.727148  0.764119  1
  O  O13  1  0.782346  0.272852  0.235881  1
  O  O14  1  0.634857  0.662558  0.839425  1
  O  O15  1  0.365143  0.337442  0.160575  1
  O  O16  1  0.635515  0.255206  0.842491  1
  O  O17  1  0.364485  0.744794  0.157509  1
  O  O18  1  0.894937  0.154171  0.596125  1
  O  O19  1  0.105063  0.845829  0.403875  1
  O  O20  1  0.216244  0.151972  0.761220  1
  O  O21  1  0.783756  0.848028  0.238780  1
  O  O22  1  0.897554  0.644323  0.597184  1
  O  O23  1  0.102446  0.355677  0.402816  1
  O  O24  1  0.024823  0.550030  0.197214  1
  O  O25  1  0.975177  0.449970  0.802786  1
  O  O26  1  0.998007  0.780305  0.000253  1
  O  O27  1  0.001993  0.219695  0.999747  1
  O  O28  1  0.572581  0.600167  0.389158  1
  O  O29  1  0.427419  0.399833  0.610842  1
  O  O30  1  0.157830  0.054227  0.215303  1
  O  O31  1  0.842170  0.945773  0.784697  1
  O  O32  1  0.546260  0.099253  0.398206  1
  O  O33  1  0.453740  0.900747  0.601794  1
