# generated using pymatgen
data_Li2Ta2Ni9P7W
_symmetry_space_group_name_H-M   'P 1'
_cell_length_a   9.23713794
_cell_length_b   9.23953178
_cell_length_c   3.62460600
_cell_angle_alpha   90.00000000
_cell_angle_beta   90.00000000
_cell_angle_gamma   120.24513318
_symmetry_Int_Tables_number   1
_chemical_formula_structural   Li2Ta2Ni9P7W
_chemical_formula_sum   'Li2 Ta2 Ni9 P7 W1'
_cell_volume   267.23956721
_cell_formula_units_Z   1
loop_
 _symmetry_equiv_pos_site_id
 _symmetry_equiv_pos_as_xyz
  1  'x, y, z'
loop_
 _atom_site_type_symbol
 _atom_site_label
 _atom_site_symmetry_multiplicity
 _atom_site_fract_x
 _atom_site_fract_y
 _atom_site_fract_z
 _atom_site_occupancy
  Li  Li0  1  0.333724  0.667520  0.000000  1
  Li  Li1  1  0.666844  0.332655  0.500000  1
  Ta  Ta2  1  0.874527  0.773727  0.500000  1
  Ta  Ta3  1  0.900366  0.125969  0.500000  1
  Ni  Ni4  1  0.709992  0.872555  0.000000  1
  Ni  Ni5  1  0.164426  0.288414  0.000000  1
  Ni  Ni6  1  0.126635  0.838830  0.000000  1
  Ni  Ni7  1  0.626280  0.561686  0.000000  1
  Ni  Ni8  1  0.937857  0.373250  0.000000  1
  Ni  Ni9  1  0.435567  0.064628  0.000000  1
  Ni  Ni10  1  0.554234  0.941608  0.500000  1
  Ni  Ni11  1  0.386154  0.442151  0.500000  1
  Ni  Ni12  1  0.057608  0.614424  0.500000  1
  P  P13  1  0.577789  0.707628  0.500000  1
  P  P14  1  0.130419  0.422979  0.500000  1
  P  P15  1  0.290947  0.875288  0.500000  1
  P  P16  1  0.003219  0.001651  0.000000  1
  P  P17  1  0.880730  0.578545  0.000000  1
  P  P18  1  0.698822  0.119575  0.000000  1
  P  P19  1  0.418427  0.297773  0.000000  1
  W  W20  1  0.225431  0.099144  0.500000  1
