# generated using pymatgen
data_Mg4Zn4CuNi3
_symmetry_space_group_name_H-M   'P 1'
_cell_length_a   5.07728294
_cell_length_b   5.01581513
_cell_length_c   8.06338500
_cell_angle_alpha   90.00000000
_cell_angle_beta   90.00000000
_cell_angle_gamma   119.96944709
_symmetry_Int_Tables_number   1
_chemical_formula_structural   Mg4Zn4CuNi3
_chemical_formula_sum   'Mg4 Zn4 Cu1 Ni3'
_cell_volume   177.89123046
_cell_formula_units_Z   1
loop_
 _symmetry_equiv_pos_site_id
 _symmetry_equiv_pos_as_xyz
  1  'x, y, z'
loop_
 _atom_site_type_symbol
 _atom_site_label
 _atom_site_symmetry_multiplicity
 _atom_site_fract_x
 _atom_site_fract_y
 _atom_site_fract_z
 _atom_site_occupancy
  Mg  Mg0  1  0.334404  0.663030  0.068840  1
  Mg  Mg1  1  0.661944  0.325329  0.563007  1
  Mg  Mg2  1  0.661944  0.325329  0.936993  1
  Mg  Mg3  1  0.334404  0.663030  0.431160  1
  Zn  Zn4  1  0.008980  0.027527  0.003315  1
  Zn  Zn5  1  0.008980  0.027527  0.496685  1
  Zn  Zn6  1  0.166193  0.822586  0.750000  1
  Zn  Zn7  1  0.828743  0.655141  0.250000  1
  Cu  Cu8  1  0.660244  0.823706  0.750000  1
  Ni  Ni9  1  0.172277  0.339993  0.750000  1
  Ni  Ni10  1  0.818967  0.163476  0.250000  1
  Ni  Ni11  1  0.342922  0.163328  0.250000  1
