# generated using pymatgen
data_Tm4FeMoRu6
_symmetry_space_group_name_H-M   'P 1'
_cell_length_a   5.36417600
_cell_length_b   5.18854424
_cell_length_c   8.96002600
_cell_angle_alpha   90.00000000
_cell_angle_beta   90.00000000
_cell_angle_gamma   121.63414272
_symmetry_Int_Tables_number   1
_chemical_formula_structural   Tm4FeMoRu6
_chemical_formula_sum   'Tm4 Fe1 Mo1 Ru6'
_cell_volume   212.32389597
_cell_formula_units_Z   1
loop_
 _symmetry_equiv_pos_site_id
 _symmetry_equiv_pos_as_xyz
  1  'x, y, z'
loop_
 _atom_site_type_symbol
 _atom_site_label
 _atom_site_symmetry_multiplicity
 _atom_site_fract_x
 _atom_site_fract_y
 _atom_site_fract_z
 _atom_site_occupancy
  Tm  Tm0  1  0.333483  0.666155  0.431717  1
  Tm  Tm1  1  0.670342  0.343478  0.561982  1
  Tm  Tm2  1  0.670342  0.343478  0.938018  1
  Tm  Tm3  1  0.333483  0.666155  0.068283  1
  Fe  Fe4  1  0.330232  0.163168  0.250000  1
  Mo  Mo5  1  0.163565  0.326645  0.750000  1
  Ru  Ru6  1  0.172004  0.822075  0.750000  1
  Ru  Ru7  1  0.822627  0.646671  0.250000  1
  Ru  Ru8  1  0.653948  0.824463  0.750000  1
  Ru  Ru9  1  0.010348  0.014569  0.003513  1
  Ru  Ru10  1  0.829278  0.168572  0.250000  1
  Ru  Ru11  1  0.010348  0.014569  0.496487  1
