# generated using pymatgen
data_Y3Hg2Pt2Pb
_symmetry_space_group_name_H-M   'P 1'
_cell_length_a   7.79485000
_cell_length_b   7.79485259
_cell_length_c   3.56810300
_cell_angle_alpha   90.00000000
_cell_angle_beta   90.00000000
_cell_angle_gamma   119.61329823
_symmetry_Int_Tables_number   1
_chemical_formula_structural   Y3Hg2Pt2Pb
_chemical_formula_sum   'Y3 Hg2 Pt2 Pb1'
_cell_volume   188.47893895
_cell_formula_units_Z   1
loop_
 _symmetry_equiv_pos_site_id
 _symmetry_equiv_pos_as_xyz
  1  'x, y, z'
loop_
 _atom_site_type_symbol
 _atom_site_label
 _atom_site_symmetry_multiplicity
 _atom_site_fract_x
 _atom_site_fract_y
 _atom_site_fract_z
 _atom_site_occupancy
  Y  Y0  1  0.579849  0.999617  0.500000  1
  Y  Y1  1  0.411450  0.411450  0.500000  1
  Y  Y2  1  0.999617  0.579849  0.500000  1
  Hg  Hg3  1  0.237584  0.001444  0.000000  1
  Hg  Hg4  1  0.001444  0.237583  0.000000  1
  Pt  Pt5  1  0.665910  0.330101  0.000000  1
  Pt  Pt6  1  0.330101  0.665910  0.000000  1
  Pb  Pb7  1  0.774044  0.774044  0.000000  1
