# generated using pymatgen
data_Zr3Fe4Si2MoP2
_symmetry_space_group_name_H-M   'P 1'
_cell_length_a   3.76856000
_cell_length_b   6.27944754
_cell_length_c   7.07505203
_cell_angle_alpha   90.40886745
_cell_angle_beta   90.00000000
_cell_angle_gamma   90.00000000
_symmetry_Int_Tables_number   1
_chemical_formula_structural   Zr3Fe4Si2MoP2
_chemical_formula_sum   'Zr3 Fe4 Si2 Mo1 P2'
_cell_volume   167.42312770
_cell_formula_units_Z   1
loop_
 _symmetry_equiv_pos_site_id
 _symmetry_equiv_pos_as_xyz
  1  'x, y, z'
loop_
 _atom_site_type_symbol
 _atom_site_label
 _atom_site_symmetry_multiplicity
 _atom_site_fract_x
 _atom_site_fract_y
 _atom_site_fract_z
 _atom_site_occupancy
  Zr  Zr0  1  0.750000  0.491623  0.315649  1
  Zr  Zr1  1  0.250000  0.015613  0.810075  1
  Zr  Zr2  1  0.750000  0.984866  0.191920  1
  Fe  Fe3  1  0.750000  0.854040  0.565162  1
  Fe  Fe4  1  0.250000  0.148218  0.431965  1
  Fe  Fe5  1  0.750000  0.343355  0.942609  1
  Fe  Fe6  1  0.250000  0.644989  0.059834  1
  Si  Si7  1  0.750000  0.700651  0.875189  1
  Si  Si8  1  0.750000  0.230552  0.615912  1
  Mo  Mo9  1  0.250000  0.517346  0.674831  1
  P  P10  1  0.250000  0.285483  0.114665  1
  P  P11  1  0.250000  0.783261  0.402189  1
