# generated using pymatgen
data_ErTm6(NiTe)2
_symmetry_space_group_name_H-M   'P 1'
_cell_length_a   9.18738857
_cell_length_b   9.18541917
_cell_length_c   9.18541873
_cell_angle_alpha   156.11576296
_cell_angle_beta   118.27473566
_cell_angle_gamma   67.16468780
_symmetry_Int_Tables_number   1
_chemical_formula_structural   ErTm6(NiTe)2
_chemical_formula_sum   'Er1 Tm6 Ni2 Te2'
_cell_volume   274.19166281
_cell_formula_units_Z   1
loop_
 _symmetry_equiv_pos_site_id
 _symmetry_equiv_pos_as_xyz
  1  'x, y, z'
loop_
 _atom_site_type_symbol
 _atom_site_label
 _atom_site_symmetry_multiplicity
 _atom_site_fract_x
 _atom_site_fract_y
 _atom_site_fract_z
 _atom_site_occupancy
  Er  Er0  1  0.897703  0.633489  0.264214  1
  Tm  Tm1  1  0.182353  0.500046  0.682307  1
  Tm  Tm2  1  0.245527  0.185257  0.060270  1
  Tm  Tm3  1  0.874245  0.814693  0.059551  1
  Tm  Tm4  1  0.557668  0.146823  0.410846  1
  Tm  Tm5  1  0.264158  0.853194  0.410965  1
  Tm  Tm6  1  0.630502  0.366297  0.264205  1
  Ni  Ni7  1  0.490649  0.737323  0.753326  1
  Ni  Ni8  1  0.016464  0.263149  0.753316  1
  Te  Te9  1  0.916002  0.999826  0.916176  1
  Te  Te10  1  0.519367  0.499902  0.019465  1
