# generated using pymatgen
data_Eu4AlSiIr4
_symmetry_space_group_name_H-M   'P 1'
_cell_length_a   5.82369989
_cell_length_b   5.82369993
_cell_length_c   7.63795434
_cell_angle_alpha   80.12724500
_cell_angle_beta   80.12723906
_cell_angle_gamma   61.06677859
_symmetry_Int_Tables_number   1
_chemical_formula_structural   Eu4AlSiIr4
_chemical_formula_sum   'Eu4 Al1 Si1 Ir4'
_cell_volume   222.17467112
_cell_formula_units_Z   1
loop_
 _symmetry_equiv_pos_site_id
 _symmetry_equiv_pos_as_xyz
  1  'x, y, z'
loop_
 _atom_site_type_symbol
 _atom_site_label
 _atom_site_symmetry_multiplicity
 _atom_site_fract_x
 _atom_site_fract_y
 _atom_site_fract_z
 _atom_site_occupancy
  Eu  Eu0  1  0.988023  0.718370  0.141164  1
  Eu  Eu1  1  0.281630  0.011977  0.358836  1
  Eu  Eu2  1  0.013918  0.281105  0.859064  1
  Eu  Eu3  1  0.718895  0.986082  0.640936  1
  Al  Al4  1  0.417389  0.582611  0.750000  1
  Si  Si5  1  0.571905  0.428095  0.250000  1
  Ir  Ir6  1  0.497505  0.774606  0.000454  1
  Ir  Ir7  1  0.225394  0.502495  0.499546  1
  Ir  Ir8  1  0.511969  0.226629  0.018404  1
  Ir  Ir9  1  0.773371  0.488031  0.481596  1
