# generated using pymatgen
data_Li3La3NdAu10
_symmetry_space_group_name_H-M   'P 1'
_cell_length_a   8.76185907
_cell_length_b   8.76185879
_cell_length_c   10.40456300
_cell_angle_alpha   89.99283301
_cell_angle_beta   89.99283301
_cell_angle_gamma   108.43935217
_symmetry_Int_Tables_number   1
_chemical_formula_structural   Li3La3NdAu10
_chemical_formula_sum   'Li6 La6 Nd2 Au20'
_cell_volume   757.75092427
_cell_formula_units_Z   2
loop_
 _symmetry_equiv_pos_site_id
 _symmetry_equiv_pos_as_xyz
  1  'x, y, z'
loop_
 _atom_site_type_symbol
 _atom_site_label
 _atom_site_symmetry_multiplicity
 _atom_site_fract_x
 _atom_site_fract_y
 _atom_site_fract_z
 _atom_site_occupancy
  Li  Li0  1  0.012000  0.511046  0.249064  1
  Li  Li1  1  0.988000  0.488954  0.750936  1
  Li  Li2  1  0.488954  0.988000  0.750936  1
  Li  Li3  1  0.511046  0.012000  0.249064  1
  Li  Li4  1  0.000000  0.000000  0.000000  1
  Li  Li5  1  0.500000  0.500000  0.500000  1
  La  La6  1  0.800329  0.199671  0.500000  1
  La  La7  1  0.199671  0.800329  0.500000  1
  La  La8  1  0.300546  0.300546  0.200137  1
  La  La9  1  0.699454  0.699454  0.799863  1
  La  La10  1  0.199865  0.199865  0.701864  1
  La  La11  1  0.800135  0.800135  0.298136  1
  Nd  Nd12  1  0.699564  0.300436  0.000000  1
  Nd  Nd13  1  0.300436  0.699564  0.000000  1
  Au  Au14  1  0.096054  0.096054  0.402747  1
  Au  Au15  1  0.903946  0.903946  0.597253  1
  Au  Au16  1  0.402548  0.402548  0.905605  1
  Au  Au17  1  0.597452  0.597452  0.094395  1
  Au  Au18  1  0.883876  0.167742  0.203928  1
  Au  Au19  1  0.116124  0.832258  0.796072  1
  Au  Au20  1  0.614709  0.331418  0.708133  1
  Au  Au21  1  0.668582  0.385291  0.291867  1
  Au  Au22  1  0.385291  0.668582  0.291867  1
  Au  Au23  1  0.331418  0.614709  0.708133  1
  Au  Au24  1  0.832258  0.116124  0.796072  1
  Au  Au25  1  0.167742  0.883876  0.203928  1
  Au  Au26  1  0.936274  0.654875  0.022785  1
  Au  Au27  1  0.063726  0.345125  0.977215  1
  Au  Au28  1  0.564975  0.840021  0.522783  1
  Au  Au29  1  0.159979  0.435025  0.477217  1
  Au  Au30  1  0.435025  0.159979  0.477217  1
  Au  Au31  1  0.840021  0.564975  0.522783  1
  Au  Au32  1  0.345125  0.063726  0.977215  1
  Au  Au33  1  0.654875  0.936274  0.022785  1
