# generated using pymatgen
data_U4Ge6Mo2Ru5
_symmetry_space_group_name_H-M   'P 1'
_cell_length_a   7.23633217
_cell_length_b   7.22680178
_cell_length_c   7.22680126
_cell_angle_alpha   109.72962483
_cell_angle_beta   109.31569027
_cell_angle_gamma   109.31568426
_symmetry_Int_Tables_number   1
_chemical_formula_structural   U4Ge6Mo2Ru5
_chemical_formula_sum   'U4 Ge6 Mo2 Ru5'
_cell_volume   291.11536087
_cell_formula_units_Z   1
loop_
 _symmetry_equiv_pos_site_id
 _symmetry_equiv_pos_as_xyz
  1  'x, y, z'
loop_
 _atom_site_type_symbol
 _atom_site_label
 _atom_site_symmetry_multiplicity
 _atom_site_fract_x
 _atom_site_fract_y
 _atom_site_fract_z
 _atom_site_occupancy
  U  U0  1  0.500000  0.503487  0.496513  1
  U  U1  1  0.000000  0.989331  0.496977  1
  U  U2  1  0.500000  0.003487  0.996513  1
  U  U3  1  0.000000  0.503023  0.010669  1
  Ge  Ge4  1  0.302571  0.307053  0.995518  1
  Ge  Ge5  1  0.000000  0.301556  0.310380  1
  Ge  Ge6  1  0.000000  0.689620  0.698444  1
  Ge  Ge7  1  0.697429  0.004482  0.692947  1
  Ge  Ge8  1  0.310105  0.003736  0.306368  1
  Ge  Ge9  1  0.689895  0.693632  0.996264  1
  Mo  Mo10  1  0.747623  0.497913  0.249709  1
  Mo  Mo11  1  0.252377  0.750291  0.502087  1
  Ru  Ru12  1  0.750274  0.249237  0.501037  1
  Ru  Ru13  1  0.500000  0.251981  0.748019  1
  Ru  Ru14  1  0.500000  0.751981  0.248019  1
  Ru  Ru15  1  0.249726  0.498963  0.750763  1
  Ru  Ru16  1  0.000000  0.000229  0.999771  1
