# generated using pymatgen
data_DyY6Ho9(CdPt)4
_symmetry_space_group_name_H-M   'P 1'
_cell_length_a   9.67091387
_cell_length_b   9.67091402
_cell_length_c   9.67091484
_cell_angle_alpha   60.09362473
_cell_angle_beta   60.09362173
_cell_angle_gamma   60.09362432
_symmetry_Int_Tables_number   1
_chemical_formula_structural   DyY6Ho9(CdPt)4
_chemical_formula_sum   'Dy1 Y6 Ho9 Cd4 Pt4'
_cell_volume   640.92608344
_cell_formula_units_Z   1
loop_
 _symmetry_equiv_pos_site_id
 _symmetry_equiv_pos_as_xyz
  1  'x, y, z'
loop_
 _atom_site_type_symbol
 _atom_site_label
 _atom_site_symmetry_multiplicity
 _atom_site_fract_x
 _atom_site_fract_y
 _atom_site_fract_z
 _atom_site_occupancy
  Dy  Dy0  1  0.351590  0.351590  0.351590  1
  Y  Y1  1  0.936055  0.564114  0.564114  1
  Y  Y2  1  0.563302  0.936686  0.936686  1
  Y  Y3  1  0.564114  0.936055  0.564114  1
  Y  Y4  1  0.936686  0.563302  0.936686  1
  Y  Y5  1  0.564114  0.564114  0.936055  1
  Y  Y6  1  0.936686  0.936686  0.563302  1
  Ho  Ho7  1  0.352924  0.352924  0.942195  1
  Ho  Ho8  1  0.352924  0.942195  0.352924  1
  Ho  Ho9  1  0.942195  0.352924  0.352924  1
  Ho  Ho10  1  0.810903  0.189535  0.189535  1
  Ho  Ho11  1  0.189197  0.810814  0.810814  1
  Ho  Ho12  1  0.189535  0.810903  0.189535  1
  Ho  Ho13  1  0.810814  0.189197  0.810814  1
  Ho  Ho14  1  0.189535  0.189535  0.810903  1
  Ho  Ho15  1  0.810814  0.810814  0.189197  1
  Cd  Cd16  1  0.581513  0.581513  0.581513  1
  Cd  Cd17  1  0.581511  0.581511  0.254888  1
  Cd  Cd18  1  0.581511  0.254888  0.581511  1
  Cd  Cd19  1  0.254888  0.581511  0.581511  1
  Pt  Pt20  1  0.143856  0.143856  0.143856  1
  Pt  Pt21  1  0.142464  0.142464  0.570406  1
  Pt  Pt22  1  0.142464  0.570406  0.142464  1
  Pt  Pt23  1  0.570406  0.142464  0.142464  1
