# generated using pymatgen
data_Lu5(CoO6)2
_symmetry_space_group_name_H-M   'P 1'
_cell_length_a   6.61699634
_cell_length_b   6.61699683
_cell_length_c   7.00243625
_cell_angle_alpha   74.52980750
_cell_angle_beta   74.52980412
_cell_angle_gamma   50.71577967
_symmetry_Int_Tables_number   1
_chemical_formula_structural   Lu5(CoO6)2
_chemical_formula_sum   'Lu5 Co2 O12'
_cell_volume   226.73820404
_cell_formula_units_Z   1
loop_
 _symmetry_equiv_pos_site_id
 _symmetry_equiv_pos_as_xyz
  1  'x, y, z'
loop_
 _atom_site_type_symbol
 _atom_site_label
 _atom_site_symmetry_multiplicity
 _atom_site_fract_x
 _atom_site_fract_y
 _atom_site_fract_z
 _atom_site_occupancy
  Lu  Lu0  1  0.304258  0.304258  0.356965  1
  Lu  Lu1  1  0.695742  0.695742  0.643035  1
  Lu  Lu2  1  0.308743  0.308743  0.833726  1
  Lu  Lu3  1  0.691257  0.691257  0.166274  1
  Lu  Lu4  1  0.000000  0.000000  0.500000  1
  Co  Co5  1  0.755467  0.244533  0.000000  1
  Co  Co6  1  0.244533  0.755467  0.000000  1
  O  O7  1  0.903038  0.421188  0.919072  1
  O  O8  1  0.421188  0.903038  0.919072  1
  O  O9  1  0.096962  0.578812  0.080928  1
  O  O10  1  0.578812  0.096962  0.080928  1
  O  O11  1  0.097595  0.599116  0.574476  1
  O  O12  1  0.599116  0.097595  0.574476  1
  O  O13  1  0.902405  0.400884  0.425524  1
  O  O14  1  0.400884  0.902405  0.425524  1
  O  O15  1  0.000527  0.000527  0.824265  1
  O  O16  1  0.999473  0.999473  0.175735  1
  O  O17  1  0.500621  0.500621  0.818289  1
  O  O18  1  0.499379  0.499379  0.181711  1
