# generated using pymatgen
data_Sm4Tm4Tc3B24Os
_symmetry_space_group_name_H-M   'P 1'
_cell_length_a   3.68674000
_cell_length_b   9.16735845
_cell_length_c   11.59467101
_cell_angle_alpha   89.95307370
_cell_angle_beta   90.00000000
_cell_angle_gamma   90.00000000
_symmetry_Int_Tables_number   1
_chemical_formula_structural   Sm4Tm4Tc3B24Os
_chemical_formula_sum   'Sm4 Tm4 Tc3 B24 Os1'
_cell_volume   391.87269944
_cell_formula_units_Z   1
loop_
 _symmetry_equiv_pos_site_id
 _symmetry_equiv_pos_as_xyz
  1  'x, y, z'
loop_
 _atom_site_type_symbol
 _atom_site_label
 _atom_site_symmetry_multiplicity
 _atom_site_fract_x
 _atom_site_fract_y
 _atom_site_fract_z
 _atom_site_occupancy
  Sm  Sm0  1  0.000000  0.322885  0.414000  1
  Sm  Sm1  1  0.000000  0.676156  0.584555  1
  Sm  Sm2  1  0.000000  0.822483  0.087050  1
  Sm  Sm3  1  0.000000  0.178440  0.914622  1
  Tm  Tm4  1  0.000000  0.942639  0.369836  1
  Tm  Tm5  1  0.000000  0.058203  0.630197  1
  Tm  Tm6  1  0.000000  0.443000  0.130421  1
  Tm  Tm7  1  0.000000  0.556775  0.869247  1
  Tc  Tc8  1  0.000000  0.639492  0.319187  1
  Tc  Tc9  1  0.000000  0.360548  0.681253  1
  Tc  Tc10  1  0.000000  0.138965  0.179752  1
  B  B11  1  0.500000  0.554167  0.431416  1
  B  B12  1  0.500000  0.445771  0.568349  1
  B  B13  1  0.500000  0.054184  0.068500  1
  B  B14  1  0.500000  0.945278  0.931411  1
  B  B15  1  0.500000  0.749951  0.417188  1
  B  B16  1  0.500000  0.249683  0.582906  1
  B  B17  1  0.500000  0.250537  0.082873  1
  B  B18  1  0.500000  0.749968  0.916860  1
  B  B19  1  0.500000  0.791860  0.266047  1
  B  B20  1  0.500000  0.208401  0.734439  1
  B  B21  1  0.500000  0.291752  0.234190  1
  B  B22  1  0.500000  0.708886  0.765682  1
  B  B23  1  0.500000  0.629783  0.185608  1
  B  B24  1  0.500000  0.370164  0.814887  1
  B  B25  1  0.500000  0.129353  0.314138  1
  B  B26  1  0.500000  0.870169  0.685666  1
  B  B27  1  0.500000  0.982450  0.212967  1
  B  B28  1  0.500000  0.016426  0.787150  1
  B  B29  1  0.500000  0.482754  0.286870  1
  B  B30  1  0.500000  0.517030  0.712918  1
  B  B31  1  0.500000  0.598366  0.026901  1
  B  B32  1  0.500000  0.402675  0.972870  1
  B  B33  1  0.500000  0.097975  0.473078  1
  B  B34  1  0.500000  0.902102  0.527426  1
  Os  Os35  1  0.000000  0.860729  0.819539  1
