# generated using pymatgen
data_SmY(Lu4Bi3)2
_symmetry_space_group_name_H-M   'P 1'
_cell_length_a   8.19726800
_cell_length_b   9.40351200
_cell_length_c   11.90996100
_cell_angle_alpha   90.00000000
_cell_angle_beta   90.00000000
_cell_angle_gamma   90.00000000
_symmetry_Int_Tables_number   1
_chemical_formula_structural   SmY(Lu4Bi3)2
_chemical_formula_sum   'Sm2 Y2 Lu16 Bi12'
_cell_volume   918.05681010
_cell_formula_units_Z   2
loop_
 _symmetry_equiv_pos_site_id
 _symmetry_equiv_pos_as_xyz
  1  'x, y, z'
loop_
 _atom_site_type_symbol
 _atom_site_label
 _atom_site_symmetry_multiplicity
 _atom_site_fract_x
 _atom_site_fract_y
 _atom_site_fract_z
 _atom_site_occupancy
  Sm  Sm0  1  0.314478  0.250000  0.217969  1
  Sm  Sm1  1  0.814478  0.250000  0.282031  1
  Y  Y2  1  0.686216  0.750000  0.782468  1
  Y  Y3  1  0.186216  0.750000  0.717532  1
  Lu  Lu4  1  0.352023  0.750000  0.218309  1
  Lu  Lu5  1  0.852023  0.750000  0.281691  1
  Lu  Lu6  1  0.647604  0.250000  0.780469  1
  Lu  Lu7  1  0.147604  0.250000  0.719531  1
  Lu  Lu8  1  0.691596  0.567608  0.060482  1
  Lu  Lu9  1  0.191596  0.932392  0.439518  1
  Lu  Lu10  1  0.308074  0.067356  0.938956  1
  Lu  Lu11  1  0.808074  0.432644  0.561044  1
  Lu  Lu12  1  0.308074  0.432644  0.938956  1
  Lu  Lu13  1  0.808074  0.067356  0.561044  1
  Lu  Lu14  1  0.691596  0.932392  0.060482  1
  Lu  Lu15  1  0.191596  0.567608  0.439518  1
  Lu  Lu16  1  0.477507  0.250000  0.489834  1
  Lu  Lu17  1  0.977507  0.250000  0.010166  1
  Lu  Lu18  1  0.522550  0.750000  0.511516  1
  Lu  Lu19  1  0.022550  0.750000  0.988484  1
  Bi  Bi20  1  0.402844  0.750000  0.959390  1
  Bi  Bi21  1  0.902844  0.750000  0.540610  1
  Bi  Bi22  1  0.598280  0.250000  0.037517  1
  Bi  Bi23  1  0.098280  0.250000  0.462483  1
  Bi  Bi24  1  0.565331  0.991831  0.327510  1
  Bi  Bi25  1  0.065331  0.508169  0.172490  1
  Bi  Bi26  1  0.434247  0.494699  0.673942  1
  Bi  Bi27  1  0.934247  0.005301  0.826058  1
  Bi  Bi28  1  0.434247  0.005301  0.673942  1
  Bi  Bi29  1  0.934247  0.494699  0.826058  1
  Bi  Bi30  1  0.565331  0.508169  0.327510  1
  Bi  Bi31  1  0.065331  0.991831  0.172490  1
