# generated using pymatgen
data_Tb3AlCo9SiB4
_symmetry_space_group_name_H-M   'P 1'
_cell_length_a   5.13121307
_cell_length_b   5.13003635
_cell_length_c   9.43018100
_cell_angle_alpha   89.99844023
_cell_angle_beta   90.00216343
_cell_angle_gamma   120.00045414
_symmetry_Int_Tables_number   1
_chemical_formula_structural   Tb3AlCo9SiB4
_chemical_formula_sum   'Tb3 Al1 Co9 Si1 B4'
_cell_volume   214.97559675
_cell_formula_units_Z   1
loop_
 _symmetry_equiv_pos_site_id
 _symmetry_equiv_pos_as_xyz
  1  'x, y, z'
loop_
 _atom_site_type_symbol
 _atom_site_label
 _atom_site_symmetry_multiplicity
 _atom_site_fract_x
 _atom_site_fract_y
 _atom_site_fract_z
 _atom_site_occupancy
  Tb  Tb0  1  0.999988  0.000002  0.000102  1
  Tb  Tb1  1  0.999999  0.000004  0.339501  1
  Tb  Tb2  1  0.999991  0.999992  0.660513  1
  Al  Al3  1  0.666517  0.333397  0.000047  1
  Co  Co4  1  0.500417  0.000839  0.499982  1
  Co  Co5  1  0.500423  0.499575  0.499977  1
  Co  Co6  1  0.999159  0.499577  0.499975  1
  Co  Co7  1  0.497959  0.995924  0.201955  1
  Co  Co8  1  0.497960  0.502032  0.202000  1
  Co  Co9  1  0.004077  0.502041  0.201935  1
  Co  Co10  1  0.497963  0.995928  0.798027  1
  Co  Co11  1  0.497957  0.502028  0.798000  1
  Co  Co12  1  0.004075  0.502037  0.798066  1
  Si  Si13  1  0.333419  0.666617  0.000036  1
  B  B14  1  0.333324  0.666664  0.349014  1
  B  B15  1  0.666673  0.333343  0.346131  1
  B  B16  1  0.666699  0.333373  0.653807  1
  B  B17  1  0.333299  0.666625  0.650933  1
