# generated using pymatgen
data_Ho2Er18Si15Au
_symmetry_space_group_name_H-M   'P 1'
_cell_length_a   7.34564111
_cell_length_b   7.65153349
_cell_length_c   14.54934221
_cell_angle_alpha   90.00606720
_cell_angle_beta   90.01861898
_cell_angle_gamma   90.56379581
_symmetry_Int_Tables_number   1
_chemical_formula_structural   Ho2Er18Si15Au
_chemical_formula_sum   'Ho2 Er18 Si15 Au1'
_cell_volume   817.71223593
_cell_formula_units_Z   1
loop_
 _symmetry_equiv_pos_site_id
 _symmetry_equiv_pos_as_xyz
  1  'x, y, z'
loop_
 _atom_site_type_symbol
 _atom_site_label
 _atom_site_symmetry_multiplicity
 _atom_site_fract_x
 _atom_site_fract_y
 _atom_site_fract_z
 _atom_site_occupancy
  Ho  Ho0  1  0.024736  0.824267  0.592033  1
  Ho  Ho1  1  0.529274  0.681758  0.593003  1
  Er  Er2  1  0.317307  0.821781  0.123517  1
  Er  Er3  1  0.816784  0.677858  0.124327  1
  Er  Er4  1  0.857436  0.520566  0.750093  1
  Er  Er5  1  0.472001  0.316097  0.097716  1
  Er  Er6  1  0.024941  0.824112  0.907836  1
  Er  Er7  1  0.471987  0.316026  0.402225  1
  Er  Er8  1  0.647318  0.011280  0.249997  1
  Er  Er9  1  0.529494  0.682004  0.906907  1
  Er  Er10  1  0.683048  0.179184  0.878700  1
  Er  Er11  1  0.184305  0.317684  0.619556  1
  Er  Er12  1  0.184318  0.317695  0.880518  1
  Er  Er13  1  0.816718  0.677818  0.375581  1
  Er  Er14  1  0.317259  0.821882  0.376396  1
  Er  Er15  1  0.347640  0.985346  0.750109  1
  Er  Er16  1  0.683017  0.179259  0.621400  1
  Er  Er17  1  0.146851  0.486952  0.249983  1
  Er  Er18  1  0.970913  0.181926  0.099283  1
  Er  Er19  1  0.970855  0.181916  0.400664  1
  Si  Si20  1  0.649866  0.971346  0.458021  1
  Si  Si21  1  0.353534  0.026769  0.539947  1
  Si  Si22  1  0.020067  0.895123  0.250003  1
  Si  Si23  1  0.734210  0.877503  0.750126  1
  Si  Si24  1  0.265222  0.127157  0.250011  1
  Si  Si25  1  0.853006  0.470592  0.538653  1
  Si  Si26  1  0.483776  0.391028  0.750030  1
  Si  Si27  1  0.146234  0.526777  0.457743  1
  Si  Si28  1  0.146169  0.526905  0.042243  1
  Si  Si29  1  0.975946  0.108466  0.750040  1
  Si  Si30  1  0.764520  0.371058  0.249991  1
  Si  Si31  1  0.353382  0.026514  0.959988  1
  Si  Si32  1  0.852853  0.470877  0.961279  1
  Si  Si33  1  0.649773  0.971198  0.041917  1
  Si  Si34  1  0.518012  0.605140  0.249988  1
  Au  Au35  1  0.237226  0.628134  0.750177  1
