# generated using pymatgen
data_PaTcB4
_symmetry_space_group_name_H-M   'P 1'
_cell_length_a   5.96835900
_cell_length_b   11.58605000
_cell_length_c   3.65929300
_cell_angle_alpha   90.00000000
_cell_angle_beta   90.00000000
_cell_angle_gamma   90.00000000
_symmetry_Int_Tables_number   1
_chemical_formula_structural   PaTcB4
_chemical_formula_sum   'Pa4 Tc4 B16'
_cell_volume   253.03903436
_cell_formula_units_Z   4
loop_
 _symmetry_equiv_pos_site_id
 _symmetry_equiv_pos_as_xyz
  1  'x, y, z'
loop_
 _atom_site_type_symbol
 _atom_site_label
 _atom_site_symmetry_multiplicity
 _atom_site_fract_x
 _atom_site_fract_y
 _atom_site_fract_z
 _atom_site_occupancy
  Pa  Pa0  1  0.127204  0.149946  0.000000  1
  Pa  Pa1  1  0.627204  0.350054  0.000000  1
  Pa  Pa2  1  0.372796  0.649946  0.000000  1
  Pa  Pa3  1  0.872795  0.850054  0.000000  1
  Tc  Tc4  1  0.638544  0.093815  0.000000  1
  Tc  Tc5  1  0.138544  0.406184  0.000000  1
  Tc  Tc6  1  0.861456  0.593815  0.000000  1
  Tc  Tc7  1  0.361456  0.906184  0.000000  1
  B  B8  1  0.864642  0.031915  0.500001  1
  B  B9  1  0.387226  0.045951  0.500001  1
  B  B10  1  0.787704  0.187502  0.500001  1
  B  B11  1  0.472223  0.191510  0.500001  1
  B  B12  1  0.972223  0.308490  0.500001  1
  B  B13  1  0.287702  0.312498  0.500001  1
  B  B14  1  0.887225  0.454049  0.500001  1
  B  B15  1  0.364643  0.468085  0.500001  1
  B  B16  1  0.635357  0.531916  0.500001  1
  B  B17  1  0.112774  0.545951  0.500001  1
  B  B18  1  0.712297  0.687502  0.500001  1
  B  B19  1  0.027776  0.691510  0.500001  1
  B  B20  1  0.527776  0.808490  0.500001  1
  B  B21  1  0.212297  0.812498  0.500001  1
  B  B22  1  0.612776  0.954048  0.500001  1
  B  B23  1  0.135357  0.968084  0.500001  1
