# generated using pymatgen
data_Tb11ThTc3Ni
_symmetry_space_group_name_H-M   'P 1'
_cell_length_a   6.36109039
_cell_length_b   7.31104521
_cell_length_c   9.37476900
_cell_angle_alpha   90.00000000
_cell_angle_beta   90.00000000
_cell_angle_gamma   90.82388828
_symmetry_Int_Tables_number   1
_chemical_formula_structural   Tb11ThTc3Ni
_chemical_formula_sum   'Tb11 Th1 Tc3 Ni1'
_cell_volume   435.93999064
_cell_formula_units_Z   1
loop_
 _symmetry_equiv_pos_site_id
 _symmetry_equiv_pos_as_xyz
  1  'x, y, z'
loop_
 _atom_site_type_symbol
 _atom_site_label
 _atom_site_symmetry_multiplicity
 _atom_site_fract_x
 _atom_site_fract_y
 _atom_site_fract_z
 _atom_site_occupancy
  Tb  Tb0  1  0.327503  0.679593  0.068031  1
  Tb  Tb1  1  0.167053  0.177433  0.436935  1
  Tb  Tb2  1  0.669684  0.320432  0.565848  1
  Tb  Tb3  1  0.831515  0.824789  0.934626  1
  Tb  Tb4  1  0.669684  0.320432  0.934152  1
  Tb  Tb5  1  0.831515  0.824789  0.565374  1
  Tb  Tb6  1  0.327503  0.679593  0.431969  1
  Tb  Tb7  1  0.167053  0.177433  0.063065  1
  Tb  Tb8  1  0.626542  0.043002  0.250000  1
  Tb  Tb9  1  0.144980  0.457655  0.750000  1
  Tb  Tb10  1  0.369567  0.956925  0.750000  1
  Th  Th11  1  0.858100  0.547340  0.250000  1
  Tc  Tc12  1  0.022446  0.874071  0.250000  1
  Tc  Tc13  1  0.477938  0.391339  0.250000  1
  Tc  Tc14  1  0.960280  0.111938  0.750000  1
  Ni  Ni15  1  0.548637  0.613236  0.750000  1
