# generated using pymatgen
data_Ho8GaPd5Pt19
_symmetry_space_group_name_H-M   'P 1'
_cell_length_a   8.33752000
_cell_length_b   8.33752000
_cell_length_c   8.33083500
_cell_angle_alpha   90.00000000
_cell_angle_beta   90.00000000
_cell_angle_gamma   90.00000000
_symmetry_Int_Tables_number   1
_chemical_formula_structural   Ho8GaPd5Pt19
_chemical_formula_sum   'Ho8 Ga1 Pd5 Pt19'
_cell_volume   579.11166151
_cell_formula_units_Z   1
loop_
 _symmetry_equiv_pos_site_id
 _symmetry_equiv_pos_as_xyz
  1  'x, y, z'
loop_
 _atom_site_type_symbol
 _atom_site_label
 _atom_site_symmetry_multiplicity
 _atom_site_fract_x
 _atom_site_fract_y
 _atom_site_fract_z
 _atom_site_occupancy
  Ho  Ho0  1  0.251560  0.251560  0.748503  1
  Ho  Ho1  1  0.251777  0.748223  0.251540  1
  Ho  Ho2  1  0.748223  0.251777  0.251540  1
  Ho  Ho3  1  0.748440  0.748440  0.748503  1
  Ho  Ho4  1  0.748223  0.748223  0.251540  1
  Ho  Ho5  1  0.748440  0.251560  0.748503  1
  Ho  Ho6  1  0.251560  0.748440  0.748503  1
  Ho  Ho7  1  0.251777  0.251777  0.251540  1
  Ga  Ga8  1  0.000000  0.000000  0.999988  1
  Pd  Pd9  1  0.000000  0.292443  0.000165  1
  Pd  Pd10  1  0.292443  0.000000  0.000165  1
  Pd  Pd11  1  0.000000  0.000000  0.291510  1
  Pd  Pd12  1  0.000000  0.707557  0.000165  1
  Pd  Pd13  1  0.707557  0.000000  0.000165  1
  Pt  Pt14  1  0.500000  0.500000  0.746978  1
  Pt  Pt15  1  0.500000  0.253081  0.499942  1
  Pt  Pt16  1  0.253081  0.500000  0.499942  1
  Pt  Pt17  1  0.500000  0.500000  0.252940  1
  Pt  Pt18  1  0.500000  0.746919  0.499942  1
  Pt  Pt19  1  0.746919  0.500000  0.499942  1
  Pt  Pt20  1  0.000000  0.000000  0.707370  1
  Pt  Pt21  1  0.000000  0.500000  0.740250  1
  Pt  Pt22  1  0.500000  0.259921  0.000031  1
  Pt  Pt23  1  0.260223  0.000000  0.500009  1
  Pt  Pt24  1  0.000000  0.260223  0.500009  1
  Pt  Pt25  1  0.500000  0.000000  0.740250  1
  Pt  Pt26  1  0.259921  0.500000  0.000031  1
  Pt  Pt27  1  0.000000  0.500000  0.259978  1
  Pt  Pt28  1  0.500000  0.740079  0.000031  1
  Pt  Pt29  1  0.000000  0.739777  0.500009  1
  Pt  Pt30  1  0.500000  0.000000  0.259978  1
  Pt  Pt31  1  0.739777  0.000000  0.500009  1
  Pt  Pt32  1  0.740079  0.500000  0.000031  1
