# generated using pymatgen
data_La2Mo3P7Rh9
_symmetry_space_group_name_H-M   'P 1'
_cell_length_a   9.62380300
_cell_length_b   9.62380422
_cell_length_c   3.97568800
_cell_angle_alpha   90.00000000
_cell_angle_beta   90.00000000
_cell_angle_gamma   119.99999924
_symmetry_Int_Tables_number   1
_chemical_formula_structural   La2Mo3P7Rh9
_chemical_formula_sum   'La2 Mo3 P7 Rh9'
_cell_volume   318.88672025
_cell_formula_units_Z   1
loop_
 _symmetry_equiv_pos_site_id
 _symmetry_equiv_pos_as_xyz
  1  'x, y, z'
loop_
 _atom_site_type_symbol
 _atom_site_label
 _atom_site_symmetry_multiplicity
 _atom_site_fract_x
 _atom_site_fract_y
 _atom_site_fract_z
 _atom_site_occupancy
  La  La0  1  0.000000  0.000000  0.763670  1
  La  La1  1  0.333333  0.666667  0.263800  1
  Mo  Mo2  1  0.792832  0.550193  0.763859  1
  Mo  Mo3  1  0.449807  0.242639  0.763859  1
  Mo  Mo4  1  0.757361  0.207168  0.763859  1
  P  P5  1  0.666667  0.333333  0.263986  1
  P  P6  1  0.067205  0.622449  0.763851  1
  P  P7  1  0.377551  0.444757  0.763851  1
  P  P8  1  0.555243  0.932795  0.763851  1
  P  P9  1  0.257758  0.036994  0.263706  1
  P  P10  1  0.963006  0.220764  0.263706  1
  P  P11  1  0.779236  0.742242  0.263706  1
  Rh  Rh12  1  0.508740  0.060756  0.263814  1
  Rh  Rh13  1  0.939244  0.447984  0.263814  1
  Rh  Rh14  1  0.552016  0.491260  0.263814  1
  Rh  Rh15  1  0.102812  0.382217  0.763795  1
  Rh  Rh16  1  0.617783  0.720595  0.763795  1
  Rh  Rh17  1  0.279405  0.897188  0.763795  1
  Rh  Rh18  1  0.232494  0.267152  0.263803  1
  Rh  Rh19  1  0.732848  0.965342  0.263803  1
  Rh  Rh20  1  0.034658  0.767506  0.263803  1
