# generated using pymatgen
data_TiBe4Co
_symmetry_space_group_name_H-M   'P 1'
_cell_length_a   4.30868057
_cell_length_b   4.30868130
_cell_length_c   4.30868200
_cell_angle_alpha   60.00000997
_cell_angle_beta   60.00000441
_cell_angle_gamma   60.00000850
_symmetry_Int_Tables_number   1
_chemical_formula_structural   TiBe4Co
_chemical_formula_sum   'Ti1 Be4 Co1'
_cell_volume   56.56114467
_cell_formula_units_Z   1
loop_
 _symmetry_equiv_pos_site_id
 _symmetry_equiv_pos_as_xyz
  1  'x, y, z'
loop_
 _atom_site_type_symbol
 _atom_site_label
 _atom_site_symmetry_multiplicity
 _atom_site_fract_x
 _atom_site_fract_y
 _atom_site_fract_z
 _atom_site_occupancy
  Ti  Ti0  1  0.250000  0.250000  0.250000  1
  Be  Be1  1  0.625299  0.625299  0.124103  1
  Be  Be2  1  0.625299  0.124103  0.625299  1
  Be  Be3  1  0.124103  0.625299  0.625299  1
  Be  Be4  1  0.625299  0.625299  0.625299  1
  Co  Co5  1  0.000000  0.000000  0.000000  1
