# generated using pymatgen
data_Sm2Mn3CrP7Rh8
_symmetry_space_group_name_H-M   'P 1'
_cell_length_a   9.46353497
_cell_length_b   9.45635706
_cell_length_c   3.83585200
_cell_angle_alpha   90.00000000
_cell_angle_beta   90.00000000
_cell_angle_gamma   120.22539014
_symmetry_Int_Tables_number   1
_chemical_formula_structural   Sm2Mn3CrP7Rh8
_chemical_formula_sum   'Sm2 Mn3 Cr1 P7 Rh8'
_cell_volume   296.60528088
_cell_formula_units_Z   1
loop_
 _symmetry_equiv_pos_site_id
 _symmetry_equiv_pos_as_xyz
  1  'x, y, z'
loop_
 _atom_site_type_symbol
 _atom_site_label
 _atom_site_symmetry_multiplicity
 _atom_site_fract_x
 _atom_site_fract_y
 _atom_site_fract_z
 _atom_site_occupancy
  Sm  Sm0  1  0.666682  0.333779  0.000000  1
  Sm  Sm1  1  0.334282  0.665596  0.500000  1
  Mn  Mn2  1  0.152744  0.266210  0.500000  1
  Mn  Mn3  1  0.729835  0.888774  0.500000  1
  Mn  Mn4  1  0.114100  0.845361  0.500000  1
  Cr  Cr5  1  0.882814  0.782408  0.000000  1
  P  P6  1  0.118981  0.394141  0.000000  1
  P  P7  1  0.608071  0.723404  0.000000  1
  P  P8  1  0.276574  0.878932  0.000000  1
  P  P9  1  0.997774  0.996962  0.500000  1
  P  P10  1  0.402828  0.296690  0.500000  1
  P  P11  1  0.703088  0.108362  0.500000  1
  P  P12  1  0.891613  0.598745  0.500000  1
  Rh  Rh13  1  0.429719  0.062109  0.500000  1
  Rh  Rh14  1  0.938161  0.367973  0.500000  1
  Rh  Rh15  1  0.633678  0.571876  0.500000  1
  Rh  Rh16  1  0.386329  0.440033  0.000000  1
  Rh  Rh17  1  0.555261  0.943309  0.000000  1
  Rh  Rh18  1  0.052678  0.612080  0.000000  1
  Rh  Rh19  1  0.227514  0.095686  0.000000  1
  Rh  Rh20  1  0.897274  0.127569  0.000000  1
