# generated using pymatgen
data_Li4ScNi9AsP6
_symmetry_space_group_name_H-M   'P 1'
_cell_length_a   9.08748300
_cell_length_b   9.08748227
_cell_length_c   3.62585700
_cell_angle_alpha   90.00000000
_cell_angle_beta   90.00000000
_cell_angle_gamma   120.00000631
_symmetry_Int_Tables_number   1
_chemical_formula_structural   Li4ScNi9AsP6
_chemical_formula_sum   'Li4 Sc1 Ni9 As1 P6'
_cell_volume   259.31549248
_cell_formula_units_Z   1
loop_
 _symmetry_equiv_pos_site_id
 _symmetry_equiv_pos_as_xyz
  1  'x, y, z'
loop_
 _atom_site_type_symbol
 _atom_site_label
 _atom_site_symmetry_multiplicity
 _atom_site_fract_x
 _atom_site_fract_y
 _atom_site_fract_z
 _atom_site_occupancy
  Li  Li0  1  0.773345  0.558409  0.500000  1
  Li  Li1  1  0.441591  0.214936  0.500000  1
  Li  Li2  1  0.785064  0.226655  0.500000  1
  Li  Li3  1  0.000000  0.000000  0.500000  1
  Sc  Sc4  1  0.333333  0.666667  0.000000  1
  Ni  Ni5  1  0.272010  0.378145  0.500000  1
  Ni  Ni6  1  0.621855  0.893865  0.500000  1
  Ni  Ni7  1  0.106135  0.727990  0.500000  1
  Ni  Ni8  1  0.491447  0.455683  0.000000  1
  Ni  Ni9  1  0.544317  0.035764  0.000000  1
  Ni  Ni10  1  0.964236  0.508553  0.000000  1
  Ni  Ni11  1  0.724071  0.763169  0.000000  1
  Ni  Ni12  1  0.236831  0.960902  0.000000  1
  Ni  Ni13  1  0.039098  0.275929  0.000000  1
  As  As14  1  0.666667  0.333333  0.000000  1
  P  P15  1  0.968239  0.757514  0.000000  1
  P  P16  1  0.242486  0.210725  0.000000  1
  P  P17  1  0.789275  0.031761  0.000000  1
  P  P18  1  0.537871  0.619966  0.500000  1
  P  P19  1  0.380034  0.917906  0.500000  1
  P  P20  1  0.082094  0.462129  0.500000  1
