# generated using pymatgen
data_Lu4Mo3Os5
_symmetry_space_group_name_H-M   'P 1'
_cell_length_a   5.29623500
_cell_length_b   5.34091779
_cell_length_c   8.95922800
_cell_angle_alpha   90.00000000
_cell_angle_beta   90.00000000
_cell_angle_gamma   120.27945684
_symmetry_Int_Tables_number   1
_chemical_formula_structural   Lu4Mo3Os5
_chemical_formula_sum   'Lu4 Mo3 Os5'
_cell_volume   218.85400073
_cell_formula_units_Z   1
loop_
 _symmetry_equiv_pos_site_id
 _symmetry_equiv_pos_as_xyz
  1  'x, y, z'
loop_
 _atom_site_type_symbol
 _atom_site_label
 _atom_site_symmetry_multiplicity
 _atom_site_fract_x
 _atom_site_fract_y
 _atom_site_fract_z
 _atom_site_occupancy
  Lu  Lu0  1  0.338269  0.669135  0.433756  1
  Lu  Lu1  1  0.667653  0.333826  0.558952  1
  Lu  Lu2  1  0.667653  0.333826  0.941048  1
  Lu  Lu3  1  0.338269  0.669135  0.066244  1
  Mo  Mo4  1  0.163695  0.335702  0.750000  1
  Mo  Mo5  1  0.163695  0.827994  0.750000  1
  Mo  Mo6  1  0.335153  0.167576  0.250000  1
  Os  Os7  1  0.827572  0.656007  0.250000  1
  Os  Os8  1  0.646828  0.823414  0.750000  1
  Os  Os9  1  0.011821  0.005910  0.000033  1
  Os  Os10  1  0.827572  0.171564  0.250000  1
  Os  Os11  1  0.011821  0.005910  0.499967  1
