# generated using pymatgen
data_Eu4HoTmTa2O12
_symmetry_space_group_name_H-M   'P 1'
_cell_length_a   5.77184020
_cell_length_b   5.91420751
_cell_length_c   8.25171902
_cell_angle_alpha   89.99655387
_cell_angle_beta   89.76276809
_cell_angle_gamma   90.14128264
_symmetry_Int_Tables_number   1
_chemical_formula_structural   Eu4HoTmTa2O12
_chemical_formula_sum   'Eu4 Ho1 Tm1 Ta2 O12'
_cell_volume   281.67625885
_cell_formula_units_Z   1
loop_
 _symmetry_equiv_pos_site_id
 _symmetry_equiv_pos_as_xyz
  1  'x, y, z'
loop_
 _atom_site_type_symbol
 _atom_site_label
 _atom_site_symmetry_multiplicity
 _atom_site_fract_x
 _atom_site_fract_y
 _atom_site_fract_z
 _atom_site_occupancy
  Eu  Eu0  1  0.512829  0.452920  0.248135  1
  Eu  Eu1  1  0.987136  0.953536  0.249513  1
  Eu  Eu2  1  0.012954  0.046550  0.750526  1
  Eu  Eu3  1  0.487026  0.547132  0.751826  1
  Ho  Ho4  1  0.000037  0.500034  0.499971  1
  Tm  Tm5  1  0.499953  0.000075  0.000037  1
  Ta  Ta6  1  0.000208  0.499931  0.999891  1
  Ta  Ta7  1  0.499760  0.000068  0.500135  1
  O  O8  1  0.721478  0.698479  0.046152  1
  O  O9  1  0.804669  0.222611  0.051366  1
  O  O10  1  0.092669  0.529250  0.235222  1
  O  O11  1  0.407913  0.029246  0.263165  1
  O  O12  1  0.690628  0.721206  0.447647  1
  O  O13  1  0.779786  0.194289  0.452882  1
  O  O14  1  0.220309  0.805640  0.547349  1
  O  O15  1  0.309252  0.278665  0.552546  1
  O  O16  1  0.592233  0.970764  0.736963  1
  O  O17  1  0.907192  0.470812  0.764644  1
  O  O18  1  0.195482  0.777290  0.948404  1
  O  O19  1  0.278490  0.301505  0.953624  1
