# generated using pymatgen
data_Tb8Tm8Cd4TcNi3
_symmetry_space_group_name_H-M   'P 1'
_cell_length_a   9.54736212
_cell_length_b   9.54736218
_cell_length_c   9.55202518
_cell_angle_alpha   59.49417324
_cell_angle_beta   59.49417280
_cell_angle_gamma   59.43181585
_symmetry_Int_Tables_number   1
_chemical_formula_structural   Tb8Tm8Cd4TcNi3
_chemical_formula_sum   'Tb8 Tm8 Cd4 Tc1 Ni3'
_cell_volume   608.29366421
_cell_formula_units_Z   1
loop_
 _symmetry_equiv_pos_site_id
 _symmetry_equiv_pos_as_xyz
  1  'x, y, z'
loop_
 _atom_site_type_symbol
 _atom_site_label
 _atom_site_symmetry_multiplicity
 _atom_site_fract_x
 _atom_site_fract_y
 _atom_site_fract_z
 _atom_site_occupancy
  Tb  Tb0  1  0.186430  0.186430  0.811464  1
  Tb  Tb1  1  0.812141  0.812141  0.185692  1
  Tb  Tb2  1  0.937120  0.564213  0.563884  1
  Tb  Tb3  1  0.554780  0.939958  0.940220  1
  Tb  Tb4  1  0.564213  0.937120  0.563884  1
  Tb  Tb5  1  0.939958  0.554780  0.940220  1
  Tb  Tb6  1  0.564036  0.564036  0.936802  1
  Tb  Tb7  1  0.940287  0.940287  0.554453  1
  Tm  Tm8  1  0.347268  0.347268  0.345431  1
  Tm  Tm9  1  0.351958  0.351958  0.956101  1
  Tm  Tm10  1  0.350031  0.955875  0.352299  1
  Tm  Tm11  1  0.955875  0.350031  0.352299  1
  Tm  Tm12  1  0.810208  0.187443  0.187459  1
  Tm  Tm13  1  0.186565  0.811177  0.811166  1
  Tm  Tm14  1  0.187443  0.810208  0.187459  1
  Tm  Tm15  1  0.811177  0.186565  0.811166  1
  Cd  Cd16  1  0.579075  0.579075  0.580502  1
  Cd  Cd17  1  0.579157  0.579157  0.257054  1
  Cd  Cd18  1  0.579987  0.257245  0.579278  1
  Cd  Cd19  1  0.257245  0.579987  0.579278  1
  Tc  Tc20  1  0.143956  0.143956  0.144266  1
  Ni  Ni21  1  0.142410  0.142410  0.574787  1
  Ni  Ni22  1  0.144170  0.574509  0.142418  1
  Ni  Ni23  1  0.574509  0.144170  0.142418  1
