# generated using pymatgen
data_Hf11Zr8Si16Ru
_symmetry_space_group_name_H-M   'P 1'
_cell_length_a   7.07738041
_cell_length_b   7.07738041
_cell_length_c   12.86381613
_cell_angle_alpha   89.72160557
_cell_angle_beta   89.72160557
_cell_angle_gamma   89.95275713
_symmetry_Int_Tables_number   1
_chemical_formula_structural   Hf11Zr8Si16Ru
_chemical_formula_sum   'Hf11 Zr8 Si16 Ru1'
_cell_volume   644.32429906
_cell_formula_units_Z   1
loop_
 _symmetry_equiv_pos_site_id
 _symmetry_equiv_pos_as_xyz
  1  'x, y, z'
loop_
 _atom_site_type_symbol
 _atom_site_label
 _atom_site_symmetry_multiplicity
 _atom_site_fract_x
 _atom_site_fract_y
 _atom_site_fract_z
 _atom_site_occupancy
  Hf  Hf0  1  0.324524  0.675476  0.250000  1
  Hf  Hf1  1  0.823008  0.823657  0.502794  1
  Hf  Hf2  1  0.176343  0.176992  0.997206  1
  Hf  Hf3  1  0.499670  0.354911  0.123961  1
  Hf  Hf4  1  0.502140  0.644061  0.629363  1
  Hf  Hf5  1  0.855063  0.001195  0.876288  1
  Hf  Hf6  1  0.146255  0.998501  0.377655  1
  Hf  Hf7  1  0.645089  0.500330  0.376039  1
  Hf  Hf8  1  0.355939  0.497860  0.870637  1
  Hf  Hf9  1  0.001499  0.853745  0.122345  1
  Hf  Hf10  1  0.998805  0.144937  0.623712  1
  Zr  Zr11  1  0.496417  0.151427  0.533669  1
  Zr  Zr12  1  0.503522  0.848536  0.031340  1
  Zr  Zr13  1  0.651416  0.002957  0.284306  1
  Zr  Zr14  1  0.346330  0.997359  0.782959  1
  Zr  Zr15  1  0.848573  0.503583  0.966331  1
  Zr  Zr16  1  0.151464  0.496478  0.468660  1
  Zr  Zr17  1  0.002641  0.653670  0.717041  1
  Zr  Zr18  1  0.997043  0.348584  0.215694  1
  Si  Si19  1  0.795667  0.146468  0.071187  1
  Si  Si20  1  0.204289  0.852115  0.572484  1
  Si  Si21  1  0.646118  0.705246  0.822534  1
  Si  Si22  1  0.354906  0.295176  0.322339  1
  Si  Si23  1  0.853532  0.204333  0.428813  1
  Si  Si24  1  0.147885  0.795711  0.927516  1
  Si  Si25  1  0.704824  0.645094  0.177661  1
  Si  Si26  1  0.294754  0.353882  0.677466  1
  Si  Si27  1  0.556021  0.204850  0.931564  1
  Si  Si28  1  0.450319  0.799556  0.437445  1
  Si  Si29  1  0.698641  0.956261  0.688403  1
  Si  Si30  1  0.300123  0.051027  0.185896  1
  Si  Si31  1  0.795150  0.443979  0.568436  1
  Si  Si32  1  0.200444  0.549681  0.062555  1
  Si  Si33  1  0.948973  0.699877  0.314104  1
  Si  Si34  1  0.043739  0.301359  0.811597  1
  Ru  Ru35  1  0.678876  0.321124  0.750000  1
