# generated using pymatgen
data_ScCrP4Ru5
_symmetry_space_group_name_H-M   'P 1'
_cell_length_a   7.02950400
_cell_length_b   6.94824101
_cell_length_c   3.63351600
_cell_angle_alpha   90.00000000
_cell_angle_beta   90.00000000
_cell_angle_gamma   120.38764329
_symmetry_Int_Tables_number   1
_chemical_formula_structural   ScCrP4Ru5
_chemical_formula_sum   'Sc1 Cr1 P4 Ru5'
_cell_volume   153.09025906
_cell_formula_units_Z   1
loop_
 _symmetry_equiv_pos_site_id
 _symmetry_equiv_pos_as_xyz
  1  'x, y, z'
loop_
 _atom_site_type_symbol
 _atom_site_label
 _atom_site_symmetry_multiplicity
 _atom_site_fract_x
 _atom_site_fract_y
 _atom_site_fract_z
 _atom_site_occupancy
  Sc  Sc0  1  0.996964  0.993929  0.000000  1
  Cr  Cr1  1  0.462962  0.925923  0.000000  1
  P  P2  1  0.184759  0.369517  0.500000  1
  P  P3  1  0.631865  0.811596  0.500000  1
  P  P4  1  0.179731  0.811596  0.500000  1
  P  P5  1  0.668077  0.336153  0.000000  1
  Ru  Ru6  1  0.799522  0.599044  0.500000  1
  Ru  Ru7  1  0.393827  0.193234  0.500000  1
  Ru  Ru8  1  0.799407  0.193234  0.500000  1
  Ru  Ru9  1  0.080100  0.549553  0.000000  1
  Ru  Ru10  1  0.469454  0.549553  0.000000  1
