# generated using pymatgen
data_ZnCu3Mo12(PtN)4
_symmetry_space_group_name_H-M   'P 1'
_cell_length_a   6.82216249
_cell_length_b   6.82216249
_cell_length_c   6.82216249
_cell_angle_alpha   89.91800155
_cell_angle_beta   90.08199845
_cell_angle_gamma   90.08199845
_symmetry_Int_Tables_number   1
_chemical_formula_structural   ZnCu3Mo12(PtN)4
_chemical_formula_sum   'Zn1 Cu3 Mo12 Pt4 N4'
_cell_volume   317.51543703
_cell_formula_units_Z   1
loop_
 _symmetry_equiv_pos_site_id
 _symmetry_equiv_pos_as_xyz
  1  'x, y, z'
loop_
 _atom_site_type_symbol
 _atom_site_label
 _atom_site_symmetry_multiplicity
 _atom_site_fract_x
 _atom_site_fract_y
 _atom_site_fract_z
 _atom_site_occupancy
  Zn  Zn0  1  0.183660  0.816340  0.316340  1
  Cu  Cu1  1  0.315225  0.184529  0.815309  1
  Cu  Cu2  1  0.815471  0.315309  0.184775  1
  Cu  Cu3  1  0.684691  0.684775  0.684529  1
  Mo  Mo4  1  0.801155  0.962621  0.374271  1
  Mo  Mo5  1  0.697002  0.038536  0.873640  1
  Mo  Mo6  1  0.196660  0.459300  0.126247  1
  Mo  Mo7  1  0.305056  0.535343  0.629033  1
  Mo  Mo8  1  0.961464  0.373640  0.802998  1
  Mo  Mo9  1  0.037379  0.874271  0.698845  1
  Mo  Mo10  1  0.464657  0.129033  0.194944  1
  Mo  Mo11  1  0.540700  0.626247  0.303340  1
  Mo  Mo12  1  0.373753  0.803340  0.959300  1
  Mo  Mo13  1  0.870967  0.694944  0.035343  1
  Mo  Mo14  1  0.125729  0.198845  0.462621  1
  Mo  Mo15  1  0.626360  0.302998  0.538536  1
  Pt  Pt16  1  0.565125  0.434875  0.934875  1
  Pt  Pt17  1  0.434604  0.934632  0.566036  1
  Pt  Pt18  1  0.933964  0.565396  0.434632  1
  Pt  Pt19  1  0.065368  0.066036  0.065396  1
  N  N20  1  0.873135  0.126865  0.626865  1
  N  N21  1  0.627146  0.872964  0.126306  1
  N  N22  1  0.127036  0.626306  0.872854  1
  N  N23  1  0.373694  0.372854  0.372964  1
