# generated using pymatgen
data_Ti8Al14AsIr5Rh2
_symmetry_space_group_name_H-M   'P 1'
_cell_length_a   8.64692733
_cell_length_b   8.64692719
_cell_length_c   8.64692664
_cell_angle_alpha   119.94249033
_cell_angle_beta   119.81825188
_cell_angle_gamma   90.20736385
_symmetry_Int_Tables_number   1
_chemical_formula_structural   Ti8Al14AsIr5Rh2
_chemical_formula_sum   'Ti8 Al14 As1 Ir5 Rh2'
_cell_volume   457.98498836
_cell_formula_units_Z   1
loop_
 _symmetry_equiv_pos_site_id
 _symmetry_equiv_pos_as_xyz
  1  'x, y, z'
loop_
 _atom_site_type_symbol
 _atom_site_label
 _atom_site_symmetry_multiplicity
 _atom_site_fract_x
 _atom_site_fract_y
 _atom_site_fract_z
 _atom_site_occupancy
  Ti  Ti0  1  0.796064  0.296404  0.085980  1
  Ti  Ti1  1  0.210423  0.296404  0.500340  1
  Ti  Ti2  1  0.204350  0.704350  0.500000  1
  Ti  Ti3  1  0.210423  0.710083  0.914020  1
  Ti  Ti4  1  0.796064  0.710083  0.499660  1
  Ti  Ti5  1  0.790961  0.290961  0.500000  1
  Ti  Ti6  1  0.379431  0.122438  0.743007  1
  Ti  Ti7  1  0.379431  0.636426  0.256993  1
  Al  Al8  1  0.158027  0.336902  0.178873  1
  Al  Al9  1  0.158027  0.979155  0.821127  1
  Al  Al10  1  0.154643  0.340664  0.813979  1
  Al  Al11  1  0.526684  0.340664  0.186021  1
  Al  Al12  1  0.840637  0.660370  0.819733  1
  Al  Al13  1  0.840637  0.020904  0.180267  1
  Al  Al14  1  0.838140  0.660184  0.177957  1
  Al  Al15  1  0.482227  0.660184  0.822043  1
  Al  Al16  1  0.380704  0.119780  0.260925  1
  Al  Al17  1  0.858855  0.119780  0.739075  1
  Al  Al18  1  0.620472  0.880110  0.259639  1
  Al  Al19  1  0.620472  0.360833  0.740361  1
  Al  Al20  1  0.620323  0.879549  0.740774  1
  Al  Al21  1  0.138775  0.879549  0.259226  1
  As  As22  1  0.998209  0.498209  0.500000  1
  Ir  Ir23  1  0.001525  0.999843  0.501458  1
  Ir  Ir24  1  0.498385  0.999843  0.998318  1
  Ir  Ir25  1  0.497411  0.497411  0.000000  1
  Ir  Ir26  1  0.498385  0.500067  0.498542  1
  Ir  Ir27  1  0.001525  0.500067  0.001682  1
  Rh  Rh28  1  0.000084  0.000084  0.000000  1
  Rh  Rh29  1  0.498698  0.998698  0.500000  1
