# generated using pymatgen
data_Er2TmZn3RuAu2
_symmetry_space_group_name_H-M   'P 1'
_cell_length_a   7.40316032
_cell_length_b   7.39579284
_cell_length_c   3.80933400
_cell_angle_alpha   90.00000000
_cell_angle_beta   90.00000000
_cell_angle_gamma   120.05144093
_symmetry_Int_Tables_number   1
_chemical_formula_structural   Er2TmZn3RuAu2
_chemical_formula_sum   'Er2 Tm1 Zn3 Ru1 Au2'
_cell_volume   180.53284457
_cell_formula_units_Z   1
loop_
 _symmetry_equiv_pos_site_id
 _symmetry_equiv_pos_as_xyz
  1  'x, y, z'
loop_
 _atom_site_type_symbol
 _atom_site_label
 _atom_site_symmetry_multiplicity
 _atom_site_fract_x
 _atom_site_fract_y
 _atom_site_fract_z
 _atom_site_occupancy
  Er  Er0  1  0.023388  0.604469  0.000000  1
  Er  Er1  1  0.395520  0.419110  0.000000  1
  Tm  Tm2  1  0.581352  0.975804  0.000000  1
  Zn  Zn3  1  0.259484  0.988198  0.500000  1
  Zn  Zn4  1  0.011958  0.271309  0.500000  1
  Zn  Zn5  1  0.728760  0.741152  0.500000  1
  Ru  Ru6  1  0.334131  0.667973  0.500000  1
  Au  Au7  1  0.666227  0.331784  0.500000  1
  Au  Au8  1  0.999179  0.000199  0.000000  1
