# generated using pymatgen
data_Pr2Ga(GeRh2)3
_symmetry_space_group_name_H-M   'P 1'
_cell_length_a   6.83644816
_cell_length_b   6.84118285
_cell_length_c   6.83644781
_cell_angle_alpha   130.57388560
_cell_angle_beta   113.16023344
_cell_angle_gamma   87.46945991
_symmetry_Int_Tables_number   1
_chemical_formula_structural   Pr2Ga(GeRh2)3
_chemical_formula_sum   'Pr2 Ga1 Ge3 Rh6'
_cell_volume   212.78590295
_cell_formula_units_Z   1
loop_
 _symmetry_equiv_pos_site_id
 _symmetry_equiv_pos_as_xyz
  1  'x, y, z'
loop_
 _atom_site_type_symbol
 _atom_site_label
 _atom_site_symmetry_multiplicity
 _atom_site_fract_x
 _atom_site_fract_y
 _atom_site_fract_z
 _atom_site_occupancy
  Pr  Pr0  1  0.249503  0.542991  0.293488  1
  Pr  Pr1  1  0.751197  0.463499  0.712301  1
  Ga  Ga2  1  0.087578  0.880180  0.792603  1
  Ge  Ge3  1  0.927671  0.131637  0.203966  1
  Ge  Ge4  1  0.576374  0.781704  0.205330  1
  Ge  Ge5  1  0.407740  0.198269  0.790529  1
  Rh  Rh6  1  0.720615  0.004454  0.722229  1
  Rh  Rh7  1  0.224139  0.499345  0.727511  1
  Rh  Rh8  1  0.282225  0.004454  0.283838  1
  Rh  Rh9  1  0.771834  0.499345  0.275206  1
  Rh  Rh10  1  0.987005  0.997060  0.482944  1
  Rh  Rh11  1  0.514116  0.997060  0.010056  1
