# generated using pymatgen
data_TbY7(Ta3Ge4)4
_symmetry_space_group_name_H-M   'P 1'
_cell_length_a   7.00903625
_cell_length_b   7.16887570
_cell_length_c   13.55695238
_cell_angle_alpha   90.00721063
_cell_angle_beta   90.00084936
_cell_angle_gamma   90.00039552
_symmetry_Int_Tables_number   1
_chemical_formula_structural   TbY7(Ta3Ge4)4
_chemical_formula_sum   'Tb1 Y7 Ta12 Ge16'
_cell_volume   681.19495569
_cell_formula_units_Z   1
loop_
 _symmetry_equiv_pos_site_id
 _symmetry_equiv_pos_as_xyz
  1  'x, y, z'
loop_
 _atom_site_type_symbol
 _atom_site_label
 _atom_site_symmetry_multiplicity
 _atom_site_fract_x
 _atom_site_fract_y
 _atom_site_fract_z
 _atom_site_occupancy
  Tb  Tb0  1  0.996192  0.173107  0.094361  1
  Y  Y1  1  0.495931  0.326827  0.094349  1
  Y  Y2  1  0.995881  0.173140  0.405648  1
  Y  Y3  1  0.504059  0.673255  0.594326  1
  Y  Y4  1  0.004131  0.826882  0.905592  1
  Y  Y5  1  0.504082  0.673154  0.905537  1
  Y  Y6  1  0.004081  0.826869  0.594355  1
  Y  Y7  1  0.495912  0.326806  0.405802  1
  Ta  Ta8  1  0.663820  0.014884  0.749897  1
  Ta  Ta9  1  0.163873  0.485262  0.749905  1
  Ta  Ta10  1  0.336132  0.985040  0.250138  1
  Ta  Ta11  1  0.836117  0.514726  0.250036  1
  Ta  Ta12  1  0.839857  0.329770  0.626167  1
  Ta  Ta13  1  0.339911  0.170202  0.873718  1
  Ta  Ta14  1  0.160149  0.670089  0.126289  1
  Ta  Ta15  1  0.660124  0.829637  0.373901  1
  Ta  Ta16  1  0.160218  0.670239  0.373863  1
  Ta  Ta17  1  0.660199  0.829776  0.126297  1
  Ta  Ta18  1  0.839628  0.329921  0.873719  1
  Ta  Ta19  1  0.339782  0.170218  0.626187  1
  Ge  Ge20  1  0.804884  0.639499  0.749943  1
  Ge  Ge21  1  0.304881  0.860576  0.749948  1
  Ge  Ge22  1  0.195188  0.360675  0.250134  1
  Ge  Ge23  1  0.694920  0.139382  0.250129  1
  Ge  Ge24  1  0.539519  0.378465  0.749913  1
  Ge  Ge25  1  0.039544  0.121686  0.750036  1
  Ge  Ge26  1  0.460471  0.621535  0.250069  1
  Ge  Ge27  1  0.960425  0.878316  0.250055  1
  Ge  Ge28  1  0.675357  0.038649  0.541905  1
  Ge  Ge29  1  0.175308  0.461373  0.957965  1
  Ge  Ge30  1  0.324970  0.961017  0.041822  1
  Ge  Ge31  1  0.824697  0.538638  0.458165  1
  Ge  Ge32  1  0.324582  0.961404  0.458140  1
  Ge  Ge33  1  0.824551  0.538967  0.041801  1
  Ge  Ge34  1  0.675285  0.038695  0.958015  1
  Ge  Ge35  1  0.175343  0.461318  0.541873  1
