# generated using pymatgen
data_Tm12Co2Ni2SnRu
_symmetry_space_group_name_H-M   'P 1'
_cell_length_a   8.17582806
_cell_length_b   8.17582892
_cell_length_c   8.17582831
_cell_angle_alpha   111.15248241
_cell_angle_beta   110.03551123
_cell_angle_gamma   107.25028262
_symmetry_Int_Tables_number   1
_chemical_formula_structural   Tm12Co2Ni2SnRu
_chemical_formula_sum   'Tm12 Co2 Ni2 Sn1 Ru1'
_cell_volume   420.18744799
_cell_formula_units_Z   1
loop_
 _symmetry_equiv_pos_site_id
 _symmetry_equiv_pos_as_xyz
  1  'x, y, z'
loop_
 _atom_site_type_symbol
 _atom_site_label
 _atom_site_symmetry_multiplicity
 _atom_site_fract_x
 _atom_site_fract_y
 _atom_site_fract_z
 _atom_site_occupancy
  Tm  Tm0  1  0.411729  0.219514  0.192215  1
  Tm  Tm1  1  0.588271  0.780486  0.807785  1
  Tm  Tm2  1  0.027299  0.219514  0.807785  1
  Tm  Tm3  1  0.972701  0.780486  0.192215  1
  Tm  Tm4  1  0.182072  0.285765  0.467837  1
  Tm  Tm5  1  0.817928  0.714235  0.532163  1
  Tm  Tm6  1  0.182072  0.714235  0.896308  1
  Tm  Tm7  1  0.817928  0.285765  0.103692  1
  Tm  Tm8  1  0.315456  0.621970  0.306514  1
  Tm  Tm9  1  0.684544  0.378030  0.693486  1
  Tm  Tm10  1  0.315456  0.008943  0.693486  1
  Tm  Tm11  1  0.684544  0.991057  0.306514  1
  Co  Co12  1  0.114309  0.614309  0.500000  1
  Co  Co13  1  0.885691  0.385691  0.500000  1
  Ni  Ni14  1  0.362148  0.000000  0.362148  1
  Ni  Ni15  1  0.637852  0.000000  0.637852  1
  Sn  Sn16  1  0.500000  0.500000  0.000000  1
  Ru  Ru17  1  0.000000  0.000000  0.000000  1
