# generated using pymatgen
data_La17Lu3Ir11Ru
_symmetry_space_group_name_H-M   'P 1'
_cell_length_a   11.34182702
_cell_length_b   11.34809402
_cell_length_c   6.57151100
_cell_angle_alpha   90.00000000
_cell_angle_beta   90.00000000
_cell_angle_gamma   90.00680784
_symmetry_Int_Tables_number   1
_chemical_formula_structural   La17Lu3Ir11Ru
_chemical_formula_sum   'La17 Lu3 Ir11 Ru1'
_cell_volume   845.80681634
_cell_formula_units_Z   1
loop_
 _symmetry_equiv_pos_site_id
 _symmetry_equiv_pos_as_xyz
  1  'x, y, z'
loop_
 _atom_site_type_symbol
 _atom_site_label
 _atom_site_symmetry_multiplicity
 _atom_site_fract_x
 _atom_site_fract_y
 _atom_site_fract_z
 _atom_site_occupancy
  La  La0  1  0.287431  0.086982  0.387756  1
  La  La1  1  0.288236  0.911655  0.890777  1
  La  La2  1  0.711764  0.088345  0.890777  1
  La  La3  1  0.712569  0.913018  0.387756  1
  La  La4  1  0.588229  0.790892  0.890856  1
  La  La5  1  0.587244  0.208578  0.385270  1
  La  La6  1  0.412756  0.791422  0.385270  1
  La  La7  1  0.411771  0.209108  0.890856  1
  La  La8  1  0.210300  0.411210  0.614857  1
  La  La9  1  0.210612  0.589141  0.112453  1
  La  La10  1  0.789388  0.410859  0.112453  1
  La  La11  1  0.789700  0.588790  0.614857  1
  La  La12  1  0.910821  0.713572  0.112415  1
  La  La13  1  0.911339  0.285472  0.613063  1
  La  La14  1  0.088661  0.714528  0.613063  1
  La  La15  1  0.089179  0.286428  0.112415  1
  La  La16  1  0.500000  0.500000  0.498023  1
  Lu  Lu17  1  0.000000  0.000000  0.498366  1
  Lu  Lu18  1  0.000000  0.000000  0.998152  1
  Lu  Lu19  1  0.500000  0.500000  0.998022  1
  Ir  Ir20  1  0.854715  0.146184  0.250329  1
  Ir  Ir21  1  0.854878  0.853881  0.748551  1
  Ir  Ir22  1  0.145122  0.146119  0.748551  1
  Ir  Ir23  1  0.145285  0.853816  0.250329  1
  Ir  Ir24  1  0.650228  0.349466  0.756944  1
  Ir  Ir25  1  0.651937  0.649098  0.241622  1
  Ir  Ir26  1  0.348063  0.350902  0.241622  1
  Ir  Ir27  1  0.349772  0.650534  0.756944  1
  Ir  Ir28  1  0.500000  0.000000  0.619015  1
  Ir  Ir29  1  0.000000  0.500000  0.878719  1
  Ir  Ir30  1  0.000000  0.500000  0.381871  1
  Ru  Ru31  1  0.500000  0.000000  0.118050  1
