# generated using pymatgen
data_Pr8DyRh6
_symmetry_space_group_name_H-M   'P 1'
_cell_length_a   7.64868631
_cell_length_b   7.64868595
_cell_length_c   7.64868483
_cell_angle_alpha   71.21409505
_cell_angle_beta   71.21409674
_cell_angle_gamma   71.21409152
_symmetry_Int_Tables_number   1
_chemical_formula_structural   Pr8DyRh6
_chemical_formula_sum   'Pr8 Dy1 Rh6'
_cell_volume   388.98127341
_cell_formula_units_Z   1
loop_
 _symmetry_equiv_pos_site_id
 _symmetry_equiv_pos_as_xyz
  1  'x, y, z'
loop_
 _atom_site_type_symbol
 _atom_site_label
 _atom_site_symmetry_multiplicity
 _atom_site_fract_x
 _atom_site_fract_y
 _atom_site_fract_z
 _atom_site_occupancy
  Pr  Pr0  1  0.798730  0.798730  0.798730  1
  Pr  Pr1  1  0.201270  0.201270  0.201270  1
  Pr  Pr2  1  0.162954  0.389503  0.667264  1
  Pr  Pr3  1  0.667264  0.162954  0.389503  1
  Pr  Pr4  1  0.389503  0.667264  0.162954  1
  Pr  Pr5  1  0.837046  0.610497  0.332736  1
  Pr  Pr6  1  0.332736  0.837046  0.610497  1
  Pr  Pr7  1  0.610497  0.332736  0.837046  1
  Dy  Dy8  1  0.000000  0.000000  0.000000  1
  Rh  Rh9  1  0.958883  0.158619  0.596061  1
  Rh  Rh10  1  0.596061  0.958883  0.158619  1
  Rh  Rh11  1  0.158619  0.596061  0.958883  1
  Rh  Rh12  1  0.041117  0.841381  0.403939  1
  Rh  Rh13  1  0.403939  0.041117  0.841381  1
  Rh  Rh14  1  0.841381  0.403939  0.041117  1
