# generated using pymatgen
data_Tb3Y(Ho2Rh)4
_symmetry_space_group_name_H-M   'P 1'
_cell_length_a   6.26650703
_cell_length_b   7.15567594
_cell_length_c   9.47867200
_cell_angle_alpha   90.00000000
_cell_angle_beta   90.00000000
_cell_angle_gamma   89.90387329
_symmetry_Int_Tables_number   1
_chemical_formula_structural   Tb3Y(Ho2Rh)4
_chemical_formula_sum   'Tb3 Y1 Ho8 Rh4'
_cell_volume   425.03341995
_cell_formula_units_Z   1
loop_
 _symmetry_equiv_pos_site_id
 _symmetry_equiv_pos_as_xyz
  1  'x, y, z'
loop_
 _atom_site_type_symbol
 _atom_site_label
 _atom_site_symmetry_multiplicity
 _atom_site_fract_x
 _atom_site_fract_y
 _atom_site_fract_z
 _atom_site_occupancy
  Tb  Tb0  1  0.634390  0.032508  0.250000  1
  Tb  Tb1  1  0.134143  0.467873  0.750000  1
  Tb  Tb2  1  0.365872  0.967696  0.750000  1
  Y  Y3  1  0.865986  0.531786  0.250000  1
  Ho  Ho4  1  0.330181  0.677187  0.063625  1
  Ho  Ho5  1  0.170103  0.176894  0.436616  1
  Ho  Ho6  1  0.669810  0.322900  0.563475  1
  Ho  Ho7  1  0.830083  0.822869  0.936421  1
  Ho  Ho8  1  0.669810  0.322900  0.936525  1
  Ho  Ho9  1  0.830083  0.822869  0.563579  1
  Ho  Ho10  1  0.330181  0.677187  0.436375  1
  Ho  Ho11  1  0.170103  0.176894  0.063384  1
  Rh  Rh12  1  0.062098  0.882807  0.250000  1
  Rh  Rh13  1  0.437045  0.381532  0.250000  1
  Rh  Rh14  1  0.938308  0.117964  0.750000  1
  Rh  Rh15  1  0.561805  0.618131  0.750000  1
