# generated using pymatgen
data_Y2P7(Ru5Pt)2
_symmetry_space_group_name_H-M   'P 1'
_cell_length_a   9.50332157
_cell_length_b   9.58092000
_cell_length_c   3.90244400
_cell_angle_alpha   90.00000000
_cell_angle_beta   90.00000000
_cell_angle_gamma   120.26550226
_symmetry_Int_Tables_number   1
_chemical_formula_structural   Y2P7(Ru5Pt)2
_chemical_formula_sum   'Y2 P7 Ru10 Pt2'
_cell_volume   306.88935244
_cell_formula_units_Z   1
loop_
 _symmetry_equiv_pos_site_id
 _symmetry_equiv_pos_as_xyz
  1  'x, y, z'
loop_
 _atom_site_type_symbol
 _atom_site_label
 _atom_site_symmetry_multiplicity
 _atom_site_fract_x
 _atom_site_fract_y
 _atom_site_fract_z
 _atom_site_occupancy
  Y  Y0  1  0.668305  0.331970  0.500000  1
  Y  Y1  1  0.323550  0.663443  0.000000  1
  P  P2  1  0.604699  0.711241  0.500000  1
  P  P3  1  0.998698  0.002063  0.000000  1
  P  P4  1  0.277067  0.881944  0.500000  1
  P  P5  1  0.103198  0.402790  0.500000  1
  P  P6  1  0.884976  0.587349  0.000000  1
  P  P7  1  0.415688  0.284373  0.000000  1
  P  P8  1  0.714929  0.124244  0.000000  1
  Ru  Ru9  1  0.900176  0.133100  0.500000  1
  Ru  Ru10  1  0.249188  0.107929  0.500000  1
  Ru  Ru11  1  0.868254  0.774954  0.500000  1
  Ru  Ru12  1  0.726642  0.885593  0.000000  1
  Ru  Ru13  1  0.114398  0.849299  0.000000  1
  Ru  Ru14  1  0.160655  0.269836  0.000000  1
  Ru  Ru15  1  0.443140  0.059318  0.000000  1
  Ru  Ru16  1  0.940072  0.374278  0.000000  1
  Ru  Ru17  1  0.626021  0.560581  0.000000  1
  Ru  Ru18  1  0.052555  0.616883  0.500000  1
  Pt  Pt19  1  0.545386  0.927493  0.500000  1
  Pt  Pt20  1  0.382407  0.451317  0.500000  1
