# generated using pymatgen
data_YbSm2Pt9
_symmetry_space_group_name_H-M   'P 1'
_cell_length_a   9.44057284
_cell_length_b   9.44057271
_cell_length_c   9.44057217
_cell_angle_alpha   33.37723333
_cell_angle_beta   33.37723559
_cell_angle_gamma   33.37723359
_symmetry_Int_Tables_number   1
_chemical_formula_structural   YbSm2Pt9
_chemical_formula_sum   'Yb1 Sm2 Pt9'
_cell_volume   226.76199380
_cell_formula_units_Z   1
loop_
 _symmetry_equiv_pos_site_id
 _symmetry_equiv_pos_as_xyz
  1  'x, y, z'
loop_
 _atom_site_type_symbol
 _atom_site_label
 _atom_site_symmetry_multiplicity
 _atom_site_fract_x
 _atom_site_fract_y
 _atom_site_fract_z
 _atom_site_occupancy
  Yb  Yb0  1  0.860486  0.860486  0.860486  1
  Sm  Sm1  1  0.996834  0.996834  0.996834  1
  Sm  Sm2  1  0.141951  0.141951  0.141951  1
  Pt  Pt3  1  0.586666  0.586666  0.081499  1
  Pt  Pt4  1  0.332872  0.332872  0.332872  1
  Pt  Pt5  1  0.918067  0.413658  0.413659  1
  Pt  Pt6  1  0.413658  0.918067  0.413659  1
  Pt  Pt7  1  0.500313  0.500313  0.500313  1
  Pt  Pt8  1  0.586667  0.081498  0.586666  1
  Pt  Pt9  1  0.081498  0.586667  0.586666  1
  Pt  Pt10  1  0.667328  0.667328  0.667328  1
  Pt  Pt11  1  0.413659  0.413659  0.918067  1
