# generated using pymatgen
data_Ho12ZnCo4Bi
_symmetry_space_group_name_H-M   'P 1'
_cell_length_a   8.31821311
_cell_length_b   8.31856743
_cell_length_c   8.31821352
_cell_angle_alpha   111.55061770
_cell_angle_beta   109.56965106
_cell_angle_gamma   107.31927614
_symmetry_Int_Tables_number   1
_chemical_formula_structural   Ho12ZnCo4Bi
_chemical_formula_sum   'Ho12 Zn1 Co4 Bi1'
_cell_volume   442.49006446
_cell_formula_units_Z   1
loop_
 _symmetry_equiv_pos_site_id
 _symmetry_equiv_pos_as_xyz
  1  'x, y, z'
loop_
 _atom_site_type_symbol
 _atom_site_label
 _atom_site_symmetry_multiplicity
 _atom_site_fract_x
 _atom_site_fract_y
 _atom_site_fract_z
 _atom_site_occupancy
  Ho  Ho0  1  0.817864  0.713723  0.531628  1
  Ho  Ho1  1  0.182136  0.286277  0.468372  1
  Ho  Ho2  1  0.182096  0.713723  0.895859  1
  Ho  Ho3  1  0.817904  0.286277  0.104141  1
  Ho  Ho4  1  0.685826  0.378220  0.692395  1
  Ho  Ho5  1  0.314174  0.621780  0.307605  1
  Ho  Ho6  1  0.685835  0.993454  0.307619  1
  Ho  Ho7  1  0.314165  0.006546  0.692381  1
  Ho  Ho8  1  0.574923  0.781340  0.793602  1
  Ho  Ho9  1  0.425077  0.218660  0.206398  1
  Ho  Ho10  1  0.987738  0.781340  0.206417  1
  Ho  Ho11  1  0.012262  0.218660  0.793583  1
  Zn  Zn12  1  0.000000  0.000000  0.000000  1
  Co  Co13  1  0.624033  0.000000  0.624033  1
  Co  Co14  1  0.375967  0.000000  0.375967  1
  Co  Co15  1  0.112623  0.612623  0.500000  1
  Co  Co16  1  0.887377  0.387377  0.500000  1
  Bi  Bi17  1  0.500000  0.500000  0.000000  1
