# generated using pymatgen
data_DyPa2Sb4Pt3
_symmetry_space_group_name_H-M   'P 1'
_cell_length_a   8.46122111
_cell_length_b   8.46122258
_cell_length_c   8.46122268
_cell_angle_alpha   109.59655551
_cell_angle_beta   109.59655481
_cell_angle_gamma   109.22083877
_symmetry_Int_Tables_number   1
_chemical_formula_structural   DyPa2Sb4Pt3
_chemical_formula_sum   'Dy2 Pa4 Sb8 Pt6'
_cell_volume   466.30620547
_cell_formula_units_Z   2
loop_
 _symmetry_equiv_pos_site_id
 _symmetry_equiv_pos_as_xyz
  1  'x, y, z'
loop_
 _atom_site_type_symbol
 _atom_site_label
 _atom_site_symmetry_multiplicity
 _atom_site_fract_x
 _atom_site_fract_y
 _atom_site_fract_z
 _atom_site_occupancy
  Dy  Dy0  1  0.125000  0.875000  0.250000  1
  Dy  Dy1  1  0.375000  0.625000  0.750000  1
  Pa  Pa2  1  0.875380  0.250000  0.125380  1
  Pa  Pa3  1  0.624620  0.750000  0.374620  1
  Pa  Pa4  1  0.250000  0.124620  0.874620  1
  Pa  Pa5  1  0.750000  0.375380  0.625380  1
  Sb  Sb6  1  0.676004  0.500770  0.998958  1
  Sb  Sb7  1  0.498189  0.999230  0.675234  1
  Sb  Sb8  1  0.001811  0.677045  0.501042  1
  Sb  Sb9  1  0.823996  0.822955  0.824766  1
  Sb  Sb10  1  0.499230  0.998189  0.175234  1
  Sb  Sb11  1  0.177045  0.501811  0.001042  1
  Sb  Sb12  1  0.000770  0.176004  0.498958  1
  Sb  Sb13  1  0.322955  0.323996  0.324766  1
  Pt  Pt14  1  0.376618  0.250000  0.626618  1
  Pt  Pt15  1  0.123382  0.750000  0.873382  1
  Pt  Pt16  1  0.250000  0.623382  0.373382  1
  Pt  Pt17  1  0.750000  0.876618  0.126618  1
  Pt  Pt18  1  0.625000  0.375000  0.250000  1
  Pt  Pt19  1  0.875000  0.125000  0.750000  1
