# generated using pymatgen
data_YbDy3Pa4(ReB6)4
_symmetry_space_group_name_H-M   'P 1'
_cell_length_a   3.71911100
_cell_length_b   9.17672020
_cell_length_c   11.49700525
_cell_angle_alpha   90.02365630
_cell_angle_beta   90.00000000
_cell_angle_gamma   90.00000000
_symmetry_Int_Tables_number   1
_chemical_formula_structural   YbDy3Pa4(ReB6)4
_chemical_formula_sum   'Yb1 Dy3 Pa4 Re4 B24'
_cell_volume   392.38402961
_cell_formula_units_Z   1
loop_
 _symmetry_equiv_pos_site_id
 _symmetry_equiv_pos_as_xyz
  1  'x, y, z'
loop_
 _atom_site_type_symbol
 _atom_site_label
 _atom_site_symmetry_multiplicity
 _atom_site_fract_x
 _atom_site_fract_y
 _atom_site_fract_z
 _atom_site_occupancy
  Yb  Yb0  1  0.000000  0.945891  0.375169  1
  Dy  Dy1  1  0.000000  0.053225  0.622178  1
  Dy  Dy2  1  0.000000  0.445539  0.125635  1
  Dy  Dy3  1  0.000000  0.554788  0.874706  1
  Pa  Pa4  1  0.000000  0.322453  0.412293  1
  Pa  Pa5  1  0.000000  0.677729  0.586031  1
  Pa  Pa6  1  0.000000  0.823802  0.088589  1
  Pa  Pa7  1  0.000000  0.176760  0.913364  1
  Re  Re8  1  0.000000  0.639007  0.322156  1
  Re  Re9  1  0.000000  0.360977  0.678255  1
  Re  Re10  1  0.000000  0.138424  0.177996  1
  Re  Re11  1  0.000000  0.862165  0.822334  1
  B  B12  1  0.500000  0.552688  0.433179  1
  B  B13  1  0.500000  0.447300  0.566710  1
  B  B14  1  0.500000  0.052528  0.067212  1
  B  B15  1  0.500000  0.947274  0.933417  1
  B  B16  1  0.500000  0.747695  0.420354  1
  B  B17  1  0.500000  0.252605  0.578747  1
  B  B18  1  0.500000  0.247203  0.079755  1
  B  B19  1  0.500000  0.752837  0.920805  1
  B  B20  1  0.500000  0.793526  0.266745  1
  B  B21  1  0.500000  0.206284  0.733396  1
  B  B22  1  0.500000  0.292476  0.233785  1
  B  B23  1  0.500000  0.706756  0.766318  1
  B  B24  1  0.500000  0.634186  0.186031  1
  B  B25  1  0.500000  0.365981  0.814256  1
  B  B26  1  0.500000  0.133150  0.314635  1
  B  B27  1  0.500000  0.865812  0.685155  1
  B  B28  1  0.500000  0.983158  0.214351  1
  B  B29  1  0.500000  0.017104  0.785935  1
  B  B30  1  0.500000  0.483290  0.286756  1
  B  B31  1  0.500000  0.517267  0.713415  1
  B  B32  1  0.500000  0.614956  0.031939  1
  B  B33  1  0.500000  0.385255  0.968284  1
  B  B34  1  0.500000  0.115722  0.467814  1
  B  B35  1  0.500000  0.884188  0.532301  1
