# generated using pymatgen
data_Lu2Sc5Co6Sn23
_symmetry_space_group_name_H-M   'P 1'
_cell_length_a   9.57065925
_cell_length_b   9.59452534
_cell_length_c   9.78375489
_cell_angle_alpha   90.00000041
_cell_angle_beta   90.05342705
_cell_angle_gamma   120.08252808
_symmetry_Int_Tables_number   1
_chemical_formula_structural   Lu2Sc5Co6Sn23
_chemical_formula_sum   'Lu2 Sc5 Co6 Sn23'
_cell_volume   777.39103606
_cell_formula_units_Z   1
loop_
 _symmetry_equiv_pos_site_id
 _symmetry_equiv_pos_as_xyz
  1  'x, y, z'
loop_
 _atom_site_type_symbol
 _atom_site_label
 _atom_site_symmetry_multiplicity
 _atom_site_fract_x
 _atom_site_fract_y
 _atom_site_fract_z
 _atom_site_occupancy
  Lu  Lu0  1  0.961648  0.480824  0.691243  1
  Lu  Lu1  1  0.001004  0.000502  0.001647  1
  Sc  Sc2  1  0.482158  0.517801  0.309023  1
  Sc  Sc3  1  0.519111  0.482195  0.689828  1
  Sc  Sc4  1  0.482158  0.964358  0.309023  1
  Sc  Sc5  1  0.519111  0.036914  0.689828  1
  Sc  Sc6  1  0.036946  0.518473  0.310828  1
  Co  Co7  1  0.830946  0.168503  0.198215  1
  Co  Co8  1  0.168715  0.830879  0.800727  1
  Co  Co9  1  0.830946  0.662443  0.198215  1
  Co  Co10  1  0.168715  0.337835  0.800727  1
  Co  Co11  1  0.337602  0.168802  0.198722  1
  Co  Co12  1  0.660323  0.830161  0.802037  1
  Sn  Sn13  1  0.121478  0.878944  0.275773  1
  Sn  Sn14  1  0.878374  0.117123  0.724338  1
  Sn  Sn15  1  0.121478  0.242534  0.275773  1
  Sn  Sn16  1  0.878374  0.761251  0.724338  1
  Sn  Sn17  1  0.756953  0.878476  0.275853  1
  Sn  Sn18  1  0.243146  0.121573  0.724383  1
  Sn  Sn19  1  0.779861  0.218375  0.452799  1
  Sn  Sn20  1  0.223444  0.783120  0.543925  1
  Sn  Sn21  1  0.779861  0.561486  0.452799  1
  Sn  Sn22  1  0.223444  0.440324  0.543925  1
  Sn  Sn23  1  0.441684  0.220842  0.454885  1
  Sn  Sn24  1  0.559555  0.779777  0.545246  1
  Sn  Sn25  1  0.348058  0.000297  0.999667  1
  Sn  Sn26  1  0.651093  0.998948  0.000511  1
  Sn  Sn27  1  0.999822  0.347550  0.000510  1
  Sn  Sn28  1  0.999822  0.652272  0.000510  1
  Sn  Sn29  1  0.651093  0.652145  0.000511  1
  Sn  Sn30  1  0.348058  0.347761  0.999667  1
  Sn  Sn31  1  0.333689  0.666845  0.134054  1
  Sn  Sn32  1  0.658397  0.329198  0.869721  1
  Sn  Sn33  1  0.334569  0.667285  0.824727  1
  Sn  Sn34  1  0.666874  0.333436  0.176919  1
  Sn  Sn35  1  0.001490  0.000745  0.499105  1
