# generated using pymatgen
data_HfTaCo4P3
_symmetry_space_group_name_H-M   'P 1'
_cell_length_a   11.91611791
_cell_length_b   11.91611779
_cell_length_c   3.62796900
_cell_angle_alpha   90.00000000
_cell_angle_beta   90.00000000
_cell_angle_gamma   119.96287147
_symmetry_Int_Tables_number   1
_chemical_formula_structural   HfTaCo4P3
_chemical_formula_sum   'Hf4 Ta4 Co16 P12'
_cell_volume   446.29923313
_cell_formula_units_Z   4
loop_
 _symmetry_equiv_pos_site_id
 _symmetry_equiv_pos_as_xyz
  1  'x, y, z'
loop_
 _atom_site_type_symbol
 _atom_site_label
 _atom_site_symmetry_multiplicity
 _atom_site_fract_x
 _atom_site_fract_y
 _atom_site_fract_z
 _atom_site_occupancy
  Hf  Hf0  1  0.666585  0.333045  0.000000  1
  Hf  Hf1  1  0.333045  0.666585  0.000000  1
  Hf  Hf2  1  0.177821  0.000003  0.500000  1
  Hf  Hf3  1  0.000003  0.177821  0.500000  1
  Ta  Ta4  1  0.446920  0.446920  0.000000  1
  Ta  Ta5  1  0.554013  0.999350  0.000000  1
  Ta  Ta6  1  0.999350  0.554013  0.000000  1
  Ta  Ta7  1  0.822508  0.822508  0.500000  1
  Co  Co8  1  0.193602  0.372973  0.000000  1
  Co  Co9  1  0.178612  0.806336  0.000000  1
  Co  Co10  1  0.820707  0.629847  0.000000  1
  Co  Co11  1  0.806336  0.178612  0.000000  1
  Co  Co12  1  0.372973  0.193602  0.000000  1
  Co  Co13  1  0.128836  0.485522  0.500000  1
  Co  Co14  1  0.356077  0.871291  0.500000  1
  Co  Co15  1  0.516202  0.644584  0.500000  1
  Co  Co16  1  0.644584  0.516202  0.500000  1
  Co  Co17  1  0.871291  0.356077  0.500000  1
  Co  Co18  1  0.485522  0.128836  0.500000  1
  Co  Co19  1  0.998149  0.998149  0.000000  1
  Co  Co20  1  0.722848  0.997932  0.500000  1
  Co  Co21  1  0.997932  0.722848  0.500000  1
  Co  Co22  1  0.629847  0.820707  0.000000  1
  Co  Co23  1  0.277758  0.277758  0.500000  1
  P  P24  1  0.650701  0.650701  0.000000  1
  P  P25  1  0.351097  0.999996  0.000000  1
  P  P26  1  0.999996  0.351097  0.000000  1
  P  P27  1  0.481472  0.311042  0.500000  1
  P  P28  1  0.689559  0.169803  0.500000  1
  P  P29  1  0.829058  0.518268  0.500000  1
  P  P30  1  0.518268  0.829058  0.500000  1
  P  P31  1  0.169803  0.689559  0.500000  1
  P  P32  1  0.824374  0.998964  0.000000  1
  P  P33  1  0.998964  0.824374  0.000000  1
  P  P34  1  0.311042  0.481472  0.500000  1
  P  P35  1  0.174147  0.174147  0.000000  1
