# generated using pymatgen
data_K3Ba(B2Pt3)6
_symmetry_space_group_name_H-M   'P 1'
_cell_length_a   8.17302478
_cell_length_b   8.17314456
_cell_length_c   8.17321331
_cell_angle_alpha   82.14516490
_cell_angle_beta   82.14458111
_cell_angle_gamma   82.14200091
_symmetry_Int_Tables_number   1
_chemical_formula_structural   K3Ba(B2Pt3)6
_chemical_formula_sum   'K3 Ba1 B12 Pt18'
_cell_volume   531.87719902
_cell_formula_units_Z   1
loop_
 _symmetry_equiv_pos_site_id
 _symmetry_equiv_pos_as_xyz
  1  'x, y, z'
loop_
 _atom_site_type_symbol
 _atom_site_label
 _atom_site_symmetry_multiplicity
 _atom_site_fract_x
 _atom_site_fract_y
 _atom_site_fract_z
 _atom_site_occupancy
  K  K0  1  0.630677  0.630674  0.630677  1
  K  K1  1  0.863496  0.863495  0.863496  1
  K  K2  1  0.375032  0.375034  0.375032  1
  Ba  Ba3  1  0.132560  0.132560  0.132559  1
  B  B4  1  0.545016  0.187211  0.836966  1
  B  B5  1  0.836969  0.545011  0.187208  1
  B  B6  1  0.187211  0.836961  0.545017  1
  B  B7  1  0.954940  0.661738  0.314214  1
  B  B8  1  0.456978  0.812956  0.160220  1
  B  B9  1  0.160217  0.456982  0.812959  1
  B  B10  1  0.812956  0.160221  0.456978  1
  B  B11  1  0.042794  0.338986  0.687800  1
  B  B12  1  0.687802  0.042801  0.338983  1
  B  B13  1  0.338979  0.687802  0.042798  1
  B  B14  1  0.314213  0.954936  0.661741  1
  B  B15  1  0.661743  0.314211  0.954935  1
  Pt  Pt16  1  0.412628  0.934960  0.401532  1
  Pt  Pt17  1  0.087923  0.097483  0.565423  1
  Pt  Pt18  1  0.934953  0.401540  0.412635  1
  Pt  Pt19  1  0.565416  0.087930  0.097485  1
  Pt  Pt20  1  0.597689  0.585900  0.067403  1
  Pt  Pt21  1  0.585904  0.067399  0.597689  1
  Pt  Pt22  1  0.067407  0.597680  0.585898  1
  Pt  Pt23  1  0.914246  0.899787  0.434088  1
  Pt  Pt24  1  0.899793  0.434087  0.914247  1
  Pt  Pt25  1  0.434092  0.914240  0.899784  1
  Pt  Pt26  1  0.748303  0.284916  0.216276  1
  Pt  Pt27  1  0.216281  0.748292  0.284925  1
  Pt  Pt28  1  0.284927  0.216273  0.748298  1
  Pt  Pt29  1  0.249183  0.714367  0.786307  1
  Pt  Pt30  1  0.786300  0.249196  0.714362  1
  Pt  Pt31  1  0.714361  0.786315  0.249185  1
  Pt  Pt32  1  0.097480  0.565424  0.087921  1
  Pt  Pt33  1  0.401535  0.412632  0.934959  1
