# generated using pymatgen
data_Ta6Al3Cr2GaC2
_symmetry_space_group_name_H-M   'P 1'
_cell_length_a   8.28212779
_cell_length_b   8.27605698
_cell_length_c   8.27605590
_cell_angle_alpha   59.96255332
_cell_angle_beta   59.97573440
_cell_angle_gamma   59.97573131
_symmetry_Int_Tables_number   1
_chemical_formula_structural   Ta6Al3Cr2GaC2
_chemical_formula_sum   'Ta12 Al6 Cr4 Ga2 C4'
_cell_volume   400.85882958
_cell_formula_units_Z   2
loop_
 _symmetry_equiv_pos_site_id
 _symmetry_equiv_pos_as_xyz
  1  'x, y, z'
loop_
 _atom_site_type_symbol
 _atom_site_label
 _atom_site_symmetry_multiplicity
 _atom_site_fract_x
 _atom_site_fract_y
 _atom_site_fract_z
 _atom_site_occupancy
  Ta  Ta0  1  0.555063  0.944999  0.555087  1
  Ta  Ta1  1  0.306074  0.694177  0.694177  1
  Ta  Ta2  1  0.694761  0.304886  0.304886  1
  Ta  Ta3  1  0.305149  0.694913  0.305001  1
  Ta  Ta4  1  0.693990  0.694835  0.305792  1
  Ta  Ta5  1  0.305149  0.305001  0.694913  1
  Ta  Ta6  1  0.555063  0.555087  0.944999  1
  Ta  Ta7  1  0.944427  0.555823  0.555823  1
  Ta  Ta8  1  0.554534  0.945114  0.945114  1
  Ta  Ta9  1  0.944617  0.944208  0.555165  1
  Ta  Ta10  1  0.693990  0.305792  0.694835  1
  Ta  Ta11  1  0.944617  0.555165  0.944208  1
  Al  Al12  1  0.335321  0.996468  0.333954  1
  Al  Al13  1  0.335321  0.333954  0.996468  1
  Al  Al14  1  0.915745  0.253532  0.916046  1
  Al  Al15  1  0.915745  0.916046  0.253532  1
  Al  Al16  1  0.253611  0.915927  0.915927  1
  Al  Al17  1  0.335464  0.334073  0.334073  1
  Cr  Cr18  1  0.125497  0.124527  0.124527  1
  Cr  Cr19  1  0.624551  0.125473  0.125473  1
  Cr  Cr20  1  0.126065  0.625000  0.125000  1
  Cr  Cr21  1  0.126065  0.125000  0.625000  1
  Ga  Ga22  1  0.914435  0.914681  0.914681  1
  Ga  Ga23  1  0.993794  0.335319  0.335319  1
  C  C24  1  0.625235  0.624582  0.624582  1
  C  C25  1  0.124398  0.625418  0.625418  1
  C  C26  1  0.625659  0.125000  0.625000  1
  C  C27  1  0.625659  0.625000  0.125000  1
