# generated using pymatgen
data_Dy5Ho(CdHg2)6
_symmetry_space_group_name_H-M   'P 1'
_cell_length_a   5.13621660
_cell_length_b   7.09316700
_cell_length_c   15.52314900
_cell_angle_alpha   90.00000000
_cell_angle_beta   89.94236081
_cell_angle_gamma   90.00000000
_symmetry_Int_Tables_number   1
_chemical_formula_structural   Dy5Ho(CdHg2)6
_chemical_formula_sum   'Dy5 Ho1 Cd6 Hg12'
_cell_volume   565.53973149
_cell_formula_units_Z   1
loop_
 _symmetry_equiv_pos_site_id
 _symmetry_equiv_pos_as_xyz
  1  'x, y, z'
loop_
 _atom_site_type_symbol
 _atom_site_label
 _atom_site_symmetry_multiplicity
 _atom_site_fract_x
 _atom_site_fract_y
 _atom_site_fract_z
 _atom_site_occupancy
  Dy  Dy0  1  0.000002  0.000000  0.999939  1
  Dy  Dy1  1  0.499909  0.500000  0.166600  1
  Dy  Dy2  1  0.999898  0.000000  0.333241  1
  Dy  Dy3  1  0.500005  0.500000  0.500074  1
  Dy  Dy4  1  0.000090  0.000000  0.666802  1
  Ho  Ho5  1  0.500084  0.500000  0.833431  1
  Cd  Cd6  1  0.999975  0.500000  0.999693  1
  Cd  Cd7  1  0.499857  0.000000  0.166869  1
  Cd  Cd8  1  0.999943  0.500000  0.333175  1
  Cd  Cd9  1  0.500030  0.000000  0.499811  1
  Cd  Cd10  1  0.000117  0.500000  0.667116  1
  Cd  Cd11  1  0.500082  0.000000  0.833291  1
  Hg  Hg12  1  0.499923  0.252246  0.000212  1
  Hg  Hg13  1  0.499923  0.747753  0.000212  1
  Hg  Hg14  1  0.999845  0.247454  0.166621  1
  Hg  Hg15  1  0.999845  0.752547  0.166621  1
  Hg  Hg16  1  0.499897  0.252618  0.333225  1
  Hg  Hg17  1  0.499897  0.747383  0.333225  1
  Hg  Hg18  1  0.000077  0.247624  0.499913  1
  Hg  Hg19  1  0.000077  0.752377  0.499913  1
  Hg  Hg20  1  0.500148  0.252282  0.666577  1
  Hg  Hg21  1  0.500148  0.747719  0.666577  1
  Hg  Hg22  1  0.000114  0.247165  0.833430  1
  Hg  Hg23  1  0.000114  0.752836  0.833430  1
