# generated using pymatgen
data_ZrZnCu3Pt
_symmetry_space_group_name_H-M   'P 1'
_cell_length_a   4.93635227
_cell_length_b   4.93635250
_cell_length_c   4.92136800
_cell_angle_alpha   59.89922849
_cell_angle_beta   59.89921924
_cell_angle_gamma   60.00000102
_symmetry_Int_Tables_number   1
_chemical_formula_structural   ZrZnCu3Pt
_chemical_formula_sum   'Zr1 Zn1 Cu3 Pt1'
_cell_volume   84.66812516
_cell_formula_units_Z   1
loop_
 _symmetry_equiv_pos_site_id
 _symmetry_equiv_pos_as_xyz
  1  'x, y, z'
loop_
 _atom_site_type_symbol
 _atom_site_label
 _atom_site_symmetry_multiplicity
 _atom_site_fract_x
 _atom_site_fract_y
 _atom_site_fract_z
 _atom_site_occupancy
  Zr  Zr0  1  0.248495  0.248495  0.254516  1
  Zn  Zn1  1  0.626586  0.626586  0.120242  1
  Cu  Cu2  1  0.625706  0.124279  0.624308  1
  Cu  Cu3  1  0.124279  0.625706  0.624308  1
  Cu  Cu4  1  0.625706  0.625706  0.624308  1
  Pt  Pt5  1  0.999228  0.999228  0.002317  1
