# generated using pymatgen
data_Dy15Lu(InPt)4
_symmetry_space_group_name_H-M   'P 1'
_cell_length_a   9.70983402
_cell_length_b   9.70678681
_cell_length_c   9.70678588
_cell_angle_alpha   60.00155475
_cell_angle_beta   59.98961550
_cell_angle_gamma   59.98961804
_symmetry_Int_Tables_number   1
_chemical_formula_structural   Dy15Lu(InPt)4
_chemical_formula_sum   'Dy15 Lu1 In4 Pt4'
_cell_volume   646.82183634
_cell_formula_units_Z   1
loop_
 _symmetry_equiv_pos_site_id
 _symmetry_equiv_pos_as_xyz
  1  'x, y, z'
loop_
 _atom_site_type_symbol
 _atom_site_label
 _atom_site_symmetry_multiplicity
 _atom_site_fract_x
 _atom_site_fract_y
 _atom_site_fract_z
 _atom_site_occupancy
  Dy  Dy0  1  0.690663  0.688884  0.309220  1
  Dy  Dy1  1  0.311233  0.688884  0.309220  1
  Dy  Dy2  1  0.936453  0.938445  0.562369  1
  Dy  Dy3  1  0.148634  0.150344  0.552387  1
  Dy  Dy4  1  0.562733  0.938445  0.562369  1
  Dy  Dy5  1  0.147665  0.149960  0.149960  1
  Dy  Dy6  1  0.311233  0.309220  0.688884  1
  Dy  Dy7  1  0.937609  0.562391  0.562391  1
  Dy  Dy8  1  0.562733  0.562369  0.938445  1
  Dy  Dy9  1  0.563067  0.936933  0.936933  1
  Dy  Dy10  1  0.936453  0.562369  0.938445  1
  Dy  Dy11  1  0.148634  0.552387  0.150344  1
  Dy  Dy12  1  0.309606  0.690394  0.690394  1
  Dy  Dy13  1  0.690663  0.309220  0.688884  1
  Dy  Dy14  1  0.552415  0.149960  0.149960  1
  Lu  Lu15  1  0.689665  0.310335  0.310335  1
  In  In16  1  0.917123  0.917617  0.248138  1
  In  In17  1  0.249705  0.916903  0.916903  1
  In  In18  1  0.917123  0.248138  0.917617  1
  In  In19  1  0.916489  0.916903  0.916903  1
  Pt  Pt20  1  0.359936  0.356614  0.356614  1
  Pt  Pt21  1  0.926838  0.356614  0.356614  1
  Pt  Pt22  1  0.356665  0.357977  0.928695  1
  Pt  Pt23  1  0.356665  0.928695  0.357977  1
