# generated using pymatgen
data_CaTb5DyRhI12
_symmetry_space_group_name_H-M   'P 1'
_cell_length_a   9.85496367
_cell_length_b   9.82410431
_cell_length_c   9.83782772
_cell_angle_alpha   107.02764247
_cell_angle_beta   106.92029815
_cell_angle_gamma   107.20372211
_symmetry_Int_Tables_number   1
_chemical_formula_structural   CaTb5DyRhI12
_chemical_formula_sum   'Ca1 Tb5 Dy1 Rh1 I12'
_cell_volume   792.11837883
_cell_formula_units_Z   1
loop_
 _symmetry_equiv_pos_site_id
 _symmetry_equiv_pos_as_xyz
  1  'x, y, z'
loop_
 _atom_site_type_symbol
 _atom_site_label
 _atom_site_symmetry_multiplicity
 _atom_site_fract_x
 _atom_site_fract_y
 _atom_site_fract_z
 _atom_site_occupancy
  Ca  Ca0  1  0.500018  0.500102  0.499887  1
  Tb  Tb1  1  0.977292  0.707194  0.905404  1
  Tb  Tb2  1  0.698021  0.903046  0.975426  1
  Tb  Tb3  1  0.098299  0.023650  0.302772  1
  Tb  Tb4  1  0.022490  0.292542  0.093971  1
  Tb  Tb5  1  0.301841  0.096890  0.024578  1
  Dy  Dy6  1  0.902077  0.976366  0.698806  1
  Rh  Rh7  1  0.999795  0.999642  0.000075  1
  I  I8  1  0.542889  0.849459  0.620525  1
  I  I9  1  0.848552  0.621329  0.543315  1
  I  I10  1  0.622012  0.542114  0.847863  1
  I  I11  1  0.458250  0.151164  0.379337  1
  I  I12  1  0.151572  0.379802  0.456482  1
  I  I13  1  0.377935  0.457826  0.151850  1
  I  I14  1  0.679022  0.226143  0.072307  1
  I  I15  1  0.222905  0.071343  0.677321  1
  I  I16  1  0.070649  0.677311  0.222262  1
  I  I17  1  0.320991  0.773866  0.927533  1
  I  I18  1  0.776309  0.928665  0.323507  1
  I  I19  1  0.929079  0.321547  0.776779  1
