# generated using pymatgen
data_Fe2SeCl2O3
_symmetry_space_group_name_H-M   'P 1'
_cell_length_a   10.68370700
_cell_length_b   7.91173770
_cell_length_c   7.96745840
_cell_angle_alpha   78.91232247
_cell_angle_beta   90.00000000
_cell_angle_gamma   90.00000000
_symmetry_Int_Tables_number   1
_chemical_formula_structural   Fe2SeCl2O3
_chemical_formula_sum   'Fe8 Se4 Cl8 O12'
_cell_volume   660.89203923
_cell_formula_units_Z   4
loop_
 _symmetry_equiv_pos_site_id
 _symmetry_equiv_pos_as_xyz
  1  'x, y, z'
loop_
 _atom_site_type_symbol
 _atom_site_label
 _atom_site_symmetry_multiplicity
 _atom_site_fract_x
 _atom_site_fract_y
 _atom_site_fract_z
 _atom_site_occupancy
  Fe  Fe0  1  0.008866  0.100622  0.229331  1
  Fe  Fe1  1  0.280244  0.128418  0.910248  1
  Fe  Fe2  1  0.508866  0.399378  0.770669  1
  Fe  Fe3  1  0.780244  0.371582  0.089752  1
  Fe  Fe4  1  0.991134  0.899378  0.770669  1
  Fe  Fe5  1  0.719756  0.871582  0.089752  1
  Fe  Fe6  1  0.219756  0.628418  0.910248  1
  Fe  Fe7  1  0.491134  0.600622  0.229331  1
  Se  Se8  1  0.967061  0.684310  0.182555  1
  Se  Se9  1  0.532939  0.184310  0.182555  1
  Se  Se10  1  0.467061  0.815690  0.817445  1
  Se  Se11  1  0.032939  0.315690  0.817445  1
  Cl  Cl12  1  0.278960  0.536763  0.217538  1
  Cl  Cl13  1  0.221040  0.036763  0.217538  1
  Cl  Cl14  1  0.399790  0.232269  0.610099  1
  Cl  Cl15  1  0.899790  0.267731  0.389901  1
  Cl  Cl16  1  0.721040  0.463237  0.782462  1
  Cl  Cl17  1  0.600210  0.767731  0.389901  1
  Cl  Cl18  1  0.778960  0.963237  0.782462  1
  Cl  Cl19  1  0.100210  0.732269  0.610099  1
  O  O20  1  0.045357  0.720756  0.987397  1
  O  O21  1  0.680294  0.122884  0.120613  1
  O  O22  1  0.085765  0.109282  0.809545  1
  O  O23  1  0.954643  0.279244  0.012603  1
  O  O24  1  0.414235  0.609282  0.809545  1
  O  O25  1  0.545357  0.779244  0.012603  1
  O  O26  1  0.454643  0.220756  0.987397  1
  O  O27  1  0.319706  0.877116  0.879387  1
  O  O28  1  0.585765  0.390718  0.190455  1
  O  O29  1  0.180294  0.377116  0.879387  1
  O  O30  1  0.914235  0.890718  0.190455  1
  O  O31  1  0.819706  0.622884  0.120613  1
