# generated using pymatgen
data_Dy5ErAl24GaOs7
_symmetry_space_group_name_H-M   'P 1'
_cell_length_a   8.86301801
_cell_length_b   8.86301741
_cell_length_c   9.55369633
_cell_angle_alpha   90.13442533
_cell_angle_beta   89.86557811
_cell_angle_gamma   119.86891071
_symmetry_Int_Tables_number   1
_chemical_formula_structural   Dy5ErAl24GaOs7
_chemical_formula_sum   'Dy5 Er1 Al24 Ga1 Os7'
_cell_volume   650.78250114
_cell_formula_units_Z   1
loop_
 _symmetry_equiv_pos_site_id
 _symmetry_equiv_pos_as_xyz
  1  'x, y, z'
loop_
 _atom_site_type_symbol
 _atom_site_label
 _atom_site_symmetry_multiplicity
 _atom_site_fract_x
 _atom_site_fract_y
 _atom_site_fract_z
 _atom_site_occupancy
  Dy  Dy0  1  0.191644  0.384837  0.245630  1
  Dy  Dy1  1  0.808375  0.615028  0.754263  1
  Dy  Dy2  1  0.615163  0.808356  0.245630  1
  Dy  Dy3  1  0.384972  0.191625  0.754263  1
  Dy  Dy4  1  0.194398  0.805602  0.255544  1
  Er  Er5  1  0.804770  0.195230  0.744536  1
  Al  Al6  1  0.327398  0.672602  0.022304  1
  Al  Al7  1  0.672784  0.327216  0.977145  1
  Al  Al8  1  0.666021  0.333979  0.519092  1
  Al  Al9  1  0.334075  0.665925  0.481293  1
  Al  Al10  1  0.162292  0.325522  0.571953  1
  Al  Al11  1  0.837351  0.674207  0.428329  1
  Al  Al12  1  0.674478  0.837708  0.571953  1
  Al  Al13  1  0.852184  0.678392  0.081807  1
  Al  Al14  1  0.325793  0.162649  0.428329  1
  Al  Al15  1  0.147342  0.321159  0.917810  1
  Al  Al16  1  0.162944  0.837056  0.576538  1
  Al  Al17  1  0.321608  0.147816  0.081807  1
  Al  Al18  1  0.837105  0.162895  0.424089  1
  Al  Al19  1  0.678841  0.852658  0.917810  1
  Al  Al20  1  0.836828  0.163172  0.076442  1
  Al  Al21  1  0.163241  0.836759  0.922984  1
  Al  Al22  1  0.562230  0.121293  0.249460  1
  Al  Al23  1  0.438340  0.879071  0.750522  1
  Al  Al24  1  0.878707  0.437770  0.249460  1
  Al  Al25  1  0.120929  0.561660  0.750522  1
  Al  Al26  1  0.565695  0.434305  0.258161  1
  Al  Al27  1  0.434338  0.565662  0.741971  1
  Al  Al28  1  0.998949  0.001051  0.250708  1
  Al  Al29  1  0.000469  0.999531  0.749236  1
  Ga  Ga30  1  0.500106  0.499894  0.000120  1
  Os  Os31  1  0.500354  0.000118  0.999750  1
  Os  Os32  1  0.999882  0.499646  0.999750  1
  Os  Os33  1  0.500388  0.000195  0.500301  1
  Os  Os34  1  0.999805  0.499612  0.500301  1
  Os  Os35  1  0.500038  0.499962  0.500038  1
  Os  Os36  1  0.000102  0.999898  0.000013  1
  Os  Os37  1  0.000060  0.999940  0.500133  1
