# generated using pymatgen
data_La3PrSi10(OsPt)3
_symmetry_space_group_name_H-M   'P 1'
_cell_length_a   8.30396234
_cell_length_b   8.32355164
_cell_length_c   8.32355157
_cell_angle_alpha   137.53451914
_cell_angle_beta   105.69244673
_cell_angle_gamma   89.56804239
_symmetry_Int_Tables_number   1
_chemical_formula_structural   La3PrSi10(OsPt)3
_chemical_formula_sum   'La3 Pr1 Si10 Os3 Pt3'
_cell_volume   357.25734787
_cell_formula_units_Z   1
loop_
 _symmetry_equiv_pos_site_id
 _symmetry_equiv_pos_as_xyz
  1  'x, y, z'
loop_
 _atom_site_type_symbol
 _atom_site_label
 _atom_site_symmetry_multiplicity
 _atom_site_fract_x
 _atom_site_fract_y
 _atom_site_fract_z
 _atom_site_occupancy
  La  La0  1  0.863975  0.628725  0.235250  1
  La  La1  1  0.137991  0.371445  0.766547  1
  La  La2  1  0.396236  0.131391  0.264845  1
  Pr  Pr3  1  0.604304  0.870360  0.733944  1
  Si  Si4  1  0.493649  0.753857  0.254603  1
  Si  Si5  1  0.493649  0.239046  0.739792  1
  Si  Si6  1  0.223148  0.973319  0.744264  1
  Si  Si7  1  0.776404  0.524836  0.747555  1
  Si  Si8  1  0.776404  0.028849  0.251567  1
  Si  Si9  1  0.223148  0.478884  0.249829  1
  Si  Si10  1  0.050786  0.897613  0.153173  1
  Si  Si11  1  0.959237  0.104367  0.854869  1
  Si  Si12  1  0.748610  0.394416  0.354194  1
  Si  Si13  1  0.251389  0.604279  0.647110  1
  Os  Os14  1  0.999843  0.750895  0.751921  1
  Os  Os15  1  0.999843  0.247922  0.248948  1
  Os  Os16  1  0.246219  0.859619  0.386601  1
  Pt  Pt17  1  0.749686  0.138444  0.611242  1
  Pt  Pt18  1  0.474163  0.361744  0.112420  1
  Pt  Pt19  1  0.531316  0.639991  0.891326  1
