# generated using pymatgen
data_Y12CdCo4Rh
_symmetry_space_group_name_H-M   'P 1'
_cell_length_a   8.35561506
_cell_length_b   8.35561505
_cell_length_c   8.35561415
_cell_angle_alpha   110.61039226
_cell_angle_beta   110.10017953
_cell_angle_gamma   107.71761398
_symmetry_Int_Tables_number   1
_chemical_formula_structural   Y12CdCo4Rh
_chemical_formula_sum   'Y12 Cd1 Co4 Rh1'
_cell_volume   448.74577489
_cell_formula_units_Z   1
loop_
 _symmetry_equiv_pos_site_id
 _symmetry_equiv_pos_as_xyz
  1  'x, y, z'
loop_
 _atom_site_type_symbol
 _atom_site_label
 _atom_site_symmetry_multiplicity
 _atom_site_fract_x
 _atom_site_fract_y
 _atom_site_fract_z
 _atom_site_occupancy
  Y  Y0  1  0.406993  0.210489  0.196504  1
  Y  Y1  1  0.593007  0.789511  0.803496  1
  Y  Y2  1  0.013986  0.210489  0.803496  1
  Y  Y3  1  0.986014  0.789511  0.196504  1
  Y  Y4  1  0.185272  0.292491  0.477763  1
  Y  Y5  1  0.814728  0.707509  0.522237  1
  Y  Y6  1  0.185272  0.707509  0.892782  1
  Y  Y7  1  0.814728  0.292491  0.107218  1
  Y  Y8  1  0.315418  0.618771  0.303354  1
  Y  Y9  1  0.684582  0.381229  0.696646  1
  Y  Y10  1  0.315418  0.012064  0.696646  1
  Y  Y11  1  0.684582  0.987936  0.303354  1
  Cd  Cd12  1  0.500000  0.500000  0.000000  1
  Co  Co13  1  0.382127  0.000000  0.382127  1
  Co  Co14  1  0.617873  0.000000  0.617873  1
  Co  Co15  1  0.111854  0.611854  0.500000  1
  Co  Co16  1  0.888146  0.388146  0.500000  1
  Rh  Rh17  1  0.000000  0.000000  0.000000  1
