# generated using pymatgen
data_HoZnCuP2
_symmetry_space_group_name_H-M   'P 1'
_cell_length_a   3.96032000
_cell_length_b   3.96031937
_cell_length_c   6.51472200
_cell_angle_alpha   90.00000000
_cell_angle_beta   90.00000000
_cell_angle_gamma   120.00000526
_symmetry_Int_Tables_number   1
_chemical_formula_structural   HoZnCuP2
_chemical_formula_sum   'Ho1 Zn1 Cu1 P2'
_cell_volume   88.48853104
_cell_formula_units_Z   1
loop_
 _symmetry_equiv_pos_site_id
 _symmetry_equiv_pos_as_xyz
  1  'x, y, z'
loop_
 _atom_site_type_symbol
 _atom_site_label
 _atom_site_symmetry_multiplicity
 _atom_site_fract_x
 _atom_site_fract_y
 _atom_site_fract_z
 _atom_site_occupancy
  Ho  Ho0  1  0.000000  0.000000  0.984587  1
  Zn  Zn1  1  0.666667  0.333333  0.375672  1
  Cu  Cu2  1  0.333333  0.666667  0.640319  1
  P  P3  1  0.333333  0.666667  0.253218  1
  P  P4  1  0.666667  0.333333  0.746203  1
