# generated using pymatgen
data_Ta16BeCo(NiTe8)2
_symmetry_space_group_name_H-M   'P 1'
_cell_length_a   4.80584900
_cell_length_b   11.00895153
_cell_length_c   19.26161224
_cell_angle_alpha   89.92394513
_cell_angle_beta   90.00000000
_cell_angle_gamma   90.00000000
_symmetry_Int_Tables_number   1
_chemical_formula_structural   Ta16BeCo(NiTe8)2
_chemical_formula_sum   'Ta16 Be1 Co1 Ni2 Te16'
_cell_volume   1019.08013021
_cell_formula_units_Z   1
loop_
 _symmetry_equiv_pos_site_id
 _symmetry_equiv_pos_as_xyz
  1  'x, y, z'
loop_
 _atom_site_type_symbol
 _atom_site_label
 _atom_site_symmetry_multiplicity
 _atom_site_fract_x
 _atom_site_fract_y
 _atom_site_fract_z
 _atom_site_occupancy
  Ta  Ta0  1  0.493877  0.562497  0.387029  1
  Ta  Ta1  1  0.493877  0.437503  0.612971  1
  Ta  Ta2  1  0.500803  0.063643  0.114803  1
  Ta  Ta3  1  0.500803  0.936357  0.885197  1
  Ta  Ta4  1  0.491136  0.698573  0.535179  1
  Ta  Ta5  1  0.491136  0.301427  0.464821  1
  Ta  Ta6  1  0.499926  0.201764  0.963988  1
  Ta  Ta7  1  0.499926  0.798236  0.036012  1
  Ta  Ta8  1  0.009612  0.684468  0.444807  1
  Ta  Ta9  1  0.009612  0.315532  0.555193  1
  Ta  Ta10  1  0.999836  0.187598  0.055738  1
  Ta  Ta11  1  0.999836  0.812402  0.944262  1
  Ta  Ta12  1  0.005552  0.403877  0.395222  1
  Ta  Ta13  1  0.005552  0.596123  0.604778  1
  Ta  Ta14  1  0.999112  0.902407  0.106744  1
  Ta  Ta15  1  0.999112  0.097593  0.893256  1
  Be  Be16  1  0.249985  0.500000  0.500000  1
  Co  Co17  1  0.249968  0.000000  0.000000  1
  Ni  Ni18  1  0.750004  0.000000  0.000000  1
  Ni  Ni19  1  0.749897  0.500000  0.500000  1
  Te  Te20  1  0.989792  0.844131  0.561416  1
  Te  Te21  1  0.989792  0.155869  0.438584  1
  Te  Te22  1  0.999964  0.346414  0.937432  1
  Te  Te23  1  0.999964  0.653586  0.062568  1
  Te  Te24  1  0.508436  0.333681  0.318050  1
  Te  Te25  1  0.508436  0.666319  0.681950  1
  Te  Te26  1  0.498796  0.832540  0.183438  1
  Te  Te27  1  0.498796  0.167460  0.816562  1
  Te  Te28  1  0.511035  0.819937  0.404252  1
  Te  Te29  1  0.511035  0.180063  0.595748  1
  Te  Te30  1  0.499862  0.322494  0.095972  1
  Te  Te31  1  0.499862  0.677506  0.904028  1
  Te  Te32  1  0.991461  0.607580  0.303600  1
  Te  Te33  1  0.991461  0.392420  0.696400  1
  Te  Te34  1  0.000872  0.108808  0.197554  1
  Te  Te35  1  0.000872  0.891192  0.802446  1
