# generated using pymatgen
data_K(RhO2)4
_symmetry_space_group_name_H-M   'P 1'
_cell_length_a   3.14246118
_cell_length_b   7.33491378
_cell_length_c   7.33384099
_cell_angle_alpha   87.36855529
_cell_angle_beta   77.62884524
_cell_angle_gamma   77.63066826
_symmetry_Int_Tables_number   1
_chemical_formula_structural   K(RhO2)4
_chemical_formula_sum   'K1 Rh4 O8'
_cell_volume   161.28471264
_cell_formula_units_Z   1
loop_
 _symmetry_equiv_pos_site_id
 _symmetry_equiv_pos_as_xyz
  1  'x, y, z'
loop_
 _atom_site_type_symbol
 _atom_site_label
 _atom_site_symmetry_multiplicity
 _atom_site_fract_x
 _atom_site_fract_y
 _atom_site_fract_z
 _atom_site_occupancy
  K  K0  1  0.500000  0.000000  0.000000  1
  Rh  Rh1  1  0.833898  0.517217  0.814987  1
  Rh  Rh2  1  0.166102  0.482783  0.185013  1
  Rh  Rh3  1  0.351126  0.814979  0.482770  1
  Rh  Rh4  1  0.648874  0.185021  0.517230  1
  O  O5  1  0.454891  0.383899  0.706320  1
  O  O6  1  0.545109  0.616101  0.293680  1
  O  O7  1  0.838778  0.706371  0.616073  1
  O  O8  1  0.161222  0.293629  0.383927  1
  O  O9  1  0.200693  0.647362  0.951253  1
  O  O10  1  0.799307  0.352638  0.048747  1
  O  O11  1  0.848029  0.951264  0.352678  1
  O  O12  1  0.151971  0.048736  0.647322  1
