# generated using pymatgen
data_DyHo19CoBi8Os3
_symmetry_space_group_name_H-M   'P 1'
_cell_length_a   7.94709314
_cell_length_b   8.99299800
_cell_length_c   12.41736693
_cell_angle_alpha   90.00000000
_cell_angle_beta   89.73446847
_cell_angle_gamma   90.00000000
_symmetry_Int_Tables_number   1
_chemical_formula_structural   DyHo19CoBi8Os3
_chemical_formula_sum   'Dy1 Ho19 Co1 Bi8 Os3'
_cell_volume   887.43724237
_cell_formula_units_Z   1
loop_
 _symmetry_equiv_pos_site_id
 _symmetry_equiv_pos_as_xyz
  1  'x, y, z'
loop_
 _atom_site_type_symbol
 _atom_site_label
 _atom_site_symmetry_multiplicity
 _atom_site_fract_x
 _atom_site_fract_y
 _atom_site_fract_z
 _atom_site_occupancy
  Dy  Dy0  1  0.344001  0.750000  0.701840  1
  Ho  Ho1  1  0.658568  0.250000  0.292299  1
  Ho  Ho2  1  0.842087  0.250000  0.791154  1
  Ho  Ho3  1  0.156540  0.750000  0.206711  1
  Ho  Ho4  1  0.879087  0.750000  0.805871  1
  Ho  Ho5  1  0.119964  0.250000  0.193707  1
  Ho  Ho6  1  0.378450  0.250000  0.692998  1
  Ho  Ho7  1  0.616611  0.750000  0.312697  1
  Ho  Ho8  1  0.675296  0.542212  0.563669  1
  Ho  Ho9  1  0.325708  0.460402  0.436865  1
  Ho  Ho10  1  0.174313  0.457658  0.936102  1
  Ho  Ho11  1  0.325708  0.039598  0.436865  1
  Ho  Ho12  1  0.824712  0.543235  0.064268  1
  Ho  Ho13  1  0.675296  0.957788  0.563669  1
  Ho  Ho14  1  0.824712  0.956765  0.064268  1
  Ho  Ho15  1  0.174313  0.042342  0.936102  1
  Ho  Ho16  1  0.055770  0.750000  0.496767  1
  Ho  Ho17  1  0.944714  0.250000  0.502945  1
  Ho  Ho18  1  0.558358  0.250000  0.003651  1
  Ho  Ho19  1  0.441939  0.750000  0.995727  1
  Co  Co20  1  0.429465  0.750000  0.490986  1
  Bi  Bi21  1  0.570201  0.508373  0.827458  1
  Bi  Bi22  1  0.429798  0.492282  0.172984  1
  Bi  Bi23  1  0.071089  0.491753  0.671696  1
  Bi  Bi24  1  0.429798  0.007718  0.172984  1
  Bi  Bi25  1  0.929514  0.508989  0.328559  1
  Bi  Bi26  1  0.570201  0.991627  0.827458  1
  Bi  Bi27  1  0.929514  0.991011  0.328559  1
  Bi  Bi28  1  0.071089  0.008247  0.671696  1
  Os  Os29  1  0.075478  0.750000  0.989094  1
  Os  Os30  1  0.923688  0.250000  0.010271  1
  Os  Os31  1  0.574022  0.250000  0.510082  1
