# generated using pymatgen
data_LuFe5Tc7
_symmetry_space_group_name_H-M   'P 1'
_cell_length_a   6.63788801
_cell_length_b   6.63788699
_cell_length_c   6.63788757
_cell_angle_alpha   138.08695529
_cell_angle_beta   96.02017220
_cell_angle_gamma   98.68267936
_symmetry_Int_Tables_number   1
_chemical_formula_structural   LuFe5Tc7
_chemical_formula_sum   'Lu1 Fe5 Tc7'
_cell_volume   182.38699473
_cell_formula_units_Z   1
loop_
 _symmetry_equiv_pos_site_id
 _symmetry_equiv_pos_as_xyz
  1  'x, y, z'
loop_
 _atom_site_type_symbol
 _atom_site_label
 _atom_site_symmetry_multiplicity
 _atom_site_fract_x
 _atom_site_fract_y
 _atom_site_fract_z
 _atom_site_occupancy
  Lu  Lu0  1  0.006821  0.000000  0.006821  1
  Fe  Fe1  1  0.491172  0.495081  0.498804  1
  Fe  Fe2  1  0.491172  0.992368  0.996092  1
  Fe  Fe3  1  0.003722  0.007632  0.498804  1
  Fe  Fe4  1  0.003722  0.504919  0.996092  1
  Fe  Fe5  1  0.227262  0.500000  0.727262  1
  Tc  Tc6  1  0.640840  0.000000  0.640840  1
  Tc  Tc7  1  0.362369  0.000000  0.362369  1
  Tc  Tc8  1  0.349899  0.354068  0.995830  1
  Tc  Tc9  1  0.641762  0.645932  0.995830  1
  Tc  Tc10  1  0.780235  0.500000  0.280235  1
  Tc  Tc11  1  0.798008  0.297499  0.500510  1
  Tc  Tc12  1  0.203011  0.702501  0.500510  1
