# generated using pymatgen
data_Dy8Cd2NiOs
_symmetry_space_group_name_H-M   'P 1'
_cell_length_a   9.57853387
_cell_length_b   9.57853386
_cell_length_c   9.66588500
_cell_angle_alpha   59.69786561
_cell_angle_beta   59.69786567
_cell_angle_gamma   59.54878714
_symmetry_Int_Tables_number   1
_chemical_formula_structural   Dy8Cd2NiOs
_chemical_formula_sum   'Dy16 Cd4 Ni2 Os2'
_cell_volume   622.06663473
_cell_formula_units_Z   2
loop_
 _symmetry_equiv_pos_site_id
 _symmetry_equiv_pos_as_xyz
  1  'x, y, z'
loop_
 _atom_site_type_symbol
 _atom_site_label
 _atom_site_symmetry_multiplicity
 _atom_site_fract_x
 _atom_site_fract_y
 _atom_site_fract_z
 _atom_site_occupancy
  Dy  Dy0  1  0.600376  0.600376  0.592323  1
  Dy  Dy1  1  0.600376  0.600376  0.206927  1
  Dy  Dy2  1  0.601889  0.205444  0.596334  1
  Dy  Dy3  1  0.205444  0.601889  0.596334  1
  Dy  Dy4  1  0.060828  0.436283  0.440501  1
  Dy  Dy5  1  0.436283  0.060828  0.062388  1
  Dy  Dy6  1  0.436283  0.060828  0.440501  1
  Dy  Dy7  1  0.060828  0.436283  0.062388  1
  Dy  Dy8  1  0.438571  0.438571  0.061429  1
  Dy  Dy9  1  0.059892  0.059892  0.440108  1
  Dy  Dy10  1  0.189325  0.805945  0.816452  1
  Dy  Dy11  1  0.805945  0.189325  0.188278  1
  Dy  Dy12  1  0.805945  0.189325  0.816452  1
  Dy  Dy13  1  0.189325  0.805945  0.188278  1
  Dy  Dy14  1  0.815865  0.815865  0.184135  1
  Dy  Dy15  1  0.192161  0.192161  0.807839  1
  Cd  Cd16  1  0.829321  0.829321  0.832981  1
  Cd  Cd17  1  0.829321  0.829321  0.508376  1
  Cd  Cd18  1  0.830355  0.505911  0.831867  1
  Cd  Cd19  1  0.505911  0.830355  0.831867  1
  Ni  Ni20  1  0.391543  0.827072  0.390693  1
  Ni  Ni21  1  0.827072  0.391543  0.390693  1
  Os  Os22  1  0.393570  0.393570  0.388319  1
  Os  Os23  1  0.393570  0.393570  0.824541  1
