# generated using pymatgen
data_LaNd7Cd2OsPt
_symmetry_space_group_name_H-M   'P 1'
_cell_length_a   10.01706955
_cell_length_b   10.01706836
_cell_length_c   10.12769700
_cell_angle_alpha   59.63398623
_cell_angle_beta   59.63399020
_cell_angle_gamma   59.74726645
_symmetry_Int_Tables_number   1
_chemical_formula_structural   LaNd7Cd2OsPt
_chemical_formula_sum   'La2 Nd14 Cd4 Os2 Pt2'
_cell_volume   713.22242637
_cell_formula_units_Z   2
loop_
 _symmetry_equiv_pos_site_id
 _symmetry_equiv_pos_as_xyz
  1  'x, y, z'
loop_
 _atom_site_type_symbol
 _atom_site_label
 _atom_site_symmetry_multiplicity
 _atom_site_fract_x
 _atom_site_fract_y
 _atom_site_fract_z
 _atom_site_occupancy
  La  La0  1  0.347108  0.347108  0.354465  1
  La  La1  1  0.347108  0.347108  0.951320  1
  Nd  Nd2  1  0.344938  0.955262  0.349901  1
  Nd  Nd3  1  0.955262  0.344938  0.349901  1
  Nd  Nd4  1  0.815457  0.188802  0.191155  1
  Nd  Nd5  1  0.188802  0.815457  0.804586  1
  Nd  Nd6  1  0.188802  0.815457  0.191155  1
  Nd  Nd7  1  0.815457  0.188802  0.804586  1
  Nd  Nd8  1  0.188688  0.188688  0.811312  1
  Nd  Nd9  1  0.806325  0.806325  0.193675  1
  Nd  Nd10  1  0.938099  0.556597  0.565831  1
  Nd  Nd11  1  0.556597  0.938099  0.939474  1
  Nd  Nd12  1  0.556597  0.938099  0.565831  1
  Nd  Nd13  1  0.938099  0.556597  0.939474  1
  Nd  Nd14  1  0.562973  0.562973  0.937027  1
  Nd  Nd15  1  0.939607  0.939607  0.560393  1
  Cd  Cd16  1  0.580274  0.580274  0.579588  1
  Cd  Cd17  1  0.580274  0.580274  0.259864  1
  Cd  Cd18  1  0.581529  0.257971  0.580251  1
  Cd  Cd19  1  0.257971  0.581529  0.580251  1
  Os  Os20  1  0.144642  0.144642  0.136125  1
  Os  Os21  1  0.144642  0.144642  0.574590  1
  Pt  Pt22  1  0.145089  0.575663  0.139624  1
  Pt  Pt23  1  0.575663  0.145089  0.139624  1
