# generated using pymatgen
data_HoEr4Ga6P6Ir19
_symmetry_space_group_name_H-M   'P 1'
_cell_length_a   12.95452100
_cell_length_b   12.95452187
_cell_length_c   3.97638000
_cell_angle_alpha   90.00000000
_cell_angle_beta   90.00000000
_cell_angle_gamma   120.00000032
_symmetry_Int_Tables_number   1
_chemical_formula_structural   HoEr4Ga6P6Ir19
_chemical_formula_sum   'Ho1 Er4 Ga6 P6 Ir19'
_cell_volume   577.91139670
_cell_formula_units_Z   1
loop_
 _symmetry_equiv_pos_site_id
 _symmetry_equiv_pos_as_xyz
  1  'x, y, z'
loop_
 _atom_site_type_symbol
 _atom_site_label
 _atom_site_symmetry_multiplicity
 _atom_site_fract_x
 _atom_site_fract_y
 _atom_site_fract_z
 _atom_site_occupancy
  Ho  Ho0  1  0.666667  0.333333  0.000000  1
  Er  Er1  1  0.333333  0.666667  0.000000  1
  Er  Er2  1  0.816689  0.812178  0.500000  1
  Er  Er3  1  0.187822  0.004511  0.500000  1
  Er  Er4  1  0.995489  0.183311  0.500000  1
  Ga  Ga5  1  0.677144  0.158648  0.500000  1
  Ga  Ga6  1  0.841352  0.518496  0.500000  1
  Ga  Ga7  1  0.481504  0.322856  0.500000  1
  Ga  Ga8  1  0.635478  0.637154  0.000000  1
  Ga  Ga9  1  0.362846  0.998325  0.000000  1
  Ga  Ga10  1  0.001675  0.364522  0.000000  1
  P  P11  1  0.180236  0.697287  0.500000  1
  P  P12  1  0.517051  0.819764  0.500000  1
  P  P13  1  0.302713  0.482949  0.500000  1
  P  P14  1  0.175423  0.181102  0.000000  1
  P  P15  1  0.818898  0.994320  0.000000  1
  P  P16  1  0.005680  0.824577  0.000000  1
  Ir  Ir17  1  0.809307  0.169215  0.000000  1
  Ir  Ir18  1  0.830785  0.640092  0.000000  1
  Ir  Ir19  1  0.359908  0.190693  0.000000  1
  Ir  Ir20  1  0.182205  0.793828  0.000000  1
  Ir  Ir21  1  0.611623  0.817795  0.000000  1
  Ir  Ir22  1  0.206172  0.388377  0.000000  1
  Ir  Ir23  1  0.446456  0.440526  0.000000  1
  Ir  Ir24  1  0.559474  0.005930  0.000000  1
  Ir  Ir25  1  0.994070  0.553544  0.000000  1
  Ir  Ir26  1  0.267759  0.280546  0.500000  1
  Ir  Ir27  1  0.719454  0.987213  0.500000  1
  Ir  Ir28  1  0.012787  0.732241  0.500000  1
  Ir  Ir29  1  0.872867  0.348621  0.500000  1
  Ir  Ir30  1  0.651379  0.524247  0.500000  1
  Ir  Ir31  1  0.475753  0.127133  0.500000  1
  Ir  Ir32  1  0.371361  0.868641  0.500000  1
  Ir  Ir33  1  0.497282  0.628639  0.500000  1
  Ir  Ir34  1  0.131359  0.502718  0.500000  1
  Ir  Ir35  1  0.000000  0.000000  0.000000  1
