# generated using pymatgen
data_Ba2AlCu3Au22
_symmetry_space_group_name_H-M   'P 1'
_cell_length_a   9.22795197
_cell_length_b   9.24314325
_cell_length_c   9.24759517
_cell_angle_alpha   60.88399292
_cell_angle_beta   60.03834725
_cell_angle_gamma   60.08626134
_symmetry_Int_Tables_number   1
_chemical_formula_structural   Ba2AlCu3Au22
_chemical_formula_sum   'Ba2 Al1 Cu3 Au22'
_cell_volume   561.91447329
_cell_formula_units_Z   1
loop_
 _symmetry_equiv_pos_site_id
 _symmetry_equiv_pos_as_xyz
  1  'x, y, z'
loop_
 _atom_site_type_symbol
 _atom_site_label
 _atom_site_symmetry_multiplicity
 _atom_site_fract_x
 _atom_site_fract_y
 _atom_site_fract_z
 _atom_site_occupancy
  Ba  Ba0  1  0.258992  0.239557  0.245279  1
  Ba  Ba1  1  0.743826  0.754721  0.760443  1
  Al  Al2  1  0.926196  0.726470  0.273530  1
  Cu  Cu3  1  0.000517  0.002718  0.997282  1
  Cu  Cu4  1  0.498839  0.500814  0.499186  1
  Cu  Cu5  1  0.071884  0.273178  0.726822  1
  Au  Au6  1  0.429042  0.213552  0.557270  1
  Au  Au7  1  0.199863  0.442730  0.786448  1
  Au  Au8  1  0.799024  0.208463  0.439173  1
  Au  Au9  1  0.446659  0.560827  0.791537  1
  Au  Au10  1  0.152634  0.547901  0.452099  1
  Au  Au11  1  0.844985  0.454569  0.545431  1
  Au  Au12  1  0.295848  0.942150  0.700967  1
  Au  Au13  1  0.716078  0.301209  0.926673  1
  Au  Au14  1  0.943960  0.073327  0.698791  1
  Au  Au15  1  0.938966  0.299033  0.057850  1
  Au  Au16  1  0.709667  0.053344  0.299017  1
  Au  Au17  1  0.058158  0.928074  0.300672  1
  Au  Au18  1  0.062029  0.700983  0.946656  1
  Au  Au19  1  0.286903  0.699328  0.071926  1
  Au  Au20  1  0.554267  0.436183  0.209321  1
  Au  Au21  1  0.569480  0.786457  0.441678  1
  Au  Au22  1  0.437721  0.794376  0.205624  1
  Au  Au23  1  0.560831  0.207025  0.792975  1
  Au  Au24  1  0.797615  0.558322  0.213543  1
  Au  Au25  1  0.199771  0.790679  0.563817  1
  Au  Au26  1  0.701593  0.943063  0.056937  1
  Au  Au27  1  0.294652  0.060951  0.939049  1
