# generated using pymatgen
data_LiZn12Pt6Rh5
_symmetry_space_group_name_H-M   'P 1'
_cell_length_a   4.34187400
_cell_length_b   6.03290700
_cell_length_c   13.02801000
_cell_angle_alpha   90.00001829
_cell_angle_beta   90.00081808
_cell_angle_gamma   89.99992242
_symmetry_Int_Tables_number   1
_chemical_formula_structural   LiZn12Pt6Rh5
_chemical_formula_sum   'Li1 Zn12 Pt6 Rh5'
_cell_volume   341.25728396
_cell_formula_units_Z   1
loop_
 _symmetry_equiv_pos_site_id
 _symmetry_equiv_pos_as_xyz
  1  'x, y, z'
loop_
 _atom_site_type_symbol
 _atom_site_label
 _atom_site_symmetry_multiplicity
 _atom_site_fract_x
 _atom_site_fract_y
 _atom_site_fract_z
 _atom_site_occupancy
  Li  Li0  1  0.500056  0.999999  0.833336  1
  Zn  Zn1  1  0.499997  0.250193  0.002621  1
  Zn  Zn2  1  0.499997  0.749810  0.002621  1
  Zn  Zn3  1  0.999935  0.250671  0.166254  1
  Zn  Zn4  1  0.999936  0.749330  0.166254  1
  Zn  Zn5  1  0.499879  0.249534  0.333324  1
  Zn  Zn6  1  0.499879  0.750467  0.333325  1
  Zn  Zn7  1  0.000004  0.250665  0.500411  1
  Zn  Zn8  1  0.000005  0.749337  0.500410  1
  Zn  Zn9  1  0.500124  0.250186  0.664041  1
  Zn  Zn10  1  0.500124  0.749816  0.664041  1
  Zn  Zn11  1  0.000072  0.251622  0.833323  1
  Zn  Zn12  1  0.000070  0.748379  0.833323  1
  Pt  Pt13  1  0.000005  0.000001  0.996274  1
  Pt  Pt14  1  0.499902  0.500002  0.167390  1
  Pt  Pt15  1  0.999858  0.000000  0.333333  1
  Pt  Pt16  1  0.499993  0.499997  0.499289  1
  Pt  Pt17  1  0.000144  0.999999  0.670398  1
  Pt  Pt18  1  0.500086  0.500001  0.833332  1
  Rh  Rh19  1  0.999992  0.499997  0.996033  1
  Rh  Rh20  1  0.499930  0.999991  0.166836  1
  Rh  Rh21  1  0.999898  0.499999  0.333348  1
  Rh  Rh22  1  0.500001  0.000002  0.499809  1
  Rh  Rh23  1  0.000113  0.499999  0.670671  1
