# generated using pymatgen
data_Cs4Sc9Sb3Te20
_symmetry_space_group_name_H-M   'P 1'
_cell_length_a   4.25635900
_cell_length_b   13.15894661
_cell_length_c   23.08480530
_cell_angle_alpha   90.47120573
_cell_angle_beta   90.00000000
_cell_angle_gamma   90.00000000
_symmetry_Int_Tables_number   1
_chemical_formula_structural   Cs4Sc9Sb3Te20
_chemical_formula_sum   'Cs4 Sc9 Sb3 Te20'
_cell_volume   1292.91777124
_cell_formula_units_Z   1
loop_
 _symmetry_equiv_pos_site_id
 _symmetry_equiv_pos_as_xyz
  1  'x, y, z'
loop_
 _atom_site_type_symbol
 _atom_site_label
 _atom_site_symmetry_multiplicity
 _atom_site_fract_x
 _atom_site_fract_y
 _atom_site_fract_z
 _atom_site_occupancy
  Cs  Cs0  1  0.250000  0.351317  0.091564  1
  Cs  Cs1  1  0.750000  0.645277  0.915021  1
  Cs  Cs2  1  0.750000  0.859439  0.413981  1
  Cs  Cs3  1  0.250000  0.145624  0.583759  1
  Sc  Sc4  1  0.250000  0.047588  0.197889  1
  Sc  Sc5  1  0.250000  0.790413  0.668251  1
  Sc  Sc6  1  0.750000  0.203134  0.325095  1
  Sc  Sc7  1  0.750000  0.290941  0.832936  1
  Sc  Sc8  1  0.250000  0.715173  0.170679  1
  Sc  Sc9  1  0.250000  0.389205  0.441397  1
  Sc  Sc10  1  0.750000  0.608564  0.556860  1
  Sc  Sc11  1  0.750000  0.897654  0.058541  1
  Sc  Sc12  1  0.250000  0.107697  0.945122  1
  Sb  Sb13  1  0.250000  0.446182  0.700412  1
  Sb  Sb14  1  0.750000  0.551216  0.299390  1
  Sb  Sb15  1  0.750000  0.947074  0.799186  1
  Te  Te16  1  0.250000  0.453047  0.566795  1
  Te  Te17  1  0.750000  0.545868  0.432767  1
  Te  Te18  1  0.750000  0.951968  0.934711  1
  Te  Te19  1  0.250000  0.052542  0.070246  1
  Te  Te20  1  0.250000  0.764516  0.544389  1
  Te  Te21  1  0.750000  0.233425  0.451439  1
  Te  Te22  1  0.750000  0.263530  0.956994  1
  Te  Te23  1  0.250000  0.742215  0.047097  1
  Te  Te24  1  0.250000  0.792496  0.797168  1
  Te  Te25  1  0.750000  0.195215  0.198284  1
  Te  Te26  1  0.750000  0.291837  0.703301  1
  Te  Te27  1  0.250000  0.707036  0.298746  1
  Te  Te28  1  0.250000  0.442381  0.832674  1
  Te  Te29  1  0.750000  0.564756  0.167532  1
  Te  Te30  1  0.750000  0.942929  0.668828  1
  Te  Te31  1  0.250000  0.050615  0.324351  1
  Te  Te32  1  0.250000  0.366454  0.315067  1
  Te  Te33  1  0.750000  0.632028  0.683622  1
  Te  Te34  1  0.750000  0.879300  0.187739  1
  Te  Te35  1  0.250000  0.131346  0.818167  1
