# generated using pymatgen
data_Dy17Mg3(IrPt2)4
_symmetry_space_group_name_H-M   'P 1'
_cell_length_a   10.89995700
_cell_length_b   10.89995700
_cell_length_c   6.28855000
_cell_angle_alpha   90.00000000
_cell_angle_beta   90.00000000
_cell_angle_gamma   90.00000000
_symmetry_Int_Tables_number   1
_chemical_formula_structural   Dy17Mg3(IrPt2)4
_chemical_formula_sum   'Dy17 Mg3 Ir4 Pt8'
_cell_volume   747.13673062
_cell_formula_units_Z   1
loop_
 _symmetry_equiv_pos_site_id
 _symmetry_equiv_pos_as_xyz
  1  'x, y, z'
loop_
 _atom_site_type_symbol
 _atom_site_label
 _atom_site_symmetry_multiplicity
 _atom_site_fract_x
 _atom_site_fract_y
 _atom_site_fract_z
 _atom_site_occupancy
  Dy  Dy0  1  0.287558  0.086716  0.380663  1
  Dy  Dy1  1  0.288086  0.916265  0.877367  1
  Dy  Dy2  1  0.711914  0.083735  0.877367  1
  Dy  Dy3  1  0.712442  0.913284  0.380663  1
  Dy  Dy4  1  0.584976  0.787592  0.877346  1
  Dy  Dy5  1  0.588602  0.205489  0.378224  1
  Dy  Dy6  1  0.411398  0.794511  0.378224  1
  Dy  Dy7  1  0.415024  0.212408  0.877346  1
  Dy  Dy8  1  0.205489  0.411398  0.621776  1
  Dy  Dy9  1  0.212408  0.584976  0.122654  1
  Dy  Dy10  1  0.787592  0.415024  0.122654  1
  Dy  Dy11  1  0.794511  0.588602  0.621776  1
  Dy  Dy12  1  0.916265  0.711914  0.122633  1
  Dy  Dy13  1  0.913284  0.287558  0.619337  1
  Dy  Dy14  1  0.086716  0.712442  0.619337  1
  Dy  Dy15  1  0.083735  0.288086  0.122633  1
  Dy  Dy16  1  0.500000  0.500000  0.500000  1
  Mg  Mg17  1  0.000000  0.000000  0.500000  1
  Mg  Mg18  1  0.000000  0.000000  0.000000  1
  Mg  Mg19  1  0.500000  0.500000  0.000000  1
  Ir  Ir20  1  0.500000  0.000000  0.120952  1
  Ir  Ir21  1  0.500000  0.000000  0.624320  1
  Ir  Ir22  1  0.000000  0.500000  0.879048  1
  Ir  Ir23  1  0.000000  0.500000  0.375680  1
  Pt  Pt24  1  0.849477  0.151243  0.247618  1
  Pt  Pt25  1  0.848757  0.849477  0.752382  1
  Pt  Pt26  1  0.151243  0.150523  0.752382  1
  Pt  Pt27  1  0.150523  0.848757  0.247618  1
  Pt  Pt28  1  0.655445  0.347206  0.748386  1
  Pt  Pt29  1  0.652794  0.655445  0.251614  1
  Pt  Pt30  1  0.347206  0.344555  0.251614  1
  Pt  Pt31  1  0.344555  0.652794  0.748386  1
