# generated using pymatgen
data_Zr2AsPPdRu
_symmetry_space_group_name_H-M   'P 1'
_cell_length_a   3.89035700
_cell_length_b   6.66182600
_cell_length_c   7.63448700
_cell_angle_alpha   90.00000000
_cell_angle_beta   90.00000000
_cell_angle_gamma   90.00000000
_symmetry_Int_Tables_number   1
_chemical_formula_structural   Zr2AsPPdRu
_chemical_formula_sum   'Zr4 As2 P2 Pd2 Ru2'
_cell_volume   197.86209422
_cell_formula_units_Z   2
loop_
 _symmetry_equiv_pos_site_id
 _symmetry_equiv_pos_as_xyz
  1  'x, y, z'
loop_
 _atom_site_type_symbol
 _atom_site_label
 _atom_site_symmetry_multiplicity
 _atom_site_fract_x
 _atom_site_fract_y
 _atom_site_fract_z
 _atom_site_occupancy
  Zr  Zr0  1  0.750000  0.528137  0.321621  1
  Zr  Zr1  1  0.250000  0.969641  0.820663  1
  Zr  Zr2  1  0.750000  0.028137  0.178379  1
  Zr  Zr3  1  0.250000  0.469641  0.679337  1
  As  As4  1  0.750000  0.262652  0.864066  1
  As  As5  1  0.750000  0.762652  0.635934  1
  P  P6  1  0.250000  0.745362  0.110924  1
  P  P7  1  0.250000  0.245362  0.389076  1
  Pd  Pd8  1  0.250000  0.352190  0.077899  1
  Pd  Pd9  1  0.250000  0.852190  0.422101  1
  Ru  Ru10  1  0.750000  0.142019  0.540683  1
  Ru  Ru11  1  0.750000  0.642019  0.959317  1
