# generated using pymatgen
data_Y3Ho(Sc3Si4)2
_symmetry_space_group_name_H-M   'P 1'
_cell_length_a   7.09859615
_cell_length_b   7.38888419
_cell_length_c   14.00313307
_cell_angle_alpha   89.98893936
_cell_angle_beta   89.99914373
_cell_angle_gamma   90.02361828
_symmetry_Int_Tables_number   1
_chemical_formula_structural   Y3Ho(Sc3Si4)2
_chemical_formula_sum   'Y6 Ho2 Sc12 Si16'
_cell_volume   734.47412366
_cell_formula_units_Z   2
loop_
 _symmetry_equiv_pos_site_id
 _symmetry_equiv_pos_as_xyz
  1  'x, y, z'
loop_
 _atom_site_type_symbol
 _atom_site_label
 _atom_site_symmetry_multiplicity
 _atom_site_fract_x
 _atom_site_fract_y
 _atom_site_fract_z
 _atom_site_occupancy
  Y  Y0  1  0.011907  0.175092  0.097040  1
  Y  Y1  1  0.988093  0.824908  0.902960  1
  Y  Y2  1  0.488097  0.675055  0.902997  1
  Y  Y3  1  0.988031  0.824832  0.596975  1
  Y  Y4  1  0.511903  0.324945  0.097003  1
  Y  Y5  1  0.011969  0.175168  0.403025  1
  Ho  Ho6  1  0.512052  0.324835  0.402895  1
  Ho  Ho7  1  0.487948  0.675165  0.597105  1
  Sc  Sc8  1  0.160652  0.502374  0.749918  1
  Sc  Sc9  1  0.839348  0.497626  0.250082  1
  Sc  Sc10  1  0.339542  0.002450  0.250075  1
  Sc  Sc11  1  0.660458  0.997550  0.749925  1
  Sc  Sc12  1  0.330658  0.176934  0.625048  1
  Sc  Sc13  1  0.669342  0.823066  0.374952  1
  Sc  Sc14  1  0.169577  0.676651  0.374907  1
  Sc  Sc15  1  0.669436  0.823208  0.125157  1
  Sc  Sc16  1  0.830423  0.323349  0.625093  1
  Sc  Sc17  1  0.330564  0.176792  0.874843  1
  Sc  Sc18  1  0.830513  0.323246  0.874840  1
  Sc  Sc19  1  0.169487  0.676754  0.125160  1
  Si  Si20  1  0.033179  0.117907  0.749987  1
  Si  Si21  1  0.966821  0.882093  0.250013  1
  Si  Si22  1  0.466846  0.617663  0.250121  1
  Si  Si23  1  0.533154  0.382337  0.749879  1
  Si  Si24  1  0.285664  0.873788  0.749805  1
  Si  Si25  1  0.714336  0.126212  0.250195  1
  Si  Si26  1  0.214857  0.373994  0.250127  1
  Si  Si27  1  0.785143  0.626006  0.749873  1
  Si  Si28  1  0.158194  0.464736  0.539510  1
  Si  Si29  1  0.841806  0.535264  0.460490  1
  Si  Si30  1  0.342672  0.964590  0.460589  1
  Si  Si31  1  0.842432  0.535504  0.039478  1
  Si  Si32  1  0.657328  0.035410  0.539411  1
  Si  Si33  1  0.157568  0.464496  0.960522  1
  Si  Si34  1  0.657560  0.035487  0.960534  1
  Si  Si35  1  0.342440  0.964513  0.039466  1
