# generated using pymatgen
data_TbUS6
_symmetry_space_group_name_H-M   'P 1'
_cell_length_a   3.95955400
_cell_length_b   5.40177740
_cell_length_c   9.54118763
_cell_angle_alpha   82.74586020
_cell_angle_beta   90.00000000
_cell_angle_gamma   90.00000000
_symmetry_Int_Tables_number   1
_chemical_formula_structural   TbUS6
_chemical_formula_sum   'Tb1 U1 S6'
_cell_volume   202.43949076
_cell_formula_units_Z   1
loop_
 _symmetry_equiv_pos_site_id
 _symmetry_equiv_pos_as_xyz
  1  'x, y, z'
loop_
 _atom_site_type_symbol
 _atom_site_label
 _atom_site_symmetry_multiplicity
 _atom_site_fract_x
 _atom_site_fract_y
 _atom_site_fract_z
 _atom_site_occupancy
  Tb  Tb0  1  0.250000  0.717439  0.146119  1
  U  U1  1  0.750000  0.279858  0.865801  1
  S  S2  1  0.250000  0.129183  0.693693  1
  S  S3  1  0.750000  0.873517  0.313087  1
  S  S4  1  0.750000  0.486674  0.313115  1
  S  S5  1  0.250000  0.507613  0.693856  1
  S  S6  1  0.750000  0.767348  0.922130  1
  S  S7  1  0.250000  0.238367  0.052198  1
