# generated using pymatgen
data_Cs12Ca4Fe3Ge(P2O7)8
_symmetry_space_group_name_H-M   'P 1'
_cell_length_a   9.45464700
_cell_length_b   11.42138700
_cell_length_c   15.32278500
_cell_angle_alpha   90.00000000
_cell_angle_beta   90.00000000
_cell_angle_gamma   90.00000000
_symmetry_Int_Tables_number   1
_chemical_formula_structural   Cs12Ca4Fe3Ge(P2O7)8
_chemical_formula_sum   'Cs12 Ca4 Fe3 Ge1 P16 O56'
_cell_volume   1654.63373211
_cell_formula_units_Z   1
loop_
 _symmetry_equiv_pos_site_id
 _symmetry_equiv_pos_as_xyz
  1  'x, y, z'
loop_
 _atom_site_type_symbol
 _atom_site_label
 _atom_site_symmetry_multiplicity
 _atom_site_fract_x
 _atom_site_fract_y
 _atom_site_fract_z
 _atom_site_occupancy
  Cs  Cs0  1  0.375405  0.373889  0.374314  1
  Cs  Cs1  1  0.126661  0.629368  0.866175  1
  Cs  Cs2  1  0.872086  0.134674  0.632841  1
  Cs  Cs3  1  0.628956  0.866815  0.124429  1
  Cs  Cs4  1  0.271978  0.708799  0.303433  1
  Cs  Cs5  1  0.218648  0.290646  0.801944  1
  Cs  Cs6  1  0.786496  0.779590  0.696199  1
  Cs  Cs7  1  0.720115  0.218122  0.193262  1
  Cs  Cs8  1  0.831410  0.489090  0.419225  1
  Cs  Cs9  1  0.679298  0.512530  0.904136  1
  Cs  Cs10  1  0.310935  0.010298  0.595230  1
  Cs  Cs11  1  0.181880  0.985068  0.081589  1
  Ca  Ca12  1  0.543080  0.367902  0.616996  1
  Ca  Ca13  1  0.954230  0.634343  0.116574  1
  Ca  Ca14  1  0.046744  0.137531  0.383140  1
  Ca  Ca15  1  0.457764  0.864230  0.881800  1
  Fe  Fe16  1  0.849381  0.124086  0.927181  1
  Fe  Fe17  1  0.149406  0.621615  0.571248  1
  Fe  Fe18  1  0.349762  0.376956  0.072285  1
  Ge  Ge19  1  0.654196  0.877394  0.429341  1
  P  P20  1  0.483124  0.654244  0.519679  1
  P  P21  1  0.020755  0.354921  0.022280  1
  P  P22  1  0.976190  0.860486  0.478872  1
  P  P23  1  0.519625  0.145199  0.978093  1
  P  P24  1  0.421660  0.635244  0.706462  1
  P  P25  1  0.085747  0.371834  0.207987  1
  P  P26  1  0.908226  0.871915  0.294643  1
  P  P27  1  0.582031  0.129891  0.792453  1
  P  P28  1  0.423688  0.029367  0.330932  1
  P  P29  1  0.081263  0.962447  0.830033  1
  P  P30  1  0.915156  0.456221  0.669399  1
  P  P31  1  0.579811  0.539047  0.170987  1
  P  P32  1  0.651613  0.146313  0.437321  1
  P  P33  1  0.850389  0.850628  0.938997  1
  P  P34  1  0.152344  0.348466  0.559707  1
  P  P35  1  0.346494  0.651173  0.062688  1
  O  O36  1  0.586150  0.737964  0.467199  1
  O  O37  1  0.927977  0.269832  0.970704  1
  O  O38  1  0.063323  0.780312  0.534404  1
  O  O39  1  0.428589  0.229404  0.031977  1
  O  O40  1  0.483133  0.512510  0.715774  1
  O  O41  1  0.029955  0.495220  0.220840  1
  O  O42  1  0.957308  0.996291  0.280870  1
  O  O43  1  0.526123  0.006655  0.779599  1
  O  O44  1  0.422073  0.015642  0.233349  1
  O  O45  1  0.081491  0.971608  0.731760  1
  O  O46  1  0.918085  0.462815  0.768420  1
  O  O47  1  0.580159  0.529875  0.269319  1
  O  O48  1  0.291051  0.072593  0.375883  1
  O  O49  1  0.213022  0.913074  0.873562  1
  O  O50  1  0.785671  0.396405  0.629125  1
  O  O51  1  0.711792  0.587949  0.127403  1
  O  O52  1  0.502023  0.698565  0.619903  1
  O  O53  1  0.002014  0.312224  0.124084  1
  O  O54  1  0.992710  0.814089  0.377369  1
  O  O55  1  0.499075  0.189352  0.877206  1
  O  O56  1  0.462067  0.715216  0.781728  1
  O  O57  1  0.057479  0.288716  0.282990  1
  O  O58  1  0.928430  0.788420  0.219747  1
  O  O59  1  0.552954  0.213065  0.717915  1
  O  O60  1  0.551455  0.125918  0.351546  1
  O  O61  1  0.951552  0.867454  0.852832  1
  O  O62  1  0.050624  0.365130  0.645648  1
  O  O63  1  0.450073  0.634024  0.148002  1
  O  O64  1  0.538097  0.530047  0.511643  1
  O  O65  1  0.972103  0.480669  0.014482  1
  O  O66  1  0.015619  0.988223  0.483007  1
  O  O67  1  0.471043  0.019315  0.985557  1
  O  O68  1  0.478816  0.912350  0.376999  1
  O  O69  1  0.032648  0.079741  0.873889  1
  O  O70  1  0.950438  0.572883  0.623759  1
  O  O71  1  0.531598  0.421794  0.126860  1
  O  O72  1  0.745243  0.869052  0.324175  1
  O  O73  1  0.741620  0.129896  0.819721  1
  O  O74  1  0.263089  0.637185  0.685211  1
  O  O75  1  0.245252  0.370793  0.181352  1
  O  O76  1  0.331309  0.675132  0.492114  1
  O  O77  1  0.177886  0.335369  0.000465  1
  O  O78  1  0.814659  0.839705  0.498056  1
  O  O79  1  0.677091  0.163761  0.999631  1
  O  O80  1  0.795341  0.178007  0.401599  1
  O  O81  1  0.705806  0.818860  0.902987  1
  O  O82  1  0.297994  0.320127  0.597302  1
  O  O83  1  0.203075  0.682923  0.100984  1
  O  O84  1  0.582926  0.234434  0.497017  1
  O  O85  1  0.916711  0.757432  0.996691  1
  O  O86  1  0.090624  0.247979  0.505866  1
  O  O87  1  0.410843  0.745162  0.004895  1
  O  O88  1  0.650681  0.021732  0.485346  1
  O  O89  1  0.852197  0.971664  0.986786  1
  O  O90  1  0.147292  0.464650  0.507827  1
  O  O91  1  0.347093  0.530453  0.014741  1
