# generated using pymatgen
data_PrTm2IrO7
_symmetry_space_group_name_H-M   'P 1'
_cell_length_a   6.41676028
_cell_length_b   6.41676069
_cell_length_c   7.47001600
_cell_angle_alpha   90.00000000
_cell_angle_beta   90.00000000
_cell_angle_gamma   109.44021778
_symmetry_Int_Tables_number   1
_chemical_formula_structural   PrTm2IrO7
_chemical_formula_sum   'Pr2 Tm4 Ir2 O14'
_cell_volume   290.04136551
_cell_formula_units_Z   2
loop_
 _symmetry_equiv_pos_site_id
 _symmetry_equiv_pos_as_xyz
  1  'x, y, z'
loop_
 _atom_site_type_symbol
 _atom_site_label
 _atom_site_symmetry_multiplicity
 _atom_site_fract_x
 _atom_site_fract_y
 _atom_site_fract_z
 _atom_site_occupancy
  Pr  Pr0  1  0.000000  0.000000  0.000000  1
  Pr  Pr1  1  0.000000  0.000000  0.500000  1
  Tm  Tm2  1  0.486196  0.940229  0.750000  1
  Tm  Tm3  1  0.513804  0.059771  0.250000  1
  Tm  Tm4  1  0.940229  0.486196  0.750000  1
  Tm  Tm5  1  0.059771  0.513804  0.250000  1
  Ir  Ir6  1  0.500000  0.500000  0.000000  1
  Ir  Ir7  1  0.500000  0.500000  0.500000  1
  O  O8  1  0.594035  0.594035  0.750000  1
  O  O9  1  0.405965  0.405965  0.250000  1
  O  O10  1  0.836415  0.124891  0.750000  1
  O  O11  1  0.163585  0.875109  0.250000  1
  O  O12  1  0.124891  0.836415  0.750000  1
  O  O13  1  0.875109  0.163585  0.250000  1
  O  O14  1  0.440358  0.177894  0.965938  1
  O  O15  1  0.559642  0.822106  0.465938  1
  O  O16  1  0.177894  0.440358  0.965938  1
  O  O17  1  0.822106  0.559642  0.465938  1
  O  O18  1  0.440358  0.177894  0.534062  1
  O  O19  1  0.559642  0.822106  0.034062  1
  O  O20  1  0.822106  0.559642  0.034062  1
  O  O21  1  0.177894  0.440358  0.534062  1
