# generated using pymatgen
data_La9BiSb4O5
_symmetry_space_group_name_H-M   'P 1'
_cell_length_a   10.50836700
_cell_length_b   10.50836700
_cell_length_c   9.39654400
_cell_angle_alpha   90.00000000
_cell_angle_beta   90.00000000
_cell_angle_gamma   90.00000000
_symmetry_Int_Tables_number   1
_chemical_formula_structural   La9BiSb4O5
_chemical_formula_sum   'La18 Bi2 Sb8 O10'
_cell_volume   1037.62067238
_cell_formula_units_Z   2
loop_
 _symmetry_equiv_pos_site_id
 _symmetry_equiv_pos_as_xyz
  1  'x, y, z'
loop_
 _atom_site_type_symbol
 _atom_site_label
 _atom_site_symmetry_multiplicity
 _atom_site_fract_x
 _atom_site_fract_y
 _atom_site_fract_z
 _atom_site_occupancy
  La  La0  1  0.000000  0.500000  0.326714  1
  La  La1  1  0.500000  0.000000  0.673286  1
  La  La2  1  0.798246  0.104472  0.342971  1
  La  La3  1  0.604472  0.701754  0.342971  1
  La  La4  1  0.395528  0.298246  0.342971  1
  La  La5  1  0.201754  0.895528  0.342971  1
  La  La6  1  0.701754  0.395528  0.657029  1
  La  La7  1  0.895528  0.798246  0.657029  1
  La  La8  1  0.104472  0.201754  0.657029  1
  La  La9  1  0.298246  0.604472  0.657029  1
  La  La10  1  0.080809  0.728271  0.997961  1
  La  La11  1  0.228271  0.419191  0.997961  1
  La  La12  1  0.771729  0.580809  0.997961  1
  La  La13  1  0.919191  0.271729  0.997961  1
  La  La14  1  0.419191  0.771729  0.002039  1
  La  La15  1  0.271729  0.080809  0.002039  1
  La  La16  1  0.728271  0.919191  0.002039  1
  La  La17  1  0.580809  0.228271  0.002039  1
  Bi  Bi18  1  0.000000  0.500000  0.690447  1
  Bi  Bi19  1  0.500000  0.000000  0.309553  1
  Sb  Sb20  1  0.697330  0.402471  0.298380  1
  Sb  Sb21  1  0.902471  0.802670  0.298380  1
  Sb  Sb22  1  0.097529  0.197330  0.298380  1
  Sb  Sb23  1  0.302670  0.597529  0.298380  1
  Sb  Sb24  1  0.802670  0.097529  0.701620  1
  Sb  Sb25  1  0.597529  0.697330  0.701620  1
  Sb  Sb26  1  0.402471  0.302670  0.701620  1
  Sb  Sb27  1  0.197330  0.902471  0.701620  1
  O  O28  1  0.000000  0.500000  0.072412  1
  O  O29  1  0.500000  0.000000  0.927588  1
  O  O30  1  0.879224  0.776164  0.909590  1
  O  O31  1  0.276164  0.620776  0.909590  1
  O  O32  1  0.723836  0.379224  0.909590  1
  O  O33  1  0.120776  0.223836  0.909590  1
  O  O34  1  0.620776  0.723836  0.090410  1
  O  O35  1  0.223836  0.879224  0.090410  1
  O  O36  1  0.776164  0.120776  0.090410  1
  O  O37  1  0.379224  0.276164  0.090410  1
