# generated using pymatgen
data_Nd7Tm(Sc3Pb4)4
_symmetry_space_group_name_H-M   'P 1'
_cell_length_a   8.00176252
_cell_length_b   15.25164737
_cell_length_c   8.12434500
_cell_angle_alpha   89.96466077
_cell_angle_beta   90.26644641
_cell_angle_gamma   90.12885238
_symmetry_Int_Tables_number   1
_chemical_formula_structural   Nd7Tm(Sc3Pb4)4
_chemical_formula_sum   'Nd7 Tm1 Sc12 Pb16'
_cell_volume   991.48214359
_cell_formula_units_Z   1
loop_
 _symmetry_equiv_pos_site_id
 _symmetry_equiv_pos_as_xyz
  1  'x, y, z'
loop_
 _atom_site_type_symbol
 _atom_site_label
 _atom_site_symmetry_multiplicity
 _atom_site_fract_x
 _atom_site_fract_y
 _atom_site_fract_z
 _atom_site_occupancy
  Nd  Nd0  1  0.480709  0.595115  0.677542  1
  Nd  Nd1  1  0.982466  0.905751  0.824430  1
  Nd  Nd2  1  0.519317  0.094525  0.323724  1
  Nd  Nd3  1  0.019935  0.406200  0.174896  1
  Nd  Nd4  1  0.518640  0.406513  0.322344  1
  Nd  Nd5  1  0.018552  0.094626  0.176065  1
  Nd  Nd6  1  0.479796  0.903382  0.677365  1
  Tm  Tm7  1  0.976509  0.595704  0.823225  1
  Sc  Sc8  1  0.642822  0.624825  0.155313  1
  Sc  Sc9  1  0.142980  0.872812  0.344400  1
  Sc  Sc10  1  0.356487  0.125233  0.842627  1
  Sc  Sc11  1  0.857796  0.374985  0.658672  1
  Sc  Sc12  1  0.358526  0.375677  0.843422  1
  Sc  Sc13  1  0.856559  0.125709  0.656738  1
  Sc  Sc14  1  0.644620  0.873998  0.156760  1
  Sc  Sc15  1  0.143529  0.625944  0.342910  1
  Sc  Sc16  1  0.811098  0.749212  0.493152  1
  Sc  Sc17  1  0.309796  0.749042  0.005336  1
  Sc  Sc18  1  0.189419  0.250319  0.507179  1
  Sc  Sc19  1  0.690270  0.250562  0.993212  1
  Pb  Pb20  1  0.698019  0.457487  0.951305  1
  Pb  Pb21  1  0.192865  0.044290  0.546072  1
  Pb  Pb22  1  0.308299  0.954757  0.048474  1
  Pb  Pb23  1  0.809059  0.545343  0.457389  1
  Pb  Pb24  1  0.300126  0.546087  0.042332  1
  Pb  Pb25  1  0.807064  0.954751  0.454488  1
  Pb  Pb26  1  0.692318  0.044735  0.952487  1
  Pb  Pb27  1  0.191617  0.455977  0.547104  1
  Pb  Pb28  1  0.450213  0.749403  0.364905  1
  Pb  Pb29  1  0.949855  0.749359  0.132939  1
  Pb  Pb30  1  0.550142  0.250788  0.634653  1
  Pb  Pb31  1  0.051114  0.249932  0.865879  1
  Pb  Pb32  1  0.673140  0.749084  0.851087  1
  Pb  Pb33  1  0.166216  0.747156  0.652370  1
  Pb  Pb34  1  0.330390  0.250127  0.148128  1
  Pb  Pb35  1  0.829737  0.250588  0.351075  1
