# generated using pymatgen
data_Ce2Ga3Cu7
_symmetry_space_group_name_H-M   'P 1'
_cell_length_a   4.20478900
_cell_length_b   5.10677716
_cell_length_c   8.97520232
_cell_angle_alpha   88.96987986
_cell_angle_beta   90.00000000
_cell_angle_gamma   90.00000000
_symmetry_Int_Tables_number   1
_chemical_formula_structural   Ce2Ga3Cu7
_chemical_formula_sum   'Ce2 Ga3 Cu7'
_cell_volume   192.69265740
_cell_formula_units_Z   1
loop_
 _symmetry_equiv_pos_site_id
 _symmetry_equiv_pos_as_xyz
  1  'x, y, z'
loop_
 _atom_site_type_symbol
 _atom_site_label
 _atom_site_symmetry_multiplicity
 _atom_site_fract_x
 _atom_site_fract_y
 _atom_site_fract_z
 _atom_site_occupancy
  Ce  Ce0  1  0.000000  0.249803  0.751088  1
  Ce  Ce1  1  0.000000  0.750197  0.248912  1
  Ga  Ga2  1  0.500000  0.257619  0.256636  1
  Ga  Ga3  1  0.500000  0.742381  0.743364  1
  Ga  Ga4  1  0.500000  0.000000  0.000000  1
  Cu  Cu5  1  0.500000  0.500000  0.500000  1
  Cu  Cu6  1  0.500000  0.500000  0.000000  1
  Cu  Cu7  1  0.500000  0.000000  0.500000  1
  Cu  Cu8  1  0.000000  0.256482  0.081737  1
  Cu  Cu9  1  0.000000  0.751019  0.580102  1
  Cu  Cu10  1  0.000000  0.743518  0.918263  1
  Cu  Cu11  1  0.000000  0.248981  0.419898  1
