# generated using pymatgen
data_NdDy(Ni4B)2
_symmetry_space_group_name_H-M   'P 1'
_cell_length_a   5.02070300
_cell_length_b   5.00214376
_cell_length_c   6.98200100
_cell_angle_alpha   90.00000000
_cell_angle_beta   90.00000000
_cell_angle_gamma   120.12280378
_symmetry_Int_Tables_number   1
_chemical_formula_structural   NdDy(Ni4B)2
_chemical_formula_sum   'Nd1 Dy1 Ni8 B2'
_cell_volume   151.66748631
_cell_formula_units_Z   1
loop_
 _symmetry_equiv_pos_site_id
 _symmetry_equiv_pos_as_xyz
  1  'x, y, z'
loop_
 _atom_site_type_symbol
 _atom_site_label
 _atom_site_symmetry_multiplicity
 _atom_site_fract_x
 _atom_site_fract_y
 _atom_site_fract_z
 _atom_site_occupancy
  Nd  Nd0  1  0.500000  0.000000  0.000000  1
  Dy  Dy1  1  0.500000  0.000000  0.500000  1
  Ni  Ni2  1  0.833334  0.666668  0.000000  1
  Ni  Ni3  1  0.166666  0.333332  0.000000  1
  Ni  Ni4  1  0.000000  0.000000  0.705083  1
  Ni  Ni5  1  0.500000  0.500000  0.705214  1
  Ni  Ni6  1  0.000000  0.500000  0.705214  1
  Ni  Ni7  1  0.000000  0.000000  0.294917  1
  Ni  Ni8  1  0.500000  0.500000  0.294786  1
  Ni  Ni9  1  0.000000  0.500000  0.294786  1
  B  B10  1  0.833262  0.666523  0.500000  1
  B  B11  1  0.166738  0.333477  0.500000  1
