# generated using pymatgen
data_DyEr5MoO12
_symmetry_space_group_name_H-M   'P 1'
_cell_length_a   6.42980943
_cell_length_b   6.42835774
_cell_length_c   6.43561853
_cell_angle_alpha   98.67596477
_cell_angle_beta   98.54820366
_cell_angle_gamma   98.64845073
_symmetry_Int_Tables_number   1
_chemical_formula_structural   DyEr5MoO12
_chemical_formula_sum   'Dy1 Er5 Mo1 O12'
_cell_volume   255.94471496
_cell_formula_units_Z   1
loop_
 _symmetry_equiv_pos_site_id
 _symmetry_equiv_pos_as_xyz
  1  'x, y, z'
loop_
 _atom_site_type_symbol
 _atom_site_label
 _atom_site_symmetry_multiplicity
 _atom_site_fract_x
 _atom_site_fract_y
 _atom_site_fract_z
 _atom_site_occupancy
  Dy  Dy0  1  0.387480  0.684718  0.856538  1
  Er  Er1  1  0.612411  0.316754  0.144585  1
  Er  Er2  1  0.144007  0.611741  0.316743  1
  Er  Er3  1  0.683697  0.855877  0.388214  1
  Er  Er4  1  0.317224  0.144603  0.611361  1
  Er  Er5  1  0.855342  0.387442  0.682357  1
  Mo  Mo6  1  0.000360  0.000766  0.000491  1
  O  O7  1  0.701630  0.925283  0.036652  1
  O  O8  1  0.965667  0.299476  0.076578  1
  O  O9  1  0.432268  0.589366  0.179422  1
  O  O10  1  0.076726  0.965281  0.298577  1
  O  O11  1  0.822997  0.568694  0.409661  1
  O  O12  1  0.591157  0.177510  0.431360  1
  O  O13  1  0.408667  0.823528  0.566101  1
  O  O14  1  0.176435  0.430280  0.588661  1
  O  O15  1  0.923486  0.034589  0.701229  1
  O  O16  1  0.568680  0.406935  0.822891  1
  O  O17  1  0.032758  0.700679  0.923585  1
  O  O18  1  0.299008  0.076479  0.964994  1
