# generated using pymatgen
data_Dy7Zr(Si3Pt)4
_symmetry_space_group_name_H-M   'P 1'
_cell_length_a   8.11904300
_cell_length_b   8.11904406
_cell_length_c   8.07137700
_cell_angle_alpha   90.00000000
_cell_angle_beta   90.00000000
_cell_angle_gamma   119.99999162
_symmetry_Int_Tables_number   1
_chemical_formula_structural   Dy7Zr(Si3Pt)4
_chemical_formula_sum   'Dy7 Zr1 Si12 Pt4'
_cell_volume   460.77408012
_cell_formula_units_Z   1
loop_
 _symmetry_equiv_pos_site_id
 _symmetry_equiv_pos_as_xyz
  1  'x, y, z'
loop_
 _atom_site_type_symbol
 _atom_site_label
 _atom_site_symmetry_multiplicity
 _atom_site_fract_x
 _atom_site_fract_y
 _atom_site_fract_z
 _atom_site_occupancy
  Dy  Dy0  1  0.000000  0.000000  0.750000  1
  Dy  Dy1  1  0.002223  0.501112  0.250000  1
  Dy  Dy2  1  0.498888  0.501112  0.250000  1
  Dy  Dy3  1  0.500999  0.001998  0.750000  1
  Dy  Dy4  1  0.498888  0.997777  0.250000  1
  Dy  Dy5  1  0.500999  0.499001  0.750000  1
  Dy  Dy6  1  0.998002  0.499001  0.750000  1
  Zr  Zr7  1  0.000000  0.000000  0.250000  1
  Si  Si8  1  0.164961  0.329922  0.001540  1
  Si  Si9  1  0.670078  0.835039  0.001540  1
  Si  Si10  1  0.164961  0.329922  0.498460  1
  Si  Si11  1  0.329765  0.164882  0.003849  1
  Si  Si12  1  0.164961  0.835039  0.001540  1
  Si  Si13  1  0.670078  0.835039  0.498460  1
  Si  Si14  1  0.835118  0.670235  0.003849  1
  Si  Si15  1  0.329765  0.164882  0.496151  1
  Si  Si16  1  0.164961  0.835039  0.498460  1
  Si  Si17  1  0.835118  0.670235  0.496151  1
  Si  Si18  1  0.835118  0.164882  0.003849  1
  Si  Si19  1  0.835118  0.164882  0.496151  1
  Pt  Pt20  1  0.333333  0.666667  0.998175  1
  Pt  Pt21  1  0.333333  0.666667  0.501825  1
  Pt  Pt22  1  0.666667  0.333333  0.002943  1
  Pt  Pt23  1  0.666667  0.333333  0.497057  1
