# generated using pymatgen
data_KLuUSe4
_symmetry_space_group_name_H-M   'P 1'
_cell_length_a   4.19297300
_cell_length_b   7.05037805
_cell_length_c   8.35370700
_cell_angle_alpha   73.80272301
_cell_angle_beta   90.00000000
_cell_angle_gamma   90.00000000
_symmetry_Int_Tables_number   1
_chemical_formula_structural   KLuUSe4
_chemical_formula_sum   'K1 Lu1 U1 Se4'
_cell_volume   237.15035485
_cell_formula_units_Z   1
loop_
 _symmetry_equiv_pos_site_id
 _symmetry_equiv_pos_as_xyz
  1  'x, y, z'
loop_
 _atom_site_type_symbol
 _atom_site_label
 _atom_site_symmetry_multiplicity
 _atom_site_fract_x
 _atom_site_fract_y
 _atom_site_fract_z
 _atom_site_occupancy
  K  K0  1  0.000000  0.500000  0.500000  1
  Lu  Lu1  1  0.500000  0.500000  0.000000  1
  U  U2  1  0.000000  0.000000  0.000000  1
  Se  Se3  1  0.500000  0.769749  0.196716  1
  Se  Se4  1  0.000000  0.270993  0.190779  1
  Se  Se5  1  0.500000  0.230251  0.803284  1
  Se  Se6  1  0.000000  0.729007  0.809221  1
