# generated using pymatgen
data_K(NbS2)3
_symmetry_space_group_name_H-M   'P 1'
_cell_length_a   5.84684500
_cell_length_b   5.84684382
_cell_length_c   16.61859300
_cell_angle_alpha   90.00000000
_cell_angle_beta   90.00000000
_cell_angle_gamma   119.99773186
_symmetry_Int_Tables_number   1
_chemical_formula_structural   K(NbS2)3
_chemical_formula_sum   'K2 Nb6 S12'
_cell_volume   492.01447874
_cell_formula_units_Z   2
loop_
 _symmetry_equiv_pos_site_id
 _symmetry_equiv_pos_as_xyz
  1  'x, y, z'
loop_
 _atom_site_type_symbol
 _atom_site_label
 _atom_site_symmetry_multiplicity
 _atom_site_fract_x
 _atom_site_fract_y
 _atom_site_fract_z
 _atom_site_occupancy
  K  K0  1  0.000000  0.000000  0.250000  1
  K  K1  1  0.000000  0.000000  0.750000  1
  Nb  Nb2  1  0.666531  0.333181  0.000000  1
  Nb  Nb3  1  0.333182  0.666534  0.000000  1
  Nb  Nb4  1  0.999871  0.999871  0.000000  1
  Nb  Nb5  1  0.000129  0.000130  0.500000  1
  Nb  Nb6  1  0.666820  0.333469  0.500000  1
  Nb  Nb7  1  0.333468  0.666819  0.500000  1
  S  S8  1  0.999854  0.665814  0.093650  1
  S  S9  1  0.665814  0.999855  0.093650  1
  S  S10  1  0.333904  0.333906  0.093648  1
  S  S11  1  0.666094  0.666095  0.406352  1
  S  S12  1  0.334187  0.000146  0.406350  1
  S  S13  1  0.000144  0.334185  0.406350  1
  S  S14  1  0.334187  0.000146  0.593650  1
  S  S15  1  0.000144  0.334185  0.593650  1
  S  S16  1  0.666094  0.666095  0.593648  1
  S  S17  1  0.333904  0.333906  0.906352  1
  S  S18  1  0.999854  0.665814  0.906349  1
  S  S19  1  0.665814  0.999855  0.906349  1
