# generated using pymatgen
data_Hf4Ti2Rh9Au
_symmetry_space_group_name_H-M   'P 1'
_cell_length_a   4.22536700
_cell_length_b   5.55300316
_cell_length_c   10.87092600
_cell_angle_alpha   89.01584324
_cell_angle_beta   90.00000000
_cell_angle_gamma   90.00000000
_symmetry_Int_Tables_number   1
_chemical_formula_structural   Hf4Ti2Rh9Au
_chemical_formula_sum   'Hf4 Ti2 Rh9 Au1'
_cell_volume   255.03208758
_cell_formula_units_Z   1
loop_
 _symmetry_equiv_pos_site_id
 _symmetry_equiv_pos_as_xyz
  1  'x, y, z'
loop_
 _atom_site_type_symbol
 _atom_site_label
 _atom_site_symmetry_multiplicity
 _atom_site_fract_x
 _atom_site_fract_y
 _atom_site_fract_z
 _atom_site_occupancy
  Hf  Hf0  1  0.500000  0.142118  0.637827  1
  Hf  Hf1  1  0.500000  0.835012  0.355383  1
  Hf  Hf2  1  0.500000  0.681245  0.863813  1
  Hf  Hf3  1  0.500000  0.339868  0.144514  1
  Ti  Ti4  1  0.000000  0.488717  0.490141  1
  Ti  Ti5  1  0.000000  0.010509  0.003176  1
  Rh  Rh6  1  0.500000  0.184844  0.895650  1
  Rh  Rh7  1  0.500000  0.823993  0.105125  1
  Rh  Rh8  1  0.500000  0.661801  0.603739  1
  Rh  Rh9  1  0.500000  0.315297  0.394990  1
  Rh  Rh10  1  0.000000  0.594665  0.262055  1
  Rh  Rh11  1  0.000000  0.991873  0.497683  1
  Rh  Rh12  1  0.000000  0.508336  0.003911  1
  Rh  Rh13  1  0.000000  0.093610  0.237055  1
  Rh  Rh14  1  0.000000  0.912757  0.758541  1
  Au  Au15  1  0.000000  0.415354  0.746398  1
