# generated using pymatgen
data_Dy8Re3B24Rh
_symmetry_space_group_name_H-M   'P 1'
_cell_length_a   3.68429600
_cell_length_b   9.17625099
_cell_length_c   11.55390064
_cell_angle_alpha   90.16932564
_cell_angle_beta   90.00000000
_cell_angle_gamma   90.00000000
_symmetry_Int_Tables_number   1
_chemical_formula_structural   Dy8Re3B24Rh
_chemical_formula_sum   'Dy8 Re3 B24 Rh1'
_cell_volume   390.61285411
_cell_formula_units_Z   1
loop_
 _symmetry_equiv_pos_site_id
 _symmetry_equiv_pos_as_xyz
  1  'x, y, z'
loop_
 _atom_site_type_symbol
 _atom_site_label
 _atom_site_symmetry_multiplicity
 _atom_site_fract_x
 _atom_site_fract_y
 _atom_site_fract_z
 _atom_site_occupancy
  Dy  Dy0  1  0.000000  0.319088  0.415490  1
  Dy  Dy1  1  0.000000  0.677758  0.590976  1
  Dy  Dy2  1  0.000000  0.827096  0.081651  1
  Dy  Dy3  1  0.000000  0.176699  0.912770  1
  Dy  Dy4  1  0.000000  0.943693  0.369886  1
  Dy  Dy5  1  0.000000  0.055574  0.628906  1
  Dy  Dy6  1  0.000000  0.441476  0.129123  1
  Dy  Dy7  1  0.000000  0.556417  0.871639  1
  Re  Re8  1  0.000000  0.362365  0.677488  1
  Re  Re9  1  0.000000  0.138540  0.179855  1
  Re  Re10  1  0.000000  0.861403  0.821013  1
  B  B11  1  0.500000  0.554191  0.433492  1
  B  B12  1  0.500000  0.446473  0.566725  1
  B  B13  1  0.500000  0.053536  0.066643  1
  B  B14  1  0.500000  0.946689  0.932790  1
  B  B15  1  0.500000  0.749155  0.420201  1
  B  B16  1  0.500000  0.250797  0.580945  1
  B  B17  1  0.500000  0.249148  0.081270  1
  B  B18  1  0.500000  0.751683  0.918912  1
  B  B19  1  0.500000  0.791217  0.265353  1
  B  B20  1  0.500000  0.208285  0.733923  1
  B  B21  1  0.500000  0.291791  0.234888  1
  B  B22  1  0.500000  0.708021  0.765973  1
  B  B23  1  0.500000  0.632324  0.184429  1
  B  B24  1  0.500000  0.368913  0.813886  1
  B  B25  1  0.500000  0.131450  0.314573  1
  B  B26  1  0.500000  0.867937  0.685728  1
  B  B27  1  0.500000  0.983771  0.211876  1
  B  B28  1  0.500000  0.016557  0.787243  1
  B  B29  1  0.500000  0.483875  0.288049  1
  B  B30  1  0.500000  0.517538  0.712251  1
  B  B31  1  0.500000  0.604322  0.029555  1
  B  B32  1  0.500000  0.396859  0.971947  1
  B  B33  1  0.500000  0.102970  0.470699  1
  B  B34  1  0.500000  0.894242  0.528507  1
  Rh  Rh35  1  0.000000  0.638148  0.321346  1
