# generated using pymatgen
data_ZnP6RuO18
_symmetry_space_group_name_H-M   'P 1'
_cell_length_a   5.13828185
_cell_length_b   7.06059995
_cell_length_c   10.54395200
_cell_angle_alpha   98.78918733
_cell_angle_beta   92.56793326
_cell_angle_gamma   94.04543552
_symmetry_Int_Tables_number   1
_chemical_formula_structural   ZnP6RuO18
_chemical_formula_sum   'Zn1 P6 Ru1 O18'
_cell_volume   376.49400525
_cell_formula_units_Z   1
loop_
 _symmetry_equiv_pos_site_id
 _symmetry_equiv_pos_as_xyz
  1  'x, y, z'
loop_
 _atom_site_type_symbol
 _atom_site_label
 _atom_site_symmetry_multiplicity
 _atom_site_fract_x
 _atom_site_fract_y
 _atom_site_fract_z
 _atom_site_occupancy
  Zn  Zn0  1  0.000000  0.500000  0.500000  1
  P  P1  1  0.493112  0.329986  0.639775  1
  P  P2  1  0.506888  0.670014  0.360225  1
  P  P3  1  0.482648  0.036711  0.818291  1
  P  P4  1  0.517352  0.963289  0.181709  1
  P  P5  1  0.241135  0.313081  0.229977  1
  P  P6  1  0.758865  0.686919  0.770023  1
  Ru  Ru7  1  0.000000  0.000000  0.000000  1
  O  O8  1  0.316647  0.887126  0.070562  1
  O  O9  1  0.683353  0.112874  0.929438  1
  O  O10  1  0.461518  0.870354  0.304129  1
  O  O11  1  0.538482  0.129646  0.695871  1
  O  O12  1  0.620347  0.479152  0.767575  1
  O  O13  1  0.379653  0.520848  0.232425  1
  O  O14  1  0.915123  0.710196  0.657962  1
  O  O15  1  0.084877  0.289804  0.342038  1
  O  O16  1  0.664387  0.332191  0.529823  1
  O  O17  1  0.335613  0.667809  0.470177  1
  O  O18  1  0.493565  0.184814  0.227518  1
  O  O19  1  0.506435  0.815186  0.772482  1
  O  O20  1  0.895864  0.737374  0.905622  1
  O  O21  1  0.104136  0.262626  0.094378  1
  O  O22  1  0.798620  0.933191  0.147777  1
  O  O23  1  0.201380  0.066809  0.852223  1
  O  O24  1  0.791830  0.646106  0.372195  1
  O  O25  1  0.208170  0.353894  0.627805  1
