# generated using pymatgen
data_Ho4Zn3(Ga5Pd2)3
_symmetry_space_group_name_H-M   'P 1'
_cell_length_a   7.61018125
_cell_length_b   7.63595557
_cell_length_c   9.52660400
_cell_angle_alpha   90.00000000
_cell_angle_beta   90.00000000
_cell_angle_gamma   119.22415521
_symmetry_Int_Tables_number   1
_chemical_formula_structural   Ho4Zn3(Ga5Pd2)3
_chemical_formula_sum   'Ho4 Zn3 Ga15 Pd6'
_cell_volume   483.13622911
_cell_formula_units_Z   1
loop_
 _symmetry_equiv_pos_site_id
 _symmetry_equiv_pos_as_xyz
  1  'x, y, z'
loop_
 _atom_site_type_symbol
 _atom_site_label
 _atom_site_symmetry_multiplicity
 _atom_site_fract_x
 _atom_site_fract_y
 _atom_site_fract_z
 _atom_site_occupancy
  Ho  Ho0  1  0.996712  0.670685  0.250000  1
  Ho  Ho1  1  0.003126  0.330004  0.750000  1
  Ho  Ho2  1  0.672885  0.999478  0.250000  1
  Ho  Ho3  1  0.329427  0.002671  0.750000  1
  Zn  Zn4  1  0.138788  0.137185  0.250000  1
  Zn  Zn5  1  0.866328  0.865730  0.750000  1
  Zn  Zn6  1  0.341863  0.544773  0.250000  1
  Ga  Ga7  1  0.006137  0.336296  0.086280  1
  Ga  Ga8  1  0.997070  0.666816  0.917286  1
  Ga  Ga9  1  0.997070  0.666816  0.582714  1
  Ga  Ga10  1  0.333363  0.999973  0.415590  1
  Ga  Ga11  1  0.006137  0.336296  0.413720  1
  Ga  Ga12  1  0.667722  0.998708  0.583375  1
  Ga  Ga13  1  0.667722  0.998708  0.916625  1
  Ga  Ga14  1  0.333363  0.999973  0.084410  1
  Ga  Ga15  1  0.330504  0.330223  0.562670  1
  Ga  Ga16  1  0.664391  0.667343  0.431484  1
  Ga  Ga17  1  0.664391  0.667343  0.068516  1
  Ga  Ga18  1  0.330504  0.330223  0.937330  1
  Ga  Ga19  1  0.658051  0.454718  0.750000  1
  Ga  Ga20  1  0.539927  0.341382  0.250000  1
  Ga  Ga21  1  0.456785  0.657561  0.750000  1
  Pd  Pd22  1  0.673815  0.326853  0.999919  1
  Pd  Pd23  1  0.326706  0.673441  0.996337  1
  Pd  Pd24  1  0.326706  0.673441  0.503663  1
  Pd  Pd25  1  0.673815  0.326853  0.500081  1
  Pd  Pd26  1  0.998348  0.998253  0.000742  1
  Pd  Pd27  1  0.998348  0.998253  0.499258  1
