# generated using pymatgen
data_Na28SrYbSn8
_symmetry_space_group_name_H-M   'P 1'
_cell_length_a   11.45016467
_cell_length_b   11.44667610
_cell_length_c   11.44108515
_cell_angle_alpha   109.70651967
_cell_angle_beta   109.37006325
_cell_angle_gamma   109.33183448
_symmetry_Int_Tables_number   1
_chemical_formula_structural   Na28SrYbSn8
_chemical_formula_sum   'Na28 Sr1 Yb1 Sn8'
_cell_volume   1154.41068527
_cell_formula_units_Z   1
loop_
 _symmetry_equiv_pos_site_id
 _symmetry_equiv_pos_as_xyz
  1  'x, y, z'
loop_
 _atom_site_type_symbol
 _atom_site_label
 _atom_site_symmetry_multiplicity
 _atom_site_fract_x
 _atom_site_fract_y
 _atom_site_fract_z
 _atom_site_occupancy
  Na  Na0  1  0.749848  0.874677  0.123091  1
  Na  Na1  1  0.125441  0.749700  0.876147  1
  Na  Na2  1  0.372856  0.250802  0.625994  1
  Na  Na3  1  0.875499  0.124212  0.749512  1
  Na  Na4  1  0.080843  0.268289  0.107521  1
  Na  Na5  1  0.691030  0.029978  0.916126  1
  Na  Na6  1  0.888518  0.471423  0.153994  1
  Na  Na7  1  0.160289  0.892503  0.471821  1
  Na  Na8  1  0.337871  0.810160  0.730475  1
  Na  Na9  1  0.722864  0.335270  0.808494  1
  Na  Na10  1  0.028333  0.916443  0.691683  1
  Na  Na11  1  0.224953  0.308302  0.839647  1
  Na  Na12  1  0.192503  0.411512  0.532854  1
  Na  Na13  1  0.970501  0.384998  0.662237  1
  Na  Na14  1  0.308904  0.842129  0.220853  1
  Na  Na15  1  0.523326  0.184868  0.421525  1
  Na  Na16  1  0.387736  0.665057  0.971280  1
  Na  Na17  1  0.111800  0.083103  0.275345  1
  Na  Na18  1  0.261487  0.101303  0.076398  1
  Na  Na19  1  0.848031  0.216737  0.309622  1
  Na  Na20  1  0.411737  0.536271  0.185362  1
  Na  Na21  1  0.662779  0.971170  0.386579  1
  Na  Na22  1  0.623745  0.778746  0.589079  1
  Na  Na23  1  0.584236  0.614320  0.778393  1
  Na  Na24  1  0.784105  0.593681  0.630175  1
  Na  Na25  1  0.815384  0.738139  0.339238  1
  Na  Na26  1  0.916492  0.692928  0.030556  1
  Na  Na27  1  0.461921  0.152476  0.869891  1
  Sr  Sr28  1  0.624655  0.374001  0.249238  1
  Yb  Yb29  1  0.251929  0.627082  0.377089  1
  Sn  Sn30  1  0.417797  0.424873  0.413936  1
  Sn  Sn31  1  0.490910  0.985128  0.574862  1
  Sn  Sn32  1  0.582751  0.496150  0.003572  1
  Sn  Sn33  1  0.000862  0.578303  0.490965  1
  Sn  Sn34  1  0.088559  0.505410  0.010906  1
  Sn  Sn35  1  0.002801  0.087035  0.503012  1
  Sn  Sn36  1  0.502560  0.008137  0.086246  1
  Sn  Sn37  1  0.914144  0.914686  0.916284  1
