# generated using pymatgen
data_Li4GaFe3Br16
_symmetry_space_group_name_H-M   'P 1'
_cell_length_a   7.34881115
_cell_length_b   7.54514370
_cell_length_c   13.93834847
_cell_angle_alpha   87.73902277
_cell_angle_beta   90.01515720
_cell_angle_gamma   90.15990240
_symmetry_Int_Tables_number   1
_chemical_formula_structural   Li4GaFe3Br16
_chemical_formula_sum   'Li4 Ga1 Fe3 Br16'
_cell_volume   772.24657807
_cell_formula_units_Z   1
loop_
 _symmetry_equiv_pos_site_id
 _symmetry_equiv_pos_as_xyz
  1  'x, y, z'
loop_
 _atom_site_type_symbol
 _atom_site_label
 _atom_site_symmetry_multiplicity
 _atom_site_fract_x
 _atom_site_fract_y
 _atom_site_fract_z
 _atom_site_occupancy
  Li  Li0  1  0.479637  0.847761  0.873136  1
  Li  Li1  1  0.520457  0.151114  0.127208  1
  Li  Li2  1  0.978706  0.152523  0.626210  1
  Li  Li3  1  0.020522  0.849076  0.372398  1
  Ga  Ga4  1  0.174149  0.706507  0.600477  1
  Fe  Fe5  1  0.826179  0.290062  0.399392  1
  Fe  Fe6  1  0.674061  0.290606  0.899713  1
  Fe  Fe7  1  0.325946  0.709742  0.100442  1
  Br  Br8  1  0.176887  0.433154  0.687551  1
  Br  Br9  1  0.825059  0.565240  0.314856  1
  Br  Br10  1  0.674763  0.565768  0.815059  1
  Br  Br11  1  0.325378  0.434565  0.185071  1
  Br  Br12  1  0.315841  0.932674  0.690084  1
  Br  Br13  1  0.682450  0.067773  0.309255  1
  Br  Br14  1  0.817126  0.068997  0.809499  1
  Br  Br15  1  0.182766  0.931745  0.190605  1
  Br  Br16  1  0.187334  0.693021  0.949042  1
  Br  Br17  1  0.812590  0.306836  0.051235  1
  Br  Br18  1  0.687424  0.306471  0.550832  1
  Br  Br19  1  0.312402  0.694653  0.448205  1
  Br  Br20  1  0.873988  0.816312  0.570126  1
  Br  Br21  1  0.126492  0.185506  0.430175  1
  Br  Br22  1  0.373397  0.184244  0.929955  1
  Br  Br23  1  0.626447  0.815649  0.069473  1
