# generated using pymatgen
data_Sm8Er(IO8)3
_symmetry_space_group_name_H-M   'P 1'
_cell_length_a   5.60085874
_cell_length_b   7.86427628
_cell_length_c   11.88937700
_cell_angle_alpha   76.15713648
_cell_angle_beta   90.12691126
_cell_angle_gamma   89.81209639
_symmetry_Int_Tables_number   1
_chemical_formula_structural   Sm8Er(IO8)3
_chemical_formula_sum   'Sm8 Er1 I3 O24'
_cell_volume   508.47244703
_cell_formula_units_Z   1
loop_
 _symmetry_equiv_pos_site_id
 _symmetry_equiv_pos_as_xyz
  1  'x, y, z'
loop_
 _atom_site_type_symbol
 _atom_site_label
 _atom_site_symmetry_multiplicity
 _atom_site_fract_x
 _atom_site_fract_y
 _atom_site_fract_z
 _atom_site_occupancy
  Sm  Sm0  1  0.741686  0.971675  0.758119  1
  Sm  Sm1  1  0.257930  0.001801  0.257291  1
  Sm  Sm2  1  0.194051  0.779335  0.590015  1
  Sm  Sm3  1  0.805027  0.804761  0.066134  1
  Sm  Sm4  1  0.680588  0.508457  0.748405  1
  Sm  Sm5  1  0.299732  0.509971  0.244098  1
  Sm  Sm6  1  0.222213  0.188963  0.922775  1
  Sm  Sm7  1  0.801816  0.221205  0.426643  1
  Er  Er8  1  0.256085  0.707677  0.893458  1
  I  I9  1  0.745740  0.735500  0.382292  1
  I  I10  1  0.246747  0.268749  0.611886  1
  I  I11  1  0.752015  0.274627  0.119878  1
  O  O12  1  0.012202  0.948326  0.902757  1
  O  O13  1  0.532377  0.881931  0.927602  1
  O  O14  1  0.925431  0.949155  0.392864  1
  O  O15  1  0.479156  0.771026  0.719054  1
  O  O16  1  0.467815  0.838057  0.432448  1
  O  O17  1  0.969211  0.712965  0.755682  1
  O  O18  1  0.568936  0.810414  0.234446  1
  O  O19  1  0.854433  0.640633  0.531591  1
  O  O20  1  0.394078  0.452949  0.879322  1
  O  O21  1  0.020228  0.714778  0.289338  1
  O  O22  1  0.374915  0.489368  0.608612  1
  O  O23  1  0.887692  0.355880  0.973078  1
  O  O24  1  0.151844  0.652085  0.079053  1
  O  O25  1  0.633102  0.512682  0.375481  1
  O  O26  1  0.978931  0.301647  0.706239  1
  O  O27  1  0.626802  0.499225  0.110708  1
  O  O28  1  0.141438  0.363123  0.455865  1
  O  O29  1  0.413897  0.178438  0.753478  1
  O  O30  1  0.010637  0.296877  0.230523  1
  O  O31  1  0.509904  0.162484  0.554363  1
  O  O32  1  0.558757  0.213651  0.268113  1
  O  O33  1  0.059412  0.064378  0.598319  1
  O  O34  1  0.485366  0.155199  0.076548  1
  O  O35  1  0.939805  0.062011  0.123524  1
