# generated using pymatgen
data_YHo2Cu4(SiSn)2
_symmetry_space_group_name_H-M   'P 1'
_cell_length_a   8.19028390
_cell_length_b   8.19028490
_cell_length_c   8.19028354
_cell_angle_alpha   149.33874772
_cell_angle_beta   132.09315297
_cell_angle_gamma   57.95836441
_symmetry_Int_Tables_number   1
_chemical_formula_structural   YHo2Cu4(SiSn)2
_chemical_formula_sum   'Y1 Ho2 Cu4 Si2 Sn2'
_cell_volume   206.36012417
_cell_formula_units_Z   1
loop_
 _symmetry_equiv_pos_site_id
 _symmetry_equiv_pos_as_xyz
  1  'x, y, z'
loop_
 _atom_site_type_symbol
 _atom_site_label
 _atom_site_symmetry_multiplicity
 _atom_site_fract_x
 _atom_site_fract_y
 _atom_site_fract_z
 _atom_site_occupancy
  Y  Y0  1  0.500000  0.000000  0.500000  1
  Ho  Ho1  1  0.123912  0.123912  0.000000  1
  Ho  Ho2  1  0.876088  0.876088  0.000000  1
  Cu  Cu3  1  0.464226  0.653358  0.810868  1
  Cu  Cu4  1  0.842489  0.653358  0.189132  1
  Cu  Cu5  1  0.157511  0.346642  0.810868  1
  Cu  Cu6  1  0.535774  0.346642  0.189132  1
  Si  Si7  1  0.180715  0.500000  0.680715  1
  Si  Si8  1  0.819285  0.500000  0.319285  1
  Sn  Sn9  1  0.718509  0.218509  0.500000  1
  Sn  Sn10  1  0.281491  0.781491  0.500000  1
