# generated using pymatgen
data_Tm10Si6N
_symmetry_space_group_name_H-M   'P 1'
_cell_length_a   8.28658000
_cell_length_b   8.28658105
_cell_length_c   6.23026900
_cell_angle_alpha   90.00000000
_cell_angle_beta   90.00000000
_cell_angle_gamma   119.99999582
_symmetry_Int_Tables_number   1
_chemical_formula_structural   Tm10Si6N
_chemical_formula_sum   'Tm10 Si6 N1'
_cell_volume   370.49995376
_cell_formula_units_Z   1
loop_
 _symmetry_equiv_pos_site_id
 _symmetry_equiv_pos_as_xyz
  1  'x, y, z'
loop_
 _atom_site_type_symbol
 _atom_site_label
 _atom_site_symmetry_multiplicity
 _atom_site_fract_x
 _atom_site_fract_y
 _atom_site_fract_z
 _atom_site_occupancy
  Tm  Tm0  1  0.333333  0.666667  0.500000  1
  Tm  Tm1  1  0.666667  0.333333  0.500000  1
  Tm  Tm2  1  0.666667  0.333333  0.000000  1
  Tm  Tm3  1  0.333333  0.666667  0.000000  1
  Tm  Tm4  1  0.000000  0.767682  0.266284  1
  Tm  Tm5  1  0.232318  0.232318  0.266284  1
  Tm  Tm6  1  0.767682  0.000000  0.266284  1
  Tm  Tm7  1  0.000000  0.232318  0.733716  1
  Tm  Tm8  1  0.767682  0.767682  0.733716  1
  Tm  Tm9  1  0.232318  0.000000  0.733716  1
  Si  Si10  1  0.000000  0.399680  0.251388  1
  Si  Si11  1  0.600320  0.600320  0.251388  1
  Si  Si12  1  0.399680  0.000000  0.251388  1
  Si  Si13  1  0.000000  0.600320  0.748612  1
  Si  Si14  1  0.399680  0.399680  0.748612  1
  Si  Si15  1  0.600320  0.000000  0.748612  1
  N  N16  1  0.000000  0.000000  0.500000  1
