# generated using pymatgen
data_Hf3GaCu4Si
_symmetry_space_group_name_H-M   'P 1'
_cell_length_a   6.36361800
_cell_length_b   6.36361950
_cell_length_c   3.98023800
_cell_angle_alpha   90.00000000
_cell_angle_beta   90.00000000
_cell_angle_gamma   120.00000261
_symmetry_Int_Tables_number   1
_chemical_formula_structural   Hf3GaCu4Si
_chemical_formula_sum   'Hf3 Ga1 Cu4 Si1'
_cell_volume   139.58796226
_cell_formula_units_Z   1
loop_
 _symmetry_equiv_pos_site_id
 _symmetry_equiv_pos_as_xyz
  1  'x, y, z'
loop_
 _atom_site_type_symbol
 _atom_site_label
 _atom_site_symmetry_multiplicity
 _atom_site_fract_x
 _atom_site_fract_y
 _atom_site_fract_z
 _atom_site_occupancy
  Hf  Hf0  1  0.002561  0.590374  0.500000  1
  Hf  Hf1  1  0.409626  0.412187  0.500000  1
  Hf  Hf2  1  0.587813  0.997439  0.500000  1
  Ga  Ga3  1  0.666667  0.333333  0.000000  1
  Cu  Cu4  1  0.238632  0.992485  0.000000  1
  Cu  Cu5  1  0.007515  0.246146  0.000000  1
  Cu  Cu6  1  0.000000  0.000000  0.500000  1
  Cu  Cu7  1  0.753854  0.761368  0.000000  1
  Si  Si8  1  0.333333  0.666667  0.000000  1
