# generated using pymatgen
data_Ho4CS3
_symmetry_space_group_name_H-M   'P 1'
_cell_length_a   6.61614263
_cell_length_b   6.61614212
_cell_length_c   6.65586600
_cell_angle_alpha   79.32192402
_cell_angle_beta   79.32192486
_cell_angle_gamma   32.45002288
_symmetry_Int_Tables_number   1
_chemical_formula_structural   Ho4CS3
_chemical_formula_sum   'Ho4 C1 S3'
_cell_volume   153.38913995
_cell_formula_units_Z   1
loop_
 _symmetry_equiv_pos_site_id
 _symmetry_equiv_pos_as_xyz
  1  'x, y, z'
loop_
 _atom_site_type_symbol
 _atom_site_label
 _atom_site_symmetry_multiplicity
 _atom_site_fract_x
 _atom_site_fract_y
 _atom_site_fract_z
 _atom_site_occupancy
  Ho  Ho0  1  0.234420  0.234420  0.230647  1
  Ho  Ho1  1  0.508562  0.508562  0.468880  1
  Ho  Ho2  1  0.741426  0.741426  0.781114  1
  Ho  Ho3  1  0.015576  0.015576  0.019335  1
  C  C4  1  0.625017  0.625017  0.125049  1
  S  S5  1  0.867613  0.867613  0.378965  1
  S  S6  1  0.124997  0.124997  0.624984  1
  S  S7  1  0.382389  0.382389  0.871028  1
