# generated using pymatgen
data_Eu2Dy3Ho(SbO7)2
_symmetry_space_group_name_H-M   'P 1'
_cell_length_a   6.50269201
_cell_length_b   6.50017197
_cell_length_c   7.57508200
_cell_angle_alpha   90.00000000
_cell_angle_beta   90.00000000
_cell_angle_gamma   108.72572844
_symmetry_Int_Tables_number   1
_chemical_formula_structural   Eu2Dy3Ho(SbO7)2
_chemical_formula_sum   'Eu2 Dy3 Ho1 Sb2 O14'
_cell_volume   303.23945840
_cell_formula_units_Z   1
loop_
 _symmetry_equiv_pos_site_id
 _symmetry_equiv_pos_as_xyz
  1  'x, y, z'
loop_
 _atom_site_type_symbol
 _atom_site_label
 _atom_site_symmetry_multiplicity
 _atom_site_fract_x
 _atom_site_fract_y
 _atom_site_fract_z
 _atom_site_occupancy
  Eu  Eu0  1  0.499885  0.499963  0.500148  1
  Eu  Eu1  1  0.499885  0.499963  0.999852  1
  Dy  Dy2  1  0.531755  0.000309  0.750000  1
  Dy  Dy3  1  0.000293  0.531635  0.250000  1
  Dy  Dy4  1  0.468292  0.999732  0.250000  1
  Ho  Ho5  1  0.999442  0.468638  0.750000  1
  Sb  Sb6  1  0.999974  0.999906  0.500303  1
  Sb  Sb7  1  0.999974  0.999906  0.999697  1
  O  O8  1  0.680040  0.933490  0.470037  1
  O  O9  1  0.933967  0.679921  0.530588  1
  O  O10  1  0.680040  0.933490  0.029963  1
  O  O11  1  0.933967  0.679921  0.969412  1
  O  O12  1  0.320095  0.066454  0.529954  1
  O  O13  1  0.066205  0.320102  0.470615  1
  O  O14  1  0.320095  0.066454  0.970046  1
  O  O15  1  0.066205  0.320102  0.029385  1
  O  O16  1  0.930473  0.070165  0.750000  1
  O  O17  1  0.069495  0.930279  0.250000  1
  O  O18  1  0.364820  0.633226  0.750000  1
  O  O19  1  0.633710  0.366187  0.250000  1
  O  O20  1  0.640607  0.360848  0.750000  1
  O  O21  1  0.360782  0.639308  0.250000  1
