# generated using pymatgen
data_CaHf(NbSe2)8
_symmetry_space_group_name_H-M   'P 1'
_cell_length_a   7.01605800
_cell_length_b   7.01605710
_cell_length_c   14.17760300
_cell_angle_alpha   90.00000000
_cell_angle_beta   90.00000000
_cell_angle_gamma   119.99999482
_symmetry_Int_Tables_number   1
_chemical_formula_structural   CaHf(NbSe2)8
_chemical_formula_sum   'Ca1 Hf1 Nb8 Se16'
_cell_volume   604.39345250
_cell_formula_units_Z   1
loop_
 _symmetry_equiv_pos_site_id
 _symmetry_equiv_pos_as_xyz
  1  'x, y, z'
loop_
 _atom_site_type_symbol
 _atom_site_label
 _atom_site_symmetry_multiplicity
 _atom_site_fract_x
 _atom_site_fract_y
 _atom_site_fract_z
 _atom_site_occupancy
  Ca  Ca0  1  0.000000  0.000000  0.500000  1
  Hf  Hf1  1  0.000000  0.000000  0.000000  1
  Nb  Nb2  1  0.000000  0.000000  0.237702  1
  Nb  Nb3  1  0.000000  0.000000  0.762298  1
  Nb  Nb4  1  0.506505  0.013010  0.238311  1
  Nb  Nb5  1  0.986990  0.493495  0.238311  1
  Nb  Nb6  1  0.506505  0.493495  0.238311  1
  Nb  Nb7  1  0.493495  0.986990  0.761689  1
  Nb  Nb8  1  0.013010  0.506505  0.761689  1
  Nb  Nb9  1  0.493495  0.506505  0.761689  1
  Se  Se10  1  0.333333  0.666667  0.882401  1
  Se  Se11  1  0.666667  0.333333  0.117599  1
  Se  Se12  1  0.666667  0.333333  0.360353  1
  Se  Se13  1  0.333333  0.666667  0.639647  1
  Se  Se14  1  0.168938  0.831062  0.354991  1
  Se  Se15  1  0.168938  0.337875  0.354991  1
  Se  Se16  1  0.662125  0.831062  0.354991  1
  Se  Se17  1  0.831062  0.168938  0.645009  1
  Se  Se18  1  0.831062  0.662125  0.645009  1
  Se  Se19  1  0.337875  0.168938  0.645009  1
  Se  Se20  1  0.830829  0.169171  0.880274  1
  Se  Se21  1  0.830829  0.661660  0.880274  1
  Se  Se22  1  0.338340  0.169171  0.880274  1
  Se  Se23  1  0.169171  0.830829  0.119726  1
  Se  Se24  1  0.169171  0.338340  0.119726  1
  Se  Se25  1  0.661660  0.830829  0.119726  1
