# generated using pymatgen
data_BaPuPdSe3
_symmetry_space_group_name_H-M   'P 1'
_cell_length_a   7.44778758
_cell_length_b   7.44778792
_cell_length_c   10.52278700
_cell_angle_alpha   90.00000000
_cell_angle_beta   90.00000000
_cell_angle_gamma   146.83974779
_symmetry_Int_Tables_number   1
_chemical_formula_structural   BaPuPdSe3
_chemical_formula_sum   'Ba2 Pu2 Pd2 Se6'
_cell_volume   319.27056218
_cell_formula_units_Z   2
loop_
 _symmetry_equiv_pos_site_id
 _symmetry_equiv_pos_as_xyz
  1  'x, y, z'
loop_
 _atom_site_type_symbol
 _atom_site_label
 _atom_site_symmetry_multiplicity
 _atom_site_fract_x
 _atom_site_fract_y
 _atom_site_fract_z
 _atom_site_occupancy
  Ba  Ba0  1  0.250383  0.749619  0.250000  1
  Ba  Ba1  1  0.749619  0.250383  0.750000  1
  Pu  Pu2  1  0.000000  0.000000  0.000000  1
  Pu  Pu3  1  0.000000  0.000000  0.500000  1
  Pd  Pd4  1  0.527887  0.472115  0.250000  1
  Pd  Pd5  1  0.472115  0.527887  0.750000  1
  Se  Se6  1  0.633169  0.366833  0.052690  1
  Se  Se7  1  0.926049  0.073953  0.250000  1
  Se  Se8  1  0.633169  0.366833  0.447310  1
  Se  Se9  1  0.366833  0.633169  0.552690  1
  Se  Se10  1  0.073953  0.926049  0.750000  1
  Se  Se11  1  0.366833  0.633169  0.947310  1
