# generated using pymatgen
data_Be6Si6OsRh11
_symmetry_space_group_name_H-M   'P 1'
_cell_length_a   4.06271200
_cell_length_b   5.76024900
_cell_length_c   12.18805000
_cell_angle_alpha   90.00004340
_cell_angle_beta   90.00070514
_cell_angle_gamma   90.00023218
_symmetry_Int_Tables_number   1
_chemical_formula_structural   Be6Si6OsRh11
_chemical_formula_sum   'Be6 Si6 Os1 Rh11'
_cell_volume   285.22758268
_cell_formula_units_Z   1
loop_
 _symmetry_equiv_pos_site_id
 _symmetry_equiv_pos_as_xyz
  1  'x, y, z'
loop_
 _atom_site_type_symbol
 _atom_site_label
 _atom_site_symmetry_multiplicity
 _atom_site_fract_x
 _atom_site_fract_y
 _atom_site_fract_z
 _atom_site_occupancy
  Be  Be0  1  0.999999  0.497604  0.000000  1
  Be  Be1  1  0.499508  0.001580  0.165231  1
  Be  Be2  1  0.999513  0.499874  0.332931  1
  Be  Be3  1  0.500000  0.999809  0.500000  1
  Be  Be4  1  0.000484  0.499875  0.667069  1
  Be  Be5  1  0.500492  0.001581  0.834769  1
  Si  Si6  1  0.000000  0.004254  0.000000  1
  Si  Si7  1  0.499630  0.497848  0.164466  1
  Si  Si8  1  0.999620  0.999798  0.333073  1
  Si  Si9  1  0.500000  0.500293  0.499999  1
  Si  Si10  1  0.000381  0.999799  0.666926  1
  Si  Si11  1  0.500371  0.497848  0.835533  1
  Os  Os12  1  0.499999  0.248790  0.999999  1
  Rh  Rh13  1  0.500003  0.750460  0.999999  1
  Rh  Rh14  1  0.999742  0.250192  0.169609  1
  Rh  Rh15  1  0.999705  0.749962  0.168014  1
  Rh  Rh16  1  0.499734  0.250388  0.334283  1
  Rh  Rh17  1  0.499721  0.749752  0.333565  1
  Rh  Rh18  1  0.000001  0.249802  0.499999  1
  Rh  Rh19  1  0.999995  0.750200  0.500001  1
  Rh  Rh20  1  0.500267  0.250389  0.665718  1
  Rh  Rh21  1  0.500282  0.749753  0.666437  1
  Rh  Rh22  1  0.000257  0.250195  0.830391  1
  Rh  Rh23  1  0.000293  0.749961  0.831986  1
