# generated using pymatgen
data_La6IrAuI6
_symmetry_space_group_name_H-M   'P 1'
_cell_length_a   11.23173876
_cell_length_b   11.23173850
_cell_length_c   10.99094449
_cell_angle_alpha   109.42832263
_cell_angle_beta   109.42832608
_cell_angle_gamma   110.42661645
_symmetry_Int_Tables_number   1
_chemical_formula_structural   La6IrAuI6
_chemical_formula_sum   'La12 Ir2 Au2 I12'
_cell_volume   1055.66035813
_cell_formula_units_Z   2
loop_
 _symmetry_equiv_pos_site_id
 _symmetry_equiv_pos_as_xyz
  1  'x, y, z'
loop_
 _atom_site_type_symbol
 _atom_site_label
 _atom_site_symmetry_multiplicity
 _atom_site_fract_x
 _atom_site_fract_y
 _atom_site_fract_z
 _atom_site_occupancy
  La  La0  1  0.462223  0.487947  0.225896  1
  La  La1  1  0.762051  0.236326  0.274104  1
  La  La2  1  0.764627  0.027692  0.488212  1
  La  La3  1  0.223585  0.460522  0.488212  1
  La  La4  1  0.263674  0.737949  0.225896  1
  La  La5  1  0.039478  0.276415  0.011788  1
  La  La6  1  0.012053  0.037777  0.274104  1
  La  La7  1  0.472308  0.735373  0.011788  1
  La  La8  1  0.484403  0.234403  0.468807  1
  La  La9  1  0.020655  0.479345  0.750000  1
  La  La10  1  0.265597  0.015597  0.031193  1
  La  La11  1  0.229345  0.270655  0.750000  1
  Ir  Ir12  1  0.000298  0.250298  0.500596  1
  Ir  Ir13  1  0.249702  0.499702  0.999404  1
  Au  Au14  1  0.249927  0.250073  0.250000  1
  Au  Au15  1  0.500073  0.999927  0.250000  1
  I  I16  1  0.250969  0.760814  0.741814  1
  I  I17  1  0.519000  0.509155  0.758186  1
  I  I18  1  0.984568  0.742679  0.992899  1
  I  I19  1  0.739186  0.249031  0.758186  1
  I  I20  1  0.990845  0.981000  0.741814  1
  I  I21  1  0.249780  0.991668  0.507101  1
  I  I22  1  0.757321  0.515432  0.507101  1
  I  I23  1  0.508332  0.250220  0.992899  1
  I  I24  1  0.759118  0.740882  0.250000  1
  I  I25  1  0.741993  0.991993  0.983987  1
  I  I26  1  0.990882  0.509118  0.250000  1
  I  I27  1  0.508007  0.758007  0.516013  1
