# generated using pymatgen
data_Zr3ReSi(TcGe)2
_symmetry_space_group_name_H-M   'P 1'
_cell_length_a   7.08079826
_cell_length_b   7.08079724
_cell_length_c   3.45264900
_cell_angle_alpha   90.00000000
_cell_angle_beta   90.00000000
_cell_angle_gamma   119.98535282
_symmetry_Int_Tables_number   1
_chemical_formula_structural   Zr3ReSi(TcGe)2
_chemical_formula_sum   'Zr3 Re1 Si1 Tc2 Ge2'
_cell_volume   149.93793375
_cell_formula_units_Z   1
loop_
 _symmetry_equiv_pos_site_id
 _symmetry_equiv_pos_as_xyz
  1  'x, y, z'
loop_
 _atom_site_type_symbol
 _atom_site_label
 _atom_site_symmetry_multiplicity
 _atom_site_fract_x
 _atom_site_fract_y
 _atom_site_fract_z
 _atom_site_occupancy
  Zr  Zr0  1  0.400886  0.000385  0.500000  1
  Zr  Zr1  1  0.000385  0.400886  0.500000  1
  Zr  Zr2  1  0.598107  0.598107  0.500000  1
  Re  Re3  1  0.250694  0.250694  0.000000  1
  Si  Si4  1  0.998362  0.998362  0.500000  1
  Tc  Tc5  1  0.750371  0.000461  0.000000  1
  Tc  Tc6  1  0.000461  0.750371  0.000000  1
  Ge  Ge7  1  0.333462  0.667273  0.000000  1
  Ge  Ge8  1  0.667273  0.333462  0.000000  1
