# generated using pymatgen
data_YbDy(Al5Pt3)2
_symmetry_space_group_name_H-M   'P 1'
_cell_length_a   4.09483600
_cell_length_b   7.43790490
_cell_length_c   20.55761361
_cell_angle_alpha   90.47634320
_cell_angle_beta   90.00000000
_cell_angle_gamma   90.00000000
_symmetry_Int_Tables_number   1
_chemical_formula_structural   YbDy(Al5Pt3)2
_chemical_formula_sum   'Yb2 Dy2 Al20 Pt12'
_cell_volume   626.10161510
_cell_formula_units_Z   2
loop_
 _symmetry_equiv_pos_site_id
 _symmetry_equiv_pos_as_xyz
  1  'x, y, z'
loop_
 _atom_site_type_symbol
 _atom_site_label
 _atom_site_symmetry_multiplicity
 _atom_site_fract_x
 _atom_site_fract_y
 _atom_site_fract_z
 _atom_site_occupancy
  Yb  Yb0  1  0.250000  0.116650  0.639849  1
  Yb  Yb1  1  0.750000  0.883350  0.360151  1
  Dy  Dy2  1  0.250000  0.386707  0.139575  1
  Dy  Dy3  1  0.750000  0.613293  0.860425  1
  Al  Al4  1  0.750000  0.351914  0.380784  1
  Al  Al5  1  0.750000  0.883750  0.983853  1
  Al  Al6  1  0.750000  0.684898  0.200136  1
  Al  Al7  1  0.250000  0.871198  0.492524  1
  Al  Al8  1  0.250000  0.630809  0.991341  1
  Al  Al9  1  0.250000  0.315102  0.799864  1
  Al  Al10  1  0.750000  0.072397  0.209046  1
  Al  Al11  1  0.250000  0.648086  0.619216  1
  Al  Al12  1  0.250000  0.571872  0.290726  1
  Al  Al13  1  0.250000  0.187713  0.299426  1
  Al  Al14  1  0.750000  0.144305  0.882160  1
  Al  Al15  1  0.250000  0.927603  0.790954  1
  Al  Al16  1  0.750000  0.369191  0.008659  1
  Al  Al17  1  0.750000  0.616517  0.483645  1
  Al  Al18  1  0.750000  0.128802  0.507476  1
  Al  Al19  1  0.250000  0.116250  0.016147  1
  Al  Al20  1  0.250000  0.855695  0.117840  1
  Al  Al21  1  0.250000  0.383483  0.516355  1
  Al  Al22  1  0.750000  0.428128  0.709274  1
  Al  Al23  1  0.750000  0.812287  0.700574  1
  Pt  Pt24  1  0.750000  0.382236  0.257789  1
  Pt  Pt25  1  0.250000  0.880270  0.241049  1
  Pt  Pt26  1  0.250000  0.617764  0.742211  1
  Pt  Pt27  1  0.750000  0.119730  0.758951  1
  Pt  Pt28  1  0.250000  0.160051  0.426474  1
  Pt  Pt29  1  0.750000  0.417934  0.584749  1
  Pt  Pt30  1  0.750000  0.082991  0.085796  1
  Pt  Pt31  1  0.250000  0.917009  0.914204  1
  Pt  Pt32  1  0.750000  0.839949  0.573526  1
  Pt  Pt33  1  0.250000  0.339674  0.926169  1
  Pt  Pt34  1  0.750000  0.660326  0.073831  1
  Pt  Pt35  1  0.250000  0.582066  0.415251  1
