# generated using pymatgen
data_Er5InGa2
_symmetry_space_group_name_H-M   'P 1'
_cell_length_a   8.93267312
_cell_length_b   8.93267279
_cell_length_c   8.93267321
_cell_angle_alpha   128.91615517
_cell_angle_beta   128.91614801
_cell_angle_gamma   75.14552352
_symmetry_Int_Tables_number   1
_chemical_formula_structural   Er5InGa2
_chemical_formula_sum   'Er10 In2 Ga4'
_cell_volume   420.09463001
_cell_formula_units_Z   2
loop_
 _symmetry_equiv_pos_site_id
 _symmetry_equiv_pos_as_xyz
  1  'x, y, z'
loop_
 _atom_site_type_symbol
 _atom_site_label
 _atom_site_symmetry_multiplicity
 _atom_site_fract_x
 _atom_site_fract_y
 _atom_site_fract_z
 _atom_site_occupancy
  Er  Er0  1  0.000000  0.000000  0.000000  1
  Er  Er1  1  0.500000  0.500000  0.000000  1
  Er  Er2  1  0.810071  0.310071  0.830695  1
  Er  Er3  1  0.189929  0.689929  0.169305  1
  Er  Er4  1  0.479375  0.979375  0.169305  1
  Er  Er5  1  0.310071  0.479375  0.500000  1
  Er  Er6  1  0.020625  0.189929  0.500000  1
  Er  Er7  1  0.520625  0.020625  0.830695  1
  Er  Er8  1  0.689929  0.520625  0.500000  1
  Er  Er9  1  0.979375  0.810071  0.500000  1
  In  In10  1  0.250000  0.250000  0.000000  1
  In  In11  1  0.750000  0.750000  0.000000  1
  Ga  Ga12  1  0.125800  0.625800  0.751601  1
  Ga  Ga13  1  0.874200  0.374200  0.248399  1
  Ga  Ga14  1  0.625800  0.874200  0.500000  1
  Ga  Ga15  1  0.374200  0.125800  0.500000  1
