# generated using pymatgen
data_Yb2Pr2MnOs7
_symmetry_space_group_name_H-M   'P 1'
_cell_length_a   5.36810931
_cell_length_b   5.36810759
_cell_length_c   8.89731513
_cell_angle_alpha   90.00082540
_cell_angle_beta   89.99917692
_cell_angle_gamma   119.99823795
_symmetry_Int_Tables_number   1
_chemical_formula_structural   Yb2Pr2MnOs7
_chemical_formula_sum   'Yb2 Pr2 Mn1 Os7'
_cell_volume   222.04442737
_cell_formula_units_Z   1
loop_
 _symmetry_equiv_pos_site_id
 _symmetry_equiv_pos_as_xyz
  1  'x, y, z'
loop_
 _atom_site_type_symbol
 _atom_site_label
 _atom_site_symmetry_multiplicity
 _atom_site_fract_x
 _atom_site_fract_y
 _atom_site_fract_z
 _atom_site_occupancy
  Yb  Yb0  1  0.666653  0.333347  0.560346  1
  Yb  Yb1  1  0.333347  0.666653  0.439654  1
  Pr  Pr2  1  0.333375  0.666625  0.075079  1
  Pr  Pr3  1  0.666625  0.333375  0.924921  1
  Mn  Mn4  1  0.000000  0.000000  0.000000  1
  Os  Os5  1  0.000000  0.000000  0.500000  1
  Os  Os6  1  0.170366  0.340800  0.745755  1
  Os  Os7  1  0.170528  0.829472  0.745729  1
  Os  Os8  1  0.659200  0.829634  0.745755  1
  Os  Os9  1  0.829634  0.659200  0.254245  1
  Os  Os10  1  0.829472  0.170528  0.254271  1
  Os  Os11  1  0.340800  0.170366  0.254245  1
