# generated using pymatgen
data_Nd2LuPt2
_symmetry_space_group_name_H-M   'P 1'
_cell_length_a   7.65512709
_cell_length_b   7.65512692
_cell_length_c   7.65512694
_cell_angle_alpha   70.13997722
_cell_angle_beta   70.13997665
_cell_angle_gamma   70.13997868
_symmetry_Int_Tables_number   1
_chemical_formula_structural   Nd2LuPt2
_chemical_formula_sum   'Nd6 Lu3 Pt6'
_cell_volume   383.85414338
_cell_formula_units_Z   3
loop_
 _symmetry_equiv_pos_site_id
 _symmetry_equiv_pos_as_xyz
  1  'x, y, z'
loop_
 _atom_site_type_symbol
 _atom_site_label
 _atom_site_symmetry_multiplicity
 _atom_site_fract_x
 _atom_site_fract_y
 _atom_site_fract_z
 _atom_site_occupancy
  Nd  Nd0  1  0.334250  0.603307  0.840503  1
  Nd  Nd1  1  0.840503  0.334250  0.603307  1
  Nd  Nd2  1  0.603307  0.840503  0.334250  1
  Nd  Nd3  1  0.665750  0.396693  0.159497  1
  Nd  Nd4  1  0.159497  0.665750  0.396693  1
  Nd  Nd5  1  0.396693  0.159497  0.665750  1
  Lu  Lu6  1  0.000000  0.000000  0.000000  1
  Lu  Lu7  1  0.805145  0.805145  0.805145  1
  Lu  Lu8  1  0.194855  0.194855  0.194855  1
  Pt  Pt9  1  0.157474  0.963620  0.590049  1
  Pt  Pt10  1  0.590049  0.157474  0.963620  1
  Pt  Pt11  1  0.963620  0.590049  0.157474  1
  Pt  Pt12  1  0.842526  0.036380  0.409951  1
  Pt  Pt13  1  0.409951  0.842526  0.036380  1
  Pt  Pt14  1  0.036380  0.409951  0.842526  1
