# generated using pymatgen
data_Hf16Co4RuRh3
_symmetry_space_group_name_H-M   'P 1'
_cell_length_a   8.59114984
_cell_length_b   8.59196324
_cell_length_c   8.59267235
_cell_angle_alpha   59.89140952
_cell_angle_beta   59.89202320
_cell_angle_gamma   59.90428916
_symmetry_Int_Tables_number   1
_chemical_formula_structural   Hf16Co4RuRh3
_chemical_formula_sum   'Hf16 Co4 Ru1 Rh3'
_cell_volume   447.43516023
_cell_formula_units_Z   1
loop_
 _symmetry_equiv_pos_site_id
 _symmetry_equiv_pos_as_xyz
  1  'x, y, z'
loop_
 _atom_site_type_symbol
 _atom_site_label
 _atom_site_symmetry_multiplicity
 _atom_site_fract_x
 _atom_site_fract_y
 _atom_site_fract_z
 _atom_site_occupancy
  Hf  Hf0  1  0.062843  0.645560  0.645665  1
  Hf  Hf1  1  0.645538  0.062765  0.645807  1
  Hf  Hf2  1  0.645636  0.645819  0.062752  1
  Hf  Hf3  1  0.644709  0.644667  0.644627  1
  Hf  Hf4  1  0.804660  0.804594  0.195366  1
  Hf  Hf5  1  0.195993  0.195929  0.803060  1
  Hf  Hf6  1  0.804690  0.195377  0.804602  1
  Hf  Hf7  1  0.195993  0.803089  0.195889  1
  Hf  Hf8  1  0.195388  0.804663  0.804654  1
  Hf  Hf9  1  0.803052  0.196022  0.195998  1
  Hf  Hf10  1  0.436551  0.436618  0.066643  1
  Hf  Hf11  1  0.063619  0.063651  0.436539  1
  Hf  Hf12  1  0.436584  0.066618  0.436654  1
  Hf  Hf13  1  0.063592  0.436571  0.063611  1
  Hf  Hf14  1  0.066544  0.436686  0.436711  1
  Hf  Hf15  1  0.436496  0.063621  0.063606  1
  Co  Co16  1  0.428061  0.856764  0.856783  1
  Co  Co17  1  0.856836  0.427961  0.856764  1
  Co  Co18  1  0.856829  0.856765  0.427939  1
  Co  Co19  1  0.857813  0.857712  0.857722  1
  Ru  Ru20  1  0.415156  0.415094  0.415125  1
  Rh  Rh21  1  0.754513  0.414463  0.414436  1
  Rh  Rh22  1  0.414455  0.754502  0.414498  1
  Rh  Rh23  1  0.414445  0.414489  0.754550  1
