# generated using pymatgen
data_Nd8Er12Bi7Pb9
_symmetry_space_group_name_H-M   'P 1'
_cell_length_a   8.34695274
_cell_length_b   8.32955591
_cell_length_c   15.66665310
_cell_angle_alpha   90.13556283
_cell_angle_beta   90.07334841
_cell_angle_gamma   89.98959381
_symmetry_Int_Tables_number   1
_chemical_formula_structural   Nd8Er12Bi7Pb9
_chemical_formula_sum   'Nd8 Er12 Bi7 Pb9'
_cell_volume   1089.24217986
_cell_formula_units_Z   1
loop_
 _symmetry_equiv_pos_site_id
 _symmetry_equiv_pos_as_xyz
  1  'x, y, z'
loop_
 _atom_site_type_symbol
 _atom_site_label
 _atom_site_symmetry_multiplicity
 _atom_site_fract_x
 _atom_site_fract_y
 _atom_site_fract_z
 _atom_site_occupancy
  Nd  Nd0  1  0.465629  0.673256  0.600262  1
  Nd  Nd1  1  0.968260  0.825871  0.899726  1
  Nd  Nd2  1  0.531551  0.325896  0.100641  1
  Nd  Nd3  1  0.031268  0.177062  0.399512  1
  Nd  Nd4  1  0.527969  0.326587  0.400226  1
  Nd  Nd5  1  0.031305  0.175671  0.100418  1
  Nd  Nd6  1  0.468183  0.675269  0.899451  1
  Nd  Nd7  1  0.970458  0.822958  0.599434  1
  Er  Er8  1  0.634994  0.156634  0.625567  1
  Er  Er9  1  0.134803  0.343080  0.874757  1
  Er  Er10  1  0.365942  0.843382  0.125226  1
  Er  Er11  1  0.869359  0.656235  0.374443  1
  Er  Er12  1  0.363418  0.840129  0.375044  1
  Er  Er13  1  0.865084  0.657074  0.125098  1
  Er  Er14  1  0.634890  0.156656  0.874260  1
  Er  Er15  1  0.135425  0.344626  0.624575  1
  Er  Er16  1  0.800986  0.499409  0.749917  1
  Er  Er17  1  0.300838  0.000069  0.749715  1
  Er  Er18  1  0.198845  0.500918  0.252176  1
  Er  Er19  1  0.698813  0.999615  0.250683  1
  Bi  Bi20  1  0.709518  0.961693  0.455574  1
  Bi  Bi21  1  0.209505  0.538243  0.044715  1
  Bi  Bi22  1  0.290877  0.037882  0.955497  1
  Bi  Bi23  1  0.791124  0.461579  0.543983  1
  Bi  Bi24  1  0.291254  0.037819  0.544552  1
  Bi  Bi25  1  0.790469  0.461794  0.955513  1
  Bi  Bi26  1  0.709531  0.962816  0.044396  1
  Pb  Pb27  1  0.209265  0.537758  0.456462  1
  Pb  Pb28  1  0.439812  0.369482  0.750258  1
  Pb  Pb29  1  0.940223  0.130461  0.749695  1
  Pb  Pb30  1  0.561063  0.630679  0.249668  1
  Pb  Pb31  1  0.060403  0.870363  0.249098  1
  Pb  Pb32  1  0.658461  0.848480  0.749558  1
  Pb  Pb33  1  0.157439  0.650659  0.750381  1
  Pb  Pb34  1  0.341788  0.150163  0.249881  1
  Pb  Pb35  1  0.841248  0.349734  0.249637  1
