# generated using pymatgen
data_Cs6Ho(RhBr6)3
_symmetry_space_group_name_H-M   'P 1'
_cell_length_a   7.85451600
_cell_length_b   7.85451603
_cell_length_c   19.85050000
_cell_angle_alpha   90.00000000
_cell_angle_beta   90.00000000
_cell_angle_gamma   119.99999146
_symmetry_Int_Tables_number   1
_chemical_formula_structural   Cs6Ho(RhBr6)3
_chemical_formula_sum   'Cs6 Ho1 Rh3 Br18'
_cell_volume   1060.57400546
_cell_formula_units_Z   1
loop_
 _symmetry_equiv_pos_site_id
 _symmetry_equiv_pos_as_xyz
  1  'x, y, z'
loop_
 _atom_site_type_symbol
 _atom_site_label
 _atom_site_symmetry_multiplicity
 _atom_site_fract_x
 _atom_site_fract_y
 _atom_site_fract_z
 _atom_site_occupancy
  Cs  Cs0  1  0.333333  0.666667  0.071191  1
  Cs  Cs1  1  0.666667  0.333333  0.939132  1
  Cs  Cs2  1  0.666667  0.333333  0.567978  1
  Cs  Cs3  1  0.333333  0.666667  0.433350  1
  Cs  Cs4  1  0.000000  0.000000  0.250937  1
  Cs  Cs5  1  0.000000  0.000000  0.744464  1
  Ho  Ho6  1  0.333333  0.666667  0.838915  1
  Rh  Rh7  1  0.333333  0.666667  0.665017  1
  Rh  Rh8  1  0.666667  0.333333  0.332798  1
  Rh  Rh9  1  0.666667  0.333333  0.168233  1
  Br  Br10  1  0.182737  0.365473  0.593546  1
  Br  Br11  1  0.817695  0.635392  0.403591  1
  Br  Br12  1  0.634527  0.817263  0.593546  1
  Br  Br13  1  0.817681  0.635362  0.097428  1
  Br  Br14  1  0.364608  0.182305  0.403591  1
  Br  Br15  1  0.165160  0.330320  0.911094  1
  Br  Br16  1  0.182737  0.817263  0.593546  1
  Br  Br17  1  0.364638  0.182319  0.097428  1
  Br  Br18  1  0.817695  0.182305  0.403591  1
  Br  Br19  1  0.669680  0.834840  0.911094  1
  Br  Br20  1  0.817681  0.182319  0.097428  1
  Br  Br21  1  0.165160  0.834840  0.911094  1
  Br  Br22  1  0.521677  0.043355  0.250491  1
  Br  Br23  1  0.488189  0.976377  0.739844  1
  Br  Br24  1  0.956645  0.478323  0.250491  1
  Br  Br25  1  0.023623  0.511811  0.739844  1
  Br  Br26  1  0.521677  0.478323  0.250491  1
  Br  Br27  1  0.488189  0.511811  0.739844  1
