# generated using pymatgen
data_LiCeNd7Zn7Rh8
_symmetry_space_group_name_H-M   'P 1'
_cell_length_a   4.01597200
_cell_length_b   7.34051697
_cell_length_c   16.48614269
_cell_angle_alpha   90.02986740
_cell_angle_beta   90.00000000
_cell_angle_gamma   90.00000000
_symmetry_Int_Tables_number   1
_chemical_formula_structural   LiCeNd7Zn7Rh8
_chemical_formula_sum   'Li1 Ce1 Nd7 Zn7 Rh8'
_cell_volume   486.00005500
_cell_formula_units_Z   1
loop_
 _symmetry_equiv_pos_site_id
 _symmetry_equiv_pos_as_xyz
  1  'x, y, z'
loop_
 _atom_site_type_symbol
 _atom_site_label
 _atom_site_symmetry_multiplicity
 _atom_site_fract_x
 _atom_site_fract_y
 _atom_site_fract_z
 _atom_site_occupancy
  Li  Li0  1  0.750000  0.007200  0.559876  1
  Ce  Ce1  1  0.250000  0.171678  0.939795  1
  Nd  Nd2  1  0.250000  0.664280  0.560049  1
  Nd  Nd3  1  0.750000  0.333498  0.438960  1
  Nd  Nd4  1  0.750000  0.953639  0.283605  1
  Nd  Nd5  1  0.750000  0.831071  0.060709  1
  Nd  Nd6  1  0.750000  0.451021  0.215476  1
  Nd  Nd7  1  0.250000  0.045121  0.716877  1
  Nd  Nd8  1  0.250000  0.547880  0.783890  1
  Zn  Zn9  1  0.250000  0.625283  0.349238  1
  Zn  Zn10  1  0.750000  0.372139  0.650539  1
  Zn  Zn11  1  0.250000  0.499816  0.059924  1
  Zn  Zn12  1  0.750000  0.506552  0.938999  1
  Zn  Zn13  1  0.250000  0.999016  0.442346  1
  Zn  Zn14  1  0.250000  0.124295  0.149983  1
  Zn  Zn15  1  0.750000  0.877472  0.848760  1
  Rh  Rh16  1  0.750000  0.754331  0.434625  1
  Rh  Rh17  1  0.250000  0.245478  0.311999  1
  Rh  Rh18  1  0.750000  0.246580  0.821568  1
  Rh  Rh19  1  0.750000  0.748904  0.688189  1
  Rh  Rh20  1  0.250000  0.253268  0.564480  1
  Rh  Rh21  1  0.250000  0.742287  0.187834  1
  Rh  Rh22  1  0.750000  0.248757  0.057336  1
  Rh  Rh23  1  0.250000  0.750434  0.934942  1
