# generated using pymatgen
data_Ho5MnRuO12
_symmetry_space_group_name_H-M   'P 1'
_cell_length_a   6.81559520
_cell_length_b   6.81559579
_cell_length_c   7.21127848
_cell_angle_alpha   74.55511796
_cell_angle_beta   74.55511628
_cell_angle_gamma   50.58468226
_symmetry_Int_Tables_number   1
_chemical_formula_structural   Ho5MnRuO12
_chemical_formula_sum   'Ho5 Mn1 Ru1 O12'
_cell_volume   247.31318828
_cell_formula_units_Z   1
loop_
 _symmetry_equiv_pos_site_id
 _symmetry_equiv_pos_as_xyz
  1  'x, y, z'
loop_
 _atom_site_type_symbol
 _atom_site_label
 _atom_site_symmetry_multiplicity
 _atom_site_fract_x
 _atom_site_fract_y
 _atom_site_fract_z
 _atom_site_occupancy
  Ho  Ho0  1  0.693115  0.693538  0.667047  1
  Ho  Ho1  1  0.692837  0.704405  0.140279  1
  Ho  Ho2  1  0.002318  0.997682  0.000000  1
  Ho  Ho3  1  0.295595  0.307163  0.859721  1
  Ho  Ho4  1  0.306462  0.306885  0.332953  1
  Mn  Mn5  1  0.251117  0.748883  0.500000  1
  Ru  Ru6  1  0.759740  0.240260  0.500000  1
  O  O7  1  0.401533  0.905152  0.925020  1
  O  O8  1  0.573622  0.096357  0.583293  1
  O  O9  1  0.903643  0.426378  0.416707  1
  O  O10  1  0.094848  0.598467  0.074980  1
  O  O11  1  0.005177  0.994855  0.318070  1
  O  O12  1  0.496768  0.503187  0.683932  1
  O  O13  1  0.900635  0.402137  0.926117  1
  O  O14  1  0.099630  0.576860  0.581889  1
  O  O15  1  0.423140  0.900370  0.418111  1
  O  O16  1  0.597863  0.099365  0.073883  1
  O  O17  1  0.496813  0.503232  0.316068  1
  O  O18  1  0.005145  0.994823  0.681930  1
