# generated using pymatgen
data_Yb2CdIn3Pd2
_symmetry_space_group_name_H-M   'P 1'
_cell_length_a   5.50697782
_cell_length_b   5.50697759
_cell_length_c   8.38701195
_cell_angle_alpha   89.92796892
_cell_angle_beta   90.07203231
_cell_angle_gamma   134.25407608
_symmetry_Int_Tables_number   1
_chemical_formula_structural   Yb2CdIn3Pd2
_chemical_formula_sum   'Yb2 Cd1 In3 Pd2'
_cell_volume   182.17950743
_cell_formula_units_Z   1
loop_
 _symmetry_equiv_pos_site_id
 _symmetry_equiv_pos_as_xyz
  1  'x, y, z'
loop_
 _atom_site_type_symbol
 _atom_site_label
 _atom_site_symmetry_multiplicity
 _atom_site_fract_x
 _atom_site_fract_y
 _atom_site_fract_z
 _atom_site_occupancy
  Yb  Yb0  1  0.066446  0.933554  0.254362  1
  Yb  Yb1  1  0.934546  0.065454  0.744070  1
  Cd  Cd2  1  0.640982  0.359018  0.550271  1
  In  In3  1  0.353045  0.646955  0.451851  1
  In  In4  1  0.644257  0.355743  0.945505  1
  In  In5  1  0.356318  0.643682  0.052243  1
  Pd  Pd6  1  0.224266  0.775734  0.753910  1
  Pd  Pd7  1  0.780140  0.219860  0.247789  1
