# generated using pymatgen
data_Ho4Tm4Cd2IrRu
_symmetry_space_group_name_H-M   'P 1'
_cell_length_a   9.55010172
_cell_length_b   9.55010237
_cell_length_c   9.59602300
_cell_angle_alpha   59.84080834
_cell_angle_beta   59.84080609
_cell_angle_gamma   59.75272189
_symmetry_Int_Tables_number   1
_chemical_formula_structural   Ho4Tm4Cd2IrRu
_chemical_formula_sum   'Ho8 Tm8 Cd4 Ir2 Ru2'
_cell_volume   616.21012398
_cell_formula_units_Z   2
loop_
 _symmetry_equiv_pos_site_id
 _symmetry_equiv_pos_as_xyz
  1  'x, y, z'
loop_
 _atom_site_type_symbol
 _atom_site_label
 _atom_site_symmetry_multiplicity
 _atom_site_fract_x
 _atom_site_fract_y
 _atom_site_fract_z
 _atom_site_occupancy
  Ho  Ho0  1  0.437882  0.437882  0.062118  1
  Ho  Ho1  1  0.059758  0.059758  0.440242  1
  Ho  Ho2  1  0.188482  0.809735  0.812863  1
  Ho  Ho3  1  0.809735  0.188482  0.188921  1
  Ho  Ho4  1  0.809735  0.188482  0.812863  1
  Ho  Ho5  1  0.188482  0.809735  0.188921  1
  Ho  Ho6  1  0.811095  0.811095  0.188905  1
  Ho  Ho7  1  0.189013  0.189013  0.810987  1
  Tm  Tm8  1  0.598094  0.598094  0.597599  1
  Tm  Tm9  1  0.598094  0.598094  0.206215  1
  Tm  Tm10  1  0.596540  0.209550  0.596956  1
  Tm  Tm11  1  0.209550  0.596540  0.596956  1
  Tm  Tm12  1  0.061867  0.437983  0.440015  1
  Tm  Tm13  1  0.437983  0.061867  0.060135  1
  Tm  Tm14  1  0.437983  0.061867  0.440015  1
  Tm  Tm15  1  0.061867  0.437983  0.060135  1
  Cd  Cd16  1  0.830344  0.830344  0.830740  1
  Cd  Cd17  1  0.830344  0.830344  0.508572  1
  Cd  Cd18  1  0.830660  0.507627  0.830855  1
  Cd  Cd19  1  0.507627  0.830660  0.830855  1
  Ir  Ir20  1  0.394538  0.826649  0.389407  1
  Ir  Ir21  1  0.826649  0.394538  0.389407  1
  Ru  Ru22  1  0.391841  0.391841  0.388130  1
  Ru  Ru23  1  0.391841  0.391841  0.828187  1
