# generated using pymatgen
data_Y2B6Ir8Rh
_symmetry_space_group_name_H-M   'P 1'
_cell_length_a   5.64468330
_cell_length_b   5.64468280
_cell_length_c   8.64875800
_cell_angle_alpha   90.00000000
_cell_angle_beta   90.00000000
_cell_angle_gamma   119.89644973
_symmetry_Int_Tables_number   1
_chemical_formula_structural   Y2B6Ir8Rh
_chemical_formula_sum   'Y2 B6 Ir8 Rh1'
_cell_volume   238.89976101
_cell_formula_units_Z   1
loop_
 _symmetry_equiv_pos_site_id
 _symmetry_equiv_pos_as_xyz
  1  'x, y, z'
loop_
 _atom_site_type_symbol
 _atom_site_label
 _atom_site_symmetry_multiplicity
 _atom_site_fract_x
 _atom_site_fract_y
 _atom_site_fract_z
 _atom_site_occupancy
  Y  Y0  1  0.000000  0.000000  0.701876  1
  Y  Y1  1  0.000000  0.000000  0.298836  1
  B  B2  1  0.666920  0.333080  0.999785  1
  B  B3  1  0.333080  0.666920  0.999785  1
  B  B4  1  0.666713  0.333287  0.667733  1
  B  B5  1  0.333287  0.666713  0.667733  1
  B  B6  1  0.333103  0.666897  0.332105  1
  B  B7  1  0.666897  0.333103  0.332105  1
  Ir  Ir8  1  0.500000  0.500000  0.836426  1
  Ir  Ir9  1  0.500000  0.000000  0.836241  1
  Ir  Ir10  1  0.000000  0.500000  0.836241  1
  Ir  Ir11  1  0.500000  0.000000  0.164043  1
  Ir  Ir12  1  0.000000  0.500000  0.164043  1
  Ir  Ir13  1  0.500000  0.500000  0.499098  1
  Ir  Ir14  1  0.500000  0.000000  0.499858  1
  Ir  Ir15  1  0.000000  0.500000  0.499858  1
  Rh  Rh16  1  0.500000  0.500000  0.164233  1
