# generated using pymatgen
data_Y4TaPd15
_symmetry_space_group_name_H-M   'P 1'
_cell_length_a   4.10744100
_cell_length_b   4.10744100
_cell_length_c   20.49724800
_cell_angle_alpha   90.00000000
_cell_angle_beta   90.00000000
_cell_angle_gamma   90.00000000
_symmetry_Int_Tables_number   1
_chemical_formula_structural   Y4TaPd15
_chemical_formula_sum   'Y4 Ta1 Pd15'
_cell_volume   345.81053796
_cell_formula_units_Z   1
loop_
 _symmetry_equiv_pos_site_id
 _symmetry_equiv_pos_as_xyz
  1  'x, y, z'
loop_
 _atom_site_type_symbol
 _atom_site_label
 _atom_site_symmetry_multiplicity
 _atom_site_fract_x
 _atom_site_fract_y
 _atom_site_fract_z
 _atom_site_occupancy
  Y  Y0  1  0.000000  0.000000  0.199251  1
  Y  Y1  1  0.000000  0.000000  0.398185  1
  Y  Y2  1  0.000000  0.000000  0.601815  1
  Y  Y3  1  0.000000  0.000000  0.800749  1
  Ta  Ta4  1  0.000000  0.000000  0.000000  1
  Pd  Pd5  1  0.500000  0.500000  0.000000  1
  Pd  Pd6  1  0.500000  0.500000  0.193698  1
  Pd  Pd7  1  0.500000  0.500000  0.398067  1
  Pd  Pd8  1  0.500000  0.500000  0.601933  1
  Pd  Pd9  1  0.500000  0.500000  0.806302  1
  Pd  Pd10  1  0.500000  0.000000  0.090562  1
  Pd  Pd11  1  0.500000  0.000000  0.296884  1
  Pd  Pd12  1  0.500000  0.000000  0.500000  1
  Pd  Pd13  1  0.500000  0.000000  0.703116  1
  Pd  Pd14  1  0.500000  0.000000  0.909438  1
  Pd  Pd15  1  0.000000  0.500000  0.090562  1
  Pd  Pd16  1  0.000000  0.500000  0.296884  1
  Pd  Pd17  1  0.000000  0.500000  0.500000  1
  Pd  Pd18  1  0.000000  0.500000  0.703116  1
  Pd  Pd19  1  0.000000  0.500000  0.909438  1
