# generated using pymatgen
data_CeYReB6
_symmetry_space_group_name_H-M   'P 1'
_cell_length_a   3.72951400
_cell_length_b   9.22392300
_cell_length_c   11.60284700
_cell_angle_alpha   90.00000000
_cell_angle_beta   90.00000000
_cell_angle_gamma   90.00000000
_symmetry_Int_Tables_number   1
_chemical_formula_structural   CeYReB6
_chemical_formula_sum   'Ce4 Y4 Re4 B24'
_cell_volume   399.14663851
_cell_formula_units_Z   4
loop_
 _symmetry_equiv_pos_site_id
 _symmetry_equiv_pos_as_xyz
  1  'x, y, z'
loop_
 _atom_site_type_symbol
 _atom_site_label
 _atom_site_symmetry_multiplicity
 _atom_site_fract_x
 _atom_site_fract_y
 _atom_site_fract_z
 _atom_site_occupancy
  Ce  Ce0  1  0.000000  0.822812  0.085841  1
  Ce  Ce1  1  0.000000  0.177188  0.914159  1
  Ce  Ce2  1  0.000000  0.322812  0.414159  1
  Ce  Ce3  1  0.000000  0.677188  0.585841  1
  Y  Y4  1  0.000000  0.444120  0.127248  1
  Y  Y5  1  0.000000  0.555880  0.872752  1
  Y  Y6  1  0.000000  0.944120  0.372752  1
  Y  Y7  1  0.000000  0.055880  0.627248  1
  Re  Re8  1  0.000000  0.138264  0.178862  1
  Re  Re9  1  0.000000  0.861736  0.821138  1
  Re  Re10  1  0.000000  0.638264  0.321138  1
  Re  Re11  1  0.000000  0.361736  0.678862  1
  B  B12  1  0.500000  0.054274  0.068215  1
  B  B13  1  0.500000  0.945726  0.931786  1
  B  B14  1  0.500000  0.554274  0.431785  1
  B  B15  1  0.500000  0.445726  0.568214  1
  B  B16  1  0.500000  0.248075  0.081286  1
  B  B17  1  0.500000  0.751925  0.918714  1
  B  B18  1  0.500000  0.748075  0.418714  1
  B  B19  1  0.500000  0.251925  0.581286  1
  B  B20  1  0.500000  0.290952  0.234006  1
  B  B21  1  0.500000  0.709048  0.765994  1
  B  B22  1  0.500000  0.790952  0.265994  1
  B  B23  1  0.500000  0.209048  0.734006  1
  B  B24  1  0.500000  0.131616  0.313866  1
  B  B25  1  0.500000  0.868384  0.686134  1
  B  B26  1  0.500000  0.631616  0.186134  1
  B  B27  1  0.500000  0.368384  0.813866  1
  B  B28  1  0.500000  0.483678  0.287380  1
  B  B29  1  0.500000  0.516322  0.712620  1
  B  B30  1  0.500000  0.983678  0.212620  1
  B  B31  1  0.500000  0.016322  0.787380  1
  B  B32  1  0.500000  0.107340  0.470263  1
  B  B33  1  0.500000  0.892660  0.529737  1
  B  B34  1  0.500000  0.607340  0.029737  1
  B  B35  1  0.500000  0.392660  0.970263  1
