# generated using pymatgen
data_Sn3Sb8
_symmetry_space_group_name_H-M   'P 1'
_cell_length_a   4.44853305
_cell_length_b   4.44931076
_cell_length_c   60.36469282
_cell_angle_alpha   89.99671225
_cell_angle_beta   89.98540979
_cell_angle_gamma   120.00385430
_symmetry_Int_Tables_number   1
_chemical_formula_structural   Sn3Sb8
_chemical_formula_sum   'Sn9 Sb24'
_cell_volume   1034.68057358
_cell_formula_units_Z   3
loop_
 _symmetry_equiv_pos_site_id
 _symmetry_equiv_pos_as_xyz
  1  'x, y, z'
loop_
 _atom_site_type_symbol
 _atom_site_label
 _atom_site_symmetry_multiplicity
 _atom_site_fract_x
 _atom_site_fract_y
 _atom_site_fract_z
 _atom_site_occupancy
  Sn  Sn0  1  0.000005  0.000001  0.000007  1
  Sn  Sn1  1  0.666666  0.333333  0.056256  1
  Sn  Sn2  1  0.999952  0.999990  0.277087  1
  Sn  Sn3  1  0.666653  0.333326  0.333375  1
  Sn  Sn4  1  0.333362  0.666681  0.389685  1
  Sn  Sn5  1  0.666647  0.333323  0.610398  1
  Sn  Sn6  1  0.333336  0.666667  0.666625  1
  Sn  Sn7  1  0.000023  0.000011  0.722833  1
  Sn  Sn8  1  0.333316  0.666656  0.943749  1
  Sb  Sb9  1  0.333329  0.666663  0.030846  1
  Sb  Sb10  1  0.999984  0.999996  0.092954  1
  Sb  Sb11  1  0.333358  0.666678  0.117458  1
  Sb  Sb12  1  0.666643  0.333320  0.154424  1
  Sb  Sb13  1  0.000025  0.000013  0.178909  1
  Sb  Sb14  1  0.333311  0.666653  0.215897  1
  Sb  Sb15  1  0.666694  0.333346  0.240408  1
  Sb  Sb16  1  0.333347  0.666673  0.302640  1
  Sb  Sb17  1  0.999993  0.999995  0.364147  1
  Sb  Sb18  1  0.666640  0.333319  0.426312  1
  Sb  Sb19  1  0.000029  0.000014  0.450822  1
  Sb  Sb20  1  0.333318  0.666662  0.487744  1
  Sb  Sb21  1  0.666675  0.333337  0.512255  1
  Sb  Sb22  1  0.999976  0.999987  0.549180  1
  Sb  Sb23  1  0.333359  0.666678  0.573689  1
  Sb  Sb24  1  0.000005  0.000001  0.635753  1
  Sb  Sb25  1  0.666663  0.333331  0.697462  1
  Sb  Sb26  1  0.333308  0.666653  0.759586  1
  Sb  Sb27  1  0.666694  0.333346  0.784103  1
  Sb  Sb28  1  0.999972  0.999984  0.821086  1
  Sb  Sb29  1  0.333362  0.666681  0.845579  1
  Sb  Sb30  1  0.666641  0.333319  0.882537  1
  Sb  Sb31  1  0.000028  0.000013  0.907043  1
  Sb  Sb32  1  0.666678  0.333338  0.969149  1
