# generated using pymatgen
data_Tm3Lu5Ga3Ir
_symmetry_space_group_name_H-M   'P 1'
_cell_length_a   9.87272822
_cell_length_b   9.87541400
_cell_length_c   6.89222715
_cell_angle_alpha   89.98792495
_cell_angle_beta   90.02415668
_cell_angle_gamma   119.99101052
_symmetry_Int_Tables_number   1
_chemical_formula_structural   Tm3Lu5Ga3Ir
_chemical_formula_sum   'Tm6 Lu10 Ga6 Ir2'
_cell_volume   581.99868267
_cell_formula_units_Z   2
loop_
 _symmetry_equiv_pos_site_id
 _symmetry_equiv_pos_as_xyz
  1  'x, y, z'
loop_
 _atom_site_type_symbol
 _atom_site_label
 _atom_site_symmetry_multiplicity
 _atom_site_fract_x
 _atom_site_fract_y
 _atom_site_fract_z
 _atom_site_occupancy
  Tm  Tm0  1  0.533935  0.067782  0.794548  1
  Tm  Tm1  1  0.466155  0.932218  0.294548  1
  Tm  Tm2  1  0.067663  0.533784  0.294524  1
  Tm  Tm3  1  0.533877  0.466216  0.794524  1
  Tm  Tm4  1  0.000045  0.000018  0.266255  1
  Tm  Tm5  1  0.000027  0.999982  0.766255  1
  Lu  Lu6  1  0.171269  0.828351  0.989832  1
  Lu  Lu7  1  0.342917  0.171649  0.489832  1
  Lu  Lu8  1  0.828393  0.656921  0.490018  1
  Lu  Lu9  1  0.171472  0.343079  0.990018  1
  Lu  Lu10  1  0.657001  0.828381  0.990206  1
  Lu  Lu11  1  0.828619  0.171619  0.490206  1
  Lu  Lu12  1  0.333268  0.666459  0.663166  1
  Lu  Lu13  1  0.666810  0.333541  0.163166  1
  Lu  Lu14  1  0.465890  0.534116  0.294459  1
  Lu  Lu15  1  0.931772  0.465884  0.794459  1
  Ga  Ga16  1  0.163452  0.836583  0.541179  1
  Ga  Ga17  1  0.326870  0.163417  0.041179  1
  Ga  Ga18  1  0.836603  0.673039  0.041069  1
  Ga  Ga19  1  0.163562  0.326961  0.541069  1
  Ga  Ga20  1  0.673045  0.836455  0.540991  1
  Ga  Ga21  1  0.836591  0.163545  0.040991  1
  Ir  Ir22  1  0.333596  0.666431  0.055754  1
  Ir  Ir23  1  0.667167  0.333569  0.555754  1
