# generated using pymatgen
data_Y5Lu15Cd6OsRu
_symmetry_space_group_name_H-M   'P 1'
_cell_length_a   9.45206320
_cell_length_b   9.45206283
_cell_length_c   9.70622200
_cell_angle_alpha   90.00000000
_cell_angle_beta   90.00000000
_cell_angle_gamma   119.92186592
_symmetry_Int_Tables_number   1
_chemical_formula_structural   Y5Lu15Cd6OsRu
_chemical_formula_sum   'Y5 Lu15 Cd6 Os1 Ru1'
_cell_volume   751.58043087
_cell_formula_units_Z   1
loop_
 _symmetry_equiv_pos_site_id
 _symmetry_equiv_pos_as_xyz
  1  'x, y, z'
loop_
 _atom_site_type_symbol
 _atom_site_label
 _atom_site_symmetry_multiplicity
 _atom_site_fract_x
 _atom_site_fract_y
 _atom_site_fract_z
 _atom_site_occupancy
  Y  Y0  1  0.539363  0.460637  0.250000  1
  Y  Y1  1  0.538753  0.076218  0.250000  1
  Y  Y2  1  0.923782  0.461247  0.250000  1
  Y  Y3  1  0.459869  0.918810  0.750000  1
  Y  Y4  1  0.081190  0.540131  0.750000  1
  Lu  Lu5  1  0.999578  0.000422  0.499852  1
  Lu  Lu6  1  0.999578  0.000422  0.000148  1
  Lu  Lu7  1  0.209753  0.790247  0.441764  1
  Lu  Lu8  1  0.211601  0.420756  0.442260  1
  Lu  Lu9  1  0.579244  0.788399  0.442260  1
  Lu  Lu10  1  0.789579  0.210421  0.559263  1
  Lu  Lu11  1  0.788914  0.580204  0.559340  1
  Lu  Lu12  1  0.419796  0.211086  0.559340  1
  Lu  Lu13  1  0.789579  0.210421  0.940737  1
  Lu  Lu14  1  0.788914  0.580204  0.940660  1
  Lu  Lu15  1  0.419796  0.211086  0.940660  1
  Lu  Lu16  1  0.209753  0.790247  0.058236  1
  Lu  Lu17  1  0.211601  0.420756  0.057740  1
  Lu  Lu18  1  0.579244  0.788399  0.057740  1
  Lu  Lu19  1  0.461003  0.538997  0.750000  1
  Cd  Cd20  1  0.887265  0.112735  0.250000  1
  Cd  Cd21  1  0.886486  0.773920  0.250000  1
  Cd  Cd22  1  0.226080  0.113514  0.250000  1
  Cd  Cd23  1  0.112907  0.887093  0.750000  1
  Cd  Cd24  1  0.115612  0.227780  0.750000  1
  Cd  Cd25  1  0.772220  0.884388  0.750000  1
  Os  Os26  1  0.332649  0.667351  0.250000  1
  Ru  Ru27  1  0.665894  0.334106  0.750000  1
