# generated using pymatgen
data_HoErLu2(B6Os)2
_symmetry_space_group_name_H-M   'P 1'
_cell_length_a   3.61358900
_cell_length_b   9.06174301
_cell_length_c   11.44312701
_cell_angle_alpha   89.99596520
_cell_angle_beta   90.00000000
_cell_angle_gamma   90.00000000
_symmetry_Int_Tables_number   1
_chemical_formula_structural   HoErLu2(B6Os)2
_chemical_formula_sum   'Ho2 Er2 Lu4 B24 Os4'
_cell_volume   374.70994005
_cell_formula_units_Z   2
loop_
 _symmetry_equiv_pos_site_id
 _symmetry_equiv_pos_as_xyz
  1  'x, y, z'
loop_
 _atom_site_type_symbol
 _atom_site_label
 _atom_site_symmetry_multiplicity
 _atom_site_fract_x
 _atom_site_fract_y
 _atom_site_fract_z
 _atom_site_occupancy
  Ho  Ho0  1  0.000000  0.821193  0.085995  1
  Ho  Ho1  1  0.000000  0.178807  0.914005  1
  Er  Er2  1  0.000000  0.321145  0.414054  1
  Er  Er3  1  0.000000  0.678855  0.585946  1
  Lu  Lu4  1  0.000000  0.944333  0.373328  1
  Lu  Lu5  1  0.000000  0.055667  0.626672  1
  Lu  Lu6  1  0.000000  0.444312  0.126778  1
  Lu  Lu7  1  0.000000  0.555688  0.873222  1
  B  B8  1  0.500000  0.554107  0.433253  1
  B  B9  1  0.500000  0.445893  0.566747  1
  B  B10  1  0.500000  0.054219  0.066927  1
  B  B11  1  0.500000  0.945781  0.933073  1
  B  B12  1  0.500000  0.749738  0.419978  1
  B  B13  1  0.500000  0.250262  0.580022  1
  B  B14  1  0.500000  0.249818  0.080207  1
  B  B15  1  0.500000  0.750182  0.919793  1
  B  B16  1  0.500000  0.792094  0.266200  1
  B  B17  1  0.500000  0.207906  0.733799  1
  B  B18  1  0.500000  0.292185  0.233983  1
  B  B19  1  0.500000  0.707815  0.766018  1
  B  B20  1  0.500000  0.630929  0.184383  1
  B  B21  1  0.500000  0.369071  0.815617  1
  B  B22  1  0.500000  0.131073  0.315754  1
  B  B23  1  0.500000  0.868927  0.684246  1
  B  B24  1  0.500000  0.982547  0.213656  1
  B  B25  1  0.500000  0.017453  0.786344  1
  B  B26  1  0.500000  0.482374  0.286482  1
  B  B27  1  0.500000  0.517626  0.713518  1
  B  B28  1  0.500000  0.604690  0.028808  1
  B  B29  1  0.500000  0.395310  0.971192  1
  B  B30  1  0.500000  0.104946  0.471123  1
  B  B31  1  0.500000  0.895054  0.528877  1
  Os  Os32  1  0.000000  0.638047  0.320693  1
  Os  Os33  1  0.000000  0.361953  0.679307  1
  Os  Os34  1  0.000000  0.138302  0.179594  1
  Os  Os35  1  0.000000  0.861698  0.820406  1
