# generated using pymatgen
data_Y8Cd3In
_symmetry_space_group_name_H-M   'P 1'
_cell_length_a   5.24563800
_cell_length_b   6.88670840
_cell_length_c   9.55136253
_cell_angle_alpha   90.39107704
_cell_angle_beta   90.00000000
_cell_angle_gamma   90.00000000
_symmetry_Int_Tables_number   1
_chemical_formula_structural   Y8Cd3In
_chemical_formula_sum   'Y8 Cd3 In1'
_cell_volume   345.03664608
_cell_formula_units_Z   1
loop_
 _symmetry_equiv_pos_site_id
 _symmetry_equiv_pos_as_xyz
  1  'x, y, z'
loop_
 _atom_site_type_symbol
 _atom_site_label
 _atom_site_symmetry_multiplicity
 _atom_site_fract_x
 _atom_site_fract_y
 _atom_site_fract_z
 _atom_site_occupancy
  Y  Y0  1  0.750000  0.679785  0.428591  1
  Y  Y1  1  0.250000  0.324582  0.566517  1
  Y  Y2  1  0.750000  0.174591  0.073567  1
  Y  Y3  1  0.250000  0.814884  0.928901  1
  Y  Y4  1  0.750000  0.523088  0.793630  1
  Y  Y5  1  0.250000  0.477648  0.205462  1
  Y  Y6  1  0.750000  0.024784  0.705503  1
  Y  Y7  1  0.250000  0.977047  0.298344  1
  Cd  Cd8  1  0.750000  0.223680  0.398412  1
  Cd  Cd9  1  0.250000  0.779150  0.603108  1
  Cd  Cd10  1  0.750000  0.719716  0.103041  1
  In  In11  1  0.250000  0.281046  0.894923  1
