# generated using pymatgen
data_TbGd4InPd4
_symmetry_space_group_name_H-M   'P 1'
_cell_length_a   7.87733400
_cell_length_b   7.87733400
_cell_length_c   3.76853800
_cell_angle_alpha   90.00000000
_cell_angle_beta   90.00000000
_cell_angle_gamma   90.00000000
_symmetry_Int_Tables_number   1
_chemical_formula_structural   TbGd4InPd4
_chemical_formula_sum   'Tb1 Gd4 In1 Pd4'
_cell_volume   233.84679328
_cell_formula_units_Z   1
loop_
 _symmetry_equiv_pos_site_id
 _symmetry_equiv_pos_as_xyz
  1  'x, y, z'
loop_
 _atom_site_type_symbol
 _atom_site_label
 _atom_site_symmetry_multiplicity
 _atom_site_fract_x
 _atom_site_fract_y
 _atom_site_fract_z
 _atom_site_occupancy
  Tb  Tb0  1  0.500000  0.500000  0.000000  1
  Gd  Gd1  1  0.683428  0.145804  0.500000  1
  Gd  Gd2  1  0.316572  0.854196  0.500000  1
  Gd  Gd3  1  0.145804  0.316572  0.500000  1
  Gd  Gd4  1  0.854196  0.683428  0.500000  1
  In  In5  1  0.000000  0.000000  0.000000  1
  Pd  Pd6  1  0.142346  0.622534  0.000000  1
  Pd  Pd7  1  0.857654  0.377466  0.000000  1
  Pd  Pd8  1  0.622534  0.857654  0.000000  1
  Pd  Pd9  1  0.377466  0.142346  0.000000  1
