# generated using pymatgen
data_Ho5Hg4IrPt
_symmetry_space_group_name_H-M   'P 1'
_cell_length_a   3.68156400
_cell_length_b   7.92600912
_cell_length_c   17.89315944
_cell_angle_alpha   89.77244061
_cell_angle_beta   90.00000000
_cell_angle_gamma   90.00000000
_symmetry_Int_Tables_number   1
_chemical_formula_structural   Ho5Hg4IrPt
_chemical_formula_sum   'Ho10 Hg8 Ir2 Pt2'
_cell_volume   522.12024003
_cell_formula_units_Z   2
loop_
 _symmetry_equiv_pos_site_id
 _symmetry_equiv_pos_as_xyz
  1  'x, y, z'
loop_
 _atom_site_type_symbol
 _atom_site_label
 _atom_site_symmetry_multiplicity
 _atom_site_fract_x
 _atom_site_fract_y
 _atom_site_fract_z
 _atom_site_occupancy
  Ho  Ho0  1  0.000000  0.110396  0.411478  1
  Ho  Ho1  1  0.000000  0.889604  0.588522  1
  Ho  Ho2  1  0.000000  0.389015  0.912437  1
  Ho  Ho3  1  0.000000  0.610985  0.087563  1
  Ho  Ho4  1  0.000000  0.230927  0.217332  1
  Ho  Ho5  1  0.000000  0.769073  0.782668  1
  Ho  Ho6  1  0.000000  0.252432  0.716635  1
  Ho  Ho7  1  0.000000  0.747568  0.283365  1
  Ho  Ho8  1  0.000000  0.000000  0.000000  1
  Ho  Ho9  1  0.000000  0.500000  0.500000  1
  Hg  Hg10  1  0.500000  0.417871  0.356201  1
  Hg  Hg11  1  0.500000  0.582129  0.643799  1
  Hg  Hg12  1  0.500000  0.080448  0.855766  1
  Hg  Hg13  1  0.500000  0.919552  0.144234  1
  Hg  Hg14  1  0.500000  0.289774  0.059662  1
  Hg  Hg15  1  0.500000  0.710226  0.940338  1
  Hg  Hg16  1  0.500000  0.210726  0.561143  1
  Hg  Hg17  1  0.500000  0.789274  0.438857  1
  Ir  Ir18  1  0.500000  0.027001  0.302398  1
  Ir  Ir19  1  0.500000  0.972999  0.697602  1
  Pt  Pt20  1  0.500000  0.474052  0.801335  1
  Pt  Pt21  1  0.500000  0.525948  0.198665  1
