# generated using pymatgen
data_HfSc5Cr2(Co4P3)4
_symmetry_space_group_name_H-M   'P 1'
_cell_length_a   11.89980440
_cell_length_b   11.91342471
_cell_length_c   3.60965000
_cell_angle_alpha   90.00000000
_cell_angle_beta   90.00000000
_cell_angle_gamma   120.03787031
_symmetry_Int_Tables_number   1
_chemical_formula_structural   HfSc5Cr2(Co4P3)4
_chemical_formula_sum   'Hf1 Sc5 Cr2 Co16 P12'
_cell_volume   443.00264244
_cell_formula_units_Z   1
loop_
 _symmetry_equiv_pos_site_id
 _symmetry_equiv_pos_as_xyz
  1  'x, y, z'
loop_
 _atom_site_type_symbol
 _atom_site_label
 _atom_site_symmetry_multiplicity
 _atom_site_fract_x
 _atom_site_fract_y
 _atom_site_fract_z
 _atom_site_occupancy
  Hf  Hf0  1  0.000000  0.555716  0.000000  1
  Sc  Sc1  1  0.812843  0.813069  0.500000  1
  Sc  Sc2  1  0.000000  0.178550  0.500000  1
  Sc  Sc3  1  0.335669  0.667363  0.000000  1
  Sc  Sc4  1  0.664331  0.331693  0.000000  1
  Sc  Sc5  1  0.187157  0.000227  0.500000  1
  Cr  Cr6  1  0.446878  0.449274  0.000000  1
  Cr  Cr7  1  0.553122  0.002396  0.000000  1
  Co  Co8  1  0.622442  0.823671  0.000000  1
  Co  Co9  1  0.377558  0.201229  0.000000  1
  Co  Co10  1  0.000000  0.722306  0.500000  1
  Co  Co11  1  0.282846  0.280799  0.500000  1
  Co  Co12  1  0.870251  0.349005  0.500000  1
  Co  Co13  1  0.717154  0.997953  0.500000  1
  Co  Co14  1  0.817350  0.626428  0.000000  1
  Co  Co15  1  0.182650  0.809078  0.000000  1
  Co  Co16  1  0.359223  0.878902  0.500000  1
  Co  Co17  1  0.129749  0.478754  0.500000  1
  Co  Co18  1  0.640777  0.519679  0.500000  1
  Co  Co19  1  0.000000  0.000344  0.000000  1
  Co  Co20  1  0.516101  0.646706  0.500000  1
  Co  Co21  1  0.483899  0.130605  0.500000  1
  Co  Co22  1  0.199996  0.371838  0.000000  1
  Co  Co23  1  0.800004  0.171842  0.000000  1
  P  P24  1  0.000000  0.344822  0.000000  1
  P  P25  1  0.823351  0.514319  0.500000  1
  P  P26  1  0.681244  0.162665  0.500000  1
  P  P27  1  0.178149  0.174916  0.000000  1
  P  P28  1  0.634523  0.640083  0.000000  1
  P  P29  1  0.821851  0.996767  0.000000  1
  P  P30  1  0.516593  0.836511  0.500000  1
  P  P31  1  0.176649  0.690967  0.500000  1
  P  P32  1  0.365477  0.005560  0.000000  1
  P  P33  1  0.483407  0.319919  0.500000  1
  P  P34  1  0.000000  0.824622  0.000000  1
  P  P35  1  0.318756  0.481420  0.500000  1
