# generated using pymatgen
data_Rb4Li2HoInSb4
_symmetry_space_group_name_H-M   'P 1'
_cell_length_a   11.13660872
_cell_length_b   11.13660875
_cell_length_c   7.10188300
_cell_angle_alpha   90.00000000
_cell_angle_beta   90.00000000
_cell_angle_gamma   101.11213464
_symmetry_Int_Tables_number   1
_chemical_formula_structural   Rb4Li2HoInSb4
_chemical_formula_sum   'Rb8 Li4 Ho2 In2 Sb8'
_cell_volume   864.29088555
_cell_formula_units_Z   2
loop_
 _symmetry_equiv_pos_site_id
 _symmetry_equiv_pos_as_xyz
  1  'x, y, z'
loop_
 _atom_site_type_symbol
 _atom_site_label
 _atom_site_symmetry_multiplicity
 _atom_site_fract_x
 _atom_site_fract_y
 _atom_site_fract_z
 _atom_site_occupancy
  Rb  Rb0  1  0.570599  0.929401  0.750000  1
  Rb  Rb1  1  0.929401  0.570599  0.250000  1
  Rb  Rb2  1  0.422402  0.077598  0.250000  1
  Rb  Rb3  1  0.077598  0.422402  0.750000  1
  Rb  Rb4  1  0.669530  0.321676  0.775410  1
  Rb  Rb5  1  0.830470  0.178324  0.275410  1
  Rb  Rb6  1  0.321676  0.669530  0.224590  1
  Rb  Rb7  1  0.178324  0.830470  0.724590  1
  Li  Li8  1  0.618812  0.618812  0.000000  1
  Li  Li9  1  0.881188  0.881188  0.500000  1
  Li  Li10  1  0.377772  0.377772  0.000000  1
  Li  Li11  1  0.122228  0.122228  0.500000  1
  Ho  Ho12  1  0.873947  0.873947  0.000000  1
  Ho  Ho13  1  0.626053  0.626053  0.500000  1
  In  In14  1  0.130920  0.130920  0.000000  1
  In  In15  1  0.369080  0.369080  0.500000  1
  Sb  Sb16  1  0.346177  0.153823  0.750000  1
  Sb  Sb17  1  0.153823  0.346177  0.250000  1
  Sb  Sb18  1  0.653483  0.846517  0.250000  1
  Sb  Sb19  1  0.846517  0.653483  0.750000  1
  Sb  Sb20  1  0.907984  0.100266  0.762389  1
  Sb  Sb21  1  0.592016  0.399734  0.262389  1
  Sb  Sb22  1  0.100266  0.907984  0.237611  1
  Sb  Sb23  1  0.399734  0.592016  0.737611  1
