# generated using pymatgen
data_La2YBe2(PPd5)4
_symmetry_space_group_name_H-M   'P 1'
_cell_length_a   8.75292925
_cell_length_b   8.65414243
_cell_length_c   8.65414225
_cell_angle_alpha   60.75666481
_cell_angle_beta   59.62166153
_cell_angle_gamma   59.62167529
_symmetry_Int_Tables_number   1
_chemical_formula_structural   La2YBe2(PPd5)4
_chemical_formula_sum   'La2 Y1 Be2 P4 Pd20'
_cell_volume   463.41702710
_cell_formula_units_Z   1
loop_
 _symmetry_equiv_pos_site_id
 _symmetry_equiv_pos_as_xyz
  1  'x, y, z'
loop_
 _atom_site_type_symbol
 _atom_site_label
 _atom_site_symmetry_multiplicity
 _atom_site_fract_x
 _atom_site_fract_y
 _atom_site_fract_z
 _atom_site_occupancy
  La  La0  1  0.250000  0.250000  0.250000  1
  La  La1  1  0.750000  0.750000  0.750000  1
  Y  Y2  1  0.000000  0.000000  0.000000  1
  Be  Be3  1  0.732691  0.267309  0.267309  1
  Be  Be4  1  0.267309  0.732691  0.732691  1
  P  P5  1  0.265733  0.734267  0.265733  1
  P  P6  1  0.734267  0.265733  0.734267  1
  P  P7  1  0.265733  0.265733  0.734267  1
  P  P8  1  0.734267  0.734267  0.265733  1
  Pd  Pd9  1  0.389656  0.383845  0.383845  1
  Pd  Pd10  1  0.610344  0.616155  0.616155  1
  Pd  Pd11  1  0.383845  0.389656  0.842652  1
  Pd  Pd12  1  0.383845  0.842652  0.389656  1
  Pd  Pd13  1  0.616155  0.610344  0.157348  1
  Pd  Pd14  1  0.616155  0.157348  0.610344  1
  Pd  Pd15  1  0.842652  0.383845  0.383845  1
  Pd  Pd16  1  0.157348  0.616155  0.616155  1
  Pd  Pd17  1  0.344268  0.000000  0.000000  1
  Pd  Pd18  1  0.655732  0.000000  0.000000  1
  Pd  Pd19  1  0.000000  0.344268  0.655732  1
  Pd  Pd20  1  0.000000  0.655732  0.344268  1
  Pd  Pd21  1  0.996721  0.343360  0.003279  1
  Pd  Pd22  1  0.656640  0.003279  0.343360  1
  Pd  Pd23  1  0.003279  0.656640  0.996721  1
  Pd  Pd24  1  0.343360  0.996721  0.656640  1
  Pd  Pd25  1  0.996721  0.003279  0.343360  1
  Pd  Pd26  1  0.003279  0.996721  0.656640  1
  Pd  Pd27  1  0.656640  0.343360  0.003279  1
  Pd  Pd28  1  0.343360  0.656640  0.996721  1
