# generated using pymatgen
data_V12FePt2Rh
_symmetry_space_group_name_H-M   'P 1'
_cell_length_a   4.77669300
_cell_length_b   4.77478800
_cell_length_c   9.53633800
_cell_angle_alpha   90.00000000
_cell_angle_beta   90.00000000
_cell_angle_gamma   90.00000000
_symmetry_Int_Tables_number   1
_chemical_formula_structural   V12FePt2Rh
_chemical_formula_sum   'V12 Fe1 Pt2 Rh1'
_cell_volume   217.50190203
_cell_formula_units_Z   1
loop_
 _symmetry_equiv_pos_site_id
 _symmetry_equiv_pos_as_xyz
  1  'x, y, z'
loop_
 _atom_site_type_symbol
 _atom_site_label
 _atom_site_symmetry_multiplicity
 _atom_site_fract_x
 _atom_site_fract_y
 _atom_site_fract_z
 _atom_site_occupancy
  V  V0  1  0.500000  0.000000  0.620642  1
  V  V1  1  0.500000  0.000000  0.127139  1
  V  V2  1  0.747552  0.500000  0.257542  1
  V  V3  1  0.744810  0.500000  0.742093  1
  V  V4  1  0.000000  0.745152  0.498708  1
  V  V5  1  0.000000  0.751470  0.001468  1
  V  V6  1  0.500000  0.000000  0.377734  1
  V  V7  1  0.500000  0.000000  0.874498  1
  V  V8  1  0.252448  0.500000  0.257542  1
  V  V9  1  0.255190  0.500000  0.742093  1
  V  V10  1  0.000000  0.254848  0.498708  1
  V  V11  1  0.000000  0.248530  0.001468  1
  Fe  Fe12  1  0.500000  0.500000  0.500288  1
  Pt  Pt13  1  0.500000  0.500000  0.000350  1
  Pt  Pt14  1  0.000000  0.000000  0.749331  1
  Rh  Rh15  1  0.000000  0.000000  0.250395  1
