# generated using pymatgen
data_Pr6(InPb)5
_symmetry_space_group_name_H-M   'P 1'
_cell_length_a   6.74732692
_cell_length_b   6.73396453
_cell_length_c   10.65151400
_cell_angle_alpha   90.00001489
_cell_angle_beta   89.99998610
_cell_angle_gamma   102.26721720
_symmetry_Int_Tables_number   1
_chemical_formula_structural   Pr6(InPb)5
_chemical_formula_sum   'Pr6 In5 Pb5'
_cell_volume   472.91473645
_cell_formula_units_Z   1
loop_
 _symmetry_equiv_pos_site_id
 _symmetry_equiv_pos_as_xyz
  1  'x, y, z'
loop_
 _atom_site_type_symbol
 _atom_site_label
 _atom_site_symmetry_multiplicity
 _atom_site_fract_x
 _atom_site_fract_y
 _atom_site_fract_z
 _atom_site_occupancy
  Pr  Pr0  1  0.631706  0.626343  0.250000  1
  Pr  Pr1  1  0.370961  0.369813  0.750000  1
  Pr  Pr2  1  0.202573  0.795855  0.497805  1
  Pr  Pr3  1  0.202573  0.795855  0.002195  1
  Pr  Pr4  1  0.797708  0.205649  0.498897  1
  Pr  Pr5  1  0.797708  0.205648  0.001102  1
  In  In6  1  0.308129  0.314938  0.047261  1
  In  In7  1  0.691422  0.689713  0.956927  1
  In  In8  1  0.308129  0.314938  0.452739  1
  In  In9  1  0.691422  0.689713  0.543073  1
  In  In10  1  0.074626  0.496593  0.250000  1
  Pb  Pb11  1  0.015020  0.014893  0.249999  1
  Pb  Pb12  1  0.983905  0.983705  0.749999  1
  Pb  Pb13  1  0.501881  0.075545  0.250005  1
  Pb  Pb14  1  0.925458  0.497143  0.749999  1
  Pb  Pb15  1  0.496779  0.923656  0.750000  1
