# generated using pymatgen
data_Dy8Ho4Ni4SnAu
_symmetry_space_group_name_H-M   'P 1'
_cell_length_a   8.36542554
_cell_length_b   8.35868936
_cell_length_c   8.36542518
_cell_angle_alpha   112.68026227
_cell_angle_beta   109.16336654
_cell_angle_gamma   106.65992606
_symmetry_Int_Tables_number   1
_chemical_formula_structural   Dy8Ho4Ni4SnAu
_chemical_formula_sum   'Dy8 Ho4 Ni4 Sn1 Au1'
_cell_volume   448.84625542
_cell_formula_units_Z   1
loop_
 _symmetry_equiv_pos_site_id
 _symmetry_equiv_pos_as_xyz
  1  'x, y, z'
loop_
 _atom_site_type_symbol
 _atom_site_label
 _atom_site_symmetry_multiplicity
 _atom_site_fract_x
 _atom_site_fract_y
 _atom_site_fract_z
 _atom_site_occupancy
  Dy  Dy0  1  0.419994  0.222249  0.197758  1
  Dy  Dy1  1  0.580006  0.777751  0.802242  1
  Dy  Dy2  1  0.024490  0.222249  0.802255  1
  Dy  Dy3  1  0.975510  0.777751  0.197745  1
  Dy  Dy4  1  0.179948  0.293897  0.473956  1
  Dy  Dy5  1  0.820052  0.706103  0.526044  1
  Dy  Dy6  1  0.180059  0.706103  0.886053  1
  Dy  Dy7  1  0.819941  0.293897  0.113947  1
  Ho  Ho8  1  0.325107  0.633664  0.308558  1
  Ho  Ho9  1  0.674893  0.366336  0.691442  1
  Ho  Ho10  1  0.324963  0.016367  0.691404  1
  Ho  Ho11  1  0.675037  0.983633  0.308596  1
  Ni  Ni12  1  0.360514  0.000000  0.360514  1
  Ni  Ni13  1  0.639486  0.000000  0.639486  1
  Ni  Ni14  1  0.126169  0.625562  0.499393  1
  Ni  Ni15  1  0.873831  0.374438  0.500607  1
  Sn  Sn16  1  0.500000  0.500000  0.000000  1
  Au  Au17  1  0.000000  0.000000  0.000000  1
