# generated using pymatgen
data_LiHoGaPt3
_symmetry_space_group_name_H-M   'P 1'
_cell_length_a   5.11486981
_cell_length_b   5.11486899
_cell_length_c   5.11486900
_cell_angle_alpha   65.02295055
_cell_angle_beta   65.02295485
_cell_angle_gamma   65.02296089
_symmetry_Int_Tables_number   1
_chemical_formula_structural   LiHoGaPt3
_chemical_formula_sum   'Li1 Ho1 Ga1 Pt3'
_cell_volume   104.99781350
_cell_formula_units_Z   1
loop_
 _symmetry_equiv_pos_site_id
 _symmetry_equiv_pos_as_xyz
  1  'x, y, z'
loop_
 _atom_site_type_symbol
 _atom_site_label
 _atom_site_symmetry_multiplicity
 _atom_site_fract_x
 _atom_site_fract_y
 _atom_site_fract_z
 _atom_site_occupancy
  Li  Li0  1  0.991518  0.991518  0.991518  1
  Ho  Ho1  1  0.244254  0.244254  0.244254  1
  Ga  Ga2  1  0.629142  0.629142  0.629142  1
  Pt  Pt3  1  0.629102  0.629102  0.126883  1
  Pt  Pt4  1  0.629102  0.126883  0.629102  1
  Pt  Pt5  1  0.126883  0.629102  0.629102  1
