# generated using pymatgen
data_Li2Ta2Nb4Fe(Co5P4)3
_symmetry_space_group_name_H-M   'P 1'
_cell_length_a   11.95014900
_cell_length_b   11.95015091
_cell_length_c   3.57686200
_cell_angle_alpha   90.00000000
_cell_angle_beta   90.00000000
_cell_angle_gamma   119.94382006
_symmetry_Int_Tables_number   1
_chemical_formula_structural   Li2Ta2Nb4Fe(Co5P4)3
_chemical_formula_sum   'Li2 Ta2 Nb4 Fe1 Co15 P12'
_cell_volume   442.61395761
_cell_formula_units_Z   1
loop_
 _symmetry_equiv_pos_site_id
 _symmetry_equiv_pos_as_xyz
  1  'x, y, z'
loop_
 _atom_site_type_symbol
 _atom_site_label
 _atom_site_symmetry_multiplicity
 _atom_site_fract_x
 _atom_site_fract_y
 _atom_site_fract_z
 _atom_site_occupancy
  Li  Li0  1  0.333775  0.666861  0.000000  1
  Li  Li1  1  0.666278  0.333552  0.000000  1
  Ta  Ta2  1  0.442471  0.999998  0.000000  1
  Ta  Ta3  1  0.999890  0.443702  0.000000  1
  Nb  Nb4  1  0.820550  0.000343  0.500000  1
  Nb  Nb5  1  0.002158  0.821658  0.500000  1
  Nb  Nb6  1  0.180834  0.179078  0.500000  1
  Nb  Nb7  1  0.555052  0.555201  0.000000  1
  Fe  Fe8  1  0.278590  0.999904  0.500000  1
  Co  Co9  1  0.999681  0.277144  0.500000  1
  Co  Co10  1  0.723722  0.723839  0.500000  1
  Co  Co11  1  0.633629  0.807599  0.000000  1
  Co  Co12  1  0.192494  0.824532  0.000000  1
  Co  Co13  1  0.173179  0.366441  0.000000  1
  Co  Co14  1  0.367431  0.175118  0.000000  1
  Co  Co15  1  0.807595  0.633560  0.000000  1
  Co  Co16  1  0.826547  0.193362  0.000000  1
  Co  Co17  1  0.522724  0.874947  0.500000  1
  Co  Co18  1  0.124349  0.647225  0.500000  1
  Co  Co19  1  0.350518  0.477246  0.500000  1
  Co  Co20  1  0.476969  0.351507  0.500000  1
  Co  Co21  1  0.874164  0.521870  0.500000  1
  Co  Co22  1  0.648174  0.124944  0.500000  1
  Co  Co23  1  0.000301  0.999639  0.000000  1
  P  P24  1  0.174298  0.000078  0.000000  1
  P  P25  1  0.000321  0.172665  0.000000  1
  P  P26  1  0.826977  0.826759  0.000000  1
  P  P27  1  0.511815  0.686241  0.500000  1
  P  P28  1  0.312592  0.825808  0.500000  1
  P  P29  1  0.174247  0.488420  0.500000  1
  P  P30  1  0.486742  0.173937  0.500000  1
  P  P31  1  0.685999  0.511940  0.500000  1
  P  P32  1  0.825081  0.313619  0.500000  1
  P  P33  1  0.650180  0.999949  0.000000  1
  P  P34  1  0.999738  0.650163  0.000000  1
  P  P35  1  0.350938  0.351149  0.000000  1
