# generated using pymatgen
data_PrY6FeI12
_symmetry_space_group_name_H-M   'P 1'
_cell_length_a   9.72883639
_cell_length_b   9.82939432
_cell_length_c   9.84179125
_cell_angle_alpha   106.80188967
_cell_angle_beta   107.26941374
_cell_angle_gamma   106.70806710
_symmetry_Int_Tables_number   1
_chemical_formula_structural   PrY6FeI12
_chemical_formula_sum   'Pr1 Y6 Fe1 I12'
_cell_volume   785.35443703
_cell_formula_units_Z   1
loop_
 _symmetry_equiv_pos_site_id
 _symmetry_equiv_pos_as_xyz
  1  'x, y, z'
loop_
 _atom_site_type_symbol
 _atom_site_label
 _atom_site_symmetry_multiplicity
 _atom_site_fract_x
 _atom_site_fract_y
 _atom_site_fract_z
 _atom_site_occupancy
  Pr  Pr0  1  0.712508  0.978199  0.908196  1
  Y  Y1  1  0.978517  0.906741  0.707287  1
  Y  Y2  1  0.500591  0.499995  0.500211  1
  Y  Y3  1  0.095292  0.293586  0.023188  1
  Y  Y4  1  0.279677  0.021568  0.089263  1
  Y  Y5  1  0.908762  0.707135  0.977932  1
  Y  Y6  1  0.023476  0.093338  0.293625  1
  Fe  Fe7  1  0.998285  0.000362  0.999615  1
  I  I8  1  0.071874  0.225085  0.678796  1
  I  I9  1  0.386277  0.160579  0.461293  1
  I  I10  1  0.613167  0.835055  0.529743  1
  I  I11  1  0.227356  0.680142  0.072389  1
  I  I12  1  0.778323  0.329067  0.929481  1
  I  I13  1  0.680784  0.074295  0.233753  1
  I  I14  1  0.535601  0.607332  0.837296  1
  I  I15  1  0.840954  0.537828  0.614740  1
  I  I16  1  0.928576  0.775048  0.321387  1
  I  I17  1  0.317069  0.928044  0.775226  1
  I  I18  1  0.463066  0.384362  0.161379  1
  I  I19  1  0.159846  0.462240  0.385201  1
