# generated using pymatgen
data_Dy4Ho2Al24ZnOs7
_symmetry_space_group_name_H-M   'P 1'
_cell_length_a   8.85521354
_cell_length_b   8.85521318
_cell_length_c   9.53996950
_cell_angle_alpha   89.93949234
_cell_angle_beta   90.06050993
_cell_angle_gamma   120.00763571
_symmetry_Int_Tables_number   1
_chemical_formula_structural   Dy4Ho2Al24ZnOs7
_chemical_formula_sum   'Dy4 Ho2 Al24 Zn1 Os7'
_cell_volume   647.80147740
_cell_formula_units_Z   1
loop_
 _symmetry_equiv_pos_site_id
 _symmetry_equiv_pos_as_xyz
  1  'x, y, z'
loop_
 _atom_site_type_symbol
 _atom_site_label
 _atom_site_symmetry_multiplicity
 _atom_site_fract_x
 _atom_site_fract_y
 _atom_site_fract_z
 _atom_site_occupancy
  Dy  Dy0  1  0.191200  0.386160  0.248300  1
  Dy  Dy1  1  0.808800  0.613840  0.751700  1
  Dy  Dy2  1  0.613840  0.808800  0.248300  1
  Dy  Dy3  1  0.386160  0.191200  0.751700  1
  Ho  Ho4  1  0.194665  0.805335  0.253284  1
  Ho  Ho5  1  0.805335  0.194665  0.746716  1
  Al  Al6  1  0.329590  0.670410  0.021141  1
  Al  Al7  1  0.670410  0.329590  0.978859  1
  Al  Al8  1  0.666124  0.333876  0.517662  1
  Al  Al9  1  0.333876  0.666124  0.482338  1
  Al  Al10  1  0.162511  0.325853  0.574014  1
  Al  Al11  1  0.837489  0.674147  0.425986  1
  Al  Al12  1  0.674147  0.837489  0.574014  1
  Al  Al13  1  0.848724  0.677217  0.081004  1
  Al  Al14  1  0.325853  0.162511  0.425986  1
  Al  Al15  1  0.151276  0.322783  0.918996  1
  Al  Al16  1  0.162971  0.837029  0.575079  1
  Al  Al17  1  0.322783  0.151276  0.081004  1
  Al  Al18  1  0.837029  0.162971  0.424921  1
  Al  Al19  1  0.677217  0.848724  0.918996  1
  Al  Al20  1  0.836676  0.163324  0.076269  1
  Al  Al21  1  0.163324  0.836676  0.923731  1
  Al  Al22  1  0.561435  0.121450  0.249280  1
  Al  Al23  1  0.438565  0.878550  0.750720  1
  Al  Al24  1  0.878550  0.438565  0.249280  1
  Al  Al25  1  0.121450  0.561435  0.750720  1
  Al  Al26  1  0.563590  0.436410  0.254494  1
  Al  Al27  1  0.436410  0.563590  0.745506  1
  Al  Al28  1  0.999237  0.000763  0.250543  1
  Al  Al29  1  0.000763  0.999237  0.749457  1
  Zn  Zn30  1  0.500000  0.500000  0.000000  1
  Os  Os31  1  0.500000  0.000000  0.000000  1
  Os  Os32  1  0.000000  0.500000  0.000000  1
  Os  Os33  1  0.500000  0.000000  0.500000  1
  Os  Os34  1  0.000000  0.500000  0.500000  1
  Os  Os35  1  0.500000  0.500000  0.500000  1
  Os  Os36  1  0.000000  0.000000  0.000000  1
  Os  Os37  1  0.000000  0.000000  0.500000  1
