# generated using pymatgen
data_NaPr5NdOsBr12
_symmetry_space_group_name_H-M   'P 1'
_cell_length_a   9.63934551
_cell_length_b   9.63041195
_cell_length_c   9.63900851
_cell_angle_alpha   107.20710698
_cell_angle_beta   107.25957799
_cell_angle_gamma   107.19533109
_symmetry_Int_Tables_number   1
_chemical_formula_structural   NaPr5NdOsBr12
_chemical_formula_sum   'Na1 Pr5 Nd1 Os1 Br12'
_cell_volume   740.66411343
_cell_formula_units_Z   1
loop_
 _symmetry_equiv_pos_site_id
 _symmetry_equiv_pos_as_xyz
  1  'x, y, z'
loop_
 _atom_site_type_symbol
 _atom_site_label
 _atom_site_symmetry_multiplicity
 _atom_site_fract_x
 _atom_site_fract_y
 _atom_site_fract_z
 _atom_site_occupancy
  Na  Na0  1  0.500057  0.499962  0.500106  1
  Pr  Pr1  1  0.112294  0.320010  0.031547  1
  Pr  Pr2  1  0.320087  0.031043  0.112575  1
  Pr  Pr3  1  0.031449  0.111782  0.319993  1
  Pr  Pr4  1  0.968330  0.887290  0.679805  1
  Pr  Pr5  1  0.679837  0.968664  0.887515  1
  Nd  Nd6  1  0.887923  0.681271  0.968232  1
  Os  Os7  1  0.999988  0.999998  0.999834  1
  Br  Br8  1  0.215112  0.684470  0.070477  1
  Br  Br9  1  0.454395  0.372684  0.155932  1
  Br  Br10  1  0.685396  0.071826  0.218089  1
  Br  Br11  1  0.928578  0.780657  0.312763  1
  Br  Br12  1  0.155903  0.454363  0.372759  1
  Br  Br13  1  0.372727  0.155606  0.454518  1
  Br  Br14  1  0.627285  0.844375  0.545467  1
  Br  Br15  1  0.844314  0.545980  0.629576  1
  Br  Br16  1  0.070963  0.218170  0.685042  1
  Br  Br17  1  0.314596  0.928133  0.781907  1
  Br  Br18  1  0.547990  0.627259  0.845089  1
  Br  Br19  1  0.782776  0.316459  0.928777  1
