# generated using pymatgen
data_Li2Dy8Sc10Si15Ge
_symmetry_space_group_name_H-M   'P 1'
_cell_length_a   7.01607625
_cell_length_b   7.41060006
_cell_length_c   14.01620816
_cell_angle_alpha   90.00940615
_cell_angle_beta   89.92877127
_cell_angle_gamma   89.98211366
_symmetry_Int_Tables_number   1
_chemical_formula_structural   Li2Dy8Sc10Si15Ge
_chemical_formula_sum   'Li2 Dy8 Sc10 Si15 Ge1'
_cell_volume   728.74879988
_cell_formula_units_Z   1
loop_
 _symmetry_equiv_pos_site_id
 _symmetry_equiv_pos_as_xyz
  1  'x, y, z'
loop_
 _atom_site_type_symbol
 _atom_site_label
 _atom_site_symmetry_multiplicity
 _atom_site_fract_x
 _atom_site_fract_y
 _atom_site_fract_z
 _atom_site_occupancy
  Li  Li0  1  0.159278  0.504152  0.750978  1
  Li  Li1  1  0.840607  0.495863  0.249962  1
  Dy  Dy2  1  0.010468  0.183236  0.098469  1
  Dy  Dy3  1  0.989703  0.816811  0.901448  1
  Dy  Dy4  1  0.484276  0.674215  0.902080  1
  Dy  Dy5  1  0.989217  0.818028  0.598609  1
  Dy  Dy6  1  0.515595  0.325719  0.097870  1
  Dy  Dy7  1  0.009374  0.182600  0.400901  1
  Dy  Dy8  1  0.516398  0.324476  0.401115  1
  Dy  Dy9  1  0.486869  0.676030  0.598266  1
  Sc  Sc10  1  0.340449  0.002295  0.249878  1
  Sc  Sc11  1  0.659734  0.997600  0.750293  1
  Sc  Sc12  1  0.328980  0.179343  0.626827  1
  Sc  Sc13  1  0.672491  0.818737  0.373570  1
  Sc  Sc14  1  0.164806  0.675140  0.372816  1
  Sc  Sc15  1  0.673178  0.817962  0.125687  1
  Sc  Sc16  1  0.832439  0.325389  0.626702  1
  Sc  Sc17  1  0.326682  0.181881  0.874231  1
  Sc  Sc18  1  0.833869  0.325325  0.873433  1
  Sc  Sc19  1  0.166046  0.674671  0.126523  1
  Si  Si20  1  0.030450  0.104475  0.750146  1
  Si  Si21  1  0.969624  0.896064  0.249492  1
  Si  Si22  1  0.464060  0.614090  0.249850  1
  Si  Si23  1  0.535388  0.386134  0.750203  1
  Si  Si24  1  0.287840  0.881649  0.750229  1
  Si  Si25  1  0.711968  0.117674  0.249589  1
  Si  Si26  1  0.220124  0.373610  0.249956  1
  Si  Si27  1  0.780250  0.626356  0.750126  1
  Si  Si28  1  0.836455  0.539890  0.465852  1
  Si  Si29  1  0.342967  0.966356  0.461125  1
  Si  Si30  1  0.841077  0.538576  0.033464  1
  Si  Si31  1  0.656944  0.033996  0.538408  1
  Si  Si32  1  0.159016  0.461310  0.966537  1
  Si  Si33  1  0.656274  0.033289  0.961176  1
  Si  Si34  1  0.343792  0.966631  0.038832  1
  Ge  Ge35  1  0.163315  0.460426  0.535359  1
