# generated using pymatgen
data_Tm20Ir9OsRu2
_symmetry_space_group_name_H-M   'P 1'
_cell_length_a   10.69744700
_cell_length_b   10.69744700
_cell_length_c   6.32833900
_cell_angle_alpha   90.00000000
_cell_angle_beta   90.00000000
_cell_angle_gamma   90.00000000
_symmetry_Int_Tables_number   1
_chemical_formula_structural   Tm20Ir9OsRu2
_chemical_formula_sum   'Tm20 Ir9 Os1 Ru2'
_cell_volume   724.18582962
_cell_formula_units_Z   1
loop_
 _symmetry_equiv_pos_site_id
 _symmetry_equiv_pos_as_xyz
  1  'x, y, z'
loop_
 _atom_site_type_symbol
 _atom_site_label
 _atom_site_symmetry_multiplicity
 _atom_site_fract_x
 _atom_site_fract_y
 _atom_site_fract_z
 _atom_site_occupancy
  Tm  Tm0  1  0.293708  0.086003  0.376024  1
  Tm  Tm1  1  0.293920  0.914175  0.877403  1
  Tm  Tm2  1  0.706080  0.085825  0.877403  1
  Tm  Tm3  1  0.706292  0.913997  0.376024  1
  Tm  Tm4  1  0.585825  0.793920  0.877403  1
  Tm  Tm5  1  0.586003  0.206292  0.376024  1
  Tm  Tm6  1  0.413997  0.793708  0.376024  1
  Tm  Tm7  1  0.414175  0.206080  0.877403  1
  Tm  Tm8  1  0.208106  0.413189  0.624619  1
  Tm  Tm9  1  0.207762  0.586860  0.121515  1
  Tm  Tm10  1  0.792238  0.413140  0.121515  1
  Tm  Tm11  1  0.791894  0.586811  0.624619  1
  Tm  Tm12  1  0.913140  0.707762  0.121515  1
  Tm  Tm13  1  0.913189  0.291894  0.624619  1
  Tm  Tm14  1  0.086811  0.708106  0.624619  1
  Tm  Tm15  1  0.086860  0.292238  0.121515  1
  Tm  Tm16  1  0.000000  0.000000  0.499649  1
  Tm  Tm17  1  0.000000  0.000000  0.999541  1
  Tm  Tm18  1  0.500000  0.500000  0.999541  1
  Tm  Tm19  1  0.500000  0.500000  0.499649  1
  Ir  Ir20  1  0.848031  0.153327  0.250222  1
  Ir  Ir21  1  0.847612  0.846758  0.749666  1
  Ir  Ir22  1  0.152388  0.153242  0.749666  1
  Ir  Ir23  1  0.151969  0.846673  0.250222  1
  Ir  Ir24  1  0.653242  0.347612  0.749666  1
  Ir  Ir25  1  0.653327  0.651969  0.250222  1
  Ir  Ir26  1  0.346673  0.348031  0.250222  1
  Ir  Ir27  1  0.346758  0.652388  0.749666  1
  Ir  Ir28  1  0.000000  0.500000  0.378032  1
  Os  Os29  1  0.500000  0.000000  0.124991  1
  Ru  Ru30  1  0.500000  0.000000  0.623693  1
  Ru  Ru31  1  0.000000  0.500000  0.877107  1
