# generated using pymatgen
data_Tb5Dy5(TlBi)4
_symmetry_space_group_name_H-M   'P 1'
_cell_length_a   8.19811200
_cell_length_b   8.23749004
_cell_length_c   15.67656000
_cell_angle_alpha   90.00550875
_cell_angle_beta   90.00000000
_cell_angle_gamma   90.00000000
_symmetry_Int_Tables_number   1
_chemical_formula_structural   Tb5Dy5(TlBi)4
_chemical_formula_sum   'Tb10 Dy10 Tl8 Bi8'
_cell_volume   1058.66734329
_cell_formula_units_Z   2
loop_
 _symmetry_equiv_pos_site_id
 _symmetry_equiv_pos_as_xyz
  1  'x, y, z'
loop_
 _atom_site_type_symbol
 _atom_site_label
 _atom_site_symmetry_multiplicity
 _atom_site_fract_x
 _atom_site_fract_y
 _atom_site_fract_z
 _atom_site_occupancy
  Tb  Tb0  1  0.390345  0.836014  0.620844  1
  Tb  Tb1  1  0.890345  0.663986  0.879156  1
  Tb  Tb2  1  0.549735  0.327104  0.893386  1
  Tb  Tb3  1  0.049735  0.172896  0.606614  1
  Tb  Tb4  1  0.450056  0.672446  0.392490  1
  Tb  Tb5  1  0.950056  0.827554  0.107510  1
  Tb  Tb6  1  0.450370  0.672626  0.107389  1
  Tb  Tb7  1  0.950370  0.827374  0.392611  1
  Tb  Tb8  1  0.549448  0.327236  0.606709  1
  Tb  Tb9  1  0.049448  0.172764  0.893291  1
  Dy  Dy10  1  0.389395  0.836521  0.878428  1
  Dy  Dy11  1  0.889395  0.663479  0.621572  1
  Dy  Dy12  1  0.610526  0.163318  0.378216  1
  Dy  Dy13  1  0.110526  0.336682  0.121784  1
  Dy  Dy14  1  0.610221  0.163365  0.122012  1
  Dy  Dy15  1  0.110221  0.336635  0.377988  1
  Dy  Dy16  1  0.222996  0.498838  0.749941  1
  Dy  Dy17  1  0.722996  0.001162  0.750059  1
  Dy  Dy18  1  0.776829  0.500934  0.250190  1
  Dy  Dy19  1  0.276829  0.999066  0.249810  1
  Tl  Tl20  1  0.589665  0.622356  0.750068  1
  Tl  Tl21  1  0.089665  0.877644  0.749932  1
  Tl  Tl22  1  0.410780  0.376676  0.250003  1
  Tl  Tl23  1  0.910780  0.123324  0.249997  1
  Tl  Tl24  1  0.352021  0.139325  0.750060  1
  Tl  Tl25  1  0.852021  0.360675  0.749940  1
  Tl  Tl26  1  0.647408  0.860291  0.250026  1
  Tl  Tl27  1  0.147408  0.639709  0.249974  1
  Bi  Bi28  1  0.271857  0.021210  0.043990  1
  Bi  Bi29  1  0.771857  0.478790  0.456010  1
  Bi  Bi30  1  0.729145  0.979559  0.543338  1
  Bi  Bi31  1  0.229145  0.520441  0.956662  1
  Bi  Bi32  1  0.727460  0.979776  0.956721  1
  Bi  Bi33  1  0.227460  0.520224  0.543279  1
  Bi  Bi34  1  0.271742  0.021667  0.455567  1
  Bi  Bi35  1  0.771742  0.478333  0.044433  1
