# generated using pymatgen
data_TbTmZr2(NiAs)4
_symmetry_space_group_name_H-M   'P 1'
_cell_length_a   4.00627100
_cell_length_b   4.00627122
_cell_length_c   14.81075000
_cell_angle_alpha   90.00000000
_cell_angle_beta   90.00000000
_cell_angle_gamma   119.99998995
_symmetry_Int_Tables_number   1
_chemical_formula_structural   TbTmZr2(NiAs)4
_chemical_formula_sum   'Tb1 Tm1 Zr2 Ni4 As4'
_cell_volume   205.86778754
_cell_formula_units_Z   1
loop_
 _symmetry_equiv_pos_site_id
 _symmetry_equiv_pos_as_xyz
  1  'x, y, z'
loop_
 _atom_site_type_symbol
 _atom_site_label
 _atom_site_symmetry_multiplicity
 _atom_site_fract_x
 _atom_site_fract_y
 _atom_site_fract_z
 _atom_site_occupancy
  Tb  Tb0  1  0.000000  0.000000  0.000000  1
  Tm  Tm1  1  0.000000  0.000000  0.500000  1
  Zr  Zr2  1  0.000000  0.000000  0.251393  1
  Zr  Zr3  1  0.000000  0.000000  0.748607  1
  Ni  Ni4  1  0.333333  0.666667  0.156265  1
  Ni  Ni5  1  0.666667  0.333333  0.843735  1
  Ni  Ni6  1  0.666667  0.333333  0.652199  1
  Ni  Ni7  1  0.333333  0.666667  0.347801  1
  As  As8  1  0.333333  0.666667  0.619445  1
  As  As9  1  0.666667  0.333333  0.380555  1
  As  As10  1  0.666667  0.333333  0.123064  1
  As  As11  1  0.333333  0.666667  0.876936  1
