# generated using pymatgen
data_Tb3Cd(Pd2Au)4
_symmetry_space_group_name_H-M   'P 1'
_cell_length_a   6.01041200
_cell_length_b   6.00468900
_cell_length_c   8.00614800
_cell_angle_alpha   90.00004294
_cell_angle_beta   89.99904145
_cell_angle_gamma   90.00006677
_symmetry_Int_Tables_number   1
_chemical_formula_structural   Tb3Cd(Pd2Au)4
_chemical_formula_sum   'Tb3 Cd1 Pd8 Au4'
_cell_volume   288.94712390
_cell_formula_units_Z   1
loop_
 _symmetry_equiv_pos_site_id
 _symmetry_equiv_pos_as_xyz
  1  'x, y, z'
loop_
 _atom_site_type_symbol
 _atom_site_label
 _atom_site_symmetry_multiplicity
 _atom_site_fract_x
 _atom_site_fract_y
 _atom_site_fract_z
 _atom_site_occupancy
  Tb  Tb0  1  0.250533  0.250000  0.999993  1
  Tb  Tb1  1  0.749456  0.750000  0.000005  1
  Tb  Tb2  1  0.750516  0.750000  0.499994  1
  Cd  Cd3  1  0.249112  0.250000  0.500011  1
  Pd  Pd4  1  0.001252  0.000641  0.251837  1
  Pd  Pd5  1  0.001253  0.499379  0.251838  1
  Pd  Pd6  1  0.499003  0.000789  0.252821  1
  Pd  Pd7  1  0.499005  0.499189  0.252822  1
  Pd  Pd8  1  0.498750  0.000773  0.747169  1
  Pd  Pd9  1  0.498750  0.499247  0.747172  1
  Pd  Pd10  1  0.001013  0.000610  0.748173  1
  Pd  Pd11  1  0.001011  0.499372  0.748174  1
  Au  Au12  1  0.749866  0.250000  0.999994  1
  Au  Au13  1  0.250123  0.750001  0.999999  1
  Au  Au14  1  0.249816  0.750000  0.499983  1
  Au  Au15  1  0.750538  0.250000  0.500015  1
