# generated using pymatgen
data_TbCeHo(InNi)3
_symmetry_space_group_name_H-M   'P 1'
_cell_length_a   7.45218547
_cell_length_b   7.39313959
_cell_length_c   3.86689400
_cell_angle_alpha   90.00000000
_cell_angle_beta   90.00000000
_cell_angle_gamma   120.30517658
_symmetry_Int_Tables_number   1
_chemical_formula_structural   TbCeHo(InNi)3
_chemical_formula_sum   'Tb1 Ce1 Ho1 In3 Ni3'
_cell_volume   183.93386785
_cell_formula_units_Z   1
loop_
 _symmetry_equiv_pos_site_id
 _symmetry_equiv_pos_as_xyz
  1  'x, y, z'
loop_
 _atom_site_type_symbol
 _atom_site_label
 _atom_site_symmetry_multiplicity
 _atom_site_fract_x
 _atom_site_fract_y
 _atom_site_fract_z
 _atom_site_occupancy
  Tb  Tb0  1  0.002008  0.590488  0.000000  1
  Ce  Ce1  1  0.585702  0.999792  0.000000  1
  Ho  Ho2  1  0.410930  0.408990  0.000000  1
  In  In3  1  0.747256  0.740898  0.500000  1
  In  In4  1  0.006990  0.258405  0.500000  1
  In  In5  1  0.245288  0.000942  0.500000  1
  Ni  Ni6  1  0.344446  0.679590  0.500000  1
  Ni  Ni7  1  0.994093  0.000719  0.000000  1
  Ni  Ni8  1  0.663287  0.320176  0.500000  1
