# generated using pymatgen
data_Gd3DyNiB16Ir3
_symmetry_space_group_name_H-M   'P 1'
_cell_length_a   6.97348698
_cell_length_b   6.97348603
_cell_length_c   6.97348600
_cell_angle_alpha   111.31439814
_cell_angle_beta   112.27863907
_cell_angle_gamma   104.91605108
_symmetry_Int_Tables_number   1
_chemical_formula_structural   Gd3DyNiB16Ir3
_chemical_formula_sum   'Gd3 Dy1 Ni1 B16 Ir3'
_cell_volume   259.80794251
_cell_formula_units_Z   1
loop_
 _symmetry_equiv_pos_site_id
 _symmetry_equiv_pos_as_xyz
  1  'x, y, z'
loop_
 _atom_site_type_symbol
 _atom_site_label
 _atom_site_symmetry_multiplicity
 _atom_site_fract_x
 _atom_site_fract_y
 _atom_site_fract_z
 _atom_site_occupancy
  Gd  Gd0  1  0.787177  0.790008  0.002831  1
  Gd  Gd1  1  0.212823  0.215655  0.002831  1
  Gd  Gd2  1  0.751413  0.252036  0.500623  1
  Dy  Dy3  1  0.248587  0.749211  0.500623  1
  Ni  Ni4  1  0.500000  0.256800  0.756800  1
  B  B5  1  0.270208  0.108608  0.378815  1
  B  B6  1  0.735357  0.893954  0.629311  1
  B  B7  1  0.264643  0.893954  0.158597  1
  B  B8  1  0.729792  0.108608  0.838400  1
  B  B9  1  0.108054  0.731836  0.839890  1
  B  B10  1  0.891127  0.264515  0.155642  1
  B  B11  1  0.108873  0.264515  0.373388  1
  B  B12  1  0.891946  0.731836  0.623781  1
  B  B13  1  0.117864  0.112775  0.531664  1
  B  B14  1  0.584621  0.584135  0.474671  1
  B  B15  1  0.109466  0.584135  0.999515  1
  B  B16  1  0.581110  0.112775  0.994911  1
  B  B17  1  0.890534  0.890049  0.474671  1
  B  B18  1  0.418890  0.413801  0.531664  1
  B  B19  1  0.882136  0.413801  0.994911  1
  B  B20  1  0.415379  0.890049  0.999515  1
  Ir  Ir21  1  0.266721  0.496928  0.763649  1
  Ir  Ir22  1  0.733279  0.496928  0.230207  1
  Ir  Ir23  1  0.500000  0.743090  0.243090  1
