# generated using pymatgen
data_Nb5Al(B2Ru5)2
_symmetry_space_group_name_H-M   'P 1'
_cell_length_a   9.39462000
_cell_length_b   9.39462000
_cell_length_c   3.01561200
_cell_angle_alpha   90.00000000
_cell_angle_beta   90.00000000
_cell_angle_gamma   90.00000000
_symmetry_Int_Tables_number   1
_chemical_formula_structural   Nb5Al(B2Ru5)2
_chemical_formula_sum   'Nb5 Al1 B4 Ru10'
_cell_volume   266.15455254
_cell_formula_units_Z   1
loop_
 _symmetry_equiv_pos_site_id
 _symmetry_equiv_pos_as_xyz
  1  'x, y, z'
loop_
 _atom_site_type_symbol
 _atom_site_label
 _atom_site_symmetry_multiplicity
 _atom_site_fract_x
 _atom_site_fract_y
 _atom_site_fract_z
 _atom_site_occupancy
  Nb  Nb0  1  0.819115  0.674104  0.000000  1
  Nb  Nb1  1  0.180885  0.325896  0.000000  1
  Nb  Nb2  1  0.325896  0.819115  0.000000  1
  Nb  Nb3  1  0.674104  0.180885  0.000000  1
  Nb  Nb4  1  0.000000  0.000000  0.000000  1
  Al  Al5  1  0.500000  0.500000  0.000000  1
  B  B6  1  0.616477  0.870514  0.000000  1
  B  B7  1  0.383523  0.129486  0.000000  1
  B  B8  1  0.129486  0.616477  0.000000  1
  B  B9  1  0.870514  0.383523  0.000000  1
  Ru  Ru10  1  0.500000  0.000000  0.500000  1
  Ru  Ru11  1  0.000000  0.500000  0.500000  1
  Ru  Ru12  1  0.568783  0.714488  0.500000  1
  Ru  Ru13  1  0.431217  0.285512  0.500000  1
  Ru  Ru14  1  0.071719  0.780185  0.500000  1
  Ru  Ru15  1  0.928281  0.219815  0.500000  1
  Ru  Ru16  1  0.285512  0.568783  0.500000  1
  Ru  Ru17  1  0.714488  0.431217  0.500000  1
  Ru  Ru18  1  0.219815  0.071719  0.500000  1
  Ru  Ru19  1  0.780185  0.928281  0.500000  1
