# generated using pymatgen
data_SmLuCo6(SiB)2
_symmetry_space_group_name_H-M   'P 1'
_cell_length_a   5.13926600
_cell_length_b   5.13904864
_cell_length_c   6.45186100
_cell_angle_alpha   90.00000000
_cell_angle_beta   90.00000000
_cell_angle_gamma   120.00118571
_symmetry_Int_Tables_number   1
_chemical_formula_structural   SmLuCo6(SiB)2
_chemical_formula_sum   'Sm1 Lu1 Co6 Si2 B2'
_cell_volume   147.56870633
_cell_formula_units_Z   1
loop_
 _symmetry_equiv_pos_site_id
 _symmetry_equiv_pos_as_xyz
  1  'x, y, z'
loop_
 _atom_site_type_symbol
 _atom_site_label
 _atom_site_symmetry_multiplicity
 _atom_site_fract_x
 _atom_site_fract_y
 _atom_site_fract_z
 _atom_site_occupancy
  Sm  Sm0  1  0.999977  0.999995  0.000000  1
  Lu  Lu1  1  0.999990  0.000002  0.500000  1
  Co  Co2  1  0.499984  0.000000  0.285519  1
  Co  Co3  1  0.499986  0.500004  0.285503  1
  Co  Co4  1  0.999984  0.500000  0.285398  1
  Co  Co5  1  0.499984  0.000000  0.714481  1
  Co  Co6  1  0.499986  0.500004  0.714496  1
  Co  Co7  1  0.999984  0.500000  0.714601  1
  Si  Si8  1  0.333509  0.666852  0.000000  1
  Si  Si9  1  0.666449  0.333144  0.000000  1
  B  B10  1  0.333228  0.666614  0.500000  1
  B  B11  1  0.666738  0.333386  0.500000  1
