# generated using pymatgen
data_CaCdSb2O7
_symmetry_space_group_name_H-M   'P 1'
_cell_length_a   7.39636950
_cell_length_b   7.39636931
_cell_length_c   7.39636950
_cell_angle_alpha   119.83015669
_cell_angle_beta   120.08965208
_cell_angle_gamma   90.06961166
_symmetry_Int_Tables_number   1
_chemical_formula_structural   CaCdSb2O7
_chemical_formula_sum   'Ca2 Cd2 Sb4 O14'
_cell_volume   286.28643549
_cell_formula_units_Z   2
loop_
 _symmetry_equiv_pos_site_id
 _symmetry_equiv_pos_as_xyz
  1  'x, y, z'
loop_
 _atom_site_type_symbol
 _atom_site_label
 _atom_site_symmetry_multiplicity
 _atom_site_fract_x
 _atom_site_fract_y
 _atom_site_fract_z
 _atom_site_occupancy
  Ca  Ca0  1  0.000000  0.000000  0.500000  1
  Ca  Ca1  1  0.000000  0.500000  0.000000  1
  Cd  Cd2  1  0.000000  0.000000  0.000000  1
  Cd  Cd3  1  0.500000  0.500000  0.000000  1
  Sb  Sb4  1  0.500000  0.000000  0.000000  1
  Sb  Sb5  1  0.500000  0.500000  0.500000  1
  Sb  Sb6  1  0.500000  0.000000  0.500000  1
  Sb  Sb7  1  0.000000  0.500000  0.500000  1
  O  O8  1  0.437518  0.085610  0.763570  1
  O  O9  1  0.562482  0.326052  0.648091  1
  O  O10  1  0.177961  0.414390  0.351909  1
  O  O11  1  0.822039  0.173948  0.236430  1
  O  O12  1  0.562482  0.914390  0.236430  1
  O  O13  1  0.437518  0.673948  0.351909  1
  O  O14  1  0.822039  0.585610  0.648091  1
  O  O15  1  0.177961  0.826052  0.763570  1
  O  O16  1  0.599766  0.750000  0.849766  1
  O  O17  1  0.400234  0.250000  0.150234  1
  O  O18  1  0.169879  0.906992  0.262888  1
  O  O19  1  0.830121  0.093008  0.737112  1
  O  O20  1  0.855896  0.593008  0.262888  1
  O  O21  1  0.144104  0.406992  0.737112  1
