# generated using pymatgen
data_LiMn2(SnRh2)3
_symmetry_space_group_name_H-M   'P 1'
_cell_length_a   4.44871700
_cell_length_b   6.24993000
_cell_length_c   13.32802701
_cell_angle_alpha   90.00009313
_cell_angle_beta   90.00021655
_cell_angle_gamma   90.00015061
_symmetry_Int_Tables_number   1
_chemical_formula_structural   LiMn2(SnRh2)3
_chemical_formula_sum   'Li2 Mn4 Sn6 Rh12'
_cell_volume   370.57472673
_cell_formula_units_Z   2
loop_
 _symmetry_equiv_pos_site_id
 _symmetry_equiv_pos_as_xyz
  1  'x, y, z'
loop_
 _atom_site_type_symbol
 _atom_site_label
 _atom_site_symmetry_multiplicity
 _atom_site_fract_x
 _atom_site_fract_y
 _atom_site_fract_z
 _atom_site_occupancy
  Li  Li0  1  0.000001  0.000001  0.000096  1
  Li  Li1  1  0.500148  0.500001  0.166613  1
  Mn  Mn2  1  0.000066  0.000000  0.331986  1
  Mn  Mn3  1  0.500003  0.500000  0.499323  1
  Mn  Mn4  1  0.999933  0.000000  0.667346  1
  Mn  Mn5  1  0.499907  0.500000  0.834683  1
  Sn  Sn6  1  0.000000  0.499999  0.002642  1
  Sn  Sn7  1  0.500031  0.000000  0.164061  1
  Sn  Sn8  1  0.000012  0.500000  0.329746  1
  Sn  Sn9  1  0.500002  0.999999  0.499111  1
  Sn  Sn10  1  0.999984  0.500000  0.667482  1
  Sn  Sn11  1  0.499947  0.000000  0.836904  1
  Rh  Rh12  1  0.499996  0.253515  0.999480  1
  Rh  Rh13  1  0.499999  0.746485  0.999480  1
  Rh  Rh14  1  0.000042  0.246455  0.167182  1
  Rh  Rh15  1  0.000043  0.753545  0.167182  1
  Rh  Rh16  1  0.500013  0.249868  0.334107  1
  Rh  Rh17  1  0.500015  0.750131  0.334105  1
  Rh  Rh18  1  0.000001  0.249766  0.500080  1
  Rh  Rh19  1  0.000002  0.750233  0.500081  1
  Rh  Rh20  1  0.499975  0.250234  0.666584  1
  Rh  Rh21  1  0.499976  0.749766  0.666585  1
  Rh  Rh22  1  0.999953  0.250148  0.832570  1
  Rh  Rh23  1  0.999953  0.749851  0.832571  1
