# generated using pymatgen
data_Tb5Dy3Lu8(ScSi4)4
_symmetry_space_group_name_H-M   'P 1'
_cell_length_a   7.20316207
_cell_length_b   7.54954104
_cell_length_c   14.29477911
_cell_angle_alpha   89.99389434
_cell_angle_beta   90.01269267
_cell_angle_gamma   90.00971754
_symmetry_Int_Tables_number   1
_chemical_formula_structural   Tb5Dy3Lu8(ScSi4)4
_chemical_formula_sum   'Tb5 Dy3 Lu8 Sc4 Si16'
_cell_volume   777.35816766
_cell_formula_units_Z   1
loop_
 _symmetry_equiv_pos_site_id
 _symmetry_equiv_pos_as_xyz
  1  'x, y, z'
loop_
 _atom_site_type_symbol
 _atom_site_label
 _atom_site_symmetry_multiplicity
 _atom_site_fract_x
 _atom_site_fract_y
 _atom_site_fract_z
 _atom_site_occupancy
  Tb  Tb0  1  0.014085  0.179002  0.097886  1
  Tb  Tb1  1  0.985926  0.820994  0.902083  1
  Tb  Tb2  1  0.485931  0.678985  0.902142  1
  Tb  Tb3  1  0.985870  0.820983  0.597836  1
  Tb  Tb4  1  0.514086  0.320999  0.097884  1
  Dy  Dy5  1  0.014206  0.179134  0.402023  1
  Dy  Dy6  1  0.514210  0.320892  0.402020  1
  Dy  Dy7  1  0.485800  0.679086  0.597943  1
  Lu  Lu8  1  0.328006  0.177418  0.625111  1
  Lu  Lu9  1  0.672008  0.822634  0.374862  1
  Lu  Lu10  1  0.172062  0.677343  0.374864  1
  Lu  Lu11  1  0.672027  0.822693  0.125217  1
  Lu  Lu12  1  0.827953  0.322673  0.625104  1
  Lu  Lu13  1  0.327971  0.177323  0.874813  1
  Lu  Lu14  1  0.827937  0.322682  0.874814  1
  Lu  Lu15  1  0.172033  0.677330  0.125221  1
  Sc  Sc16  1  0.160434  0.509237  0.749969  1
  Sc  Sc17  1  0.839603  0.490714  0.250075  1
  Sc  Sc18  1  0.339595  0.009278  0.250064  1
  Sc  Sc19  1  0.660381  0.990742  0.749956  1
  Si  Si20  1  0.028168  0.104736  0.749978  1
  Si  Si21  1  0.971878  0.895428  0.250090  1
  Si  Si22  1  0.471895  0.604556  0.250100  1
  Si  Si23  1  0.528139  0.395444  0.749912  1
  Si  Si24  1  0.284782  0.867507  0.749891  1
  Si  Si25  1  0.715364  0.132543  0.250201  1
  Si  Si26  1  0.215378  0.367445  0.250198  1
  Si  Si27  1  0.784453  0.632402  0.749898  1
  Si  Si28  1  0.156286  0.467993  0.539516  1
  Si  Si29  1  0.843755  0.531655  0.460374  1
  Si  Si30  1  0.343814  0.968211  0.460415  1
  Si  Si31  1  0.843974  0.531965  0.039544  1
  Si  Si32  1  0.655961  0.031946  0.539508  1
  Si  Si33  1  0.156015  0.468026  0.960476  1
  Si  Si34  1  0.656044  0.031957  0.960476  1
  Si  Si35  1  0.343969  0.968041  0.039533  1
