# generated using pymatgen
data_AcTh3(Si3Pd)2
_symmetry_space_group_name_H-M   'P 1'
_cell_length_a   8.32427699
_cell_length_b   8.26983251
_cell_length_c   5.90013900
_cell_angle_alpha   69.66742481
_cell_angle_beta   68.67911270
_cell_angle_gamma   41.65344642
_symmetry_Int_Tables_number   1
_chemical_formula_structural   AcTh3(Si3Pd)2
_chemical_formula_sum   'Ac1 Th3 Si6 Pd2'
_cell_volume   249.58119281
_cell_formula_units_Z   1
loop_
 _symmetry_equiv_pos_site_id
 _symmetry_equiv_pos_as_xyz
  1  'x, y, z'
loop_
 _atom_site_type_symbol
 _atom_site_label
 _atom_site_symmetry_multiplicity
 _atom_site_fract_x
 _atom_site_fract_y
 _atom_site_fract_z
 _atom_site_occupancy
  Ac  Ac0  1  0.750000  0.749999  0.750000  1
  Th  Th1  1  0.249999  0.250000  0.250000  1
  Th  Th2  1  0.245430  0.754571  0.245428  1
  Th  Th3  1  0.754572  0.245428  0.754571  1
  Si  Si4  1  0.835506  0.835504  0.164495  1
  Si  Si5  1  0.835035  0.327815  0.170302  1
  Si  Si6  1  0.666849  0.170302  0.327815  1
  Si  Si7  1  0.327816  0.835034  0.666848  1
  Si  Si8  1  0.170303  0.666848  0.835034  1
  Si  Si9  1  0.164496  0.164494  0.835505  1
  Pd  Pd10  1  0.665580  0.665578  0.334421  1
  Pd  Pd11  1  0.334422  0.334420  0.665579  1
