# generated using pymatgen
data_Hf13TaNb2(Co2N)4
_symmetry_space_group_name_H-M   'P 1'
_cell_length_a   8.46968615
_cell_length_b   8.47019179
_cell_length_c   8.41490137
_cell_angle_alpha   59.82439013
_cell_angle_beta   59.82218032
_cell_angle_gamma   60.03868821
_symmetry_Int_Tables_number   1
_chemical_formula_structural   Hf13TaNb2(Co2N)4
_chemical_formula_sum   'Hf13 Ta1 Nb2 Co8 N4'
_cell_volume   425.84890277
_cell_formula_units_Z   1
loop_
 _symmetry_equiv_pos_site_id
 _symmetry_equiv_pos_as_xyz
  1  'x, y, z'
loop_
 _atom_site_type_symbol
 _atom_site_label
 _atom_site_symmetry_multiplicity
 _atom_site_fract_x
 _atom_site_fract_y
 _atom_site_fract_z
 _atom_site_occupancy
  Hf  Hf0  1  0.625000  0.625000  0.125000  1
  Hf  Hf1  1  0.813999  0.813991  0.186633  1
  Hf  Hf2  1  0.187793  0.187800  0.811878  1
  Hf  Hf3  1  0.812524  0.187896  0.811992  1
  Hf  Hf4  1  0.185511  0.813840  0.186616  1
  Hf  Hf5  1  0.187911  0.812506  0.811970  1
  Hf  Hf6  1  0.813862  0.185504  0.186588  1
  Hf  Hf7  1  0.436001  0.436009  0.063367  1
  Hf  Hf8  1  0.062207  0.062200  0.438122  1
  Hf  Hf9  1  0.437476  0.062104  0.438008  1
  Hf  Hf10  1  0.064489  0.436160  0.063384  1
  Hf  Hf11  1  0.062089  0.437494  0.438030  1
  Hf  Hf12  1  0.436138  0.064496  0.063412  1
  Ta  Ta13  1  0.625000  0.625000  0.625000  1
  Nb  Nb14  1  0.125000  0.625000  0.625000  1
  Nb  Nb15  1  0.625000  0.125000  0.625000  1
  Co  Co16  1  0.758932  0.411258  0.420469  1
  Co  Co17  1  0.411238  0.758992  0.420473  1
  Co  Co18  1  0.417514  0.417508  0.749532  1
  Co  Co19  1  0.410555  0.410548  0.420055  1
  Co  Co20  1  0.491068  0.838742  0.829531  1
  Co  Co21  1  0.838762  0.491008  0.829527  1
  Co  Co22  1  0.832486  0.832492  0.500468  1
  Co  Co23  1  0.839445  0.839452  0.829945  1
  N  N24  1  0.625000  0.125000  0.125000  1
  N  N25  1  0.125000  0.625000  0.125000  1
  N  N26  1  0.125000  0.125000  0.625000  1
  N  N27  1  0.125000  0.125000  0.125000  1
