# generated using pymatgen
data_BaSrTb2(Si4N7)2
_symmetry_space_group_name_H-M   'P 1'
_cell_length_a   6.09454900
_cell_length_b   6.09454803
_cell_length_c   9.92399600
_cell_angle_alpha   90.00000000
_cell_angle_beta   90.00000000
_cell_angle_gamma   119.99998900
_symmetry_Int_Tables_number   1
_chemical_formula_structural   BaSrTb2(Si4N7)2
_chemical_formula_sum   'Ba1 Sr1 Tb2 Si8 N14'
_cell_volume   319.22752970
_cell_formula_units_Z   1
loop_
 _symmetry_equiv_pos_site_id
 _symmetry_equiv_pos_as_xyz
  1  'x, y, z'
loop_
 _atom_site_type_symbol
 _atom_site_label
 _atom_site_symmetry_multiplicity
 _atom_site_fract_x
 _atom_site_fract_y
 _atom_site_fract_z
 _atom_site_occupancy
  Ba  Ba0  1  0.666667  0.333333  0.863306  1
  Sr  Sr1  1  0.333333  0.666667  0.364849  1
  Tb  Tb2  1  0.333333  0.666667  0.735491  1
  Tb  Tb3  1  0.666667  0.333333  0.237076  1
  Si  Si4  1  0.826012  0.652022  0.545162  1
  Si  Si5  1  0.174324  0.825676  0.047020  1
  Si  Si6  1  0.651349  0.825676  0.047020  1
  Si  Si7  1  0.347978  0.173988  0.545162  1
  Si  Si8  1  0.826012  0.173988  0.545162  1
  Si  Si9  1  0.174324  0.348651  0.047020  1
  Si  Si10  1  0.000000  0.000000  0.815162  1
  Si  Si11  1  0.000000  0.000000  0.313973  1
  N  N12  1  0.000000  0.000000  0.623800  1
  N  N13  1  0.000000  0.000000  0.123877  1
  N  N14  1  0.152657  0.305314  0.874703  1
  N  N15  1  0.847686  0.152314  0.373566  1
  N  N16  1  0.304627  0.152314  0.373566  1
  N  N17  1  0.694686  0.847343  0.874703  1
  N  N18  1  0.152657  0.847343  0.874703  1
  N  N19  1  0.847686  0.695373  0.373566  1
  N  N20  1  0.976454  0.488228  0.596308  1
  N  N21  1  0.486988  0.973973  0.099995  1
  N  N22  1  0.486988  0.513012  0.099995  1
  N  N23  1  0.511772  0.488228  0.596308  1
  N  N24  1  0.026027  0.513012  0.099995  1
  N  N25  1  0.511772  0.023546  0.596308  1
