# generated using pymatgen
data_Tb2Nd8(IrRh)3
_symmetry_space_group_name_H-M   'P 1'
_cell_length_a   11.18918245
_cell_length_b   11.18843400
_cell_length_c   6.57065726
_cell_angle_alpha   90.00000000
_cell_angle_beta   90.03258370
_cell_angle_gamma   90.00000000
_symmetry_Int_Tables_number   1
_chemical_formula_structural   Tb2Nd8(IrRh)3
_chemical_formula_sum   'Tb4 Nd16 Ir6 Rh6'
_cell_volume   822.57670073
_cell_formula_units_Z   2
loop_
 _symmetry_equiv_pos_site_id
 _symmetry_equiv_pos_as_xyz
  1  'x, y, z'
loop_
 _atom_site_type_symbol
 _atom_site_label
 _atom_site_symmetry_multiplicity
 _atom_site_fract_x
 _atom_site_fract_y
 _atom_site_fract_z
 _atom_site_occupancy
  Tb  Tb0  1  0.000472  0.999779  0.500024  1
  Tb  Tb1  1  0.000472  0.000221  0.000024  1
  Tb  Tb2  1  0.499992  0.499809  0.999997  1
  Tb  Tb3  1  0.499992  0.500191  0.499997  1
  Nd  Nd4  1  0.289218  0.088857  0.382818  1
  Nd  Nd5  1  0.289218  0.911143  0.882818  1
  Nd  Nd6  1  0.709409  0.089914  0.882263  1
  Nd  Nd7  1  0.709409  0.910086  0.382263  1
  Nd  Nd8  1  0.587145  0.788456  0.883458  1
  Nd  Nd9  1  0.587145  0.211544  0.383458  1
  Nd  Nd10  1  0.410795  0.788968  0.383302  1
  Nd  Nd11  1  0.410795  0.211032  0.883302  1
  Nd  Nd12  1  0.211233  0.410937  0.616451  1
  Nd  Nd13  1  0.211233  0.589063  0.116451  1
  Nd  Nd14  1  0.788575  0.412761  0.116786  1
  Nd  Nd15  1  0.788575  0.587239  0.616786  1
  Nd  Nd16  1  0.911666  0.710180  0.118111  1
  Nd  Nd17  1  0.911666  0.289820  0.618111  1
  Nd  Nd18  1  0.090442  0.709969  0.616929  1
  Nd  Nd19  1  0.090442  0.290031  0.116929  1
  Ir  Ir20  1  0.149495  0.150000  0.750004  1
  Ir  Ir21  1  0.149495  0.850000  0.250004  1
  Ir  Ir22  1  0.650878  0.349365  0.749976  1
  Ir  Ir23  1  0.650878  0.650635  0.249976  1
  Ir  Ir24  1  0.349746  0.349528  0.250068  1
  Ir  Ir25  1  0.349746  0.650472  0.750068  1
  Rh  Rh26  1  0.850115  0.149432  0.249903  1
  Rh  Rh27  1  0.850115  0.850568  0.749903  1
  Rh  Rh28  1  0.501318  0.000132  0.119436  1
  Rh  Rh29  1  0.501318  0.999868  0.619436  1
  Rh  Rh30  1  0.999502  0.500413  0.880475  1
  Rh  Rh31  1  0.999502  0.499587  0.380475  1
