# generated using pymatgen
data_Ho20Cd5InNi2
_symmetry_space_group_name_H-M   'P 1'
_cell_length_a   9.57054936
_cell_length_b   9.57054897
_cell_length_c   9.74181700
_cell_angle_alpha   90.00000000
_cell_angle_beta   90.00000000
_cell_angle_gamma   120.13284741
_symmetry_Int_Tables_number   1
_chemical_formula_structural   Ho20Cd5InNi2
_chemical_formula_sum   'Ho20 Cd5 In1 Ni2'
_cell_volume   771.72289785
_cell_formula_units_Z   1
loop_
 _symmetry_equiv_pos_site_id
 _symmetry_equiv_pos_as_xyz
  1  'x, y, z'
loop_
 _atom_site_type_symbol
 _atom_site_label
 _atom_site_symmetry_multiplicity
 _atom_site_fract_x
 _atom_site_fract_y
 _atom_site_fract_z
 _atom_site_occupancy
  Ho  Ho0  1  0.001788  0.998212  0.501761  1
  Ho  Ho1  1  0.001788  0.998212  0.998239  1
  Ho  Ho2  1  0.542882  0.457118  0.250000  1
  Ho  Ho3  1  0.540020  0.087634  0.250000  1
  Ho  Ho4  1  0.912366  0.459980  0.250000  1
  Ho  Ho5  1  0.455949  0.544051  0.750000  1
  Ho  Ho6  1  0.456624  0.912608  0.750000  1
  Ho  Ho7  1  0.087392  0.543376  0.750000  1
  Ho  Ho8  1  0.210785  0.789215  0.437968  1
  Ho  Ho9  1  0.209922  0.420662  0.437206  1
  Ho  Ho10  1  0.579338  0.790078  0.437206  1
  Ho  Ho11  1  0.789649  0.210351  0.562015  1
  Ho  Ho12  1  0.789025  0.578427  0.563430  1
  Ho  Ho13  1  0.421573  0.210975  0.563430  1
  Ho  Ho14  1  0.789649  0.210351  0.937985  1
  Ho  Ho15  1  0.789025  0.578427  0.936570  1
  Ho  Ho16  1  0.421573  0.210975  0.936570  1
  Ho  Ho17  1  0.210785  0.789215  0.062032  1
  Ho  Ho18  1  0.209922  0.420662  0.062794  1
  Ho  Ho19  1  0.579338  0.790078  0.062794  1
  Cd  Cd20  1  0.885246  0.769622  0.250000  1
  Cd  Cd21  1  0.230378  0.114754  0.250000  1
  Cd  Cd22  1  0.116345  0.883655  0.750000  1
  Cd  Cd23  1  0.114880  0.230711  0.750000  1
  Cd  Cd24  1  0.769289  0.885120  0.750000  1
  In  In25  1  0.884461  0.115539  0.250000  1
  Ni  Ni26  1  0.332997  0.667003  0.250000  1
  Ni  Ni27  1  0.667014  0.332986  0.750000  1
