# generated using pymatgen
data_Sm5MnRhO12
_symmetry_space_group_name_H-M   'P 1'
_cell_length_a   6.96767522
_cell_length_b   6.96767507
_cell_length_c   7.45188972
_cell_angle_alpha   74.46583577
_cell_angle_beta   74.46583518
_cell_angle_gamma   50.57818465
_symmetry_Int_Tables_number   1
_chemical_formula_structural   Sm5MnRhO12
_chemical_formula_sum   'Sm5 Mn1 Rh1 O12'
_cell_volume   266.92964909
_cell_formula_units_Z   1
loop_
 _symmetry_equiv_pos_site_id
 _symmetry_equiv_pos_as_xyz
  1  'x, y, z'
loop_
 _atom_site_type_symbol
 _atom_site_label
 _atom_site_symmetry_multiplicity
 _atom_site_fract_x
 _atom_site_fract_y
 _atom_site_fract_z
 _atom_site_occupancy
  Sm  Sm0  1  0.298904  0.311074  0.357697  1
  Sm  Sm1  1  0.688926  0.701096  0.642303  1
  Sm  Sm2  1  0.692350  0.692229  0.166608  1
  Sm  Sm3  1  0.307771  0.307650  0.833392  1
  Sm  Sm4  1  0.001037  0.998963  0.500000  1
  Mn  Mn5  1  0.248867  0.751133  0.000000  1
  Rh  Rh6  1  0.759230  0.240770  0.000000  1
  O  O7  1  0.094178  0.596629  0.577815  1
  O  O8  1  0.009267  0.989493  0.176403  1
  O  O9  1  0.403371  0.905822  0.422185  1
  O  O10  1  0.493031  0.507160  0.177547  1
  O  O11  1  0.099430  0.581113  0.078967  1
  O  O12  1  0.902358  0.402190  0.424512  1
  O  O13  1  0.010507  0.990733  0.823597  1
  O  O14  1  0.597810  0.097641  0.575488  1
  O  O15  1  0.492840  0.506969  0.822453  1
  O  O16  1  0.580078  0.098841  0.080134  1
  O  O17  1  0.418887  0.900570  0.921033  1
  O  O18  1  0.901159  0.419922  0.919866  1
