# generated using pymatgen
data_Nd4SiB4Rh9
_symmetry_space_group_name_H-M   'P 1'
_cell_length_a   5.56765801
_cell_length_b   5.56765871
_cell_length_c   20.54965000
_cell_angle_alpha   90.00000000
_cell_angle_beta   90.00000000
_cell_angle_gamma   120.00402122
_symmetry_Int_Tables_number   1
_chemical_formula_structural   Nd4SiB4Rh9
_chemical_formula_sum   'Nd8 Si2 B8 Rh18'
_cell_volume   551.64872486
_cell_formula_units_Z   2
loop_
 _symmetry_equiv_pos_site_id
 _symmetry_equiv_pos_as_xyz
  1  'x, y, z'
loop_
 _atom_site_type_symbol
 _atom_site_label
 _atom_site_symmetry_multiplicity
 _atom_site_fract_x
 _atom_site_fract_y
 _atom_site_fract_z
 _atom_site_occupancy
  Nd  Nd0  1  0.666669  0.333331  0.523214  1
  Nd  Nd1  1  0.333331  0.666669  0.476786  1
  Nd  Nd2  1  0.333331  0.666669  0.023214  1
  Nd  Nd3  1  0.666669  0.333331  0.976786  1
  Nd  Nd4  1  0.666646  0.333354  0.673006  1
  Nd  Nd5  1  0.333354  0.666646  0.326994  1
  Nd  Nd6  1  0.333354  0.666646  0.173006  1
  Nd  Nd7  1  0.666646  0.333354  0.826994  1
  Si  Si8  1  0.000000  0.000000  0.500000  1
  Si  Si9  1  0.000000  0.000000  0.000000  1
  B  B10  1  0.999998  0.000002  0.674593  1
  B  B11  1  0.000002  0.999998  0.325407  1
  B  B12  1  0.000002  0.999998  0.174593  1
  B  B13  1  0.999998  0.000002  0.825407  1
  B  B14  1  0.666720  0.333280  0.327512  1
  B  B15  1  0.333280  0.666720  0.672488  1
  B  B16  1  0.333280  0.666720  0.827512  1
  B  B17  1  0.666720  0.333280  0.172488  1
  Rh  Rh18  1  0.167217  0.334492  0.750000  1
  Rh  Rh19  1  0.167231  0.832769  0.750000  1
  Rh  Rh20  1  0.665508  0.832783  0.750000  1
  Rh  Rh21  1  0.832783  0.665508  0.250000  1
  Rh  Rh22  1  0.832769  0.167231  0.250000  1
  Rh  Rh23  1  0.334492  0.167217  0.250000  1
  Rh  Rh24  1  0.164472  0.329055  0.603276  1
  Rh  Rh25  1  0.164469  0.835531  0.603297  1
  Rh  Rh26  1  0.670945  0.835528  0.603276  1
  Rh  Rh27  1  0.835528  0.670945  0.396724  1
  Rh  Rh28  1  0.835531  0.164469  0.396703  1
  Rh  Rh29  1  0.329055  0.164472  0.396724  1
  Rh  Rh30  1  0.835528  0.670945  0.103276  1
  Rh  Rh31  1  0.835531  0.164469  0.103297  1
  Rh  Rh32  1  0.329055  0.164472  0.103276  1
  Rh  Rh33  1  0.164472  0.329055  0.896724  1
  Rh  Rh34  1  0.164469  0.835531  0.896703  1
  Rh  Rh35  1  0.670945  0.835528  0.896724  1
