# generated using pymatgen
data_Tb8Sc12Ga6Si9P
_symmetry_space_group_name_H-M   'P 1'
_cell_length_a   7.17519839
_cell_length_b   7.41598876
_cell_length_c   14.23858897
_cell_angle_alpha   90.00366348
_cell_angle_beta   89.81899467
_cell_angle_gamma   90.34321061
_symmetry_Int_Tables_number   1
_chemical_formula_structural   Tb8Sc12Ga6Si9P
_chemical_formula_sum   'Tb8 Sc12 Ga6 Si9 P1'
_cell_volume   757.63489772
_cell_formula_units_Z   1
loop_
 _symmetry_equiv_pos_site_id
 _symmetry_equiv_pos_as_xyz
  1  'x, y, z'
loop_
 _atom_site_type_symbol
 _atom_site_label
 _atom_site_symmetry_multiplicity
 _atom_site_fract_x
 _atom_site_fract_y
 _atom_site_fract_z
 _atom_site_occupancy
  Tb  Tb0  1  0.011961  0.172279  0.097077  1
  Tb  Tb1  1  0.990599  0.830168  0.898950  1
  Tb  Tb2  1  0.490348  0.675790  0.902230  1
  Tb  Tb3  1  0.992321  0.829198  0.603965  1
  Tb  Tb4  1  0.511959  0.322566  0.098108  1
  Tb  Tb5  1  0.009922  0.173856  0.399913  1
  Tb  Tb6  1  0.510226  0.326061  0.399391  1
  Tb  Tb7  1  0.492163  0.672419  0.600173  1
  Sc  Sc8  1  0.162399  0.499808  0.750366  1
  Sc  Sc9  1  0.835692  0.500354  0.249627  1
  Sc  Sc10  1  0.334612  0.000539  0.249124  1
  Sc  Sc11  1  0.664130  0.000404  0.750753  1
  Sc  Sc12  1  0.327666  0.170492  0.630312  1
  Sc  Sc13  1  0.667706  0.826866  0.373084  1
  Sc  Sc14  1  0.168214  0.673103  0.373259  1
  Sc  Sc15  1  0.667246  0.825692  0.125277  1
  Sc  Sc16  1  0.831918  0.326743  0.628555  1
  Sc  Sc17  1  0.328229  0.171028  0.871414  1
  Sc  Sc18  1  0.827724  0.324667  0.873951  1
  Sc  Sc19  1  0.173018  0.675190  0.124150  1
  Ga  Ga20  1  0.160094  0.459899  0.540307  1
  Ga  Ga21  1  0.839268  0.540385  0.461874  1
  Ga  Ga22  1  0.338884  0.961030  0.462155  1
  Ga  Ga23  1  0.840730  0.541134  0.038142  1
  Ga  Ga24  1  0.660873  0.041007  0.540199  1
  Ga  Ga25  1  0.158767  0.459194  0.959891  1
  Si  Si26  1  0.965693  0.882667  0.248189  1
  Si  Si27  1  0.465065  0.615122  0.248556  1
  Si  Si28  1  0.531602  0.382521  0.751427  1
  Si  Si29  1  0.298301  0.861880  0.751618  1
  Si  Si30  1  0.714631  0.125999  0.248204  1
  Si  Si31  1  0.213392  0.374022  0.248156  1
  Si  Si32  1  0.788842  0.628606  0.751832  1
  Si  Si33  1  0.654389  0.037736  0.961346  1
  Si  Si34  1  0.345673  0.964156  0.036948  1
  P  P35  1  0.025742  0.127418  0.751479  1
