# generated using pymatgen
data_KRu2F11
_symmetry_space_group_name_H-M   'P 1'
_cell_length_a   5.36005700
_cell_length_b   5.71142773
_cell_length_c   15.69101900
_cell_angle_alpha   74.02022235
_cell_angle_beta   90.00000000
_cell_angle_gamma   90.00000000
_symmetry_Int_Tables_number   1
_chemical_formula_structural   KRu2F11
_chemical_formula_sum   'K2 Ru4 F22'
_cell_volume   461.79667637
_cell_formula_units_Z   2
loop_
 _symmetry_equiv_pos_site_id
 _symmetry_equiv_pos_as_xyz
  1  'x, y, z'
loop_
 _atom_site_type_symbol
 _atom_site_label
 _atom_site_symmetry_multiplicity
 _atom_site_fract_x
 _atom_site_fract_y
 _atom_site_fract_z
 _atom_site_occupancy
  K  K0  1  0.311646  0.500000  0.250000  1
  K  K1  1  0.688354  0.500000  0.750000  1
  Ru  Ru2  1  0.753619  0.869443  0.376232  1
  Ru  Ru3  1  0.753619  0.130557  0.123768  1
  Ru  Ru4  1  0.246381  0.869443  0.876232  1
  Ru  Ru5  1  0.246381  0.130557  0.623768  1
  F  F6  1  0.410319  0.862075  0.601564  1
  F  F7  1  0.133631  0.249519  0.508998  1
  F  F8  1  0.589681  0.137925  0.398436  1
  F  F9  1  0.866369  0.249519  0.008998  1
  F  F10  1  0.410319  0.137925  0.898436  1
  F  F11  1  0.866369  0.750481  0.491002  1
  F  F12  1  0.589681  0.862075  0.101564  1
  F  F13  1  0.133631  0.750481  0.991002  1
  F  F14  1  0.456840  0.685051  0.398443  1
  F  F15  1  0.613745  0.000000  0.250000  1
  F  F16  1  0.042989  0.939507  0.159879  1
  F  F17  1  0.386255  0.000000  0.750000  1
  F  F18  1  0.899057  0.613917  0.337036  1
  F  F19  1  0.543160  0.685051  0.898443  1
  F  F20  1  0.100943  0.386083  0.662964  1
  F  F21  1  0.042989  0.060493  0.340121  1
  F  F22  1  0.100943  0.613917  0.837036  1
  F  F23  1  0.543160  0.314949  0.601557  1
  F  F24  1  0.957011  0.060493  0.840121  1
  F  F25  1  0.899057  0.386083  0.162964  1
  F  F26  1  0.957011  0.939507  0.659879  1
  F  F27  1  0.456840  0.314949  0.101557  1
