# generated using pymatgen
data_TbY2Lu9Ru4
_symmetry_space_group_name_H-M   'P 1'
_cell_length_a   6.20088750
_cell_length_b   7.29544917
_cell_length_c   8.92435100
_cell_angle_alpha   90.00000000
_cell_angle_beta   90.00000000
_cell_angle_gamma   89.89503284
_symmetry_Int_Tables_number   1
_chemical_formula_structural   TbY2Lu9Ru4
_chemical_formula_sum   'Tb1 Y2 Lu9 Ru4'
_cell_volume   403.72142914
_cell_formula_units_Z   1
loop_
 _symmetry_equiv_pos_site_id
 _symmetry_equiv_pos_as_xyz
  1  'x, y, z'
loop_
 _atom_site_type_symbol
 _atom_site_label
 _atom_site_symmetry_multiplicity
 _atom_site_fract_x
 _atom_site_fract_y
 _atom_site_fract_z
 _atom_site_occupancy
  Tb  Tb0  1  0.130024  0.459707  0.750000  1
  Y  Y1  1  0.871490  0.539579  0.250000  1
  Y  Y2  1  0.629416  0.040395  0.250000  1
  Lu  Lu3  1  0.335564  0.676721  0.063620  1
  Lu  Lu4  1  0.166252  0.173573  0.436928  1
  Lu  Lu5  1  0.664063  0.323667  0.564544  1
  Lu  Lu6  1  0.832866  0.825415  0.935085  1
  Lu  Lu7  1  0.664063  0.323667  0.935456  1
  Lu  Lu8  1  0.832866  0.825415  0.564915  1
  Lu  Lu9  1  0.335564  0.676721  0.436380  1
  Lu  Lu10  1  0.166252  0.173573  0.063072  1
  Lu  Lu11  1  0.369294  0.958799  0.750000  1
  Ru  Ru12  1  0.045656  0.885086  0.250000  1
  Ru  Ru13  1  0.453907  0.384987  0.250000  1
  Ru  Ru14  1  0.960975  0.114595  0.750000  1
  Ru  Ru15  1  0.541747  0.618099  0.750000  1
