# generated using pymatgen
data_Ho4LuIn3Br
_symmetry_space_group_name_H-M   'P 1'
_cell_length_a   9.13616000
_cell_length_b   9.13615943
_cell_length_c   6.69216900
_cell_angle_alpha   90.00000000
_cell_angle_beta   90.00000000
_cell_angle_gamma   120.00000205
_symmetry_Int_Tables_number   1
_chemical_formula_structural   Ho4LuIn3Br
_chemical_formula_sum   'Ho8 Lu2 In6 Br2'
_cell_volume   483.75435644
_cell_formula_units_Z   2
loop_
 _symmetry_equiv_pos_site_id
 _symmetry_equiv_pos_as_xyz
  1  'x, y, z'
loop_
 _atom_site_type_symbol
 _atom_site_label
 _atom_site_symmetry_multiplicity
 _atom_site_fract_x
 _atom_site_fract_y
 _atom_site_fract_z
 _atom_site_occupancy
  Ho  Ho0  1  0.733289  0.733289  0.252825  1
  Ho  Ho1  1  0.000000  0.733289  0.747175  1
  Ho  Ho2  1  0.733289  0.000000  0.747175  1
  Ho  Ho3  1  0.266711  0.266711  0.747175  1
  Ho  Ho4  1  0.000000  0.266711  0.252825  1
  Ho  Ho5  1  0.266711  0.000000  0.252825  1
  Ho  Ho6  1  0.333333  0.666667  0.000000  1
  Ho  Ho7  1  0.666667  0.333333  0.000000  1
  Lu  Lu8  1  0.333333  0.666667  0.500000  1
  Lu  Lu9  1  0.666667  0.333333  0.500000  1
  In  In10  1  0.393194  0.000000  0.745550  1
  In  In11  1  0.000000  0.606806  0.254450  1
  In  In12  1  0.606806  0.000000  0.254450  1
  In  In13  1  0.000000  0.393194  0.745550  1
  In  In14  1  0.393194  0.393194  0.254450  1
  In  In15  1  0.606806  0.606806  0.745550  1
  Br  Br16  1  0.000000  0.000000  0.500000  1
  Br  Br17  1  0.000000  0.000000  0.000000  1
