# generated using pymatgen
data_Y4ErTm5(In2Pt)4
_symmetry_space_group_name_H-M   'P 1'
_cell_length_a   3.60697700
_cell_length_b   8.13816300
_cell_length_c   18.16329990
_cell_angle_alpha   89.99189052
_cell_angle_beta   90.00000000
_cell_angle_gamma   90.00000000
_symmetry_Int_Tables_number   1
_chemical_formula_structural   Y4ErTm5(In2Pt)4
_chemical_formula_sum   'Y4 Er1 Tm5 In8 Pt4'
_cell_volume   533.16852929
_cell_formula_units_Z   1
loop_
 _symmetry_equiv_pos_site_id
 _symmetry_equiv_pos_as_xyz
  1  'x, y, z'
loop_
 _atom_site_type_symbol
 _atom_site_label
 _atom_site_symmetry_multiplicity
 _atom_site_fract_x
 _atom_site_fract_y
 _atom_site_fract_z
 _atom_site_occupancy
  Y  Y0  1  0.000000  0.758556  0.780165  1
  Y  Y1  1  0.000000  0.258472  0.719814  1
  Y  Y2  1  0.000000  0.000238  0.000317  1
  Y  Y3  1  0.000000  0.499939  0.499671  1
  Er  Er4  1  0.000000  0.742343  0.279565  1
  Tm  Tm5  1  0.000000  0.115898  0.414023  1
  Tm  Tm6  1  0.000000  0.883425  0.584999  1
  Tm  Tm7  1  0.000000  0.383712  0.914978  1
  Tm  Tm8  1  0.000000  0.616279  0.085876  1
  Tm  Tm9  1  0.000000  0.242431  0.220643  1
  In  In10  1  0.500000  0.421487  0.350686  1
  In  In11  1  0.500000  0.578907  0.648833  1
  In  In12  1  0.500000  0.079139  0.851170  1
  In  In13  1  0.500000  0.921646  0.149136  1
  In  In14  1  0.500000  0.294254  0.067304  1
  In  In15  1  0.500000  0.705789  0.934004  1
  In  In16  1  0.500000  0.205491  0.565842  1
  In  In17  1  0.500000  0.793712  0.433023  1
  Pt  Pt18  1  0.500000  0.024393  0.303529  1
  Pt  Pt19  1  0.500000  0.974499  0.694787  1
  Pt  Pt20  1  0.500000  0.474802  0.805221  1
  Pt  Pt21  1  0.500000  0.524587  0.196415  1
