# generated using pymatgen
data_Gd3Er5(TmRu2)2
_symmetry_space_group_name_H-M   'P 1'
_cell_length_a   6.28836890
_cell_length_b   7.26373541
_cell_length_c   8.40926200
_cell_angle_alpha   96.77769354
_cell_angle_beta   112.03016750
_cell_angle_gamma   89.99536112
_symmetry_Int_Tables_number   1
_chemical_formula_structural   Gd3Er5(TmRu2)2
_chemical_formula_sum   'Gd3 Er5 Tm2 Ru4'
_cell_volume   353.16907546
_cell_formula_units_Z   1
loop_
 _symmetry_equiv_pos_site_id
 _symmetry_equiv_pos_as_xyz
  1  'x, y, z'
loop_
 _atom_site_type_symbol
 _atom_site_label
 _atom_site_symmetry_multiplicity
 _atom_site_fract_x
 _atom_site_fract_y
 _atom_site_fract_z
 _atom_site_occupancy
  Gd  Gd0  1  0.790167  0.083337  0.812447  1
  Gd  Gd1  1  0.976955  0.416754  0.186962  1
  Gd  Gd2  1  0.211181  0.916161  0.187774  1
  Er  Er3  1  0.022603  0.583863  0.813787  1
  Er  Er4  1  0.205378  0.184181  0.566178  1
  Er  Er5  1  0.639516  0.315817  0.434612  1
  Er  Er6  1  0.794643  0.814930  0.434020  1
  Er  Er7  1  0.359939  0.684591  0.566159  1
  Tm  Tm8  1  0.419743  0.249755  0.000003  1
  Tm  Tm9  1  0.578973  0.749537  0.999820  1
  Ru  Ru10  1  0.600764  0.425193  0.779004  1
  Ru  Ru11  1  0.822972  0.076748  0.221037  1
  Ru  Ru12  1  0.397307  0.576383  0.219096  1
  Ru  Ru13  1  0.179856  0.922746  0.779099  1
