# generated using pymatgen
data_Hf4Sc2Al8Si8Ir7
_symmetry_space_group_name_H-M   'P 1'
_cell_length_a   8.59919497
_cell_length_b   8.57703259
_cell_length_c   8.57703270
_cell_angle_alpha   60.17100863
_cell_angle_beta   59.91449060
_cell_angle_gamma   59.91449218
_symmetry_Int_Tables_number   1
_chemical_formula_structural   Hf4Sc2Al8Si8Ir7
_chemical_formula_sum   'Hf4 Sc2 Al8 Si8 Ir7'
_cell_volume   447.31254932
_cell_formula_units_Z   1
loop_
 _symmetry_equiv_pos_site_id
 _symmetry_equiv_pos_as_xyz
  1  'x, y, z'
loop_
 _atom_site_type_symbol
 _atom_site_label
 _atom_site_symmetry_multiplicity
 _atom_site_fract_x
 _atom_site_fract_y
 _atom_site_fract_z
 _atom_site_occupancy
  Hf  Hf0  1  0.308453  0.691547  0.308453  1
  Hf  Hf1  1  0.691547  0.308453  0.691547  1
  Hf  Hf2  1  0.308453  0.308453  0.691547  1
  Hf  Hf3  1  0.691547  0.691547  0.308453  1
  Sc  Sc4  1  0.692780  0.307220  0.307220  1
  Sc  Sc5  1  0.307220  0.692780  0.692780  1
  Al  Al6  1  0.120620  0.120376  0.120376  1
  Al  Al7  1  0.879380  0.879624  0.879624  1
  Al  Al8  1  0.120376  0.120620  0.638628  1
  Al  Al9  1  0.120376  0.638628  0.120620  1
  Al  Al10  1  0.879624  0.879380  0.361372  1
  Al  Al11  1  0.879624  0.361372  0.879380  1
  Al  Al12  1  0.638628  0.120376  0.120376  1
  Al  Al13  1  0.361372  0.879624  0.879624  1
  Si  Si14  1  0.345658  0.344961  0.344961  1
  Si  Si15  1  0.654342  0.655039  0.655039  1
  Si  Si16  1  0.344961  0.345658  0.964419  1
  Si  Si17  1  0.344961  0.964419  0.345658  1
  Si  Si18  1  0.655039  0.654342  0.035581  1
  Si  Si19  1  0.655039  0.035581  0.654342  1
  Si  Si20  1  0.964419  0.344961  0.344961  1
  Si  Si21  1  0.035581  0.655039  0.655039  1
  Ir  Ir22  1  0.500000  0.000000  0.000000  1
  Ir  Ir23  1  0.000000  0.500000  0.500000  1
  Ir  Ir24  1  0.000000  0.500000  0.000000  1
  Ir  Ir25  1  0.500000  0.000000  0.500000  1
  Ir  Ir26  1  0.000000  0.000000  0.500000  1
  Ir  Ir27  1  0.500000  0.500000  0.000000  1
  Ir  Ir28  1  0.000000  0.000000  0.000000  1
