# generated using pymatgen
data_Hf5Nb(ReGe)6
_symmetry_space_group_name_H-M   'P 1'
_cell_length_a   7.85304845
_cell_length_b   7.85392083
_cell_length_c   7.85304878
_cell_angle_alpha   126.23094846
_cell_angle_beta   128.28307799
_cell_angle_gamma   77.84067038
_symmetry_Int_Tables_number   1
_chemical_formula_structural   Hf5Nb(ReGe)6
_chemical_formula_sum   'Hf5 Nb1 Re6 Ge6'
_cell_volume   297.28567967
_cell_formula_units_Z   1
loop_
 _symmetry_equiv_pos_site_id
 _symmetry_equiv_pos_as_xyz
  1  'x, y, z'
loop_
 _atom_site_type_symbol
 _atom_site_label
 _atom_site_symmetry_multiplicity
 _atom_site_fract_x
 _atom_site_fract_y
 _atom_site_fract_z
 _atom_site_occupancy
  Hf  Hf0  1  0.550464  0.091695  0.041230  1
  Hf  Hf1  1  0.451777  0.499173  0.547397  1
  Hf  Hf2  1  0.949565  0.490763  0.041198  1
  Hf  Hf3  1  0.048248  0.095629  0.547382  1
  Hf  Hf4  1  0.750010  0.899665  0.649655  1
  Nb  Nb5  1  0.250034  0.901742  0.151708  1
  Re  Re6  1  0.497519  0.238202  0.735760  1
  Re  Re7  1  0.002442  0.238202  0.240683  1
  Re  Re8  1  0.129005  0.756197  0.627298  1
  Re  Re9  1  0.871028  0.498153  0.627187  1
  Re  Re10  1  0.628900  0.756197  0.127192  1
  Re  Re11  1  0.370966  0.498153  0.127125  1
  Ge  Ge12  1  0.750042  0.496685  0.246643  1
  Ge  Ge13  1  0.250024  0.499816  0.749792  1
  Ge  Ge14  1  0.330221  0.829473  0.491623  1
  Ge  Ge15  1  0.662146  0.161489  0.491730  1
  Ge  Ge16  1  0.837849  0.829473  0.999252  1
  Ge  Ge17  1  0.169760  0.161489  0.999344  1
