# generated using pymatgen
data_Ho6Sc8Al8Ir7
_symmetry_space_group_name_H-M   'P 1'
_cell_length_a   9.25124732
_cell_length_b   9.25124763
_cell_length_c   9.25124700
_cell_angle_alpha   59.99999868
_cell_angle_beta   59.99999757
_cell_angle_gamma   59.99999949
_symmetry_Int_Tables_number   1
_chemical_formula_structural   Ho6Sc8Al8Ir7
_chemical_formula_sum   'Ho6 Sc8 Al8 Ir7'
_cell_volume   559.86827894
_cell_formula_units_Z   1
loop_
 _symmetry_equiv_pos_site_id
 _symmetry_equiv_pos_as_xyz
  1  'x, y, z'
loop_
 _atom_site_type_symbol
 _atom_site_label
 _atom_site_symmetry_multiplicity
 _atom_site_fract_x
 _atom_site_fract_y
 _atom_site_fract_z
 _atom_site_occupancy
  Ho  Ho0  1  0.691053  0.691053  0.308947  1
  Ho  Ho1  1  0.308947  0.691053  0.308947  1
  Ho  Ho2  1  0.691053  0.308947  0.308947  1
  Ho  Ho3  1  0.308947  0.308947  0.691053  1
  Ho  Ho4  1  0.691053  0.308947  0.691053  1
  Ho  Ho5  1  0.308947  0.691053  0.691053  1
  Sc  Sc6  1  0.878521  0.878521  0.364439  1
  Sc  Sc7  1  0.878521  0.364439  0.878521  1
  Sc  Sc8  1  0.364439  0.878521  0.878521  1
  Sc  Sc9  1  0.878521  0.878521  0.878521  1
  Sc  Sc10  1  0.121479  0.121479  0.635561  1
  Sc  Sc11  1  0.121479  0.635561  0.121479  1
  Sc  Sc12  1  0.635561  0.121479  0.121479  1
  Sc  Sc13  1  0.121479  0.121479  0.121479  1
  Al  Al14  1  0.668092  0.668092  0.995724  1
  Al  Al15  1  0.668092  0.995724  0.668092  1
  Al  Al16  1  0.995724  0.668092  0.668092  1
  Al  Al17  1  0.668092  0.668092  0.668092  1
  Al  Al18  1  0.331908  0.331908  0.004276  1
  Al  Al19  1  0.331908  0.004276  0.331908  1
  Al  Al20  1  0.004276  0.331908  0.331908  1
  Al  Al21  1  0.331908  0.331908  0.331908  1
  Ir  Ir22  1  0.000000  0.000000  0.000000  1
  Ir  Ir23  1  0.000000  0.000000  0.500000  1
  Ir  Ir24  1  0.500000  0.000000  0.500000  1
  Ir  Ir25  1  0.000000  0.500000  0.500000  1
  Ir  Ir26  1  0.500000  0.500000  0.000000  1
  Ir  Ir27  1  0.000000  0.500000  0.000000  1
  Ir  Ir28  1  0.500000  0.000000  0.000000  1
