# generated using pymatgen
data_Zr4Cd2CoCu3
_symmetry_space_group_name_H-M   'P 1'
_cell_length_a   7.31761057
_cell_length_b   7.31761057
_cell_length_c   3.36911700
_cell_angle_alpha   90.00000000
_cell_angle_beta   90.00000000
_cell_angle_gamma   89.71541605
_symmetry_Int_Tables_number   1
_chemical_formula_structural   Zr4Cd2CoCu3
_chemical_formula_sum   'Zr4 Cd2 Co1 Cu3'
_cell_volume   180.40531248
_cell_formula_units_Z   1
loop_
 _symmetry_equiv_pos_site_id
 _symmetry_equiv_pos_as_xyz
  1  'x, y, z'
loop_
 _atom_site_type_symbol
 _atom_site_label
 _atom_site_symmetry_multiplicity
 _atom_site_fract_x
 _atom_site_fract_y
 _atom_site_fract_z
 _atom_site_occupancy
  Zr  Zr0  1  0.650349  0.174103  0.500001  1
  Zr  Zr1  1  0.184375  0.315625  0.500001  1
  Zr  Zr2  1  0.834378  0.665621  0.500001  1
  Zr  Zr3  1  0.325897  0.849650  0.500001  1
  Cd  Cd4  1  0.993350  0.000085  0.000000  1
  Cd  Cd5  1  0.499914  0.506649  0.000000  1
  Co  Co6  1  0.378436  0.121565  0.000000  1
  Cu  Cu7  1  0.879124  0.372733  0.000000  1
  Cu  Cu8  1  0.127268  0.620875  0.000000  1
  Cu  Cu9  1  0.626906  0.873093  0.000000  1
