# generated using pymatgen
data_Mn3B2Rh5
_symmetry_space_group_name_H-M   'P 1'
_cell_length_a   9.34742300
_cell_length_b   9.34742300
_cell_length_c   2.93797600
_cell_angle_alpha   90.00000000
_cell_angle_beta   90.00000000
_cell_angle_gamma   90.00000000
_symmetry_Int_Tables_number   1
_chemical_formula_structural   Mn3B2Rh5
_chemical_formula_sum   'Mn6 B4 Rh10'
_cell_volume   256.70364560
_cell_formula_units_Z   2
loop_
 _symmetry_equiv_pos_site_id
 _symmetry_equiv_pos_as_xyz
  1  'x, y, z'
loop_
 _atom_site_type_symbol
 _atom_site_label
 _atom_site_symmetry_multiplicity
 _atom_site_fract_x
 _atom_site_fract_y
 _atom_site_fract_z
 _atom_site_occupancy
  Mn  Mn0  1  0.822525  0.322525  0.000000  1
  Mn  Mn1  1  0.322525  0.177475  0.000000  1
  Mn  Mn2  1  0.677475  0.822525  0.000000  1
  Mn  Mn3  1  0.177475  0.677475  0.000000  1
  Mn  Mn4  1  0.000000  0.000000  0.000000  1
  Mn  Mn5  1  0.500000  0.500000  0.000000  1
  B  B6  1  0.626651  0.126651  0.000000  1
  B  B7  1  0.126651  0.373349  0.000000  1
  B  B8  1  0.873349  0.626651  0.000000  1
  B  B9  1  0.373349  0.873349  0.000000  1
  Rh  Rh10  1  0.070064  0.216955  0.500000  1
  Rh  Rh11  1  0.216955  0.929936  0.500000  1
  Rh  Rh12  1  0.783045  0.070064  0.500000  1
  Rh  Rh13  1  0.929936  0.783045  0.500000  1
  Rh  Rh14  1  0.429936  0.716955  0.500000  1
  Rh  Rh15  1  0.570064  0.283045  0.500000  1
  Rh  Rh16  1  0.716955  0.570064  0.500000  1
  Rh  Rh17  1  0.283045  0.429936  0.500000  1
  Rh  Rh18  1  0.500000  0.000000  0.500000  1
  Rh  Rh19  1  0.000000  0.500000  0.500000  1
