# generated using pymatgen
data_YbTmOsC2
_symmetry_space_group_name_H-M   'P 1'
_cell_length_a   5.06466600
_cell_length_b   6.41645700
_cell_length_c   9.97326900
_cell_angle_alpha   90.00000000
_cell_angle_beta   90.00000000
_cell_angle_gamma   90.00000000
_symmetry_Int_Tables_number   1
_chemical_formula_structural   YbTmOsC2
_chemical_formula_sum   'Yb4 Tm4 Os4 C8'
_cell_volume   324.10343312
_cell_formula_units_Z   4
loop_
 _symmetry_equiv_pos_site_id
 _symmetry_equiv_pos_as_xyz
  1  'x, y, z'
loop_
 _atom_site_type_symbol
 _atom_site_label
 _atom_site_symmetry_multiplicity
 _atom_site_fract_x
 _atom_site_fract_y
 _atom_site_fract_z
 _atom_site_occupancy
  Yb  Yb0  1  0.250000  0.530738  0.219357  1
  Yb  Yb1  1  0.750000  0.469262  0.780643  1
  Yb  Yb2  1  0.750000  0.969262  0.719357  1
  Yb  Yb3  1  0.250000  0.030738  0.280643  1
  Tm  Tm4  1  0.250000  0.680797  0.559486  1
  Tm  Tm5  1  0.750000  0.319203  0.440514  1
  Tm  Tm6  1  0.750000  0.819203  0.059486  1
  Tm  Tm7  1  0.250000  0.180797  0.940514  1
  Os  Os8  1  0.250000  0.723002  0.861519  1
  Os  Os9  1  0.750000  0.276998  0.138481  1
  Os  Os10  1  0.750000  0.776998  0.361519  1
  Os  Os11  1  0.250000  0.223002  0.638481  1
  C  C12  1  0.250000  0.458543  0.759237  1
  C  C13  1  0.750000  0.541457  0.240763  1
  C  C14  1  0.750000  0.041457  0.259237  1
  C  C15  1  0.250000  0.958543  0.740763  1
  C  C16  1  0.250000  0.820570  0.040786  1
  C  C17  1  0.750000  0.179430  0.959214  1
  C  C18  1  0.750000  0.679430  0.540786  1
  C  C19  1  0.250000  0.320570  0.459214  1
