# generated using pymatgen
data_Ca6Cd2AgSn3
_symmetry_space_group_name_H-M   'P 1'
_cell_length_a   5.40819901
_cell_length_b   7.59912700
_cell_length_c   16.32174706
_cell_angle_alpha   89.99997087
_cell_angle_beta   89.99937210
_cell_angle_gamma   89.99987612
_symmetry_Int_Tables_number   1
_chemical_formula_structural   Ca6Cd2AgSn3
_chemical_formula_sum   'Ca12 Cd4 Ag2 Sn6'
_cell_volume   670.78448745
_cell_formula_units_Z   2
loop_
 _symmetry_equiv_pos_site_id
 _symmetry_equiv_pos_as_xyz
  1  'x, y, z'
loop_
 _atom_site_type_symbol
 _atom_site_label
 _atom_site_symmetry_multiplicity
 _atom_site_fract_x
 _atom_site_fract_y
 _atom_site_fract_z
 _atom_site_occupancy
  Ca  Ca0  1  0.500004  0.253529  0.996741  1
  Ca  Ca1  1  0.500002  0.746472  0.996741  1
  Ca  Ca2  1  0.999913  0.249692  0.166459  1
  Ca  Ca3  1  0.999913  0.750307  0.166459  1
  Ca  Ca4  1  0.499905  0.250307  0.333542  1
  Ca  Ca5  1  0.499906  0.749692  0.333543  1
  Ca  Ca6  1  0.000003  0.246470  0.503255  1
  Ca  Ca7  1  0.000003  0.753530  0.503256  1
  Ca  Ca8  1  0.500078  0.246945  0.669614  1
  Ca  Ca9  1  0.500078  0.753054  0.669614  1
  Ca  Ca10  1  0.000065  0.253053  0.830381  1
  Ca  Ca11  1  0.000065  0.746948  0.830382  1
  Cd  Cd12  1  0.000002  0.000000  0.998230  1
  Cd  Cd13  1  0.499888  0.500000  0.165901  1
  Cd  Cd14  1  0.999852  0.000000  0.334096  1
  Cd  Cd15  1  0.500003  0.500000  0.501777  1
  Ag  Ag16  1  0.000233  0.000000  0.667026  1
  Ag  Ag17  1  0.500158  0.500000  0.832985  1
  Sn  Sn18  1  0.000000  0.500000  0.000583  1
  Sn  Sn19  1  0.499923  0.000000  0.166189  1
  Sn  Sn20  1  0.999953  0.500000  0.333816  1
  Sn  Sn21  1  0.499998  0.000000  0.499414  1
  Sn  Sn22  1  0.000030  0.500000  0.665439  1
  Sn  Sn23  1  0.500024  0.000000  0.834557  1
