# generated using pymatgen
data_Dy5Lu3(CuP)12
_symmetry_space_group_name_H-M   'P 1'
_cell_length_a   3.83092300
_cell_length_b   10.61923933
_cell_length_c   12.87970136
_cell_angle_alpha   89.88564717
_cell_angle_beta   90.00000000
_cell_angle_gamma   90.00000000
_symmetry_Int_Tables_number   1
_chemical_formula_structural   Dy5Lu3(CuP)12
_chemical_formula_sum   'Dy5 Lu3 Cu12 P12'
_cell_volume   523.96437529
_cell_formula_units_Z   1
loop_
 _symmetry_equiv_pos_site_id
 _symmetry_equiv_pos_as_xyz
  1  'x, y, z'
loop_
 _atom_site_type_symbol
 _atom_site_label
 _atom_site_symmetry_multiplicity
 _atom_site_fract_x
 _atom_site_fract_y
 _atom_site_fract_z
 _atom_site_occupancy
  Dy  Dy0  1  0.250000  0.931324  0.794003  1
  Dy  Dy1  1  0.750000  0.430181  0.708037  1
  Dy  Dy2  1  0.250000  0.568938  0.291172  1
  Dy  Dy3  1  0.750000  0.069906  0.207508  1
  Dy  Dy4  1  0.250000  0.840812  0.503608  1
  Lu  Lu5  1  0.750000  0.341583  0.996386  1
  Lu  Lu6  1  0.250000  0.658261  0.003170  1
  Lu  Lu7  1  0.750000  0.159092  0.496684  1
  Cu  Cu8  1  0.250000  0.403559  0.513051  1
  Cu  Cu9  1  0.750000  0.904553  0.987358  1
  Cu  Cu10  1  0.250000  0.095325  0.013635  1
  Cu  Cu11  1  0.750000  0.595641  0.486506  1
  Cu  Cu12  1  0.250000  0.272238  0.330970  1
  Cu  Cu13  1  0.750000  0.770818  0.167349  1
  Cu  Cu14  1  0.250000  0.228822  0.831679  1
  Cu  Cu15  1  0.750000  0.728002  0.669898  1
  Cu  Cu16  1  0.250000  0.861223  0.280667  1
  Cu  Cu17  1  0.750000  0.360835  0.216912  1
  Cu  Cu18  1  0.250000  0.639098  0.782896  1
  Cu  Cu19  1  0.750000  0.140634  0.718363  1
  P  P20  1  0.250000  0.240996  0.640680  1
  P  P21  1  0.750000  0.741005  0.859900  1
  P  P22  1  0.250000  0.259250  0.140338  1
  P  P23  1  0.750000  0.757456  0.356572  1
  P  P24  1  0.250000  0.604192  0.602557  1
  P  P25  1  0.750000  0.107018  0.899108  1
  P  P26  1  0.250000  0.893558  0.100868  1
  P  P27  1  0.750000  0.393530  0.398159  1
  P  P28  1  0.250000  0.058246  0.371447  1
  P  P29  1  0.750000  0.556294  0.126911  1
  P  P30  1  0.250000  0.443312  0.872437  1
  P  P31  1  0.750000  0.944298  0.631171  1
