# generated using pymatgen
data_Pr10InSi4Sn
_symmetry_space_group_name_H-M   'P 1'
_cell_length_a   8.00010000
_cell_length_b   9.25524105
_cell_length_c   8.00010000
_cell_angle_alpha   115.60681143
_cell_angle_beta   90.00000000
_cell_angle_gamma   115.60681143
_symmetry_Int_Tables_number   1
_chemical_formula_structural   Pr10InSi4Sn
_chemical_formula_sum   'Pr10 In1 Si4 Sn1'
_cell_volume   468.82509641
_cell_formula_units_Z   1
loop_
 _symmetry_equiv_pos_site_id
 _symmetry_equiv_pos_as_xyz
  1  'x, y, z'
loop_
 _atom_site_type_symbol
 _atom_site_label
 _atom_site_symmetry_multiplicity
 _atom_site_fract_x
 _atom_site_fract_y
 _atom_site_fract_z
 _atom_site_occupancy
  Pr  Pr0  1  0.999963  0.999927  0.999963  1
  Pr  Pr1  1  0.500037  0.000073  0.500037  1
  Pr  Pr2  1  0.535283  0.720861  0.685134  1
  Pr  Pr3  1  0.185580  0.720861  0.035729  1
  Pr  Pr4  1  0.685134  0.720861  0.185580  1
  Pr  Pr5  1  0.035729  0.720861  0.535283  1
  Pr  Pr6  1  0.464271  0.279139  0.314420  1
  Pr  Pr7  1  0.814866  0.279139  0.964717  1
  Pr  Pr8  1  0.314420  0.279139  0.814866  1
  Pr  Pr9  1  0.964717  0.279139  0.464271  1
  In  In10  1  0.750000  0.500000  0.750000  1
  Si  Si11  1  0.883998  0.000000  0.616002  1
  Si  Si12  1  0.116002  0.000000  0.383998  1
  Si  Si13  1  0.616002  0.000000  0.116002  1
  Si  Si14  1  0.383998  0.000000  0.883998  1
  Sn  Sn15  1  0.250000  0.500000  0.250000  1
