# generated using pymatgen
data_Dy2Al3Fe14C3
_symmetry_space_group_name_H-M   'P 1'
_cell_length_a   6.50673369
_cell_length_b   6.50673291
_cell_length_c   6.50673334
_cell_angle_alpha   83.41917329
_cell_angle_beta   83.41917226
_cell_angle_gamma   83.41916311
_symmetry_Int_Tables_number   1
_chemical_formula_structural   Dy2Al3Fe14C3
_chemical_formula_sum   'Dy2 Al3 Fe14 C3'
_cell_volume   270.42021735
_cell_formula_units_Z   1
loop_
 _symmetry_equiv_pos_site_id
 _symmetry_equiv_pos_as_xyz
  1  'x, y, z'
loop_
 _atom_site_type_symbol
 _atom_site_label
 _atom_site_symmetry_multiplicity
 _atom_site_fract_x
 _atom_site_fract_y
 _atom_site_fract_z
 _atom_site_occupancy
  Dy  Dy0  1  0.657111  0.657111  0.657111  1
  Dy  Dy1  1  0.342889  0.342889  0.342889  1
  Al  Al2  1  0.000000  0.000000  0.500000  1
  Al  Al3  1  0.500000  0.000000  0.000000  1
  Al  Al4  1  0.000000  0.500000  0.000000  1
  Fe  Fe5  1  0.714522  0.285478  0.000000  1
  Fe  Fe6  1  0.000000  0.714522  0.285478  1
  Fe  Fe7  1  0.285478  0.000000  0.714522  1
  Fe  Fe8  1  0.000000  0.285478  0.714522  1
  Fe  Fe9  1  0.714522  0.000000  0.285478  1
  Fe  Fe10  1  0.285478  0.714522  0.000000  1
  Fe  Fe11  1  0.344898  0.344898  0.851992  1
  Fe  Fe12  1  0.851992  0.344898  0.344898  1
  Fe  Fe13  1  0.344898  0.851992  0.344898  1
  Fe  Fe14  1  0.655102  0.655102  0.148008  1
  Fe  Fe15  1  0.148008  0.655102  0.655102  1
  Fe  Fe16  1  0.655102  0.148008  0.655102  1
  Fe  Fe17  1  0.906994  0.906994  0.906994  1
  Fe  Fe18  1  0.093006  0.093006  0.093006  1
  C  C19  1  0.500000  0.500000  0.000000  1
  C  C20  1  0.000000  0.500000  0.500000  1
  C  C21  1  0.500000  0.000000  0.500000  1
