# generated using pymatgen
data_Er4Al18(CoPd)3
_symmetry_space_group_name_H-M   'P 1'
_cell_length_a   7.51634653
_cell_length_b   7.51634715
_cell_length_c   9.32951505
_cell_angle_alpha   89.93925491
_cell_angle_beta   89.93925717
_cell_angle_gamma   119.79504407
_symmetry_Int_Tables_number   1
_chemical_formula_structural   Er4Al18(CoPd)3
_chemical_formula_sum   'Er4 Al18 Co3 Pd3'
_cell_volume   457.39940114
_cell_formula_units_Z   1
loop_
 _symmetry_equiv_pos_site_id
 _symmetry_equiv_pos_as_xyz
  1  'x, y, z'
loop_
 _atom_site_type_symbol
 _atom_site_label
 _atom_site_symmetry_multiplicity
 _atom_site_fract_x
 _atom_site_fract_y
 _atom_site_fract_z
 _atom_site_occupancy
  Er  Er0  1  0.995716  0.667644  0.249434  1
  Er  Er1  1  0.008172  0.335579  0.750569  1
  Er  Er2  1  0.664421  0.991828  0.249431  1
  Er  Er3  1  0.332356  0.004284  0.750566  1
  Al  Al4  1  0.114609  0.116028  0.247743  1
  Al  Al5  1  0.883972  0.885391  0.752257  1
  Al  Al6  1  0.987664  0.325255  0.072817  1
  Al  Al7  1  0.994416  0.667023  0.927522  1
  Al  Al8  1  0.998700  0.675237  0.576167  1
  Al  Al9  1  0.324763  0.001300  0.423833  1
  Al  Al10  1  0.998951  0.323960  0.424446  1
  Al  Al11  1  0.676040  0.001049  0.575554  1
  Al  Al12  1  0.674745  0.012336  0.927183  1
  Al  Al13  1  0.332977  0.005584  0.072478  1
  Al  Al14  1  0.324870  0.324497  0.554823  1
  Al  Al15  1  0.675503  0.675130  0.445177  1
  Al  Al16  1  0.676059  0.670222  0.048086  1
  Al  Al17  1  0.329778  0.323941  0.951914  1
  Al  Al18  1  0.339342  0.541361  0.248872  1
  Al  Al19  1  0.660019  0.448431  0.759089  1
  Al  Al20  1  0.551569  0.339981  0.240911  1
  Al  Al21  1  0.458639  0.660658  0.751128  1
  Co  Co22  1  0.671222  0.328778  0.000000  1
  Co  Co23  1  0.999481  0.000519  0.000000  1
  Co  Co24  1  0.999858  0.000142  0.500000  1
  Pd  Pd25  1  0.327083  0.672917  0.000000  1
  Pd  Pd26  1  0.327416  0.672584  0.500000  1
  Pd  Pd27  1  0.671661  0.328339  0.500000  1
