# generated using pymatgen
data_Sm2PaGa6Co8Ni
_symmetry_space_group_name_H-M   'P 1'
_cell_length_a   8.64804454
_cell_length_b   8.62152194
_cell_length_c   4.17881600
_cell_angle_alpha   90.00000000
_cell_angle_beta   90.00000000
_cell_angle_gamma   119.89860016
_symmetry_Int_Tables_number   1
_chemical_formula_structural   Sm2PaGa6Co8Ni
_chemical_formula_sum   'Sm2 Pa1 Ga6 Co8 Ni1'
_cell_volume   270.10248500
_cell_formula_units_Z   1
loop_
 _symmetry_equiv_pos_site_id
 _symmetry_equiv_pos_as_xyz
  1  'x, y, z'
loop_
 _atom_site_type_symbol
 _atom_site_label
 _atom_site_symmetry_multiplicity
 _atom_site_fract_x
 _atom_site_fract_y
 _atom_site_fract_z
 _atom_site_occupancy
  Sm  Sm0  1  0.665516  0.332813  0.500000  1
  Sm  Sm1  1  0.334484  0.667298  0.500000  1
  Pa  Pa2  1  0.000000  0.001288  0.000000  1
  Ga  Ga3  1  0.277708  0.276348  0.500000  1
  Ga  Ga4  1  0.722292  0.998640  0.500000  1
  Ga  Ga5  1  0.000000  0.725749  0.500000  1
  Ga  Ga6  1  0.507554  0.506067  0.000000  1
  Ga  Ga7  1  0.492446  0.998513  0.000000  1
  Ga  Ga8  1  0.000000  0.494381  0.000000  1
  Co  Co9  1  0.825384  0.171945  0.000000  1
  Co  Co10  1  0.828533  0.654953  0.000000  1
  Co  Co11  1  0.344591  0.172133  0.000000  1
  Co  Co12  1  0.171467  0.826421  0.000000  1
  Co  Co13  1  0.655409  0.827543  0.000000  1
  Co  Co14  1  0.174616  0.346562  0.000000  1
  Co  Co15  1  0.702117  0.701784  0.500000  1
  Co  Co16  1  0.297883  0.999667  0.500000  1
  Ni  Ni17  1  0.000000  0.297894  0.500000  1
