# generated using pymatgen
data_TbEr(Ni2B)12
_symmetry_space_group_name_H-M   'P 1'
_cell_length_a   6.01929689
_cell_length_b   6.01929719
_cell_length_c   10.96158863
_cell_angle_alpha   90.03820090
_cell_angle_beta   90.03819827
_cell_angle_gamma   104.72221973
_symmetry_Int_Tables_number   1
_chemical_formula_structural   TbEr(Ni2B)12
_chemical_formula_sum   'Tb1 Er1 Ni24 B12'
_cell_volume   384.12031913
_cell_formula_units_Z   1
loop_
 _symmetry_equiv_pos_site_id
 _symmetry_equiv_pos_as_xyz
  1  'x, y, z'
loop_
 _atom_site_type_symbol
 _atom_site_label
 _atom_site_symmetry_multiplicity
 _atom_site_fract_x
 _atom_site_fract_y
 _atom_site_fract_z
 _atom_site_occupancy
  Tb  Tb0  1  0.166817  0.166817  0.503563  1
  Er  Er1  1  0.833362  0.833362  0.004037  1
  Ni  Ni2  1  0.997808  0.631606  0.562520  1
  Ni  Ni3  1  0.730927  0.342405  0.432123  1
  Ni  Ni4  1  0.342405  0.730927  0.432123  1
  Ni  Ni5  1  0.657854  0.268718  0.932284  1
  Ni  Ni6  1  0.001906  0.368098  0.062477  1
  Ni  Ni7  1  0.368098  0.001906  0.062477  1
  Ni  Ni8  1  0.631606  0.997808  0.562520  1
  Ni  Ni9  1  0.434112  0.434112  0.081294  1
  Ni  Ni10  1  0.212300  0.473891  0.723390  1
  Ni  Ni11  1  0.788098  0.526634  0.222919  1
  Ni  Ni12  1  0.526634  0.788098  0.222919  1
  Ni  Ni13  1  0.473891  0.212300  0.723390  1
  Ni  Ni14  1  0.566657  0.566657  0.581478  1
  Ni  Ni15  1  0.216719  0.216719  0.901133  1
  Ni  Ni16  1  0.145486  0.882101  0.744729  1
  Ni  Ni17  1  0.854388  0.117493  0.244232  1
  Ni  Ni18  1  0.117493  0.854388  0.244232  1
  Ni  Ni19  1  0.882101  0.145486  0.744729  1
  Ni  Ni20  1  0.544956  0.805927  0.767277  1
  Ni  Ni21  1  0.455458  0.194063  0.266845  1
  Ni  Ni22  1  0.194063  0.455458  0.266845  1
  Ni  Ni23  1  0.805927  0.544956  0.767277  1
  Ni  Ni24  1  0.782324  0.782324  0.400887  1
  Ni  Ni25  1  0.268718  0.657854  0.932284  1
  B  B26  1  0.400524  0.987716  0.877339  1
  B  B27  1  0.599567  0.012545  0.377368  1
  B  B28  1  0.012545  0.599567  0.377368  1
  B  B29  1  0.987716  0.400524  0.877339  1
  B  B30  1  0.327597  0.759098  0.615363  1
  B  B31  1  0.672228  0.240656  0.115289  1
  B  B32  1  0.240656  0.672228  0.115289  1
  B  B33  1  0.759098  0.327597  0.615363  1
  B  B34  1  0.512151  0.512151  0.344830  1
  B  B35  1  0.487903  0.487903  0.845012  1
  B  B36  1  0.163301  0.163301  0.161687  1
  B  B37  1  0.836603  0.836603  0.661773  1
