# generated using pymatgen
data_Pr3Nd2GdNb2O14
_symmetry_space_group_name_H-M   'P 1'
_cell_length_a   6.69308597
_cell_length_b   6.68254169
_cell_length_c   7.76656600
_cell_angle_alpha   90.00000000
_cell_angle_beta   90.00000000
_cell_angle_gamma   109.09640657
_symmetry_Int_Tables_number   1
_chemical_formula_structural   Pr3Nd2GdNb2O14
_chemical_formula_sum   'Pr3 Nd2 Gd1 Nb2 O14'
_cell_volume   328.25766652
_cell_formula_units_Z   1
loop_
 _symmetry_equiv_pos_site_id
 _symmetry_equiv_pos_as_xyz
  1  'x, y, z'
loop_
 _atom_site_type_symbol
 _atom_site_label
 _atom_site_symmetry_multiplicity
 _atom_site_fract_x
 _atom_site_fract_y
 _atom_site_fract_z
 _atom_site_occupancy
  Pr  Pr0  1  0.471840  0.475616  0.500332  1
  Pr  Pr1  1  0.471840  0.475616  0.999668  1
  Pr  Pr2  1  0.536873  0.996657  0.750000  1
  Nd  Nd3  1  0.995686  0.536156  0.250000  1
  Nd  Nd4  1  0.463733  0.997746  0.250000  1
  Gd  Gd5  1  0.997629  0.465912  0.750000  1
  Nb  Nb6  1  0.997161  0.997191  0.500885  1
  Nb  Nb7  1  0.997161  0.997191  0.999115  1
  O  O8  1  0.690292  0.932739  0.467175  1
  O  O9  1  0.954693  0.696506  0.538482  1
  O  O10  1  0.690292  0.932739  0.032825  1
  O  O11  1  0.954693  0.696506  0.961518  1
  O  O12  1  0.322052  0.080891  0.526412  1
  O  O13  1  0.071789  0.320972  0.474416  1
  O  O14  1  0.322052  0.080891  0.973588  1
  O  O15  1  0.071789  0.320972  0.025584  1
  O  O16  1  0.359033  0.624004  0.750000  1
  O  O17  1  0.629857  0.368155  0.250000  1
  O  O18  1  0.644088  0.366890  0.750000  1
  O  O19  1  0.359310  0.633768  0.250000  1
  O  O20  1  0.939510  0.063116  0.750000  1
  O  O21  1  0.058631  0.939762  0.250000  1
