# generated using pymatgen
data_TbYbEr(Si3Pd10)2
_symmetry_space_group_name_H-M   'P 1'
_cell_length_a   8.70968521
_cell_length_b   8.70968459
_cell_length_c   8.70968500
_cell_angle_alpha   60.00000224
_cell_angle_beta   60.00000460
_cell_angle_gamma   60.00000509
_symmetry_Int_Tables_number   1
_chemical_formula_structural   TbYbEr(Si3Pd10)2
_chemical_formula_sum   'Tb1 Yb1 Er1 Si6 Pd20'
_cell_volume   467.18874994
_cell_formula_units_Z   1
loop_
 _symmetry_equiv_pos_site_id
 _symmetry_equiv_pos_as_xyz
  1  'x, y, z'
loop_
 _atom_site_type_symbol
 _atom_site_label
 _atom_site_symmetry_multiplicity
 _atom_site_fract_x
 _atom_site_fract_y
 _atom_site_fract_z
 _atom_site_occupancy
  Tb  Tb0  1  0.250000  0.250000  0.250000  1
  Yb  Yb1  1  0.750000  0.750000  0.750000  1
  Er  Er2  1  0.000000  0.000000  0.000000  1
  Si  Si3  1  0.731517  0.268483  0.268483  1
  Si  Si4  1  0.268483  0.731517  0.731517  1
  Si  Si5  1  0.268483  0.731517  0.268483  1
  Si  Si6  1  0.731517  0.268483  0.731517  1
  Si  Si7  1  0.268483  0.268483  0.731517  1
  Si  Si8  1  0.731517  0.731517  0.268483  1
  Pd  Pd9  1  0.383277  0.383277  0.383277  1
  Pd  Pd10  1  0.616641  0.616641  0.616641  1
  Pd  Pd11  1  0.383277  0.383277  0.850169  1
  Pd  Pd12  1  0.383277  0.850169  0.383277  1
  Pd  Pd13  1  0.616641  0.616641  0.150077  1
  Pd  Pd14  1  0.616641  0.150077  0.616641  1
  Pd  Pd15  1  0.850169  0.383277  0.383277  1
  Pd  Pd16  1  0.150077  0.616641  0.616641  1
  Pd  Pd17  1  0.343883  0.000393  0.000393  1
  Pd  Pd18  1  0.655331  0.000393  0.000393  1
  Pd  Pd19  1  0.000393  0.343883  0.655331  1
  Pd  Pd20  1  0.000393  0.655331  0.343883  1
  Pd  Pd21  1  0.000393  0.343883  0.000393  1
  Pd  Pd22  1  0.655331  0.000393  0.343883  1
  Pd  Pd23  1  0.000393  0.655331  0.000393  1
  Pd  Pd24  1  0.343883  0.000393  0.655331  1
  Pd  Pd25  1  0.000393  0.000393  0.343883  1
  Pd  Pd26  1  0.000393  0.000393  0.655331  1
  Pd  Pd27  1  0.655331  0.343883  0.000393  1
  Pd  Pd28  1  0.343883  0.655331  0.000393  1
