# generated using pymatgen
data_BaFe2(Sb6Rh)2
_symmetry_space_group_name_H-M   'P 1'
_cell_length_a   8.10651371
_cell_length_b   8.07403787
_cell_length_c   8.07403822
_cell_angle_alpha   109.38635867
_cell_angle_beta   109.43006442
_cell_angle_gamma   109.43461913
_symmetry_Int_Tables_number   1
_chemical_formula_structural   BaFe2(Sb6Rh)2
_chemical_formula_sum   'Ba1 Fe2 Sb12 Rh2'
_cell_volume   407.62639380
_cell_formula_units_Z   1
loop_
 _symmetry_equiv_pos_site_id
 _symmetry_equiv_pos_as_xyz
  1  'x, y, z'
loop_
 _atom_site_type_symbol
 _atom_site_label
 _atom_site_symmetry_multiplicity
 _atom_site_fract_x
 _atom_site_fract_y
 _atom_site_fract_z
 _atom_site_occupancy
  Ba  Ba0  1  0.000000  0.000000  0.000000  1
  Fe  Fe1  1  0.500000  0.000000  0.000000  1
  Fe  Fe2  1  0.500000  0.500000  0.500000  1
  Sb  Sb3  1  0.347201  0.179641  0.846124  1
  Sb  Sb4  1  0.652799  0.820359  0.153876  1
  Sb  Sb5  1  0.652799  0.498923  0.832440  1
  Sb  Sb6  1  0.347201  0.501077  0.167560  1
  Sb  Sb7  1  0.188850  0.843257  0.345592  1
  Sb  Sb8  1  0.811150  0.156743  0.654408  1
  Sb  Sb9  1  0.500915  0.836259  0.664656  1
  Sb  Sb10  1  0.499085  0.163741  0.335344  1
  Sb  Sb11  1  0.832702  0.333379  0.179633  1
  Sb  Sb12  1  0.167298  0.666621  0.820367  1
  Sb  Sb13  1  0.832702  0.653070  0.499323  1
  Sb  Sb14  1  0.167298  0.346930  0.500677  1
  Rh  Rh15  1  0.000000  0.000000  0.500000  1
  Rh  Rh16  1  0.000000  0.500000  0.000000  1
