# generated using pymatgen
data_LuScFe6Co6P7
_symmetry_space_group_name_H-M   'P 1'
_cell_length_a   3.58232500
_cell_length_b   8.90660647
_cell_length_c   8.90894303
_cell_angle_alpha   119.98616845
_cell_angle_beta   90.00000000
_cell_angle_gamma   90.00000000
_symmetry_Int_Tables_number   1
_chemical_formula_structural   LuScFe6Co6P7
_chemical_formula_sum   'Lu1 Sc1 Fe6 Co6 P7'
_cell_volume   246.20369933
_cell_formula_units_Z   1
loop_
 _symmetry_equiv_pos_site_id
 _symmetry_equiv_pos_as_xyz
  1  'x, y, z'
loop_
 _atom_site_type_symbol
 _atom_site_label
 _atom_site_symmetry_multiplicity
 _atom_site_fract_x
 _atom_site_fract_y
 _atom_site_fract_z
 _atom_site_occupancy
  Lu  Lu0  1  0.500000  0.333367  0.666720  1
  Sc  Sc1  1  0.000000  0.666658  0.333091  1
  Fe  Fe2  1  0.000000  0.879631  0.724002  1
  Fe  Fe3  1  0.000000  0.276290  0.156033  1
  Fe  Fe4  1  0.000000  0.844198  0.120211  1
  Fe  Fe5  1  0.500000  0.129178  0.900784  1
  Fe  Fe6  1  0.500000  0.099501  0.228453  1
  Fe  Fe7  1  0.500000  0.770850  0.870548  1
  Co  Co8  1  0.000000  0.374447  0.939366  1
  Co  Co9  1  0.000000  0.060531  0.435027  1
  Co  Co10  1  0.000000  0.564992  0.625524  1
  Co  Co11  1  0.500000  0.945895  0.561087  1
  Co  Co12  1  0.500000  0.438968  0.384900  1
  Co  Co13  1  0.500000  0.615223  0.054117  1
  P  P14  1  0.000000  0.113878  0.706511  1
  P  P15  1  0.000000  0.293475  0.407565  1
  P  P16  1  0.000000  0.592573  0.886062  1
  P  P17  1  0.500000  0.711529  0.593832  1
  P  P18  1  0.500000  0.406140  0.117599  1
  P  P19  1  0.500000  0.882562  0.288479  1
  P  P20  1  0.000000  0.000113  0.000091  1
