# generated using pymatgen
data_Yb2Pr8GaSn5
_symmetry_space_group_name_H-M   'P 1'
_cell_length_a   8.26094300
_cell_length_b   8.25914210
_cell_length_c   14.62011514
_cell_angle_alpha   89.98317179
_cell_angle_beta   90.00000000
_cell_angle_gamma   90.00000000
_symmetry_Int_Tables_number   1
_chemical_formula_structural   Yb2Pr8GaSn5
_chemical_formula_sum   'Yb4 Pr16 Ga2 Sn10'
_cell_volume   997.50558966
_cell_formula_units_Z   2
loop_
 _symmetry_equiv_pos_site_id
 _symmetry_equiv_pos_as_xyz
  1  'x, y, z'
loop_
 _atom_site_type_symbol
 _atom_site_label
 _atom_site_symmetry_multiplicity
 _atom_site_fract_x
 _atom_site_fract_y
 _atom_site_fract_z
 _atom_site_occupancy
  Yb  Yb0  1  0.998527  0.495787  0.745082  1
  Yb  Yb1  1  0.001473  0.495787  0.245082  1
  Yb  Yb2  1  0.496202  0.001045  0.254850  1
  Yb  Yb3  1  0.503798  0.001045  0.754850  1
  Pr  Pr4  1  0.829239  0.839464  0.602252  1
  Pr  Pr5  1  0.170761  0.839464  0.102252  1
  Pr  Pr6  1  0.168017  0.835013  0.398103  1
  Pr  Pr7  1  0.838748  0.171321  0.397923  1
  Pr  Pr8  1  0.673255  0.667984  0.399232  1
  Pr  Pr9  1  0.672965  0.320557  0.604317  1
  Pr  Pr10  1  0.329874  0.671557  0.601119  1
  Pr  Pr11  1  0.670126  0.671557  0.101119  1
  Pr  Pr12  1  0.677577  0.324856  0.895402  1
  Pr  Pr13  1  0.831983  0.835013  0.898103  1
  Pr  Pr14  1  0.322423  0.324856  0.395402  1
  Pr  Pr15  1  0.166014  0.168714  0.601731  1
  Pr  Pr16  1  0.833986  0.168714  0.101731  1
  Pr  Pr17  1  0.326745  0.667984  0.899232  1
  Pr  Pr18  1  0.327035  0.320557  0.104317  1
  Pr  Pr19  1  0.161252  0.171321  0.897923  1
  Ga  Ga20  1  0.875062  0.125191  0.750039  1
  Ga  Ga21  1  0.124938  0.125191  0.250039  1
  Sn  Sn22  1  0.628404  0.371747  0.250087  1
  Sn  Sn23  1  0.123675  0.876332  0.749982  1
  Sn  Sn24  1  0.371596  0.371747  0.750087  1
  Sn  Sn25  1  0.371476  0.628421  0.249939  1
  Sn  Sn26  1  0.876325  0.876332  0.249982  1
  Sn  Sn27  1  0.628524  0.628421  0.749939  1
  Sn  Sn28  1  0.999650  0.501701  0.501663  1
  Sn  Sn29  1  0.500137  0.000311  0.498278  1
  Sn  Sn30  1  0.499863  0.000311  0.998278  1
  Sn  Sn31  1  0.000350  0.501701  0.001663  1
