# generated using pymatgen
data_Ho16CdHg3(PdPt)2
_symmetry_space_group_name_H-M   'P 1'
_cell_length_a   9.61820772
_cell_length_b   9.63005504
_cell_length_c   9.61761600
_cell_angle_alpha   60.04271956
_cell_angle_beta   60.00203509
_cell_angle_gamma   60.06360060
_symmetry_Int_Tables_number   1
_chemical_formula_structural   Ho16CdHg3(PdPt)2
_chemical_formula_sum   'Ho16 Cd1 Hg3 Pd2 Pt2'
_cell_volume   630.42076986
_cell_formula_units_Z   1
loop_
 _symmetry_equiv_pos_site_id
 _symmetry_equiv_pos_as_xyz
  1  'x, y, z'
loop_
 _atom_site_type_symbol
 _atom_site_label
 _atom_site_symmetry_multiplicity
 _atom_site_fract_x
 _atom_site_fract_y
 _atom_site_fract_z
 _atom_site_occupancy
  Ho  Ho0  1  0.605094  0.604518  0.600246  1
  Ho  Ho1  1  0.605094  0.604518  0.190143  1
  Ho  Ho2  1  0.609571  0.182180  0.604124  1
  Ho  Ho3  1  0.179950  0.609786  0.605132  1
  Ho  Ho4  1  0.059616  0.439963  0.439538  1
  Ho  Ho5  1  0.438924  0.060188  0.061446  1
  Ho  Ho6  1  0.438924  0.060188  0.439443  1
  Ho  Ho7  1  0.059616  0.439963  0.060884  1
  Ho  Ho8  1  0.439841  0.440507  0.059826  1
  Ho  Ho9  1  0.060784  0.060942  0.439137  1
  Ho  Ho10  1  0.184246  0.815816  0.814525  1
  Ho  Ho11  1  0.815102  0.185867  0.184846  1
  Ho  Ho12  1  0.815102  0.185867  0.814184  1
  Ho  Ho13  1  0.184246  0.815816  0.185413  1
  Ho  Ho14  1  0.815191  0.815562  0.184624  1
  Ho  Ho15  1  0.184104  0.186207  0.814844  1
  Cd  Cd16  1  0.504339  0.830284  0.832688  1
  Hg  Hg17  1  0.834391  0.836165  0.838286  1
  Hg  Hg18  1  0.834391  0.836165  0.491159  1
  Hg  Hg19  1  0.833378  0.491162  0.837730  1
  Pd  Pd20  1  0.393860  0.394022  0.396956  1
  Pd  Pd21  1  0.393860  0.394022  0.815160  1
  Pt  Pt22  1  0.391809  0.818296  0.394947  1
  Pt  Pt23  1  0.818565  0.391996  0.394719  1
