# generated using pymatgen
data_Dy3Ho3(TmAu2)2
_symmetry_space_group_name_H-M   'P 1'
_cell_length_a   4.91639500
_cell_length_b   7.10501131
_cell_length_c   8.92056101
_cell_angle_alpha   90.03691002
_cell_angle_beta   90.00000000
_cell_angle_gamma   90.00000000
_symmetry_Int_Tables_number   1
_chemical_formula_structural   Dy3Ho3(TmAu2)2
_chemical_formula_sum   'Dy3 Ho3 Tm2 Au4'
_cell_volume   311.60442733
_cell_formula_units_Z   1
loop_
 _symmetry_equiv_pos_site_id
 _symmetry_equiv_pos_as_xyz
  1  'x, y, z'
loop_
 _atom_site_type_symbol
 _atom_site_label
 _atom_site_symmetry_multiplicity
 _atom_site_fract_x
 _atom_site_fract_y
 _atom_site_fract_z
 _atom_site_occupancy
  Dy  Dy0  1  0.250000  0.486864  0.176698  1
  Dy  Dy1  1  0.750000  0.513485  0.823087  1
  Dy  Dy2  1  0.250000  0.986898  0.323323  1
  Ho  Ho3  1  0.750000  0.013602  0.676609  1
  Ho  Ho4  1  0.750000  0.648487  0.420013  1
  Ho  Ho5  1  0.750000  0.148290  0.080033  1
  Tm  Tm6  1  0.250000  0.351512  0.580428  1
  Tm  Tm7  1  0.250000  0.851760  0.919282  1
  Au  Au8  1  0.250000  0.255885  0.899856  1
  Au  Au9  1  0.750000  0.743518  0.098920  1
  Au  Au10  1  0.250000  0.756406  0.600131  1
  Au  Au11  1  0.750000  0.243294  0.401620  1
