# generated using pymatgen
data_Cs2RbNb2IBr9N
_symmetry_space_group_name_H-M   'P 1'
_cell_length_a   7.74970500
_cell_length_b   7.74970500
_cell_length_c   20.19517200
_cell_angle_alpha   90.00000000
_cell_angle_beta   90.00000000
_cell_angle_gamma   90.00000000
_symmetry_Int_Tables_number   1
_chemical_formula_structural   Cs2RbNb2IBr9N
_chemical_formula_sum   'Cs4 Rb2 Nb4 I2 Br18 N2'
_cell_volume   1212.88017758
_cell_formula_units_Z   2
loop_
 _symmetry_equiv_pos_site_id
 _symmetry_equiv_pos_as_xyz
  1  'x, y, z'
loop_
 _atom_site_type_symbol
 _atom_site_label
 _atom_site_symmetry_multiplicity
 _atom_site_fract_x
 _atom_site_fract_y
 _atom_site_fract_z
 _atom_site_occupancy
  Cs  Cs0  1  0.000000  0.500000  0.249951  1
  Cs  Cs1  1  0.500000  0.000000  0.749951  1
  Cs  Cs2  1  0.500000  0.000000  0.249951  1
  Cs  Cs3  1  0.000000  0.500000  0.749951  1
  Rb  Rb4  1  0.500000  0.500000  0.000267  1
  Rb  Rb5  1  0.000000  0.000000  0.500267  1
  Nb  Nb6  1  0.500000  0.500000  0.409463  1
  Nb  Nb7  1  0.000000  0.000000  0.909463  1
  Nb  Nb8  1  0.500000  0.500000  0.595056  1
  Nb  Nb9  1  0.000000  0.000000  0.095056  1
  I  I10  1  0.500000  0.500000  0.255969  1
  I  I11  1  0.000000  0.000000  0.755969  1
  Br  Br12  1  0.775911  0.683582  0.400172  1
  Br  Br13  1  0.224089  0.316418  0.400172  1
  Br  Br14  1  0.724089  0.183582  0.900172  1
  Br  Br15  1  0.275911  0.816418  0.900172  1
  Br  Br16  1  0.683582  0.224089  0.400172  1
  Br  Br17  1  0.316418  0.775911  0.400172  1
  Br  Br18  1  0.183582  0.275911  0.900172  1
  Br  Br19  1  0.816418  0.724089  0.900172  1
  Br  Br20  1  0.223937  0.316222  0.600979  1
  Br  Br21  1  0.776063  0.683778  0.600979  1
  Br  Br22  1  0.276063  0.816222  0.100979  1
  Br  Br23  1  0.723937  0.183778  0.100979  1
  Br  Br24  1  0.316222  0.776063  0.600979  1
  Br  Br25  1  0.683778  0.223937  0.600979  1
  Br  Br26  1  0.816222  0.723937  0.100979  1
  Br  Br27  1  0.183778  0.276063  0.100979  1
  Br  Br28  1  0.500000  0.500000  0.733136  1
  Br  Br29  1  0.000000  0.000000  0.233136  1
  N  N30  1  0.500000  0.500000  0.501602  1
  N  N31  1  0.000000  0.000000  0.001604  1
