# generated using pymatgen
data_Nd4HgRh
_symmetry_space_group_name_H-M   'P 1'
_cell_length_a   9.93365921
_cell_length_b   9.93365947
_cell_length_c   9.93366000
_cell_angle_alpha   59.99999823
_cell_angle_beta   59.99999737
_cell_angle_gamma   60.00000103
_symmetry_Int_Tables_number   1
_chemical_formula_structural   Nd4HgRh
_chemical_formula_sum   'Nd16 Hg4 Rh4'
_cell_volume   693.12698486
_cell_formula_units_Z   4
loop_
 _symmetry_equiv_pos_site_id
 _symmetry_equiv_pos_as_xyz
  1  'x, y, z'
loop_
 _atom_site_type_symbol
 _atom_site_label
 _atom_site_symmetry_multiplicity
 _atom_site_fract_x
 _atom_site_fract_y
 _atom_site_fract_z
 _atom_site_occupancy
  Nd  Nd0  1  0.600147  0.600147  0.600147  1
  Nd  Nd1  1  0.600147  0.600147  0.199560  1
  Nd  Nd2  1  0.600147  0.199560  0.600147  1
  Nd  Nd3  1  0.199560  0.600147  0.600147  1
  Nd  Nd4  1  0.059004  0.440996  0.440996  1
  Nd  Nd5  1  0.440996  0.059004  0.059004  1
  Nd  Nd6  1  0.440996  0.059004  0.440996  1
  Nd  Nd7  1  0.059004  0.440996  0.059004  1
  Nd  Nd8  1  0.440996  0.440996  0.059004  1
  Nd  Nd9  1  0.059004  0.059004  0.440996  1
  Nd  Nd10  1  0.187626  0.812374  0.812374  1
  Nd  Nd11  1  0.812374  0.187626  0.187626  1
  Nd  Nd12  1  0.812374  0.187626  0.812374  1
  Nd  Nd13  1  0.187626  0.812374  0.187626  1
  Nd  Nd14  1  0.812374  0.812374  0.187626  1
  Nd  Nd15  1  0.187626  0.187626  0.812374  1
  Hg  Hg16  1  0.833778  0.833778  0.833778  1
  Hg  Hg17  1  0.833778  0.833778  0.498666  1
  Hg  Hg18  1  0.833778  0.498666  0.833778  1
  Hg  Hg19  1  0.498666  0.833778  0.833778  1
  Rh  Rh20  1  0.392113  0.392113  0.392113  1
  Rh  Rh21  1  0.392113  0.392113  0.823661  1
  Rh  Rh22  1  0.392113  0.823661  0.392113  1
  Rh  Rh23  1  0.823661  0.392113  0.392113  1
