# generated using pymatgen
data_Nd5Y5(Ni2Sn5)4
_symmetry_space_group_name_H-M   'P 1'
_cell_length_a   13.89495800
_cell_length_b   13.89495800
_cell_length_c   4.51783500
_cell_angle_alpha   90.00000000
_cell_angle_beta   90.00000000
_cell_angle_gamma   90.00000000
_symmetry_Int_Tables_number   1
_chemical_formula_structural   Nd5Y5(Ni2Sn5)4
_chemical_formula_sum   'Nd5 Y5 Ni8 Sn20'
_cell_volume   872.25776111
_cell_formula_units_Z   1
loop_
 _symmetry_equiv_pos_site_id
 _symmetry_equiv_pos_as_xyz
  1  'x, y, z'
loop_
 _atom_site_type_symbol
 _atom_site_label
 _atom_site_symmetry_multiplicity
 _atom_site_fract_x
 _atom_site_fract_y
 _atom_site_fract_z
 _atom_site_occupancy
  Nd  Nd0  1  0.500000  0.500000  0.000000  1
  Nd  Nd1  1  0.892306  0.608239  0.500000  1
  Nd  Nd2  1  0.107694  0.391761  0.500000  1
  Nd  Nd3  1  0.391761  0.892306  0.500000  1
  Nd  Nd4  1  0.608239  0.107694  0.500000  1
  Y  Y5  1  0.000000  0.000000  0.000000  1
  Y  Y6  1  0.180437  0.681058  0.500000  1
  Y  Y7  1  0.819563  0.318942  0.500000  1
  Y  Y8  1  0.681058  0.819563  0.500000  1
  Y  Y9  1  0.318942  0.180437  0.500000  1
  Ni  Ni10  1  0.256146  0.534852  0.000000  1
  Ni  Ni11  1  0.743854  0.465148  0.000000  1
  Ni  Ni12  1  0.757247  0.965724  0.000000  1
  Ni  Ni13  1  0.242753  0.034276  0.000000  1
  Ni  Ni14  1  0.465148  0.256146  0.000000  1
  Ni  Ni15  1  0.534852  0.743854  0.000000  1
  Ni  Ni16  1  0.034276  0.757247  0.000000  1
  Ni  Ni17  1  0.965724  0.242753  0.000000  1
  Sn  Sn18  1  0.350390  0.700544  0.000000  1
  Sn  Sn19  1  0.649610  0.299456  0.000000  1
  Sn  Sn20  1  0.850575  0.799903  0.000000  1
  Sn  Sn21  1  0.149425  0.200097  0.000000  1
  Sn  Sn22  1  0.299456  0.350390  0.000000  1
  Sn  Sn23  1  0.700544  0.649610  0.000000  1
  Sn  Sn24  1  0.200097  0.850575  0.000000  1
  Sn  Sn25  1  0.799903  0.149425  0.000000  1
  Sn  Sn26  1  0.333262  0.508979  0.500000  1
  Sn  Sn27  1  0.666738  0.491021  0.500000  1
  Sn  Sn28  1  0.835353  0.990908  0.500000  1
  Sn  Sn29  1  0.164647  0.009092  0.500000  1
  Sn  Sn30  1  0.491021  0.333262  0.500000  1
  Sn  Sn31  1  0.508979  0.666738  0.500000  1
  Sn  Sn32  1  0.009092  0.835353  0.500000  1
  Sn  Sn33  1  0.990908  0.164647  0.500000  1
  Sn  Sn34  1  0.072554  0.572790  0.000000  1
  Sn  Sn35  1  0.927446  0.427210  0.000000  1
  Sn  Sn36  1  0.572790  0.927446  0.000000  1
  Sn  Sn37  1  0.427210  0.072554  0.000000  1
