# generated using pymatgen
data_Y6Lu14Cd6NiOs
_symmetry_space_group_name_H-M   'P 1'
_cell_length_a   9.51544900
_cell_length_b   9.51544999
_cell_length_c   9.64017200
_cell_angle_alpha   90.00000000
_cell_angle_beta   90.00000000
_cell_angle_gamma   119.99999306
_symmetry_Int_Tables_number   1
_chemical_formula_structural   Y6Lu14Cd6NiOs
_chemical_formula_sum   'Y6 Lu14 Cd6 Ni1 Os1'
_cell_volume   755.91691215
_cell_formula_units_Z   1
loop_
 _symmetry_equiv_pos_site_id
 _symmetry_equiv_pos_as_xyz
  1  'x, y, z'
loop_
 _atom_site_type_symbol
 _atom_site_label
 _atom_site_symmetry_multiplicity
 _atom_site_fract_x
 _atom_site_fract_y
 _atom_site_fract_z
 _atom_site_occupancy
  Y  Y0  1  0.539363  0.460637  0.250000  1
  Y  Y1  1  0.539363  0.078726  0.250000  1
  Y  Y2  1  0.921274  0.460637  0.250000  1
  Y  Y3  1  0.458172  0.541828  0.750000  1
  Y  Y4  1  0.458172  0.916345  0.750000  1
  Y  Y5  1  0.083655  0.541828  0.750000  1
  Lu  Lu6  1  0.000000  0.000000  0.499422  1
  Lu  Lu7  1  0.000000  0.000000  0.000578  1
  Lu  Lu8  1  0.209515  0.790485  0.440272  1
  Lu  Lu9  1  0.209515  0.419031  0.440272  1
  Lu  Lu10  1  0.580969  0.790485  0.440272  1
  Lu  Lu11  1  0.789126  0.210874  0.562910  1
  Lu  Lu12  1  0.789126  0.578253  0.562910  1
  Lu  Lu13  1  0.421747  0.210874  0.562910  1
  Lu  Lu14  1  0.789126  0.210874  0.937090  1
  Lu  Lu15  1  0.789126  0.578253  0.937090  1
  Lu  Lu16  1  0.421747  0.210874  0.937090  1
  Lu  Lu17  1  0.209515  0.790485  0.059728  1
  Lu  Lu18  1  0.209515  0.419031  0.059728  1
  Lu  Lu19  1  0.580969  0.790485  0.059728  1
  Cd  Cd20  1  0.886418  0.113582  0.250000  1
  Cd  Cd21  1  0.886418  0.772835  0.250000  1
  Cd  Cd22  1  0.227165  0.113582  0.250000  1
  Cd  Cd23  1  0.113567  0.886433  0.750000  1
  Cd  Cd24  1  0.113567  0.227134  0.750000  1
  Cd  Cd25  1  0.772866  0.886433  0.750000  1
  Ni  Ni26  1  0.666667  0.333333  0.750000  1
  Os  Os27  1  0.333333  0.666667  0.250000  1
