# generated using pymatgen
data_La4Nd4SnPd24
_symmetry_space_group_name_H-M   'P 1'
_cell_length_a   8.57303111
_cell_length_b   8.57307905
_cell_length_c   8.57307905
_cell_angle_alpha   89.99890325
_cell_angle_beta   90.01272495
_cell_angle_gamma   90.01272495
_symmetry_Int_Tables_number   1
_chemical_formula_structural   La4Nd4SnPd24
_chemical_formula_sum   'La4 Nd4 Sn1 Pd24'
_cell_volume   630.09790382
_cell_formula_units_Z   1
loop_
 _symmetry_equiv_pos_site_id
 _symmetry_equiv_pos_as_xyz
  1  'x, y, z'
loop_
 _atom_site_type_symbol
 _atom_site_label
 _atom_site_symmetry_multiplicity
 _atom_site_fract_x
 _atom_site_fract_y
 _atom_site_fract_z
 _atom_site_occupancy
  La  La0  1  0.252463  0.252403  0.747571  1
  La  La1  1  0.252463  0.747571  0.252403  1
  La  La2  1  0.252414  0.747670  0.747670  1
  La  La3  1  0.747464  0.252521  0.252521  1
  Nd  Nd4  1  0.251918  0.251934  0.251934  1
  Nd  Nd5  1  0.747896  0.747843  0.747843  1
  Nd  Nd6  1  0.747997  0.748026  0.252042  1
  Nd  Nd7  1  0.747997  0.252042  0.748026  1
  Sn  Sn8  1  0.999763  0.000013  0.000013  1
  Pd  Pd9  1  0.267179  0.499785  0.000279  1
  Pd  Pd10  1  0.732802  0.500231  0.999721  1
  Pd  Pd11  1  0.999910  0.267195  0.500002  1
  Pd  Pd12  1  0.500096  0.267201  0.000018  1
  Pd  Pd13  1  0.999353  0.732819  0.499995  1
  Pd  Pd14  1  0.500542  0.732811  0.000003  1
  Pd  Pd15  1  0.500096  0.000018  0.267201  1
  Pd  Pd16  1  0.267179  0.000279  0.499785  1
  Pd  Pd17  1  0.500542  0.000003  0.732811  1
  Pd  Pd18  1  0.732802  0.999721  0.500231  1
  Pd  Pd19  1  0.999910  0.500002  0.267195  1
  Pd  Pd20  1  0.999353  0.499995  0.732819  1
  Pd  Pd21  1  0.255635  0.499685  0.499685  1
  Pd  Pd22  1  0.744387  0.500314  0.500314  1
  Pd  Pd23  1  0.500040  0.255610  0.499996  1
  Pd  Pd24  1  0.500674  0.744378  0.499992  1
  Pd  Pd25  1  0.500040  0.499996  0.255610  1
  Pd  Pd26  1  0.500674  0.499992  0.744378  1
  Pd  Pd27  1  0.313606  0.000392  0.000392  1
  Pd  Pd28  1  0.686552  0.999587  0.999587  1
  Pd  Pd29  1  0.999963  0.313514  0.000001  1
  Pd  Pd30  1  0.999163  0.686475  0.999975  1
  Pd  Pd31  1  0.999963  0.000001  0.313514  1
  Pd  Pd32  1  0.999163  0.999975  0.686475  1
