# generated using pymatgen
data_PmZn3Rh2
_symmetry_space_group_name_H-M   'P 1'
_cell_length_a   5.34008100
_cell_length_b   5.34007921
_cell_length_c   4.21984700
_cell_angle_alpha   90.00000000
_cell_angle_beta   90.00000000
_cell_angle_gamma   60.00009117
_symmetry_Int_Tables_number   1
_chemical_formula_structural   PmZn3Rh2
_chemical_formula_sum   'Pm1 Zn3 Rh2'
_cell_volume   104.21333134
_cell_formula_units_Z   1
loop_
 _symmetry_equiv_pos_site_id
 _symmetry_equiv_pos_as_xyz
  1  'x, y, z'
loop_
 _atom_site_type_symbol
 _atom_site_label
 _atom_site_symmetry_multiplicity
 _atom_site_fract_x
 _atom_site_fract_y
 _atom_site_fract_z
 _atom_site_occupancy
  Pm  Pm0  1  0.000000  0.000000  0.000000  1
  Zn  Zn1  1  0.500279  0.000001  0.499999  1
  Zn  Zn2  1  0.999999  0.499720  0.499999  1
  Zn  Zn3  1  0.499719  0.500280  0.499999  1
  Rh  Rh4  1  0.333332  0.333334  0.000000  1
  Rh  Rh5  1  0.666666  0.666668  0.000000  1
