# generated using pymatgen
data_Ba4Mg(ReO6)2
_symmetry_space_group_name_H-M   'P 1'
_cell_length_a   9.95906442
_cell_length_b   9.95906445
_cell_length_c   9.95906383
_cell_angle_alpha   33.80292948
_cell_angle_beta   33.80292816
_cell_angle_gamma   33.80292803
_symmetry_Int_Tables_number   1
_chemical_formula_structural   Ba4Mg(ReO6)2
_chemical_formula_sum   'Ba4 Mg1 Re2 O12'
_cell_volume   272.42824042
_cell_formula_units_Z   1
loop_
 _symmetry_equiv_pos_site_id
 _symmetry_equiv_pos_as_xyz
  1  'x, y, z'
loop_
 _atom_site_type_symbol
 _atom_site_label
 _atom_site_symmetry_multiplicity
 _atom_site_fract_x
 _atom_site_fract_y
 _atom_site_fract_z
 _atom_site_occupancy
  Ba  Ba0  1  0.708360  0.708360  0.708360  1
  Ba  Ba1  1  0.291640  0.291640  0.291640  1
  Ba  Ba2  1  0.869392  0.869392  0.869392  1
  Ba  Ba3  1  0.130608  0.130608  0.130608  1
  Mg  Mg4  1  0.000000  0.000000  0.000000  1
  Re  Re5  1  0.580947  0.580947  0.580947  1
  Re  Re6  1  0.419053  0.419053  0.419053  1
  O  O7  1  0.219532  0.692120  0.219532  1
  O  O8  1  0.219532  0.219532  0.692120  1
  O  O9  1  0.692120  0.219532  0.219532  1
  O  O10  1  0.780468  0.307880  0.780468  1
  O  O11  1  0.780468  0.780468  0.307880  1
  O  O12  1  0.307880  0.780468  0.780468  1
  O  O13  1  0.389564  0.858170  0.389564  1
  O  O14  1  0.389564  0.389564  0.858170  1
  O  O15  1  0.858170  0.389564  0.389564  1
  O  O16  1  0.610436  0.141830  0.610436  1
  O  O17  1  0.610436  0.610436  0.141830  1
  O  O18  1  0.141830  0.610436  0.610436  1
