# generated using pymatgen
data_Ba2Yb(AgHg)3
_symmetry_space_group_name_H-M   'P 1'
_cell_length_a   4.99219400
_cell_length_b   4.99219279
_cell_length_c   12.25940600
_cell_angle_alpha   90.00000000
_cell_angle_beta   90.00000000
_cell_angle_gamma   119.99999479
_symmetry_Int_Tables_number   1
_chemical_formula_structural   Ba2Yb(AgHg)3
_chemical_formula_sum   'Ba2 Yb1 Ag3 Hg3'
_cell_volume   264.59576258
_cell_formula_units_Z   1
loop_
 _symmetry_equiv_pos_site_id
 _symmetry_equiv_pos_as_xyz
  1  'x, y, z'
loop_
 _atom_site_type_symbol
 _atom_site_label
 _atom_site_symmetry_multiplicity
 _atom_site_fract_x
 _atom_site_fract_y
 _atom_site_fract_z
 _atom_site_occupancy
  Ba  Ba0  1  0.666667  0.333333  0.677370  1
  Ba  Ba1  1  0.666667  0.333333  0.322630  1
  Yb  Yb2  1  0.666667  0.333333  0.000000  1
  Ag  Ag3  1  0.000000  0.000000  0.876966  1
  Ag  Ag4  1  0.000000  0.000000  0.123034  1
  Ag  Ag5  1  0.333333  0.666667  0.500000  1
  Hg  Hg6  1  0.333333  0.666667  0.864220  1
  Hg  Hg7  1  0.000000  0.000000  0.500000  1
  Hg  Hg8  1  0.333333  0.666667  0.135780  1
