# generated using pymatgen
data_Dy5Si11Mo3PIr16
_symmetry_space_group_name_H-M   'P 1'
_cell_length_a   12.88709100
_cell_length_b   12.85003214
_cell_length_c   4.00223700
_cell_angle_alpha   90.00000000
_cell_angle_beta   90.00000000
_cell_angle_gamma   120.09544370
_symmetry_Int_Tables_number   1
_chemical_formula_structural   Dy5Si11Mo3PIr16
_chemical_formula_sum   'Dy5 Si11 Mo3 P1 Ir16'
_cell_volume   573.42160898
_cell_formula_units_Z   1
loop_
 _symmetry_equiv_pos_site_id
 _symmetry_equiv_pos_as_xyz
  1  'x, y, z'
loop_
 _atom_site_type_symbol
 _atom_site_label
 _atom_site_symmetry_multiplicity
 _atom_site_fract_x
 _atom_site_fract_y
 _atom_site_fract_z
 _atom_site_occupancy
  Dy  Dy0  1  0.333387  0.667062  0.500000  1
  Dy  Dy1  1  0.666327  0.332938  0.500000  1
  Dy  Dy2  1  0.999692  0.811957  0.000000  1
  Dy  Dy3  1  0.187735  0.188043  0.000000  1
  Dy  Dy4  1  0.813307  0.000000  0.000000  1
  Si  Si5  1  0.999656  0.628555  0.500000  1
  Si  Si6  1  0.371101  0.371445  0.500000  1
  Si  Si7  1  0.628184  0.000000  0.500000  1
  Si  Si8  1  0.520612  0.687012  0.000000  1
  Si  Si9  1  0.313742  0.834308  0.000000  1
  Si  Si10  1  0.167086  0.479784  0.000000  1
  Si  Si11  1  0.479434  0.165692  0.000000  1
  Si  Si12  1  0.687302  0.520216  0.000000  1
  Si  Si13  1  0.833600  0.312988  0.000000  1
  Si  Si14  1  0.999475  0.179579  0.500000  1
  Si  Si15  1  0.819896  0.820421  0.500000  1
  Mo  Mo16  1  0.000459  0.438130  0.500000  1
  Mo  Mo17  1  0.562328  0.561870  0.500000  1
  Mo  Mo18  1  0.438058  0.000000  0.500000  1
  P  P19  1  0.181080  0.000000  0.500000  1
  Ir  Ir20  1  0.512537  0.872385  0.000000  1
  Ir  Ir21  1  0.128736  0.641524  0.000000  1
  Ir  Ir22  1  0.359939  0.486793  0.000000  1
  Ir  Ir23  1  0.487213  0.358476  0.000000  1
  Ir  Ir24  1  0.873147  0.513207  0.000000  1
  Ir  Ir25  1  0.640154  0.127615  0.000000  1
  Ir  Ir26  1  0.999856  0.279007  0.000000  1
  Ir  Ir27  1  0.720850  0.720993  0.000000  1
  Ir  Ir28  1  0.276393  0.000000  0.000000  1
  Ir  Ir29  1  0.625698  0.807972  0.500000  1
  Ir  Ir30  1  0.190726  0.819928  0.500000  1
  Ir  Ir31  1  0.182086  0.374354  0.500000  1
  Ir  Ir32  1  0.370798  0.180072  0.500000  1
  Ir  Ir33  1  0.807732  0.625646  0.500000  1
  Ir  Ir34  1  0.817726  0.192028  0.500000  1
  Ir  Ir35  1  0.003949  0.000000  0.500000  1
