# generated using pymatgen
data_YLu3Hf3O12
_symmetry_space_group_name_H-M   'P 1'
_cell_length_a   6.25448750
_cell_length_b   6.29242138
_cell_length_c   6.51288599
_cell_angle_alpha   99.98958301
_cell_angle_beta   98.43029414
_cell_angle_gamma   99.53627557
_symmetry_Int_Tables_number   1
_chemical_formula_structural   YLu3Hf3O12
_chemical_formula_sum   'Y1 Lu3 Hf3 O12'
_cell_volume   244.85516226
_cell_formula_units_Z   1
loop_
 _symmetry_equiv_pos_site_id
 _symmetry_equiv_pos_as_xyz
  1  'x, y, z'
loop_
 _atom_site_type_symbol
 _atom_site_label
 _atom_site_symmetry_multiplicity
 _atom_site_fract_x
 _atom_site_fract_y
 _atom_site_fract_z
 _atom_site_occupancy
  Y  Y0  1  0.611739  0.301699  0.132456  1
  Lu  Lu1  1  0.693425  0.865923  0.389643  1
  Lu  Lu2  1  0.386748  0.700244  0.865832  1
  Lu  Lu3  1  0.304713  0.134039  0.610043  1
  Hf  Hf4  1  0.999222  0.997644  0.999221  1
  Hf  Hf5  1  0.848075  0.396375  0.668174  1
  Hf  Hf6  1  0.153493  0.605514  0.334328  1
  O  O7  1  0.582603  0.419564  0.816340  1
  O  O8  1  0.828037  0.575479  0.428184  1
  O  O9  1  0.415089  0.811912  0.569747  1
  O  O10  1  0.414014  0.591985  0.179161  1
  O  O11  1  0.172879  0.426607  0.575098  1
  O  O12  1  0.585100  0.185150  0.434348  1
  O  O13  1  0.025817  0.675855  0.882289  1
  O  O14  1  0.916818  0.083190  0.694429  1
  O  O15  1  0.684846  0.926885  0.059729  1
  O  O16  1  0.981604  0.321291  0.120521  1
  O  O17  1  0.082624  0.917674  0.307236  1
  O  O18  1  0.313155  0.062971  0.933219  1
