# generated using pymatgen
data_TbMg2Pa3Rh4
_symmetry_space_group_name_H-M   'P 1'
_cell_length_a   7.66254713
_cell_length_b   7.66254713
_cell_length_c   3.63920400
_cell_angle_alpha   90.00000000
_cell_angle_beta   90.00000000
_cell_angle_gamma   87.86001385
_symmetry_Int_Tables_number   1
_chemical_formula_structural   TbMg2Pa3Rh4
_chemical_formula_sum   'Tb1 Mg2 Pa3 Rh4'
_cell_volume   213.52548922
_cell_formula_units_Z   1
loop_
 _symmetry_equiv_pos_site_id
 _symmetry_equiv_pos_as_xyz
  1  'x, y, z'
loop_
 _atom_site_type_symbol
 _atom_site_label
 _atom_site_symmetry_multiplicity
 _atom_site_fract_x
 _atom_site_fract_y
 _atom_site_fract_z
 _atom_site_occupancy
  Tb  Tb0  1  0.666238  0.166239  0.500000  1
  Mg  Mg1  1  0.994585  0.999805  0.000000  1
  Mg  Mg2  1  0.499805  0.494585  0.000000  1
  Pa  Pa3  1  0.165853  0.331728  0.500000  1
  Pa  Pa4  1  0.831728  0.665852  0.500000  1
  Pa  Pa5  1  0.333335  0.833335  0.500000  1
  Rh  Rh6  1  0.347624  0.132294  0.000000  1
  Rh  Rh7  1  0.883277  0.383278  0.000000  1
  Rh  Rh8  1  0.145262  0.645262  0.000000  1
  Rh  Rh9  1  0.632294  0.847623  0.000000  1
