# generated using pymatgen
data_TbY7(Ta3Si4)4
_symmetry_space_group_name_H-M   'P 1'
_cell_length_a   7.04840921
_cell_length_b   7.04861545
_cell_length_c   13.01992502
_cell_angle_alpha   89.99084708
_cell_angle_beta   90.00301735
_cell_angle_gamma   89.96674556
_symmetry_Int_Tables_number   1
_chemical_formula_structural   TbY7(Ta3Si4)4
_chemical_formula_sum   'Tb1 Y7 Ta12 Si16'
_cell_volume   646.84962606
_cell_formula_units_Z   1
loop_
 _symmetry_equiv_pos_site_id
 _symmetry_equiv_pos_as_xyz
  1  'x, y, z'
loop_
 _atom_site_type_symbol
 _atom_site_label
 _atom_site_symmetry_multiplicity
 _atom_site_fract_x
 _atom_site_fract_y
 _atom_site_fract_z
 _atom_site_occupancy
  Tb  Tb0  1  0.997226  0.658570  0.031833  1
  Y  Y1  1  0.341573  0.002584  0.468149  1
  Y  Y2  1  0.497443  0.841593  0.718175  1
  Y  Y3  1  0.502509  0.158483  0.218174  1
  Y  Y4  1  0.841569  0.497439  0.281837  1
  Y  Y5  1  0.158498  0.502465  0.781737  1
  Y  Y6  1  0.658491  0.997375  0.968156  1
  Y  Y7  1  0.002544  0.341582  0.531859  1
  Ta  Ta8  1  0.328660  0.328782  0.000018  1
  Ta  Ta9  1  0.171285  0.828743  0.250053  1
  Ta  Ta10  1  0.828764  0.171234  0.749966  1
  Ta  Ta11  1  0.671319  0.671300  0.500023  1
  Ta  Ta12  1  0.153408  0.007147  0.874200  1
  Ta  Ta13  1  0.492591  0.653444  0.124335  1
  Ta  Ta14  1  0.507393  0.346643  0.624226  1
  Ta  Ta15  1  0.653381  0.492472  0.875647  1
  Ta  Ta16  1  0.346673  0.507440  0.375783  1
  Ta  Ta17  1  0.846618  0.992741  0.374341  1
  Ta  Ta18  1  0.007321  0.153418  0.125775  1
  Ta  Ta19  1  0.992633  0.846646  0.625672  1
  Si  Si20  1  0.203295  0.133750  0.682202  1
  Si  Si21  1  0.366434  0.703083  0.932191  1
  Si  Si22  1  0.633824  0.296859  0.432253  1
  Si  Si23  1  0.703047  0.366156  0.067722  1
  Si  Si24  1  0.296883  0.633822  0.567778  1
  Si  Si25  1  0.796531  0.866449  0.182356  1
  Si  Si26  1  0.133778  0.203313  0.317799  1
  Si  Si27  1  0.866300  0.796621  0.817743  1
  Si  Si28  1  0.294092  0.954718  0.064053  1
  Si  Si29  1  0.545368  0.794206  0.314103  1
  Si  Si30  1  0.454536  0.205894  0.814080  1
  Si  Si31  1  0.794127  0.545413  0.685918  1
  Si  Si32  1  0.205903  0.454534  0.185998  1
  Si  Si33  1  0.705914  0.045412  0.564102  1
  Si  Si34  1  0.954704  0.293737  0.935831  1
  Si  Si35  1  0.045367  0.705932  0.435914  1
