# generated using pymatgen
data_Y5Lu2Pa(ReB6)4
_symmetry_space_group_name_H-M   'P 1'
_cell_length_a   3.67854400
_cell_length_b   9.15619056
_cell_length_c   11.52724262
_cell_angle_alpha   90.21126283
_cell_angle_beta   90.00000000
_cell_angle_gamma   90.00000000
_symmetry_Int_Tables_number   1
_chemical_formula_structural   Y5Lu2Pa(ReB6)4
_chemical_formula_sum   'Y5 Lu2 Pa1 Re4 B24'
_cell_volume   388.25160477
_cell_formula_units_Z   1
loop_
 _symmetry_equiv_pos_site_id
 _symmetry_equiv_pos_as_xyz
  1  'x, y, z'
loop_
 _atom_site_type_symbol
 _atom_site_label
 _atom_site_symmetry_multiplicity
 _atom_site_fract_x
 _atom_site_fract_y
 _atom_site_fract_z
 _atom_site_occupancy
  Y  Y0  1  0.000000  0.678570  0.586884  1
  Y  Y1  1  0.000000  0.822542  0.085476  1
  Y  Y2  1  0.000000  0.176810  0.913730  1
  Y  Y3  1  0.000000  0.942536  0.371338  1
  Y  Y4  1  0.000000  0.055347  0.629511  1
  Lu  Lu5  1  0.000000  0.443339  0.126978  1
  Lu  Lu6  1  0.000000  0.557046  0.870670  1
  Pa  Pa7  1  0.000000  0.324322  0.413578  1
  Re  Re8  1  0.000000  0.633829  0.320210  1
  Re  Re9  1  0.000000  0.363604  0.677548  1
  Re  Re10  1  0.000000  0.143288  0.181335  1
  Re  Re11  1  0.000000  0.859504  0.822045  1
  B  B12  1  0.500000  0.551926  0.431294  1
  B  B13  1  0.500000  0.446188  0.567359  1
  B  B14  1  0.500000  0.054962  0.067606  1
  B  B15  1  0.500000  0.946226  0.933938  1
  B  B16  1  0.500000  0.747242  0.417837  1
  B  B17  1  0.500000  0.252251  0.581222  1
  B  B18  1  0.500000  0.250967  0.080836  1
  B  B19  1  0.500000  0.748860  0.919334  1
  B  B20  1  0.500000  0.790150  0.265136  1
  B  B21  1  0.500000  0.209371  0.735204  1
  B  B22  1  0.500000  0.293419  0.233939  1
  B  B23  1  0.500000  0.706671  0.766613  1
  B  B24  1  0.500000  0.628980  0.183767  1
  B  B25  1  0.500000  0.371394  0.815001  1
  B  B26  1  0.500000  0.133237  0.314457  1
  B  B27  1  0.500000  0.867753  0.686848  1
  B  B28  1  0.500000  0.983749  0.211847  1
  B  B29  1  0.500000  0.016707  0.788879  1
  B  B30  1  0.500000  0.481658  0.286256  1
  B  B31  1  0.500000  0.518639  0.713862  1
  B  B32  1  0.500000  0.598176  0.027114  1
  B  B33  1  0.500000  0.401662  0.971785  1
  B  B34  1  0.500000  0.107442  0.470547  1
  B  B35  1  0.500000  0.891631  0.530012  1
