# generated using pymatgen
data_ThMnAl10Rh
_symmetry_space_group_name_H-M   'P 1'
_cell_length_a   6.84853323
_cell_length_b   6.84853225
_cell_length_c   9.13376026
_cell_angle_alpha   90.38718901
_cell_angle_beta   90.38718627
_cell_angle_gamma   97.39497965
_symmetry_Int_Tables_number   1
_chemical_formula_structural   ThMnAl10Rh
_chemical_formula_sum   'Th2 Mn2 Al20 Rh2'
_cell_volume   424.80981502
_cell_formula_units_Z   2
loop_
 _symmetry_equiv_pos_site_id
 _symmetry_equiv_pos_as_xyz
  1  'x, y, z'
loop_
 _atom_site_type_symbol
 _atom_site_label
 _atom_site_symmetry_multiplicity
 _atom_site_fract_x
 _atom_site_fract_y
 _atom_site_fract_z
 _atom_site_occupancy
  Th  Th0  1  0.874244  0.125756  0.750000  1
  Th  Th1  1  0.125756  0.874244  0.250000  1
  Mn  Mn2  1  0.000000  0.500000  0.000000  1
  Mn  Mn3  1  0.500000  0.000000  0.500000  1
  Al  Al4  1  0.518660  0.776398  0.744166  1
  Al  Al5  1  0.481340  0.223602  0.255834  1
  Al  Al6  1  0.592440  0.862511  0.253202  1
  Al  Al7  1  0.777221  0.770530  0.002504  1
  Al  Al8  1  0.164529  0.843286  0.601171  1
  Al  Al9  1  0.222779  0.229470  0.997496  1
  Al  Al10  1  0.137489  0.407560  0.246798  1
  Al  Al11  1  0.625969  0.381644  0.949501  1
  Al  Al12  1  0.843286  0.164529  0.101171  1
  Al  Al13  1  0.381644  0.625969  0.449501  1
  Al  Al14  1  0.156714  0.835471  0.898829  1
  Al  Al15  1  0.223602  0.481340  0.755834  1
  Al  Al16  1  0.374031  0.618356  0.050499  1
  Al  Al17  1  0.835471  0.156714  0.398829  1
  Al  Al18  1  0.618356  0.374031  0.550499  1
  Al  Al19  1  0.407560  0.137489  0.746798  1
  Al  Al20  1  0.776398  0.518660  0.244166  1
  Al  Al21  1  0.770530  0.777221  0.502504  1
  Al  Al22  1  0.229470  0.222779  0.497496  1
  Al  Al23  1  0.862511  0.592440  0.753202  1
  Rh  Rh24  1  0.000000  0.500000  0.500000  1
  Rh  Rh25  1  0.500000  0.000000  0.000000  1
