# generated using pymatgen
data_LiLa3CoC6
_symmetry_space_group_name_H-M   'P 1'
_cell_length_a   8.61828100
_cell_length_b   8.61828164
_cell_length_c   5.37775600
_cell_angle_alpha   90.00000000
_cell_angle_beta   90.00000000
_cell_angle_gamma   119.99999782
_symmetry_Int_Tables_number   1
_chemical_formula_structural   LiLa3CoC6
_chemical_formula_sum   'Li2 La6 Co2 C12'
_cell_volume   345.91792513
_cell_formula_units_Z   2
loop_
 _symmetry_equiv_pos_site_id
 _symmetry_equiv_pos_as_xyz
  1  'x, y, z'
loop_
 _atom_site_type_symbol
 _atom_site_label
 _atom_site_symmetry_multiplicity
 _atom_site_fract_x
 _atom_site_fract_y
 _atom_site_fract_z
 _atom_site_occupancy
  Li  Li0  1  0.000000  0.000000  0.500000  1
  Li  Li1  1  0.000000  0.000000  0.000000  1
  La  La2  1  0.622742  0.676823  0.750000  1
  La  La3  1  0.945918  0.622742  0.250000  1
  La  La4  1  0.676823  0.054082  0.250000  1
  La  La5  1  0.323177  0.945918  0.750000  1
  La  La6  1  0.054082  0.377258  0.750000  1
  La  La7  1  0.377258  0.323177  0.250000  1
  Co  Co8  1  0.666667  0.333333  0.750000  1
  Co  Co9  1  0.333333  0.666667  0.250000  1
  C  C10  1  0.982508  0.729468  0.750000  1
  C  C11  1  0.253039  0.982508  0.250000  1
  C  C12  1  0.729468  0.746961  0.250000  1
  C  C13  1  0.270532  0.253039  0.750000  1
  C  C14  1  0.746961  0.017492  0.750000  1
  C  C15  1  0.017492  0.270532  0.250000  1
  C  C16  1  0.854888  0.558628  0.750000  1
  C  C17  1  0.296260  0.854888  0.250000  1
  C  C18  1  0.558628  0.703740  0.250000  1
  C  C19  1  0.441372  0.296260  0.750000  1
  C  C20  1  0.145112  0.441372  0.250000  1
  C  C21  1  0.703740  0.145112  0.750000  1
