# generated using pymatgen
data_Er16AlCd3PdPt3
_symmetry_space_group_name_H-M   'P 1'
_cell_length_a   9.55854569
_cell_length_b   9.55854537
_cell_length_c   9.55854484
_cell_angle_alpha   60.43237812
_cell_angle_beta   60.43237620
_cell_angle_gamma   60.43237889
_symmetry_Int_Tables_number   1
_chemical_formula_structural   Er16AlCd3PdPt3
_chemical_formula_sum   'Er16 Al1 Cd3 Pd1 Pt3'
_cell_volume   623.57034487
_cell_formula_units_Z   1
loop_
 _symmetry_equiv_pos_site_id
 _symmetry_equiv_pos_as_xyz
  1  'x, y, z'
loop_
 _atom_site_type_symbol
 _atom_site_label
 _atom_site_symmetry_multiplicity
 _atom_site_fract_x
 _atom_site_fract_y
 _atom_site_fract_z
 _atom_site_occupancy
  Er  Er0  1  0.347943  0.347943  0.347943  1
  Er  Er1  1  0.358553  0.358553  0.933934  1
  Er  Er2  1  0.358553  0.933934  0.358553  1
  Er  Er3  1  0.933934  0.358553  0.358553  1
  Er  Er4  1  0.808681  0.190321  0.190321  1
  Er  Er5  1  0.195606  0.808411  0.808411  1
  Er  Er6  1  0.190321  0.808681  0.190321  1
  Er  Er7  1  0.808411  0.195606  0.808411  1
  Er  Er8  1  0.190321  0.190321  0.808681  1
  Er  Er9  1  0.808411  0.808411  0.195606  1
  Er  Er10  1  0.932310  0.567799  0.567799  1
  Er  Er11  1  0.565732  0.936870  0.936870  1
  Er  Er12  1  0.567799  0.932310  0.567799  1
  Er  Er13  1  0.936870  0.565732  0.936870  1
  Er  Er14  1  0.567799  0.567799  0.932310  1
  Er  Er15  1  0.936870  0.936870  0.565732  1
  Al  Al16  1  0.581953  0.581953  0.581953  1
  Cd  Cd17  1  0.579828  0.579828  0.255536  1
  Cd  Cd18  1  0.579828  0.255536  0.579828  1
  Cd  Cd19  1  0.255536  0.579828  0.579828  1
  Pd  Pd20  1  0.145720  0.145720  0.145720  1
  Pt  Pt21  1  0.138932  0.138932  0.571156  1
  Pt  Pt22  1  0.138932  0.571156  0.138932  1
  Pt  Pt23  1  0.571156  0.138932  0.138932  1
