# generated using pymatgen
data_NaPr2Sm4CoBr12
_symmetry_space_group_name_H-M   'P 1'
_cell_length_a   9.39222990
_cell_length_b   9.41420687
_cell_length_c   9.53671603
_cell_angle_alpha   106.90098597
_cell_angle_beta   107.24337752
_cell_angle_gamma   106.85134646
_symmetry_Int_Tables_number   1
_chemical_formula_structural   NaPr2Sm4CoBr12
_chemical_formula_sum   'Na1 Pr2 Sm4 Co1 Br12'
_cell_volume   702.27835253
_cell_formula_units_Z   1
loop_
 _symmetry_equiv_pos_site_id
 _symmetry_equiv_pos_as_xyz
  1  'x, y, z'
loop_
 _atom_site_type_symbol
 _atom_site_label
 _atom_site_symmetry_multiplicity
 _atom_site_fract_x
 _atom_site_fract_y
 _atom_site_fract_z
 _atom_site_occupancy
  Na  Na0  1  0.500398  0.499727  0.499323  1
  Pr  Pr1  1  0.686869  0.970989  0.893362  1
  Pr  Pr2  1  0.894602  0.689500  0.972879  1
  Sm  Sm3  1  0.106820  0.305723  0.027931  1
  Sm  Sm4  1  0.307311  0.027922  0.105901  1
  Sm  Sm5  1  0.029546  0.113481  0.322216  1
  Sm  Sm6  1  0.969890  0.889657  0.678838  1
  Co  Co7  1  0.999436  0.000202  0.000934  1
  Br  Br8  1  0.226427  0.686650  0.075745  1
  Br  Br9  1  0.450353  0.367048  0.150912  1
  Br  Br10  1  0.683853  0.074820  0.222803  1
  Br  Br11  1  0.929273  0.787122  0.321211  1
  Br  Br12  1  0.149697  0.450172  0.365587  1
  Br  Br13  1  0.368129  0.149329  0.447533  1
  Br  Br14  1  0.630733  0.847762  0.545877  1
  Br  Br15  1  0.851078  0.550720  0.627177  1
  Br  Br16  1  0.073988  0.218950  0.686563  1
  Br  Br17  1  0.313298  0.927586  0.783719  1
  Br  Br18  1  0.542999  0.624150  0.843965  1
  Br  Br19  1  0.785304  0.318493  0.927528  1
