# generated using pymatgen
data_LiYb4TcC8
_symmetry_space_group_name_H-M   'P 1'
_cell_length_a   6.83080458
_cell_length_b   6.83080467
_cell_length_c   6.83080284
_cell_angle_alpha   134.42803448
_cell_angle_beta   108.29463169
_cell_angle_gamma   89.20262420
_symmetry_Int_Tables_number   1
_chemical_formula_structural   LiYb4TcC8
_chemical_formula_sum   'Li1 Yb4 Tc1 C8'
_cell_volume   205.90907120
_cell_formula_units_Z   1
loop_
 _symmetry_equiv_pos_site_id
 _symmetry_equiv_pos_as_xyz
  1  'x, y, z'
loop_
 _atom_site_type_symbol
 _atom_site_label
 _atom_site_symmetry_multiplicity
 _atom_site_fract_x
 _atom_site_fract_y
 _atom_site_fract_z
 _atom_site_occupancy
  Li  Li0  1  0.000000  0.250000  0.250000  1
  Yb  Yb1  1  0.201536  0.345036  0.848188  1
  Yb  Yb2  1  0.798464  0.646652  0.143500  1
  Yb  Yb3  1  0.496847  0.853348  0.651812  1
  Yb  Yb4  1  0.503153  0.154964  0.356500  1
  Tc  Tc5  1  0.000000  0.750000  0.750000  1
  C  C6  1  0.792376  0.136388  0.670727  1
  C  C7  1  0.207624  0.878350  0.344011  1
  C  C8  1  0.465660  0.621650  0.829273  1
  C  C9  1  0.534340  0.363612  0.155989  1
  C  C10  1  0.884276  0.026759  0.757702  1
  C  C11  1  0.115724  0.873426  0.142483  1
  C  C12  1  0.269057  0.626574  0.742298  1
  C  C13  1  0.730943  0.473241  0.357517  1
