# generated using pymatgen
data_DyNb(SnPt)2
_symmetry_space_group_name_H-M   'P 1'
_cell_length_a   6.46071500
_cell_length_b   4.54426400
_cell_length_c   9.12816100
_cell_angle_alpha   90.00000000
_cell_angle_beta   90.00000000
_cell_angle_gamma   90.00000000
_symmetry_Int_Tables_number   1
_chemical_formula_structural   DyNb(SnPt)2
_chemical_formula_sum   'Dy2 Nb2 Sn4 Pt4'
_cell_volume   267.99545504
_cell_formula_units_Z   2
loop_
 _symmetry_equiv_pos_site_id
 _symmetry_equiv_pos_as_xyz
  1  'x, y, z'
loop_
 _atom_site_type_symbol
 _atom_site_label
 _atom_site_symmetry_multiplicity
 _atom_site_fract_x
 _atom_site_fract_y
 _atom_site_fract_z
 _atom_site_occupancy
  Dy  Dy0  1  0.002312  0.000000  0.376005  1
  Dy  Dy1  1  0.502312  0.500001  0.623995  1
  Nb  Nb2  1  0.497664  0.500001  0.124302  1
  Nb  Nb3  1  0.997663  0.000000  0.875697  1
  Sn  Sn4  1  0.988066  0.500001  0.123467  1
  Sn  Sn5  1  0.509057  0.000000  0.371856  1
  Sn  Sn6  1  0.009058  0.500001  0.628146  1
  Sn  Sn7  1  0.488067  0.000000  0.876533  1
  Pt  Pt8  1  0.737828  0.000000  0.112364  1
  Pt  Pt9  1  0.265069  0.500001  0.358237  1
  Pt  Pt10  1  0.765070  0.000000  0.641764  1
  Pt  Pt11  1  0.237828  0.500001  0.887637  1
