# generated using pymatgen
data_SmB2IrRu
_symmetry_space_group_name_H-M   'P 1'
_cell_length_a   6.87320899
_cell_length_b   6.02480109
_cell_length_c   5.57840997
_cell_angle_alpha   72.53293571
_cell_angle_beta   56.73519553
_cell_angle_gamma   50.73188499
_symmetry_Int_Tables_number   1
_chemical_formula_structural   SmB2IrRu
_chemical_formula_sum   'Sm2 B4 Ir2 Ru2'
_cell_volume   149.14003020
_cell_formula_units_Z   2
loop_
 _symmetry_equiv_pos_site_id
 _symmetry_equiv_pos_as_xyz
  1  'x, y, z'
loop_
 _atom_site_type_symbol
 _atom_site_label
 _atom_site_symmetry_multiplicity
 _atom_site_fract_x
 _atom_site_fract_y
 _atom_site_fract_z
 _atom_site_occupancy
  Sm  Sm0  1  0.500000  0.500000  0.500000  1
  Sm  Sm1  1  0.750000  0.750000  0.750000  1
  B  B2  1  0.178369  0.821631  0.178369  1
  B  B3  1  0.064908  0.435092  0.064908  1
  B  B4  1  0.821631  0.178369  0.821631  1
  B  B5  1  0.435092  0.064908  0.435092  1
  Ir  Ir6  1  0.384288  0.384288  0.115712  1
  Ir  Ir7  1  0.115712  0.115712  0.384288  1
  Ru  Ru8  1  0.865094  0.865094  0.134906  1
  Ru  Ru9  1  0.134906  0.134906  0.865094  1
