# generated using pymatgen
data_NdEr3Sb10
_symmetry_space_group_name_H-M   'P 1'
_cell_length_a   4.20480600
_cell_length_b   13.31937068
_cell_length_c   14.71384607
_cell_angle_alpha   78.80967227
_cell_angle_beta   90.00000000
_cell_angle_gamma   90.00000000
_symmetry_Int_Tables_number   1
_chemical_formula_structural   NdEr3Sb10
_chemical_formula_sum   'Nd2 Er6 Sb20'
_cell_volume   808.38741038
_cell_formula_units_Z   2
loop_
 _symmetry_equiv_pos_site_id
 _symmetry_equiv_pos_as_xyz
  1  'x, y, z'
loop_
 _atom_site_type_symbol
 _atom_site_label
 _atom_site_symmetry_multiplicity
 _atom_site_fract_x
 _atom_site_fract_y
 _atom_site_fract_z
 _atom_site_occupancy
  Nd  Nd0  1  0.250000  0.954380  0.360519  1
  Nd  Nd1  1  0.750000  0.045620  0.639481  1
  Er  Er2  1  0.250000  0.396386  0.771021  1
  Er  Er3  1  0.750000  0.603614  0.228979  1
  Er  Er4  1  0.250000  0.660387  0.857963  1
  Er  Er5  1  0.750000  0.339613  0.142037  1
  Er  Er6  1  0.250000  0.663919  0.578522  1
  Er  Er7  1  0.750000  0.336081  0.421478  1
  Sb  Sb8  1  0.250000  0.146894  0.781804  1
  Sb  Sb9  1  0.750000  0.853106  0.218196  1
  Sb  Sb10  1  0.250000  0.152681  0.478229  1
  Sb  Sb11  1  0.750000  0.847319  0.521771  1
  Sb  Sb12  1  0.250000  0.156086  0.168424  1
  Sb  Sb13  1  0.750000  0.843914  0.831576  1
  Sb  Sb14  1  0.250000  0.421413  0.975007  1
  Sb  Sb15  1  0.750000  0.578587  0.024993  1
  Sb  Sb16  1  0.750000  0.030381  0.903188  1
  Sb  Sb17  1  0.250000  0.969619  0.096812  1
  Sb  Sb18  1  0.750000  0.146666  0.319330  1
  Sb  Sb19  1  0.250000  0.853334  0.680670  1
  Sb  Sb20  1  0.750000  0.282146  0.935465  1
  Sb  Sb21  1  0.250000  0.717854  0.064535  1
  Sb  Sb22  1  0.750000  0.289052  0.649641  1
  Sb  Sb23  1  0.250000  0.710948  0.350359  1
  Sb  Sb24  1  0.750000  0.574644  0.736250  1
  Sb  Sb25  1  0.250000  0.425356  0.263750  1
  Sb  Sb26  1  0.750000  0.572527  0.445762  1
  Sb  Sb27  1  0.250000  0.427473  0.554238  1
