# generated using pymatgen
data_La2Hf3Co9As7
_symmetry_space_group_name_H-M   'P 1'
_cell_length_a   3.88481400
_cell_length_b   9.76991288
_cell_length_c   9.76991300
_cell_angle_alpha   119.99999702
_cell_angle_beta   90.00000000
_cell_angle_gamma   90.00000000
_symmetry_Int_Tables_number   1
_chemical_formula_structural   La2Hf3Co9As7
_chemical_formula_sum   'La2 Hf3 Co9 As7'
_cell_volume   321.13102263
_cell_formula_units_Z   1
loop_
 _symmetry_equiv_pos_site_id
 _symmetry_equiv_pos_as_xyz
  1  'x, y, z'
loop_
 _atom_site_type_symbol
 _atom_site_label
 _atom_site_symmetry_multiplicity
 _atom_site_fract_x
 _atom_site_fract_y
 _atom_site_fract_z
 _atom_site_occupancy
  La  La0  1  0.000000  0.666667  0.333333  1
  La  La1  1  0.500000  0.333333  0.666667  1
  Hf  Hf2  1  0.500000  0.772245  0.884692  1
  Hf  Hf3  1  0.500000  0.112446  0.227755  1
  Hf  Hf4  1  0.500000  0.115308  0.887554  1
  Co  Co5  1  0.000000  0.579662  0.938646  1
  Co  Co6  1  0.000000  0.358984  0.420338  1
  Co  Co7  1  0.000000  0.061354  0.641016  1
  Co  Co8  1  0.000000  0.878633  0.159912  1
  Co  Co9  1  0.000000  0.281279  0.121367  1
  Co  Co10  1  0.000000  0.840088  0.718721  1
  Co  Co11  1  0.500000  0.948428  0.388325  1
  Co  Co12  1  0.500000  0.439896  0.051572  1
  Co  Co13  1  0.500000  0.611675  0.560104  1
  As  As14  1  0.000000  0.000000  0.000000  1
  As  As15  1  0.500000  0.712416  0.124545  1
  As  As16  1  0.500000  0.412129  0.287584  1
  As  As17  1  0.500000  0.875455  0.587871  1
  As  As18  1  0.000000  0.578463  0.679784  1
  As  As19  1  0.000000  0.101321  0.421537  1
  As  As20  1  0.000000  0.320216  0.898679  1
