# generated using pymatgen
data_Ti2Nb(ReSi)3
_symmetry_space_group_name_H-M   'P 1'
_cell_length_a   6.80641782
_cell_length_b   6.80641773
_cell_length_c   3.28291600
_cell_angle_alpha   90.00000000
_cell_angle_beta   90.00000000
_cell_angle_gamma   119.41930100
_symmetry_Int_Tables_number   1
_chemical_formula_structural   Ti2Nb(ReSi)3
_chemical_formula_sum   'Ti2 Nb1 Re3 Si3'
_cell_volume   132.47662610
_cell_formula_units_Z   1
loop_
 _symmetry_equiv_pos_site_id
 _symmetry_equiv_pos_as_xyz
  1  'x, y, z'
loop_
 _atom_site_type_symbol
 _atom_site_label
 _atom_site_symmetry_multiplicity
 _atom_site_fract_x
 _atom_site_fract_y
 _atom_site_fract_z
 _atom_site_occupancy
  Ti  Ti0  1  0.596644  0.997119  0.500000  1
  Ti  Ti1  1  0.997119  0.596644  0.500000  1
  Nb  Nb2  1  0.403568  0.403568  0.500000  1
  Re  Re3  1  0.741830  0.741830  0.000000  1
  Re  Re4  1  0.260137  0.000184  0.000000  1
  Re  Re5  1  0.000184  0.260137  0.000000  1
  Si  Si6  1  0.669940  0.331482  0.000000  1
  Si  Si7  1  0.331482  0.669940  0.000000  1
  Si  Si8  1  0.999095  0.999095  0.500000  1
