# generated using pymatgen
data_La8ErPt6
_symmetry_space_group_name_H-M   'P 1'
_cell_length_a   7.80562003
_cell_length_b   7.80562012
_cell_length_c   7.80561999
_cell_angle_alpha   71.72336813
_cell_angle_beta   71.72336553
_cell_angle_gamma   71.72336647
_symmetry_Int_Tables_number   1
_chemical_formula_structural   La8ErPt6
_chemical_formula_sum   'La8 Er1 Pt6'
_cell_volume   416.40702862
_cell_formula_units_Z   1
loop_
 _symmetry_equiv_pos_site_id
 _symmetry_equiv_pos_as_xyz
  1  'x, y, z'
loop_
 _atom_site_type_symbol
 _atom_site_label
 _atom_site_symmetry_multiplicity
 _atom_site_fract_x
 _atom_site_fract_y
 _atom_site_fract_z
 _atom_site_occupancy
  La  La0  1  0.800354  0.800354  0.800354  1
  La  La1  1  0.199646  0.199646  0.199646  1
  La  La2  1  0.328195  0.610861  0.836084  1
  La  La3  1  0.836084  0.328195  0.610861  1
  La  La4  1  0.610861  0.836084  0.328195  1
  La  La5  1  0.671805  0.389139  0.163916  1
  La  La6  1  0.163916  0.671805  0.389139  1
  La  La7  1  0.389139  0.163916  0.671805  1
  Er  Er8  1  0.000000  0.000000  0.000000  1
  Pt  Pt9  1  0.162277  0.959973  0.595893  1
  Pt  Pt10  1  0.595893  0.162277  0.959973  1
  Pt  Pt11  1  0.959973  0.595893  0.162277  1
  Pt  Pt12  1  0.837723  0.040027  0.404107  1
  Pt  Pt13  1  0.404107  0.837723  0.040027  1
  Pt  Pt14  1  0.040027  0.404107  0.837723  1
