# generated using pymatgen
data_TbCr(PIr)2
_symmetry_space_group_name_H-M   'P 1'
_cell_length_a   3.89777800
_cell_length_b   11.14214400
_cell_length_c   12.86336000
_cell_angle_alpha   90.00000000
_cell_angle_beta   90.00000000
_cell_angle_gamma   90.00000000
_symmetry_Int_Tables_number   1
_chemical_formula_structural   TbCr(PIr)2
_chemical_formula_sum   'Tb6 Cr6 P12 Ir12'
_cell_volume   558.65062777
_cell_formula_units_Z   6
loop_
 _symmetry_equiv_pos_site_id
 _symmetry_equiv_pos_as_xyz
  1  'x, y, z'
loop_
 _atom_site_type_symbol
 _atom_site_label
 _atom_site_symmetry_multiplicity
 _atom_site_fract_x
 _atom_site_fract_y
 _atom_site_fract_z
 _atom_site_occupancy
  Tb  Tb0  1  0.000000  0.500000  0.517623  1
  Tb  Tb1  1  0.500000  0.000000  0.481903  1
  Tb  Tb2  1  0.500000  0.817083  0.202279  1
  Tb  Tb3  1  0.500000  0.182917  0.202279  1
  Tb  Tb4  1  0.000000  0.678367  0.795424  1
  Tb  Tb5  1  0.000000  0.321633  0.795424  1
  Cr  Cr6  1  0.500000  0.500000  0.162062  1
  Cr  Cr7  1  0.000000  0.000000  0.839634  1
  Cr  Cr8  1  0.000000  0.500000  0.988237  1
  Cr  Cr9  1  0.500000  0.000000  0.009834  1
  Cr  Cr10  1  0.500000  0.338957  0.996865  1
  Cr  Cr11  1  0.500000  0.661043  0.996865  1
  P  P12  1  0.500000  0.500000  0.881385  1
  P  P13  1  0.000000  0.000000  0.116181  1
  P  P14  1  0.500000  0.500000  0.345380  1
  P  P15  1  0.000000  0.000000  0.656453  1
  P  P16  1  0.500000  0.312593  0.618654  1
  P  P17  1  0.500000  0.687407  0.618654  1
  P  P18  1  0.000000  0.185238  0.380839  1
  P  P19  1  0.000000  0.814762  0.380839  1
  P  P20  1  0.500000  0.842917  0.893118  1
  P  P21  1  0.500000  0.157083  0.893118  1
  P  P22  1  0.000000  0.647706  0.108235  1
  P  P23  1  0.000000  0.352294  0.108235  1
  Ir  Ir24  1  0.500000  0.500000  0.696817  1
  Ir  Ir25  1  0.000000  0.000000  0.297837  1
  Ir  Ir26  1  0.000000  0.170413  0.005486  1
  Ir  Ir27  1  0.000000  0.829587  0.005486  1
  Ir  Ir28  1  0.500000  0.291212  0.429953  1
  Ir  Ir29  1  0.500000  0.708788  0.429953  1
  Ir  Ir30  1  0.000000  0.205835  0.569963  1
  Ir  Ir31  1  0.000000  0.794165  0.569963  1
  Ir  Ir32  1  0.500000  0.874190  0.714008  1
  Ir  Ir33  1  0.500000  0.125810  0.714008  1
  Ir  Ir34  1  0.000000  0.625609  0.288503  1
  Ir  Ir35  1  0.000000  0.374391  0.288503  1
