# generated using pymatgen
data_Dy4CdSi8Au15
_symmetry_space_group_name_H-M   'P 1'
_cell_length_a   4.39121100
_cell_length_b   4.37879300
_cell_length_c   27.58925000
_cell_angle_alpha   90.00000000
_cell_angle_beta   90.00000000
_cell_angle_gamma   90.00000000
_symmetry_Int_Tables_number   1
_chemical_formula_structural   Dy4CdSi8Au15
_chemical_formula_sum   'Dy4 Cd1 Si8 Au15'
_cell_volume   530.49172688
_cell_formula_units_Z   1
loop_
 _symmetry_equiv_pos_site_id
 _symmetry_equiv_pos_as_xyz
  1  'x, y, z'
loop_
 _atom_site_type_symbol
 _atom_site_label
 _atom_site_symmetry_multiplicity
 _atom_site_fract_x
 _atom_site_fract_y
 _atom_site_fract_z
 _atom_site_occupancy
  Dy  Dy0  1  0.000000  0.500000  0.748471  1
  Dy  Dy1  1  0.500000  0.000000  0.253981  1
  Dy  Dy2  1  0.500000  0.500000  0.995419  1
  Dy  Dy3  1  0.500000  0.500000  0.500183  1
  Cd  Cd4  1  0.500000  0.000000  0.096046  1
  Si  Si5  1  0.000000  0.000000  0.952915  1
  Si  Si6  1  0.000000  0.000000  0.458126  1
  Si  Si7  1  0.500000  0.000000  0.790939  1
  Si  Si8  1  0.500000  0.000000  0.706124  1
  Si  Si9  1  0.000000  0.500000  0.211022  1
  Si  Si10  1  0.000000  0.500000  0.295362  1
  Si  Si11  1  0.000000  0.000000  0.036878  1
  Si  Si12  1  0.000000  0.000000  0.542994  1
  Au  Au13  1  0.500000  0.500000  0.663222  1
  Au  Au14  1  0.500000  0.500000  0.834027  1
  Au  Au15  1  0.000000  0.500000  0.081304  1
  Au  Au16  1  0.500000  0.000000  0.911064  1
  Au  Au17  1  0.000000  0.000000  0.663933  1
  Au  Au18  1  0.000000  0.500000  0.416307  1
  Au  Au19  1  0.500000  0.500000  0.338466  1
  Au  Au20  1  0.500000  0.000000  0.415392  1
  Au  Au21  1  0.000000  0.000000  0.337453  1
  Au  Au22  1  0.000000  0.000000  0.169572  1
  Au  Au23  1  0.500000  0.000000  0.585562  1
  Au  Au24  1  0.000000  0.000000  0.832678  1
  Au  Au25  1  0.500000  0.500000  0.165729  1
  Au  Au26  1  0.000000  0.500000  0.585569  1
  Au  Au27  1  0.000000  0.500000  0.911264  1
