# generated using pymatgen
data_Ti5GaSn2
_symmetry_space_group_name_H-M   'P 1'
_cell_length_a   7.91134475
_cell_length_b   7.91134452
_cell_length_c   7.91134454
_cell_angle_alpha   96.12701732
_cell_angle_beta   96.12702161
_cell_angle_gamma   141.86279369
_symmetry_Int_Tables_number   1
_chemical_formula_structural   Ti5GaSn2
_chemical_formula_sum   'Ti10 Ga2 Sn4'
_cell_volume   289.00901683
_cell_formula_units_Z   2
loop_
 _symmetry_equiv_pos_site_id
 _symmetry_equiv_pos_as_xyz
  1  'x, y, z'
loop_
 _atom_site_type_symbol
 _atom_site_label
 _atom_site_symmetry_multiplicity
 _atom_site_fract_x
 _atom_site_fract_y
 _atom_site_fract_z
 _atom_site_occupancy
  Ti  Ti0  1  0.250000  0.750000  0.500000  1
  Ti  Ti1  1  0.750000  0.250000  0.500000  1
  Ti  Ti2  1  0.783209  0.925942  0.709152  1
  Ti  Ti3  1  0.925942  0.216791  0.142733  1
  Ti  Ti4  1  0.074058  0.783209  0.857267  1
  Ti  Ti5  1  0.216791  0.074058  0.290848  1
  Ti  Ti6  1  0.574058  0.716791  0.290848  1
  Ti  Ti7  1  0.425942  0.283209  0.709152  1
  Ti  Ti8  1  0.283209  0.574058  0.857267  1
  Ti  Ti9  1  0.716791  0.425942  0.142733  1
  Ga  Ga10  1  0.750000  0.750000  0.000000  1
  Ga  Ga11  1  0.250000  0.250000  0.000000  1
  Sn  Sn12  1  0.334464  0.834464  0.168929  1
  Sn  Sn13  1  0.834464  0.665536  0.500000  1
  Sn  Sn14  1  0.165536  0.334464  0.500000  1
  Sn  Sn15  1  0.665536  0.165536  0.831071  1
