# generated using pymatgen
data_Y5Tm3Pd4
_symmetry_space_group_name_H-M   'P 1'
_cell_length_a   4.87563200
_cell_length_b   7.16817278
_cell_length_c   8.75016500
_cell_angle_alpha   89.78222001
_cell_angle_beta   90.00000000
_cell_angle_gamma   90.00000000
_symmetry_Int_Tables_number   1
_chemical_formula_structural   Y5Tm3Pd4
_chemical_formula_sum   'Y5 Tm3 Pd4'
_cell_volume   305.81056772
_cell_formula_units_Z   1
loop_
 _symmetry_equiv_pos_site_id
 _symmetry_equiv_pos_as_xyz
  1  'x, y, z'
loop_
 _atom_site_type_symbol
 _atom_site_label
 _atom_site_symmetry_multiplicity
 _atom_site_fract_x
 _atom_site_fract_y
 _atom_site_fract_z
 _atom_site_occupancy
  Y  Y0  1  0.750000  0.643845  0.420141  1
  Y  Y1  1  0.250000  0.986475  0.329010  1
  Y  Y2  1  0.250000  0.483396  0.169774  1
  Y  Y3  1  0.750000  0.016751  0.673616  1
  Y  Y4  1  0.750000  0.515877  0.828103  1
  Tm  Tm5  1  0.250000  0.858074  0.921669  1
  Tm  Tm6  1  0.250000  0.356377  0.579455  1
  Tm  Tm7  1  0.750000  0.142334  0.078676  1
  Pd  Pd8  1  0.250000  0.251885  0.905937  1
  Pd  Pd9  1  0.250000  0.753929  0.597563  1
  Pd  Pd10  1  0.750000  0.748193  0.089687  1
  Pd  Pd11  1  0.750000  0.242862  0.406370  1
