# generated using pymatgen
data_K17Sc5O16
_symmetry_space_group_name_H-M   'P 1'
_cell_length_a   19.19120020
_cell_length_b   19.19120116
_cell_length_c   6.90464113
_cell_angle_alpha   84.92978866
_cell_angle_beta   84.92978824
_cell_angle_gamma   159.33499414
_symmetry_Int_Tables_number   1
_chemical_formula_structural   K17Sc5O16
_chemical_formula_sum   'K17 Sc5 O16'
_cell_volume   780.92831514
_cell_formula_units_Z   1
loop_
 _symmetry_equiv_pos_site_id
 _symmetry_equiv_pos_as_xyz
  1  'x, y, z'
loop_
 _atom_site_type_symbol
 _atom_site_label
 _atom_site_symmetry_multiplicity
 _atom_site_fract_x
 _atom_site_fract_y
 _atom_site_fract_z
 _atom_site_occupancy
  K  K0  1  0.909432  0.081182  0.884084  1
  K  K1  1  0.777809  0.325139  0.459605  1
  K  K2  1  0.170509  0.827007  0.602007  1
  K  K3  1  0.324094  0.603018  0.013103  1
  K  K4  1  0.578555  0.486205  0.462595  1
  K  K5  1  0.001319  0.001319  0.577284  1
  K  K6  1  0.827007  0.170509  0.602007  1
  K  K7  1  0.486205  0.578555  0.462595  1
  K  K8  1  0.209171  0.671984  0.015611  1
  K  K9  1  0.325139  0.777809  0.459605  1
  K  K10  1  0.671984  0.209171  0.015611  1
  K  K11  1  0.081182  0.909432  0.884084  1
  K  K12  1  0.671479  0.396344  0.482264  1
  K  K13  1  0.603018  0.324094  0.013103  1
  K  K14  1  0.511835  0.418789  0.993682  1
  K  K15  1  0.418789  0.511835  0.993682  1
  K  K16  1  0.396344  0.671479  0.482264  1
  Sc  Sc17  1  0.997621  0.997621  0.071341  1
  Sc  Sc18  1  0.818482  0.177424  0.082083  1
  Sc  Sc19  1  0.177424  0.818482  0.082083  1
  Sc  Sc20  1  0.910405  0.089918  0.392755  1
  Sc  Sc21  1  0.089918  0.910405  0.392755  1
  O  O22  1  0.364720  0.178747  0.418153  1
  O  O23  1  0.125887  0.868209  0.195771  1
  O  O24  1  0.820107  0.633149  0.684939  1
  O  O25  1  0.178747  0.364720  0.418153  1
  O  O26  1  0.536479  0.910201  0.060614  1
  O  O27  1  0.633149  0.820107  0.684939  1
  O  O28  1  0.868209  0.125887  0.195771  1
  O  O29  1  0.724728  0.724728  0.047296  1
  O  O30  1  0.783545  0.211324  0.299849  1
  O  O31  1  0.090178  0.462570  0.793380  1
  O  O32  1  0.910201  0.536479  0.060614  1
  O  O33  1  0.211324  0.783545  0.299849  1
  O  O34  1  0.462570  0.090178  0.793380  1
  O  O35  1  0.955642  0.041614  0.246066  1
  O  O36  1  0.271839  0.271839  0.779281  1
  O  O37  1  0.041614  0.955642  0.246066  1
