# generated using pymatgen
data_Er3TmLu2(Al3Os)8
_symmetry_space_group_name_H-M   'P 1'
_cell_length_a   8.77566901
_cell_length_b   8.79590935
_cell_length_c   9.55942000
_cell_angle_alpha   90.00000000
_cell_angle_beta   90.00000000
_cell_angle_gamma   119.98163038
_symmetry_Int_Tables_number   1
_chemical_formula_structural   Er3TmLu2(Al3Os)8
_chemical_formula_sum   'Er3 Tm1 Lu2 Al24 Os8'
_cell_volume   639.15106190
_cell_formula_units_Z   1
loop_
 _symmetry_equiv_pos_site_id
 _symmetry_equiv_pos_as_xyz
  1  'x, y, z'
loop_
 _atom_site_type_symbol
 _atom_site_label
 _atom_site_symmetry_multiplicity
 _atom_site_fract_x
 _atom_site_fract_y
 _atom_site_fract_z
 _atom_site_occupancy
  Er  Er0  1  0.614721  0.807650  0.250000  1
  Er  Er1  1  0.386122  0.192583  0.750000  1
  Er  Er2  1  0.193308  0.807845  0.250000  1
  Tm  Tm3  1  0.805247  0.193484  0.750000  1
  Lu  Lu4  1  0.195794  0.390966  0.250000  1
  Lu  Lu5  1  0.803788  0.608136  0.750000  1
  Al  Al6  1  0.333590  0.667118  0.018210  1
  Al  Al7  1  0.666432  0.332857  0.980332  1
  Al  Al8  1  0.666432  0.332857  0.519668  1
  Al  Al9  1  0.333590  0.667118  0.481790  1
  Al  Al10  1  0.162528  0.325700  0.575924  1
  Al  Al11  1  0.837263  0.673910  0.424542  1
  Al  Al12  1  0.674400  0.836885  0.576662  1
  Al  Al13  1  0.837263  0.673910  0.075458  1
  Al  Al14  1  0.326013  0.163368  0.423775  1
  Al  Al15  1  0.162528  0.325700  0.924076  1
  Al  Al16  1  0.162408  0.836408  0.576567  1
  Al  Al17  1  0.326013  0.163368  0.076225  1
  Al  Al18  1  0.837632  0.163535  0.424156  1
  Al  Al19  1  0.674400  0.836885  0.923338  1
  Al  Al20  1  0.837632  0.163535  0.075844  1
  Al  Al21  1  0.162408  0.836408  0.923433  1
  Al  Al22  1  0.561548  0.122285  0.250000  1
  Al  Al23  1  0.438856  0.877699  0.750000  1
  Al  Al24  1  0.878510  0.439260  0.250000  1
  Al  Al25  1  0.121455  0.560295  0.750000  1
  Al  Al26  1  0.561161  0.439465  0.250000  1
  Al  Al27  1  0.438908  0.560491  0.750000  1
  Al  Al28  1  0.002591  0.004544  0.250000  1
  Al  Al29  1  0.996667  0.996288  0.750000  1
  Os  Os30  1  0.500219  0.999926  0.000091  1
  Os  Os31  1  0.000133  0.499829  0.000154  1
  Os  Os32  1  0.500219  0.999926  0.499909  1
  Os  Os33  1  0.499935  0.500058  0.000229  1
  Os  Os34  1  0.000133  0.499829  0.499846  1
  Os  Os35  1  0.499935  0.500058  0.499771  1
  Os  Os36  1  0.000108  0.999909  0.000072  1
  Os  Os37  1  0.000108  0.999909  0.499928  1
