# generated using pymatgen
data_SiMo12Rh7N4
_symmetry_space_group_name_H-M   'P 1'
_cell_length_a   6.83285018
_cell_length_b   6.83284978
_cell_length_c   6.83284958
_cell_angle_alpha   89.82406741
_cell_angle_beta   89.82407077
_cell_angle_gamma   89.82406911
_symmetry_Int_Tables_number   1
_chemical_formula_structural   SiMo12Rh7N4
_chemical_formula_sum   'Si1 Mo12 Rh7 N4'
_cell_volume   319.00647744
_cell_formula_units_Z   1
loop_
 _symmetry_equiv_pos_site_id
 _symmetry_equiv_pos_as_xyz
  1  'x, y, z'
loop_
 _atom_site_type_symbol
 _atom_site_label
 _atom_site_symmetry_multiplicity
 _atom_site_fract_x
 _atom_site_fract_y
 _atom_site_fract_z
 _atom_site_occupancy
  Si  Si0  1  0.183347  0.183347  0.183347  1
  Mo  Mo1  1  0.621183  0.702447  0.948559  1
  Mo  Mo2  1  0.461844  0.870642  0.306073  1
  Mo  Mo3  1  0.702447  0.948559  0.621183  1
  Mo  Mo4  1  0.551156  0.375459  0.204515  1
  Mo  Mo5  1  0.375459  0.204515  0.551156  1
  Mo  Mo6  1  0.204515  0.551156  0.375459  1
  Mo  Mo7  1  0.870642  0.306073  0.461844  1
  Mo  Mo8  1  0.044219  0.119001  0.793667  1
  Mo  Mo9  1  0.306073  0.461844  0.870642  1
  Mo  Mo10  1  0.119001  0.793667  0.044219  1
  Mo  Mo11  1  0.793667  0.044219  0.119001  1
  Mo  Mo12  1  0.948559  0.621183  0.702447  1
  Rh  Rh13  1  0.308454  0.817237  0.687320  1
  Rh  Rh14  1  0.418927  0.069274  0.954525  1
  Rh  Rh15  1  0.817237  0.687320  0.308454  1
  Rh  Rh16  1  0.687320  0.308454  0.817237  1
  Rh  Rh17  1  0.559839  0.559839  0.559839  1
  Rh  Rh18  1  0.069274  0.954525  0.418927  1
  Rh  Rh19  1  0.954525  0.418927  0.069274  1
  N  N20  1  0.376727  0.628147  0.125686  1
  N  N21  1  0.871751  0.871751  0.871751  1
  N  N22  1  0.125686  0.376727  0.628147  1
  N  N23  1  0.628147  0.125686  0.376727  1
