# generated using pymatgen
data_Yb6RuRh
_symmetry_space_group_name_H-M   'P 1'
_cell_length_a   6.21871800
_cell_length_b   7.65315900
_cell_length_c   9.20754200
_cell_angle_alpha   90.00000000
_cell_angle_beta   90.00000000
_cell_angle_gamma   90.00000000
_symmetry_Int_Tables_number   1
_chemical_formula_structural   Yb6RuRh
_chemical_formula_sum   'Yb12 Ru2 Rh2'
_cell_volume   438.21305138
_cell_formula_units_Z   2
loop_
 _symmetry_equiv_pos_site_id
 _symmetry_equiv_pos_as_xyz
  1  'x, y, z'
loop_
 _atom_site_type_symbol
 _atom_site_label
 _atom_site_symmetry_multiplicity
 _atom_site_fract_x
 _atom_site_fract_y
 _atom_site_fract_z
 _atom_site_occupancy
  Yb  Yb0  1  0.344797  0.667318  0.069277  1
  Yb  Yb1  1  0.155203  0.167318  0.430723  1
  Yb  Yb2  1  0.653310  0.333588  0.563599  1
  Yb  Yb3  1  0.846690  0.833588  0.936401  1
  Yb  Yb4  1  0.653310  0.333588  0.936401  1
  Yb  Yb5  1  0.846690  0.833588  0.563599  1
  Yb  Yb6  1  0.344797  0.667318  0.430723  1
  Yb  Yb7  1  0.155203  0.167318  0.069277  1
  Yb  Yb8  1  0.871870  0.538837  0.250000  1
  Yb  Yb9  1  0.628130  0.038837  0.250000  1
  Yb  Yb10  1  0.134142  0.458779  0.750000  1
  Yb  Yb11  1  0.365858  0.958779  0.750000  1
  Ru  Ru12  1  0.044994  0.874877  0.250000  1
  Ru  Ru13  1  0.455006  0.374877  0.250000  1
  Rh  Rh14  1  0.952056  0.125695  0.750000  1
  Rh  Rh15  1  0.547944  0.625695  0.750000  1
