# generated using pymatgen
data_Ti6Cr2Ir3Ru
_symmetry_space_group_name_H-M   'P 1'
_cell_length_a   4.35150101
_cell_length_b   6.13982200
_cell_length_c   13.04235801
_cell_angle_alpha   90.00000000
_cell_angle_beta   90.00594082
_cell_angle_gamma   90.00000000
_symmetry_Int_Tables_number   1
_chemical_formula_structural   Ti6Cr2Ir3Ru
_chemical_formula_sum   'Ti12 Cr4 Ir6 Ru2'
_cell_volume   348.45843691
_cell_formula_units_Z   2
loop_
 _symmetry_equiv_pos_site_id
 _symmetry_equiv_pos_as_xyz
  1  'x, y, z'
loop_
 _atom_site_type_symbol
 _atom_site_label
 _atom_site_symmetry_multiplicity
 _atom_site_fract_x
 _atom_site_fract_y
 _atom_site_fract_z
 _atom_site_occupancy
  Ti  Ti0  1  0.499993  0.254016  0.995900  1
  Ti  Ti1  1  0.499993  0.745985  0.995900  1
  Ti  Ti2  1  0.000018  0.245931  0.170694  1
  Ti  Ti3  1  0.000018  0.754069  0.170694  1
  Ti  Ti4  1  0.500204  0.248348  0.337141  1
  Ti  Ti5  1  0.500204  0.751652  0.337141  1
  Ti  Ti6  1  0.000073  0.249375  0.500981  1
  Ti  Ti7  1  0.000073  0.750626  0.500981  1
  Ti  Ti8  1  0.499841  0.250436  0.665792  1
  Ti  Ti9  1  0.499841  0.749564  0.665792  1
  Ti  Ti10  1  0.999841  0.251562  0.829459  1
  Ti  Ti11  1  0.999841  0.748438  0.829459  1
  Cr  Cr12  1  0.000173  0.000000  0.331381  1
  Cr  Cr13  1  0.500758  0.500000  0.499574  1
  Cr  Cr14  1  0.999275  0.000000  0.667192  1
  Cr  Cr15  1  0.499746  0.500000  0.835336  1
  Ir  Ir16  1  0.000083  0.500000  0.000348  1
  Ir  Ir17  1  0.500065  0.000000  0.166192  1
  Ir  Ir18  1  0.000320  0.500000  0.334082  1
  Ir  Ir19  1  0.499983  0.000000  0.500554  1
  Ir  Ir20  1  0.999939  0.500000  0.666099  1
  Ir  Ir21  1  0.499729  0.000000  0.832682  1
  Ru  Ru22  1  0.999946  0.000000  0.000504  1
  Ru  Ru23  1  0.500053  0.500000  0.166125  1
