# generated using pymatgen
data_Ho3Sn3Pd2Ru
_symmetry_space_group_name_H-M   'P 1'
_cell_length_a   7.73728900
_cell_length_b   7.73728753
_cell_length_c   3.74900900
_cell_angle_alpha   90.00000000
_cell_angle_beta   90.00000000
_cell_angle_gamma   119.99999346
_symmetry_Int_Tables_number   1
_chemical_formula_structural   Ho3Sn3Pd2Ru
_chemical_formula_sum   'Ho3 Sn3 Pd2 Ru1'
_cell_volume   194.36796978
_cell_formula_units_Z   1
loop_
 _symmetry_equiv_pos_site_id
 _symmetry_equiv_pos_as_xyz
  1  'x, y, z'
loop_
 _atom_site_type_symbol
 _atom_site_label
 _atom_site_symmetry_multiplicity
 _atom_site_fract_x
 _atom_site_fract_y
 _atom_site_fract_z
 _atom_site_occupancy
  Ho  Ho0  1  0.397999  0.397999  0.500000  1
  Ho  Ho1  1  0.602001  0.000000  0.500000  1
  Ho  Ho2  1  0.000000  0.602001  0.500000  1
  Sn  Sn3  1  0.736476  0.736476  0.000000  1
  Sn  Sn4  1  0.263524  0.000000  0.000000  1
  Sn  Sn5  1  0.000000  0.263524  0.000000  1
  Pd  Pd6  1  0.666667  0.333333  0.000000  1
  Pd  Pd7  1  0.333333  0.666667  0.000000  1
  Ru  Ru8  1  0.000000  0.000000  0.500000  1
