# generated using pymatgen
data_Sc20AlSi8Sb3
_symmetry_space_group_name_H-M   'P 1'
_cell_length_a   5.86833800
_cell_length_b   8.03391679
_cell_length_c   14.04053140
_cell_angle_alpha   90.13003809
_cell_angle_beta   90.00000000
_cell_angle_gamma   90.00000000
_symmetry_Int_Tables_number   1
_chemical_formula_structural   Sc20AlSi8Sb3
_chemical_formula_sum   'Sc20 Al1 Si8 Sb3'
_cell_volume   661.94952664
_cell_formula_units_Z   1
loop_
 _symmetry_equiv_pos_site_id
 _symmetry_equiv_pos_as_xyz
  1  'x, y, z'
loop_
 _atom_site_type_symbol
 _atom_site_label
 _atom_site_symmetry_multiplicity
 _atom_site_fract_x
 _atom_site_fract_y
 _atom_site_fract_z
 _atom_site_occupancy
  Sc  Sc0  1  0.742335  0.009755  0.333965  1
  Sc  Sc1  1  0.746635  0.502422  0.823999  1
  Sc  Sc2  1  0.742682  0.489797  0.174208  1
  Sc  Sc3  1  0.746016  0.004108  0.671718  1
  Sc  Sc4  1  0.257318  0.489797  0.174208  1
  Sc  Sc5  1  0.253984  0.004108  0.671718  1
  Sc  Sc6  1  0.257665  0.009755  0.333965  1
  Sc  Sc7  1  0.253365  0.502422  0.823999  1
  Sc  Sc8  1  0.000000  0.266824  0.501307  1
  Sc  Sc9  1  0.000000  0.771958  0.991425  1
  Sc  Sc10  1  0.000000  0.608425  0.379613  1
  Sc  Sc11  1  0.000000  0.114409  0.872336  1
  Sc  Sc12  1  0.000000  0.127203  0.124661  1
  Sc  Sc13  1  0.000000  0.612804  0.625797  1
  Sc  Sc14  1  0.500000  0.740264  0.500124  1
  Sc  Sc15  1  0.500000  0.232442  0.999751  1
  Sc  Sc16  1  0.500000  0.880111  0.121348  1
  Sc  Sc17  1  0.500000  0.378804  0.621515  1
  Sc  Sc18  1  0.500000  0.377828  0.379725  1
  Sc  Sc19  1  0.500000  0.880030  0.875819  1
  Al  Al20  1  0.500000  0.601917  0.999898  1
  Si  Si21  1  0.000000  0.301436  0.696459  1
  Si  Si22  1  0.000000  0.300547  0.304742  1
  Si  Si23  1  0.000000  0.802923  0.799706  1
  Si  Si24  1  0.500000  0.109850  0.501870  1
  Si  Si25  1  0.500000  0.696071  0.306565  1
  Si  Si26  1  0.500000  0.198684  0.803915  1
  Si  Si27  1  0.500000  0.193671  0.196588  1
  Si  Si28  1  0.500000  0.698189  0.693784  1
  Sb  Sb29  1  0.000000  0.892353  0.501328  1
  Sb  Sb30  1  0.000000  0.399427  0.997664  1
  Sb  Sb31  1  0.000000  0.801597  0.196267  1
