# generated using pymatgen
data_Th5(SnBi)2
_symmetry_space_group_name_H-M   'P 1'
_cell_length_a   9.77461300
_cell_length_b   9.78387101
_cell_length_c   6.59910600
_cell_angle_alpha   90.00000000
_cell_angle_beta   89.99999414
_cell_angle_gamma   119.96869979
_symmetry_Int_Tables_number   1
_chemical_formula_structural   Th5(SnBi)2
_chemical_formula_sum   'Th10 Sn4 Bi4'
_cell_volume   546.71742612
_cell_formula_units_Z   2
loop_
 _symmetry_equiv_pos_site_id
 _symmetry_equiv_pos_as_xyz
  1  'x, y, z'
loop_
 _atom_site_type_symbol
 _atom_site_label
 _atom_site_symmetry_multiplicity
 _atom_site_fract_x
 _atom_site_fract_y
 _atom_site_fract_z
 _atom_site_occupancy
  Th  Th0  1  0.999920  0.717835  0.750000  1
  Th  Th1  1  0.282085  0.282165  0.750000  1
  Th  Th2  1  0.331538  0.664609  0.496999  1
  Th  Th3  1  0.666930  0.335391  0.496999  1
  Th  Th4  1  0.719525  0.715858  0.250003  1
  Th  Th5  1  0.719279  0.000000  0.749999  1
  Th  Th6  1  0.003667  0.284142  0.250003  1
  Th  Th7  1  0.280003  0.000000  0.249995  1
  Th  Th8  1  0.331537  0.664614  0.003004  1
  Th  Th9  1  0.666924  0.335386  0.003004  1
  Sn  Sn10  1  0.380163  0.379941  0.249999  1
  Sn  Sn11  1  0.999396  0.000000  0.999463  1
  Sn  Sn12  1  0.000222  0.620059  0.249999  1
  Sn  Sn13  1  0.999398  0.000000  0.500537  1
  Bi  Bi14  1  0.619178  0.619094  0.750000  1
  Bi  Bi15  1  0.000084  0.380906  0.750000  1
  Bi  Bi16  1  0.380381  0.000000  0.749998  1
  Bi  Bi17  1  0.619769  0.000000  0.249999  1
