# generated using pymatgen
data_Pr3SmMo4F28
_symmetry_space_group_name_H-M   'P 1'
_cell_length_a   5.85843727
_cell_length_b   9.31331794
_cell_length_c   12.48356600
_cell_angle_alpha   62.00638162
_cell_angle_beta   90.01742804
_cell_angle_gamma   89.97666342
_symmetry_Int_Tables_number   1
_chemical_formula_structural   Pr3SmMo4F28
_chemical_formula_sum   'Pr3 Sm1 Mo4 F28'
_cell_volume   601.43045197
_cell_formula_units_Z   1
loop_
 _symmetry_equiv_pos_site_id
 _symmetry_equiv_pos_as_xyz
  1  'x, y, z'
loop_
 _atom_site_type_symbol
 _atom_site_label
 _atom_site_symmetry_multiplicity
 _atom_site_fract_x
 _atom_site_fract_y
 _atom_site_fract_z
 _atom_site_occupancy
  Pr  Pr0  1  0.746987  0.809797  0.268047  1
  Pr  Pr1  1  0.247250  0.189016  0.231779  1
  Pr  Pr2  1  0.252080  0.186860  0.732067  1
  Sm  Sm3  1  0.753337  0.810173  0.768379  1
  Mo  Mo4  1  0.745915  0.270848  0.456518  1
  Mo  Mo5  1  0.245504  0.727172  0.042149  1
  Mo  Mo6  1  0.255391  0.727414  0.547279  1
  Mo  Mo7  1  0.754719  0.275921  0.953932  1
  F  F8  1  0.465448  0.709590  0.923423  1
  F  F9  1  0.962937  0.290665  0.576338  1
  F  F10  1  0.537635  0.293016  0.075012  1
  F  F11  1  0.037179  0.709727  0.426364  1
  F  F12  1  0.469025  0.283289  0.545112  1
  F  F13  1  0.966274  0.718028  0.951619  1
  F  F14  1  0.529611  0.716160  0.456579  1
  F  F15  1  0.030928  0.285883  0.043510  1
  F  F16  1  0.764690  0.517052  0.859868  1
  F  F17  1  0.267205  0.487164  0.640986  1
  F  F18  1  0.233160  0.486968  0.137411  1
  F  F19  1  0.733579  0.511553  0.361855  1
  F  F20  1  0.763998  0.036333  0.049783  1
  F  F21  1  0.262774  0.966521  0.450747  1
  F  F22  1  0.237891  0.966974  0.948434  1
  F  F23  1  0.738546  0.031666  0.552572  1
  F  F24  1  0.989315  0.735089  0.643183  1
  F  F25  1  0.488752  0.266470  0.859330  1
  F  F26  1  0.014196  0.265746  0.361556  1
  F  F27  1  0.513732  0.732819  0.138510  1
  F  F28  1  0.033514  0.744330  0.164739  1
  F  F29  1  0.535745  0.253651  0.332584  1
  F  F30  1  0.965212  0.256936  0.830714  1
  F  F31  1  0.470503  0.746727  0.669839  1
  F  F32  1  0.421158  0.967361  0.233557  1
  F  F33  1  0.921044  0.031497  0.266271  1
  F  F34  1  0.576275  0.024441  0.765715  1
  F  F35  1  0.068485  0.967139  0.734235  1
