# generated using pymatgen
data_Er2TmNb3(B2Ru5)2
_symmetry_space_group_name_H-M   'P 1'
_cell_length_a   9.56986340
_cell_length_b   9.56986317
_cell_length_c   3.12108200
_cell_angle_alpha   90.00000000
_cell_angle_beta   90.00000000
_cell_angle_gamma   90.34443375
_symmetry_Int_Tables_number   1
_chemical_formula_structural   Er2TmNb3(B2Ru5)2
_chemical_formula_sum   'Er2 Tm1 Nb3 B4 Ru10'
_cell_volume   285.83065121
_cell_formula_units_Z   1
loop_
 _symmetry_equiv_pos_site_id
 _symmetry_equiv_pos_as_xyz
  1  'x, y, z'
loop_
 _atom_site_type_symbol
 _atom_site_label
 _atom_site_symmetry_multiplicity
 _atom_site_fract_x
 _atom_site_fract_y
 _atom_site_fract_z
 _atom_site_occupancy
  Er  Er0  1  0.824277  0.675086  0.000000  1
  Er  Er1  1  0.175086  0.324277  0.000000  1
  Tm  Tm2  1  0.325551  0.825551  0.000000  1
  Nb  Nb3  1  0.675521  0.175521  0.000000  1
  Nb  Nb4  1  0.498261  0.503113  0.000000  1
  Nb  Nb5  1  0.003113  0.998261  0.000000  1
  B  B6  1  0.622869  0.880413  0.000000  1
  B  B7  1  0.380413  0.122869  0.000000  1
  B  B8  1  0.119441  0.619441  0.000000  1
  B  B9  1  0.876816  0.376816  0.000000  1
  Ru  Ru10  1  0.571020  0.722008  0.500000  1
  Ru  Ru11  1  0.440072  0.279956  0.500000  1
  Ru  Ru12  1  0.069984  0.780362  0.500000  1
  Ru  Ru13  1  0.916493  0.213975  0.500000  1
  Ru  Ru14  1  0.280362  0.569984  0.500000  1
  Ru  Ru15  1  0.713975  0.416493  0.500000  1
  Ru  Ru16  1  0.222008  0.071020  0.500000  1
  Ru  Ru17  1  0.779956  0.940072  0.500000  1
  Ru  Ru18  1  0.508323  0.008323  0.500000  1
  Ru  Ru19  1  0.996461  0.496461  0.500000  1
