# generated using pymatgen
data_TmMgB4Ru5
_symmetry_space_group_name_H-M   'P 1'
_cell_length_a   3.01264600
_cell_length_b   8.54374854
_cell_length_c   10.13575530
_cell_angle_alpha   91.16940012
_cell_angle_beta   90.00000000
_cell_angle_gamma   90.00000000
_symmetry_Int_Tables_number   1
_chemical_formula_structural   TmMgB4Ru5
_chemical_formula_sum   'Tm2 Mg2 B8 Ru10'
_cell_volume   260.83280743
_cell_formula_units_Z   2
loop_
 _symmetry_equiv_pos_site_id
 _symmetry_equiv_pos_as_xyz
  1  'x, y, z'
loop_
 _atom_site_type_symbol
 _atom_site_label
 _atom_site_symmetry_multiplicity
 _atom_site_fract_x
 _atom_site_fract_y
 _atom_site_fract_z
 _atom_site_occupancy
  Tm  Tm0  1  0.500000  0.655564  0.815262  1
  Tm  Tm1  1  0.500000  0.344436  0.184738  1
  Mg  Mg2  1  0.500000  0.150242  0.680029  1
  Mg  Mg3  1  0.500000  0.849758  0.319971  1
  B  B4  1  0.500000  0.856814  0.599551  1
  B  B5  1  0.500000  0.143186  0.400449  1
  B  B6  1  0.500000  0.347936  0.895975  1
  B  B7  1  0.500000  0.652064  0.104025  1
  B  B8  1  0.500000  0.963082  0.910994  1
  B  B9  1  0.500000  0.036918  0.089006  1
  B  B10  1  0.500000  0.461101  0.588371  1
  B  B11  1  0.500000  0.538899  0.411629  1
  Ru  Ru12  1  0.000000  0.390610  0.736287  1
  Ru  Ru13  1  0.000000  0.609390  0.263713  1
  Ru  Ru14  1  0.000000  0.910055  0.759816  1
  Ru  Ru15  1  0.000000  0.089945  0.240184  1
  Ru  Ru16  1  0.000000  0.000000  0.500000  1
  Ru  Ru17  1  0.000000  0.500000  0.000000  1
  Ru  Ru18  1  0.000000  0.656668  0.549132  1
  Ru  Ru19  1  0.000000  0.343332  0.450868  1
  Ru  Ru20  1  0.000000  0.157406  0.955479  1
  Ru  Ru21  1  0.000000  0.842594  0.044521  1
