# generated using pymatgen
data_Lu8Re12Si15Ge
_symmetry_space_group_name_H-M   'P 1'
_cell_length_a   6.75325096
_cell_length_b   6.74762029
_cell_length_c   12.61821977
_cell_angle_alpha   90.05112257
_cell_angle_beta   89.92761129
_cell_angle_gamma   90.14783822
_symmetry_Int_Tables_number   1
_chemical_formula_structural   Lu8Re12Si15Ge
_chemical_formula_sum   'Lu8 Re12 Si15 Ge1'
_cell_volume   574.98914734
_cell_formula_units_Z   1
loop_
 _symmetry_equiv_pos_site_id
 _symmetry_equiv_pos_as_xyz
  1  'x, y, z'
loop_
 _atom_site_type_symbol
 _atom_site_label
 _atom_site_symmetry_multiplicity
 _atom_site_fract_x
 _atom_site_fract_y
 _atom_site_fract_z
 _atom_site_occupancy
  Lu  Lu0  1  0.006632  0.660108  0.030452  1
  Lu  Lu1  1  0.993691  0.339243  0.531226  1
  Lu  Lu2  1  0.340810  0.994274  0.469650  1
  Lu  Lu3  1  0.160040  0.493486  0.780806  1
  Lu  Lu4  1  0.838138  0.504951  0.279140  1
  Lu  Lu5  1  0.493309  0.160408  0.219203  1
  Lu  Lu6  1  0.506929  0.840566  0.719656  1
  Lu  Lu7  1  0.659774  0.006601  0.969348  1
  Re  Re8  1  0.661256  0.668019  0.501508  1
  Re  Re9  1  0.168194  0.835517  0.246645  1
  Re  Re10  1  0.333690  0.334037  0.000160  1
  Re  Re11  1  0.023016  0.813025  0.633589  1
  Re  Re12  1  0.977622  0.185620  0.130407  1
  Re  Re13  1  0.809996  0.027068  0.368117  1
  Re  Re14  1  0.318262  0.475489  0.379592  1
  Re  Re15  1  0.685845  0.522462  0.881484  1
  Re  Re16  1  0.478550  0.312482  0.619269  1
  Re  Re17  1  0.522787  0.684856  0.118846  1
  Re  Re18  1  0.185023  0.978142  0.869751  1
  Re  Re19  1  0.833861  0.166559  0.750276  1
  Si  Si20  1  0.616837  0.305337  0.434070  1
  Si  Si21  1  0.382852  0.695030  0.933866  1
  Si  Si22  1  0.195029  0.116526  0.684011  1
  Si  Si23  1  0.307169  0.615502  0.567757  1
  Si  Si24  1  0.694824  0.382377  0.065900  1
  Si  Si25  1  0.805011  0.882917  0.183596  1
  Si  Si26  1  0.116831  0.194323  0.316203  1
  Si  Si27  1  0.976929  0.275674  0.937126  1
  Si  Si28  1  0.727171  0.022286  0.562723  1
  Si  Si29  1  0.224642  0.476500  0.186901  1
  Si  Si30  1  0.774306  0.522527  0.687892  1
  Si  Si31  1  0.477325  0.225325  0.812875  1
  Si  Si32  1  0.522540  0.776053  0.312609  1
  Si  Si33  1  0.276088  0.977139  0.062802  1
  Si  Si34  1  0.882544  0.804887  0.816892  1
  Ge  Ge35  1  0.022477  0.724682  0.435651  1
