# generated using pymatgen
data_Y12InCo4Ir
_symmetry_space_group_name_H-M   'P 1'
_cell_length_a   8.32913767
_cell_length_b   8.32913755
_cell_length_c   8.32913843
_cell_angle_alpha   111.20543444
_cell_angle_beta   110.62438733
_cell_angle_gamma   106.62144312
_symmetry_Int_Tables_number   1
_chemical_formula_structural   Y12InCo4Ir
_chemical_formula_sum   'Y12 In1 Co4 Ir1'
_cell_volume   443.98164213
_cell_formula_units_Z   1
loop_
 _symmetry_equiv_pos_site_id
 _symmetry_equiv_pos_as_xyz
  1  'x, y, z'
loop_
 _atom_site_type_symbol
 _atom_site_label
 _atom_site_symmetry_multiplicity
 _atom_site_fract_x
 _atom_site_fract_y
 _atom_site_fract_z
 _atom_site_occupancy
  Y  Y0  1  0.409911  0.215533  0.194378  1
  Y  Y1  1  0.590089  0.784467  0.805622  1
  Y  Y2  1  0.021156  0.215533  0.805622  1
  Y  Y3  1  0.978844  0.784467  0.194378  1
  Y  Y4  1  0.184370  0.287474  0.471845  1
  Y  Y5  1  0.815630  0.712526  0.528155  1
  Y  Y6  1  0.184370  0.712526  0.896897  1
  Y  Y7  1  0.815630  0.287474  0.103103  1
  Y  Y8  1  0.314644  0.619367  0.304724  1
  Y  Y9  1  0.685356  0.380633  0.695276  1
  Y  Y10  1  0.314644  0.009920  0.695276  1
  Y  Y11  1  0.685356  0.990080  0.304724  1
  In  In12  1  0.500000  0.500000  0.000000  1
  Co  Co13  1  0.380444  0.000000  0.380444  1
  Co  Co14  1  0.619556  0.000000  0.619556  1
  Co  Co15  1  0.110619  0.610619  0.500000  1
  Co  Co16  1  0.889381  0.389381  0.500000  1
  Ir  Ir17  1  0.000000  0.000000  0.000000  1
