# generated using pymatgen
data_Ca5Tm5Pb8
_symmetry_space_group_name_H-M   'P 1'
_cell_length_a   7.93336300
_cell_length_b   16.05409900
_cell_length_c   8.56512000
_cell_angle_alpha   90.00000000
_cell_angle_beta   90.00000000
_cell_angle_gamma   90.00000000
_symmetry_Int_Tables_number   1
_chemical_formula_structural   Ca5Tm5Pb8
_chemical_formula_sum   'Ca10 Tm10 Pb16'
_cell_volume   1090.87933578
_cell_formula_units_Z   2
loop_
 _symmetry_equiv_pos_site_id
 _symmetry_equiv_pos_as_xyz
  1  'x, y, z'
loop_
 _atom_site_type_symbol
 _atom_site_label
 _atom_site_symmetry_multiplicity
 _atom_site_fract_x
 _atom_site_fract_y
 _atom_site_fract_z
 _atom_site_occupancy
  Ca  Ca0  1  0.492441  0.592176  0.685673  1
  Ca  Ca1  1  0.992441  0.907824  0.814327  1
  Ca  Ca2  1  0.505558  0.089039  0.311070  1
  Ca  Ca3  1  0.005558  0.410961  0.188930  1
  Ca  Ca4  1  0.505558  0.410961  0.311070  1
  Ca  Ca5  1  0.005558  0.089039  0.188930  1
  Ca  Ca6  1  0.492441  0.907824  0.685673  1
  Ca  Ca7  1  0.992441  0.592176  0.814327  1
  Ca  Ca8  1  0.174414  0.250000  0.491864  1
  Ca  Ca9  1  0.674414  0.250000  0.008136  1
  Tm  Tm10  1  0.669124  0.624666  0.154975  1
  Tm  Tm11  1  0.169124  0.875334  0.345025  1
  Tm  Tm12  1  0.332584  0.120801  0.840650  1
  Tm  Tm13  1  0.832584  0.379199  0.659350  1
  Tm  Tm14  1  0.332584  0.379199  0.840650  1
  Tm  Tm15  1  0.832584  0.120801  0.659350  1
  Tm  Tm16  1  0.669124  0.875334  0.154975  1
  Tm  Tm17  1  0.169124  0.624666  0.345025  1
  Tm  Tm18  1  0.829493  0.750000  0.504668  1
  Tm  Tm19  1  0.329493  0.750000  0.995332  1
  Pb  Pb20  1  0.682832  0.458997  0.959819  1
  Pb  Pb21  1  0.182832  0.041003  0.540181  1
  Pb  Pb22  1  0.317127  0.954362  0.038962  1
  Pb  Pb23  1  0.817127  0.545638  0.461038  1
  Pb  Pb24  1  0.317127  0.545638  0.038962  1
  Pb  Pb25  1  0.817127  0.954362  0.461038  1
  Pb  Pb26  1  0.682832  0.041003  0.959819  1
  Pb  Pb27  1  0.182832  0.458997  0.540181  1
  Pb  Pb28  1  0.472486  0.750000  0.366112  1
  Pb  Pb29  1  0.972486  0.750000  0.133888  1
  Pb  Pb30  1  0.533413  0.250000  0.634000  1
  Pb  Pb31  1  0.033413  0.250000  0.866000  1
  Pb  Pb32  1  0.695301  0.750000  0.851977  1
  Pb  Pb33  1  0.195301  0.750000  0.648023  1
  Pb  Pb34  1  0.295557  0.250000  0.133134  1
  Pb  Pb35  1  0.795557  0.250000  0.366866  1
