# generated using pymatgen
data_Ba4Nd5Dy3Se16
_symmetry_space_group_name_H-M   'P 1'
_cell_length_a   4.29948400
_cell_length_b   12.98852002
_cell_length_c   15.46418688
_cell_angle_alpha   89.85143639
_cell_angle_beta   90.00000000
_cell_angle_gamma   90.00000000
_symmetry_Int_Tables_number   1
_chemical_formula_structural   Ba4Nd5Dy3Se16
_chemical_formula_sum   'Ba4 Nd5 Dy3 Se16'
_cell_volume   863.57812819
_cell_formula_units_Z   1
loop_
 _symmetry_equiv_pos_site_id
 _symmetry_equiv_pos_as_xyz
  1  'x, y, z'
loop_
 _atom_site_type_symbol
 _atom_site_label
 _atom_site_symmetry_multiplicity
 _atom_site_fract_x
 _atom_site_fract_y
 _atom_site_fract_z
 _atom_site_occupancy
  Ba  Ba0  1  0.250000  0.759005  0.338706  1
  Ba  Ba1  1  0.250000  0.256813  0.164267  1
  Ba  Ba2  1  0.750000  0.240888  0.659604  1
  Ba  Ba3  1  0.750000  0.741644  0.837651  1
  Nd  Nd4  1  0.250000  0.429935  0.389768  1
  Nd  Nd5  1  0.250000  0.929370  0.109956  1
  Nd  Nd6  1  0.750000  0.572422  0.607400  1
  Nd  Nd7  1  0.750000  0.067836  0.889612  1
  Nd  Nd8  1  0.250000  0.422218  0.901167  1
  Dy  Dy9  1  0.250000  0.922940  0.599080  1
  Dy  Dy10  1  0.750000  0.578776  0.101516  1
  Dy  Dy11  1  0.750000  0.076124  0.400572  1
  Se  Se12  1  0.250000  0.208524  0.826334  1
  Se  Se13  1  0.250000  0.713608  0.669271  1
  Se  Se14  1  0.750000  0.787640  0.171668  1
  Se  Se15  1  0.750000  0.286445  0.331131  1
  Se  Se16  1  0.250000  0.125611  0.522483  1
  Se  Se17  1  0.250000  0.630237  0.979906  1
  Se  Se18  1  0.750000  0.873761  0.477090  1
  Se  Se19  1  0.750000  0.373940  0.029436  1
  Se  Se20  1  0.250000  0.524014  0.213802  1
  Se  Se21  1  0.250000  0.022886  0.287217  1
  Se  Se22  1  0.750000  0.479520  0.782770  1
  Se  Se23  1  0.750000  0.975928  0.712436  1
  Se  Se24  1  0.250000  0.416121  0.578923  1
  Se  Se25  1  0.250000  0.914243  0.920491  1
  Se  Se26  1  0.750000  0.585089  0.418652  1
  Se  Se27  1  0.750000  0.084463  0.079090  1
