# generated using pymatgen
data_TaTi2Nb(AlC)2
_symmetry_space_group_name_H-M   'P 1'
_cell_length_a   3.08315900
_cell_length_b   3.08316060
_cell_length_c   13.84359800
_cell_angle_alpha   90.00000000
_cell_angle_beta   90.00000000
_cell_angle_gamma   120.00001502
_symmetry_Int_Tables_number   1
_chemical_formula_structural   TaTi2Nb(AlC)2
_chemical_formula_sum   'Ta1 Ti2 Nb1 Al2 C2'
_cell_volume   113.96503155
_cell_formula_units_Z   1
loop_
 _symmetry_equiv_pos_site_id
 _symmetry_equiv_pos_as_xyz
  1  'x, y, z'
loop_
 _atom_site_type_symbol
 _atom_site_label
 _atom_site_symmetry_multiplicity
 _atom_site_fract_x
 _atom_site_fract_y
 _atom_site_fract_z
 _atom_site_occupancy
  Ta  Ta0  1  0.333333  0.666667  0.087248  1
  Ti  Ti1  1  0.666667  0.333333  0.587611  1
  Ti  Ti2  1  0.666667  0.333333  0.912378  1
  Nb  Nb3  1  0.333333  0.666667  0.411850  1
  Al  Al4  1  0.333333  0.666667  0.750192  1
  Al  Al5  1  0.666667  0.333333  0.249829  1
  C  C6  1  0.000000  0.000000  0.505697  1
  C  C7  1  0.000000  0.000000  0.995193  1
