# generated using pymatgen
data_Eu5Ni2Pd
_symmetry_space_group_name_H-M   'P 1'
_cell_length_a   9.04772869
_cell_length_b   9.04772872
_cell_length_c   9.04772848
_cell_angle_alpha   129.67128128
_cell_angle_beta   129.67128169
_cell_angle_gamma   73.93281820
_symmetry_Int_Tables_number   1
_chemical_formula_structural   Eu5Ni2Pd
_chemical_formula_sum   'Eu10 Ni4 Pd2'
_cell_volume   427.99529274
_cell_formula_units_Z   2
loop_
 _symmetry_equiv_pos_site_id
 _symmetry_equiv_pos_as_xyz
  1  'x, y, z'
loop_
 _atom_site_type_symbol
 _atom_site_label
 _atom_site_symmetry_multiplicity
 _atom_site_fract_x
 _atom_site_fract_y
 _atom_site_fract_z
 _atom_site_occupancy
  Eu  Eu0  1  0.500000  0.500000  0.000000  1
  Eu  Eu1  1  0.000000  0.000000  0.000000  1
  Eu  Eu2  1  0.532060  0.032060  0.845527  1
  Eu  Eu3  1  0.186533  0.686533  0.154473  1
  Eu  Eu4  1  0.032060  0.186533  0.500000  1
  Eu  Eu5  1  0.686533  0.532060  0.500000  1
  Eu  Eu6  1  0.467940  0.967940  0.154473  1
  Eu  Eu7  1  0.813467  0.313467  0.845527  1
  Eu  Eu8  1  0.967940  0.813467  0.500000  1
  Eu  Eu9  1  0.313467  0.467940  0.500000  1
  Ni  Ni10  1  0.111938  0.611938  0.723876  1
  Ni  Ni11  1  0.888062  0.388062  0.276124  1
  Ni  Ni12  1  0.611938  0.888062  0.500000  1
  Ni  Ni13  1  0.388062  0.111938  0.500000  1
  Pd  Pd14  1  0.250000  0.250000  0.000000  1
  Pd  Pd15  1  0.750000  0.750000  0.000000  1
