# generated using pymatgen
data_DyLu(ZrPt)2
_symmetry_space_group_name_H-M   'P 1'
_cell_length_a   4.68191900
_cell_length_b   7.06221502
_cell_length_c   8.22760821
_cell_angle_alpha   89.75674774
_cell_angle_beta   90.00000000
_cell_angle_gamma   90.00000000
_symmetry_Int_Tables_number   1
_chemical_formula_structural   DyLu(ZrPt)2
_chemical_formula_sum   'Dy2 Lu2 Zr4 Pt4'
_cell_volume   272.04109913
_cell_formula_units_Z   2
loop_
 _symmetry_equiv_pos_site_id
 _symmetry_equiv_pos_as_xyz
  1  'x, y, z'
loop_
 _atom_site_type_symbol
 _atom_site_label
 _atom_site_symmetry_multiplicity
 _atom_site_fract_x
 _atom_site_fract_y
 _atom_site_fract_z
 _atom_site_occupancy
  Dy  Dy0  1  0.250000  0.514300  0.179350  1
  Dy  Dy1  1  0.750000  0.485700  0.820650  1
  Lu  Lu2  1  0.750000  0.983958  0.678220  1
  Lu  Lu3  1  0.250000  0.016042  0.321780  1
  Zr  Zr4  1  0.250000  0.650690  0.579523  1
  Zr  Zr5  1  0.750000  0.349310  0.420477  1
  Zr  Zr6  1  0.750000  0.851258  0.081425  1
  Zr  Zr7  1  0.250000  0.148742  0.918575  1
  Pt  Pt8  1  0.250000  0.771235  0.904741  1
  Pt  Pt9  1  0.750000  0.228765  0.095259  1
  Pt  Pt10  1  0.750000  0.733866  0.409298  1
  Pt  Pt11  1  0.250000  0.266134  0.590702  1
