# generated using pymatgen
data_Yb3Ce(Re2C3)2
_symmetry_space_group_name_H-M   'P 1'
_cell_length_a   6.56283400
_cell_length_b   5.78537517
_cell_length_c   12.00801600
_cell_angle_alpha   66.21500057
_cell_angle_beta   90.00000000
_cell_angle_gamma   90.00000000
_symmetry_Int_Tables_number   1
_chemical_formula_structural   Yb3Ce(Re2C3)2
_chemical_formula_sum   'Yb6 Ce2 Re8 C12'
_cell_volume   417.20190817
_cell_formula_units_Z   2
loop_
 _symmetry_equiv_pos_site_id
 _symmetry_equiv_pos_as_xyz
  1  'x, y, z'
loop_
 _atom_site_type_symbol
 _atom_site_label
 _atom_site_symmetry_multiplicity
 _atom_site_fract_x
 _atom_site_fract_y
 _atom_site_fract_z
 _atom_site_occupancy
  Yb  Yb0  1  0.802835  0.655070  0.907163  1
  Yb  Yb1  1  0.302835  0.344930  0.592837  1
  Yb  Yb2  1  0.188871  0.337133  0.084108  1
  Yb  Yb3  1  0.688871  0.662867  0.415892  1
  Yb  Yb4  1  0.997042  0.730321  0.637407  1
  Yb  Yb5  1  0.497042  0.269679  0.862593  1
  Ce  Ce6  1  0.999663  0.268519  0.363835  1
  Ce  Ce7  1  0.499663  0.731481  0.136165  1
  Re  Re8  1  0.986990  0.827625  0.119712  1
  Re  Re9  1  0.486990  0.172375  0.380288  1
  Re  Re10  1  0.015169  0.172902  0.878356  1
  Re  Re11  1  0.515169  0.827098  0.621644  1
  Re  Re12  1  0.766212  0.183629  0.666033  1
  Re  Re13  1  0.232545  0.818279  0.332585  1
  Re  Re14  1  0.732545  0.181721  0.167415  1
  Re  Re15  1  0.266212  0.816371  0.833967  1
  C  C16  1  0.642673  0.515002  0.648953  1
  C  C17  1  0.142673  0.484998  0.851047  1
  C  C18  1  0.359581  0.483824  0.356765  1
  C  C19  1  0.859581  0.516176  0.143235  1
  C  C20  1  0.212984  0.882212  0.990015  1
  C  C21  1  0.712984  0.117788  0.509985  1
  C  C22  1  0.800238  0.129568  0.008518  1
  C  C23  1  0.300238  0.870432  0.491482  1
  C  C24  1  0.463551  0.040667  0.239235  1
  C  C25  1  0.031647  0.030874  0.740689  1
  C  C26  1  0.963551  0.959333  0.260765  1
  C  C27  1  0.531647  0.969126  0.759311  1
