# generated using pymatgen
data_Pr2Ga2Si2Ir5Rh
_symmetry_space_group_name_H-M   'P 1'
_cell_length_a   6.80244514
_cell_length_b   6.78895131
_cell_length_c   6.80244509
_cell_angle_alpha   130.88264858
_cell_angle_beta   112.61050605
_cell_angle_gamma   87.83639221
_symmetry_Int_Tables_number   1
_chemical_formula_structural   Pr2Ga2Si2Ir5Rh
_chemical_formula_sum   'Pr2 Ga2 Si2 Ir5 Rh1'
_cell_volume   208.70706185
_cell_formula_units_Z   1
loop_
 _symmetry_equiv_pos_site_id
 _symmetry_equiv_pos_as_xyz
  1  'x, y, z'
loop_
 _atom_site_type_symbol
 _atom_site_label
 _atom_site_symmetry_multiplicity
 _atom_site_fract_x
 _atom_site_fract_y
 _atom_site_fract_z
 _atom_site_occupancy
  Pr  Pr0  1  0.249868  0.982173  0.731784  1
  Pr  Pr1  1  0.749609  0.017827  0.267694  1
  Ga  Ga2  1  0.074382  0.299230  0.226452  1
  Ga  Ga3  1  0.927222  0.700770  0.775152  1
  Si  Si4  1  0.407684  0.636294  0.227640  1
  Si  Si5  1  0.591347  0.363706  0.771391  1
  Ir  Ir6  1  0.500085  0.501032  0.501208  1
  Ir  Ir7  1  0.000176  0.498968  0.999053  1
  Ir  Ir8  1  0.715813  0.000000  0.715813  1
  Ir  Ir9  1  0.257749  0.500000  0.757749  1
  Ir  Ir10  1  0.742606  0.500000  0.242606  1
  Rh  Rh11  1  0.283457  0.000000  0.283457  1
