# generated using pymatgen
data_Tl(Bi3Rh)4
_symmetry_space_group_name_H-M   'P 1'
_cell_length_a   8.52505950
_cell_length_b   8.52506039
_cell_length_c   8.52506000
_cell_angle_alpha   109.47122209
_cell_angle_beta   109.47122420
_cell_angle_gamma   109.47122505
_symmetry_Int_Tables_number   1
_chemical_formula_structural   Tl(Bi3Rh)4
_chemical_formula_sum   'Tl1 Bi12 Rh4'
_cell_volume   476.94729024
_cell_formula_units_Z   1
loop_
 _symmetry_equiv_pos_site_id
 _symmetry_equiv_pos_as_xyz
  1  'x, y, z'
loop_
 _atom_site_type_symbol
 _atom_site_label
 _atom_site_symmetry_multiplicity
 _atom_site_fract_x
 _atom_site_fract_y
 _atom_site_fract_z
 _atom_site_occupancy
  Tl  Tl0  1  0.000000  0.000000  0.000000  1
  Bi  Bi1  1  0.841000  0.664427  0.505427  1
  Bi  Bi2  1  0.159000  0.335573  0.494573  1
  Bi  Bi3  1  0.159000  0.664427  0.823428  1
  Bi  Bi4  1  0.841000  0.335573  0.176572  1
  Bi  Bi5  1  0.664427  0.505427  0.841000  1
  Bi  Bi6  1  0.335573  0.494573  0.159000  1
  Bi  Bi7  1  0.664427  0.823428  0.159000  1
  Bi  Bi8  1  0.335573  0.176572  0.841000  1
  Bi  Bi9  1  0.505427  0.841000  0.664427  1
  Bi  Bi10  1  0.494573  0.159000  0.335573  1
  Bi  Bi11  1  0.176572  0.841000  0.335573  1
  Bi  Bi12  1  0.823428  0.159000  0.664427  1
  Rh  Rh13  1  0.500000  0.500000  0.500000  1
  Rh  Rh14  1  0.500000  0.000000  0.000000  1
  Rh  Rh15  1  0.000000  0.500000  0.000000  1
  Rh  Rh16  1  0.000000  0.000000  0.500000  1
