# generated using pymatgen
data_AcIn2GaAg
_symmetry_space_group_name_H-M   'P 1'
_cell_length_a   6.83374508
_cell_length_b   6.83374434
_cell_length_c   6.83374392
_cell_angle_alpha   140.68550166
_cell_angle_beta   140.68549708
_cell_angle_gamma   56.81392527
_symmetry_Int_Tables_number   1
_chemical_formula_structural   AcIn2GaAg
_chemical_formula_sum   'Ac1 In2 Ga1 Ag1'
_cell_volume   127.06033961
_cell_formula_units_Z   1
loop_
 _symmetry_equiv_pos_site_id
 _symmetry_equiv_pos_as_xyz
  1  'x, y, z'
loop_
 _atom_site_type_symbol
 _atom_site_label
 _atom_site_symmetry_multiplicity
 _atom_site_fract_x
 _atom_site_fract_y
 _atom_site_fract_z
 _atom_site_occupancy
  Ac  Ac0  1  0.992247  0.992247  0.000000  1
  In  In1  1  0.749543  0.249543  0.500000  1
  In  In2  1  0.249543  0.749543  0.500000  1
  Ga  Ga3  1  0.397779  0.397779  0.000000  1
  Ag  Ag4  1  0.610888  0.610888  0.000000  1
