# generated using pymatgen
data_Li6Hf7Sc5Os6
_symmetry_space_group_name_H-M   'P 1'
_cell_length_a   4.63049100
_cell_length_b   6.56873779
_cell_length_c   13.77171975
_cell_angle_alpha   90.08462444
_cell_angle_beta   89.99874884
_cell_angle_gamma   90.00026740
_symmetry_Int_Tables_number   1
_chemical_formula_structural   Li6Hf7Sc5Os6
_chemical_formula_sum   'Li6 Hf7 Sc5 Os6'
_cell_volume   418.88679841
_cell_formula_units_Z   1
loop_
 _symmetry_equiv_pos_site_id
 _symmetry_equiv_pos_as_xyz
  1  'x, y, z'
loop_
 _atom_site_type_symbol
 _atom_site_label
 _atom_site_symmetry_multiplicity
 _atom_site_fract_x
 _atom_site_fract_y
 _atom_site_fract_z
 _atom_site_occupancy
  Li  Li0  1  0.000000  0.999866  0.999201  1
  Li  Li1  1  0.499496  0.500150  0.166573  1
  Li  Li2  1  0.999528  0.999300  0.333826  1
  Li  Li3  1  0.499999  0.500876  0.500752  1
  Li  Li4  1  0.000494  0.999507  0.667005  1
  Li  Li5  1  0.500491  0.500115  0.832626  1
  Hf  Hf6  1  0.499978  0.248592  0.998645  1
  Hf  Hf7  1  0.499983  0.752086  0.998600  1
  Hf  Hf8  1  0.999664  0.251598  0.166340  1
  Hf  Hf9  1  0.999663  0.746794  0.166648  1
  Hf  Hf10  1  0.499657  0.248599  0.334021  1
  Hf  Hf11  1  0.499651  0.752170  0.334540  1
  Hf  Hf12  1  0.999982  0.252700  0.501353  1
  Sc  Sc13  1  0.999973  0.749267  0.501458  1
  Sc  Sc14  1  0.500373  0.249844  0.667112  1
  Sc  Sc15  1  0.500375  0.749482  0.666654  1
  Sc  Sc16  1  0.000359  0.249896  0.832576  1
  Sc  Sc17  1  0.000358  0.748797  0.832126  1
  Os  Os18  1  0.999968  0.500154  0.006533  1
  Os  Os19  1  0.499648  0.999097  0.166678  1
  Os  Os20  1  0.999648  0.497045  0.329989  1
  Os  Os21  1  0.499969  0.009629  0.493273  1
  Os  Os22  1  0.000385  0.495653  0.663121  1
  Os  Os23  1  0.500356  0.998783  0.840346  1
