# generated using pymatgen
data_CuPd2F12
_symmetry_space_group_name_H-M   'P 1'
_cell_length_a   5.36736775
_cell_length_b   10.58139762
_cell_length_c   5.40220402
_cell_angle_alpha   55.73599941
_cell_angle_beta   56.18516933
_cell_angle_gamma   56.22938611
_symmetry_Int_Tables_number   1
_chemical_formula_structural   CuPd2F12
_chemical_formula_sum   'Cu1 Pd2 F12'
_cell_volume   197.09259039
_cell_formula_units_Z   1
loop_
 _symmetry_equiv_pos_site_id
 _symmetry_equiv_pos_as_xyz
  1  'x, y, z'
loop_
 _atom_site_type_symbol
 _atom_site_label
 _atom_site_symmetry_multiplicity
 _atom_site_fract_x
 _atom_site_fract_y
 _atom_site_fract_z
 _atom_site_occupancy
  Cu  Cu0  1  0.000000  0.500000  0.000000  1
  Pd  Pd1  1  0.493644  0.248094  0.504750  1
  Pd  Pd2  1  0.506356  0.751906  0.495250  1
  F  F3  1  0.126977  0.190104  0.743949  1
  F  F4  1  0.106752  0.696227  0.750304  1
  F  F5  1  0.386810  0.378553  0.106569  1
  F  F6  1  0.383340  0.871312  0.135514  1
  F  F7  1  0.734810  0.064628  0.384568  1
  F  F8  1  0.752882  0.551026  0.391736  1
  F  F9  1  0.247118  0.448974  0.608264  1
  F  F10  1  0.265190  0.935372  0.615432  1
  F  F11  1  0.616660  0.128688  0.864486  1
  F  F12  1  0.613190  0.621447  0.893431  1
  F  F13  1  0.893248  0.303773  0.249696  1
  F  F14  1  0.873023  0.809896  0.256051  1
