# generated using pymatgen
data_Tm5Lu7Fe3Sn2
_symmetry_space_group_name_H-M   'P 1'
_cell_length_a   8.20477774
_cell_length_b   8.20101866
_cell_length_c   8.20477906
_cell_angle_alpha   108.57786882
_cell_angle_beta   108.61939571
_cell_angle_gamma   111.25003858
_symmetry_Int_Tables_number   1
_chemical_formula_structural   Tm5Lu7Fe3Sn2
_chemical_formula_sum   'Tm5 Lu7 Fe3 Sn2'
_cell_volume   424.58525243
_cell_formula_units_Z   1
loop_
 _symmetry_equiv_pos_site_id
 _symmetry_equiv_pos_as_xyz
  1  'x, y, z'
loop_
 _atom_site_type_symbol
 _atom_site_label
 _atom_site_symmetry_multiplicity
 _atom_site_fract_x
 _atom_site_fract_y
 _atom_site_fract_z
 _atom_site_occupancy
  Tm  Tm0  1  0.307355  0.307278  0.614727  1
  Tm  Tm1  1  0.692941  0.692783  0.385412  1
  Tm  Tm2  1  0.692551  0.307278  0.999923  1
  Tm  Tm3  1  0.307372  0.692783  0.999843  1
  Tm  Tm4  1  0.192497  0.428025  0.235529  1
  Lu  Lu5  1  0.807605  0.572370  0.764764  1
  Lu  Lu6  1  0.192386  0.957096  0.764711  1
  Lu  Lu7  1  0.956998  0.192240  0.764412  1
  Lu  Lu8  1  0.807483  0.042700  0.235216  1
  Lu  Lu9  1  0.042808  0.807684  0.235227  1
  Lu  Lu10  1  0.427827  0.192240  0.235241  1
  Lu  Lu11  1  0.572458  0.807684  0.764877  1
  Fe  Fe12  1  0.383308  0.383114  0.999805  1
  Fe  Fe13  1  0.616911  0.616903  0.999992  1
  Fe  Fe14  1  0.999881  0.999715  0.999834  1
  Sn  Sn15  1  0.999581  0.500105  0.500524  1
  Sn  Sn16  1  0.500039  0.000001  0.499962  1
