# generated using pymatgen
data_Co4Re2Mo5WC2
_symmetry_space_group_name_H-M   'P 1'
_cell_length_a   7.96205453
_cell_length_b   7.96205437
_cell_length_c   7.96449100
_cell_angle_alpha   59.98988025
_cell_angle_beta   59.98988091
_cell_angle_gamma   60.02024928
_symmetry_Int_Tables_number   1
_chemical_formula_structural   Co4Re2Mo5WC2
_chemical_formula_sum   'Co8 Re4 Mo10 W2 C4'
_cell_volume   357.02059352
_cell_formula_units_Z   2
loop_
 _symmetry_equiv_pos_site_id
 _symmetry_equiv_pos_as_xyz
  1  'x, y, z'
loop_
 _atom_site_type_symbol
 _atom_site_label
 _atom_site_symmetry_multiplicity
 _atom_site_fract_x
 _atom_site_fract_y
 _atom_site_fract_z
 _atom_site_occupancy
  Co  Co0  1  0.742975  0.419245  0.418890  1
  Co  Co1  1  0.419245  0.742975  0.418890  1
  Co  Co2  1  0.418890  0.418890  0.742975  1
  Co  Co3  1  0.418890  0.418890  0.419245  1
  Co  Co4  1  0.506953  0.831491  0.830777  1
  Co  Co5  1  0.831491  0.506953  0.830777  1
  Co  Co6  1  0.830777  0.830777  0.506953  1
  Co  Co7  1  0.830777  0.830777  0.831491  1
  Re  Re8  1  0.124900  0.624932  0.625084  1
  Re  Re9  1  0.624932  0.124900  0.625084  1
  Re  Re10  1  0.625084  0.625084  0.124900  1
  Re  Re11  1  0.625084  0.625084  0.624932  1
  Mo  Mo12  1  0.810118  0.189882  0.810118  1
  Mo  Mo13  1  0.189882  0.810118  0.189882  1
  Mo  Mo14  1  0.189882  0.810118  0.810118  1
  Mo  Mo15  1  0.810118  0.189882  0.189882  1
  Mo  Mo16  1  0.439932  0.439932  0.060068  1
  Mo  Mo17  1  0.060068  0.060068  0.439932  1
  Mo  Mo18  1  0.439988  0.060012  0.439988  1
  Mo  Mo19  1  0.060012  0.439988  0.060012  1
  Mo  Mo20  1  0.060012  0.439988  0.439988  1
  Mo  Mo21  1  0.439988  0.060012  0.060012  1
  W  W22  1  0.809757  0.809757  0.190243  1
  W  W23  1  0.190243  0.190243  0.809757  1
  C  C24  1  0.625061  0.124830  0.125054  1
  C  C25  1  0.124830  0.625061  0.125054  1
  C  C26  1  0.125054  0.125054  0.625061  1
  C  C27  1  0.125054  0.125054  0.124830  1
