# generated using pymatgen
data_Ca9TmSi6F
_symmetry_space_group_name_H-M   'P 1'
_cell_length_a   9.05142429
_cell_length_b   9.03424142
_cell_length_c   9.05279910
_cell_angle_alpha   130.17489158
_cell_angle_beta   130.22511754
_cell_angle_gamma   73.00243359
_symmetry_Int_Tables_number   1
_chemical_formula_structural   Ca9TmSi6F
_chemical_formula_sum   'Ca9 Tm1 Si6 F1'
_cell_volume   421.94897066
_cell_formula_units_Z   1
loop_
 _symmetry_equiv_pos_site_id
 _symmetry_equiv_pos_as_xyz
  1  'x, y, z'
loop_
 _atom_site_type_symbol
 _atom_site_label
 _atom_site_symmetry_multiplicity
 _atom_site_fract_x
 _atom_site_fract_y
 _atom_site_fract_z
 _atom_site_occupancy
  Ca  Ca0  1  0.432666  0.773941  0.999994  1
  Ca  Ca1  1  0.930058  0.931825  0.644132  1
  Ca  Ca2  1  0.285925  0.287688  0.355863  1
  Ca  Ca3  1  0.711516  0.066249  0.000004  1
  Ca  Ca4  1  0.067428  0.712926  0.000002  1
  Ca  Ca5  1  0.566048  0.565284  0.337156  1
  Ca  Ca6  1  0.228894  0.228130  0.662851  1
  Ca  Ca7  1  0.251620  0.751023  0.503807  1
  Ca  Ca8  1  0.747816  0.247207  0.496193  1
  Tm  Tm9  1  0.774979  0.436216  0.999998  1
  Si  Si10  1  0.993611  0.496606  0.483053  1
  Si  Si11  1  0.510560  0.013549  0.516946  1
  Si  Si12  1  0.127422  0.365295  0.000002  1
  Si  Si13  1  0.356895  0.135952  0.000002  1
  Si  Si14  1  0.865838  0.857619  0.226306  1
  Si  Si15  1  0.639532  0.631312  0.773693  1
  F  F16  1  0.509190  0.499177  0.999998  1
