# generated using pymatgen
data_AcPr(BO3)2
_symmetry_space_group_name_H-M   'P 1'
_cell_length_a   5.05446000
_cell_length_b   6.64930102
_cell_length_c   8.93385700
_cell_angle_alpha   71.03256472
_cell_angle_beta   90.00000000
_cell_angle_gamma   90.00000000
_symmetry_Int_Tables_number   1
_chemical_formula_structural   AcPr(BO3)2
_chemical_formula_sum   'Ac2 Pr2 B4 O12'
_cell_volume   283.95187070
_cell_formula_units_Z   2
loop_
 _symmetry_equiv_pos_site_id
 _symmetry_equiv_pos_as_xyz
  1  'x, y, z'
loop_
 _atom_site_type_symbol
 _atom_site_label
 _atom_site_symmetry_multiplicity
 _atom_site_fract_x
 _atom_site_fract_y
 _atom_site_fract_z
 _atom_site_occupancy
  Ac  Ac0  1  0.742802  0.743263  0.412870  1
  Ac  Ac1  1  0.242802  0.256737  0.087130  1
  Pr  Pr2  1  0.238800  0.207887  0.606576  1
  Pr  Pr3  1  0.738800  0.792113  0.893424  1
  B  B4  1  0.768575  0.247800  0.375669  1
  B  B5  1  0.268575  0.752200  0.124331  1
  B  B6  1  0.232741  0.752771  0.624638  1
  B  B7  1  0.732741  0.247229  0.875362  1
  O  O8  1  0.501160  0.144918  0.857910  1
  O  O9  1  0.001160  0.855082  0.642090  1
  O  O10  1  0.538671  0.732324  0.156710  1
  O  O11  1  0.038671  0.267676  0.343290  1
  O  O12  1  0.969187  0.162821  0.845093  1
  O  O13  1  0.469187  0.837179  0.654907  1
  O  O14  1  0.106064  0.864511  0.194505  1
  O  O15  1  0.606064  0.135489  0.305495  1
  O  O16  1  0.726145  0.407017  0.943697  1
  O  O17  1  0.226145  0.592983  0.556303  1
  O  O18  1  0.175854  0.666200  0.010175  1
  O  O19  1  0.675854  0.333800  0.489825  1
