# generated using pymatgen
data_Er5PaAl7Pt16
_symmetry_space_group_name_H-M   'P 1'
_cell_length_a   8.95670707
_cell_length_b   8.95670682
_cell_length_c   8.95104500
_cell_angle_alpha   60.02090486
_cell_angle_beta   60.02090577
_cell_angle_gamma   59.95818740
_symmetry_Int_Tables_number   1
_chemical_formula_structural   Er5PaAl7Pt16
_chemical_formula_sum   'Er5 Pa1 Al7 Pt16'
_cell_volume   507.75606411
_cell_formula_units_Z   1
loop_
 _symmetry_equiv_pos_site_id
 _symmetry_equiv_pos_as_xyz
  1  'x, y, z'
loop_
 _atom_site_type_symbol
 _atom_site_label
 _atom_site_symmetry_multiplicity
 _atom_site_fract_x
 _atom_site_fract_y
 _atom_site_fract_z
 _atom_site_occupancy
  Er  Er0  1  0.286650  0.709602  0.290398  1
  Er  Er1  1  0.709602  0.286650  0.290398  1
  Er  Er2  1  0.289165  0.289165  0.710835  1
  Er  Er3  1  0.709602  0.286650  0.713350  1
  Er  Er4  1  0.286650  0.709602  0.713350  1
  Pa  Pa5  1  0.712415  0.712415  0.287585  1
  Al  Al6  1  0.002231  0.002231  0.997769  1
  Al  Al7  1  0.001817  0.001817  0.498183  1
  Al  Al8  1  0.494730  0.004125  0.505270  1
  Al  Al9  1  0.004125  0.494730  0.505270  1
  Al  Al10  1  0.501817  0.501817  0.998183  1
  Al  Al11  1  0.004125  0.494730  0.995875  1
  Al  Al12  1  0.494730  0.004125  0.995875  1
  Pt  Pt13  1  0.881419  0.881419  0.354642  1
  Pt  Pt14  1  0.878600  0.358241  0.881579  1
  Pt  Pt15  1  0.358241  0.878600  0.881579  1
  Pt  Pt16  1  0.881419  0.881419  0.882520  1
  Pt  Pt17  1  0.118421  0.118421  0.641759  1
  Pt  Pt18  1  0.117480  0.645358  0.118581  1
  Pt  Pt19  1  0.645358  0.117480  0.118581  1
  Pt  Pt20  1  0.118421  0.118421  0.121400  1
  Pt  Pt21  1  0.662535  0.662535  0.019942  1
  Pt  Pt22  1  0.663164  0.013259  0.661789  1
  Pt  Pt23  1  0.013259  0.663164  0.661789  1
  Pt  Pt24  1  0.662535  0.662535  0.654988  1
  Pt  Pt25  1  0.338211  0.338211  0.986741  1
  Pt  Pt26  1  0.345012  0.980058  0.337465  1
  Pt  Pt27  1  0.980058  0.345012  0.337465  1
  Pt  Pt28  1  0.338211  0.338211  0.336836  1
