# generated using pymatgen
data_La3Ho7C4I15
_symmetry_space_group_name_H-M   'P 1'
_cell_length_a   9.69286755
_cell_length_b   10.47667895
_cell_length_c   11.63722376
_cell_angle_alpha   93.28389673
_cell_angle_beta   114.27864073
_cell_angle_gamma   109.52182708
_symmetry_Int_Tables_number   1
_chemical_formula_structural   La3Ho7C4I15
_chemical_formula_sum   'La3 Ho7 C4 I15'
_cell_volume   988.89575252
_cell_formula_units_Z   1
loop_
 _symmetry_equiv_pos_site_id
 _symmetry_equiv_pos_as_xyz
  1  'x, y, z'
loop_
 _atom_site_type_symbol
 _atom_site_label
 _atom_site_symmetry_multiplicity
 _atom_site_fract_x
 _atom_site_fract_y
 _atom_site_fract_z
 _atom_site_occupancy
  La  La0  1  0.705621  0.568520  0.044768  1
  La  La1  1  0.292548  0.432894  0.955400  1
  La  La2  1  0.663767  0.253276  0.835289  1
  Ho  Ho3  1  0.591604  0.543851  0.336857  1
  Ho  Ho4  1  0.353229  0.743156  0.163322  1
  Ho  Ho5  1  0.766249  0.873297  0.251994  1
  Ho  Ho6  1  0.525666  0.187037  0.097308  1
  Ho  Ho7  1  0.237659  0.125129  0.750625  1
  Ho  Ho8  1  0.404806  0.456227  0.662921  1
  Ho  Ho9  1  0.473076  0.814018  0.902210  1
  C  C10  1  0.481511  0.296415  0.937666  1
  C  C11  1  0.517739  0.706248  0.062991  1
  C  C12  1  0.452411  0.360768  0.831520  1
  C  C13  1  0.545962  0.639901  0.168490  1
  I  I14  1  0.218440  0.908543  0.941073  1
  I  I15  1  0.113131  0.192646  0.480369  1
  I  I16  1  0.165934  0.566015  0.697992  1
  I  I17  1  0.392460  0.961234  0.652080  1
  I  I18  1  0.696528  0.737938  0.810334  1
  I  I19  1  0.300297  0.261950  0.187576  1
  I  I20  1  0.831490  0.433167  0.301933  1
  I  I21  1  0.885447  0.805572  0.521468  1
  I  I22  1  0.359056  0.628710  0.406514  1
  I  I23  1  0.051784  0.844671  0.226829  1
  I  I24  1  0.784720  0.087734  0.069403  1
  I  I25  1  0.636264  0.380110  0.582227  1
  I  I26  1  0.949086  0.154620  0.773654  1
  I  I27  1  0.592128  0.024539  0.340310  1
  I  I28  1  0.011387  0.511817  0.006876  1
