# generated using pymatgen
data_SmFe3CoB4
_symmetry_space_group_name_H-M   'P 1'
_cell_length_a   7.02626268
_cell_length_b   7.00614678
_cell_length_c   3.79856400
_cell_angle_alpha   90.00000000
_cell_angle_beta   90.00000000
_cell_angle_gamma   90.31035784
_symmetry_Int_Tables_number   1
_chemical_formula_structural   SmFe3CoB4
_chemical_formula_sum   'Sm2 Fe6 Co2 B8'
_cell_volume   186.98927193
_cell_formula_units_Z   2
loop_
 _symmetry_equiv_pos_site_id
 _symmetry_equiv_pos_as_xyz
  1  'x, y, z'
loop_
 _atom_site_type_symbol
 _atom_site_label
 _atom_site_symmetry_multiplicity
 _atom_site_fract_x
 _atom_site_fract_y
 _atom_site_fract_z
 _atom_site_occupancy
  Sm  Sm0  1  0.000000  0.000000  0.000992  1
  Sm  Sm1  1  0.500000  0.500000  0.499894  1
  Fe  Fe2  1  0.387098  0.132475  0.894051  1
  Fe  Fe3  1  0.612902  0.867525  0.894051  1
  Fe  Fe4  1  0.366626  0.886306  0.393920  1
  Fe  Fe5  1  0.633374  0.113694  0.393920  1
  Fe  Fe6  1  0.113569  0.367536  0.606502  1
  Fe  Fe7  1  0.886431  0.632464  0.606502  1
  Co  Co8  1  0.136349  0.613219  0.107088  1
  Co  Co9  1  0.863651  0.386781  0.107088  1
  B  B10  1  0.795609  0.666999  0.104397  1
  B  B11  1  0.204391  0.333001  0.104397  1
  B  B12  1  0.836829  0.296752  0.604155  1
  B  B13  1  0.163171  0.703248  0.604155  1
  B  B14  1  0.702200  0.834843  0.395541  1
  B  B15  1  0.297800  0.165157  0.395541  1
  B  B16  1  0.665059  0.199083  0.893903  1
  B  B17  1  0.334941  0.800917  0.893903  1
