# generated using pymatgen
data_Tb4Sm2SbRuO14
_symmetry_space_group_name_H-M   'P 1'
_cell_length_a   6.50500748
_cell_length_b   6.50500819
_cell_length_c   7.55119412
_cell_angle_alpha   90.24976322
_cell_angle_beta   89.75023507
_cell_angle_gamma   109.33886210
_symmetry_Int_Tables_number   1
_chemical_formula_structural   Tb4Sm2SbRuO14
_chemical_formula_sum   'Tb4 Sm2 Sb1 Ru1 O14'
_cell_volume   301.49646575
_cell_formula_units_Z   1
loop_
 _symmetry_equiv_pos_site_id
 _symmetry_equiv_pos_as_xyz
  1  'x, y, z'
loop_
 _atom_site_type_symbol
 _atom_site_label
 _atom_site_symmetry_multiplicity
 _atom_site_fract_x
 _atom_site_fract_y
 _atom_site_fract_z
 _atom_site_occupancy
  Tb  Tb0  1  0.533845  0.999856  0.748749  1
  Tb  Tb1  1  0.999856  0.533845  0.251251  1
  Tb  Tb2  1  0.466155  0.000144  0.251251  1
  Tb  Tb3  1  0.000144  0.466155  0.748749  1
  Sm  Sm4  1  0.500000  0.500000  0.500000  1
  Sm  Sm5  1  0.500000  0.500000  0.000000  1
  Sb  Sb6  1  0.000000  0.000000  0.000000  1
  Ru  Ru7  1  0.000000  0.000000  0.500000  1
  O  O8  1  0.682327  0.929166  0.470378  1
  O  O9  1  0.929166  0.682327  0.529622  1
  O  O10  1  0.678358  0.929374  0.028846  1
  O  O11  1  0.929374  0.678358  0.971154  1
  O  O12  1  0.317673  0.070834  0.529622  1
  O  O13  1  0.070834  0.317673  0.470378  1
  O  O14  1  0.321642  0.070626  0.971154  1
  O  O15  1  0.070626  0.321642  0.028846  1
  O  O16  1  0.931422  0.068578  0.748283  1
  O  O17  1  0.068578  0.931422  0.251717  1
  O  O18  1  0.366709  0.633291  0.750040  1
  O  O19  1  0.633291  0.366709  0.249960  1
  O  O20  1  0.638587  0.361413  0.748858  1
  O  O21  1  0.361413  0.638587  0.251142  1
