# generated using pymatgen
data_PuSc(NiAs)2
_symmetry_space_group_name_H-M   'P 1'
_cell_length_a   4.02455600
_cell_length_b   4.02455450
_cell_length_c   14.91577000
_cell_angle_alpha   90.00000000
_cell_angle_beta   90.00000000
_cell_angle_gamma   120.00001235
_symmetry_Int_Tables_number   1
_chemical_formula_structural   PuSc(NiAs)2
_chemical_formula_sum   'Pu2 Sc2 Ni4 As4'
_cell_volume   209.22426124
_cell_formula_units_Z   2
loop_
 _symmetry_equiv_pos_site_id
 _symmetry_equiv_pos_as_xyz
  1  'x, y, z'
loop_
 _atom_site_type_symbol
 _atom_site_label
 _atom_site_symmetry_multiplicity
 _atom_site_fract_x
 _atom_site_fract_y
 _atom_site_fract_z
 _atom_site_occupancy
  Pu  Pu0  1  0.000000  0.000000  0.000000  1
  Pu  Pu1  1  0.000000  0.000000  0.500000  1
  Sc  Sc2  1  0.000000  0.000000  0.250000  1
  Sc  Sc3  1  0.000000  0.000000  0.750000  1
  Ni  Ni4  1  0.333333  0.666667  0.153280  1
  Ni  Ni5  1  0.666667  0.333333  0.846720  1
  Ni  Ni6  1  0.666667  0.333333  0.653280  1
  Ni  Ni7  1  0.333333  0.666667  0.346720  1
  As  As8  1  0.333333  0.666667  0.625952  1
  As  As9  1  0.666667  0.333333  0.374048  1
  As  As10  1  0.666667  0.333333  0.125952  1
  As  As11  1  0.333333  0.666667  0.874048  1
