# generated using pymatgen
data_Tm8V11Si16Os
_symmetry_space_group_name_H-M   'P 1'
_cell_length_a   6.76895607
_cell_length_b   6.76895583
_cell_length_c   12.54530501
_cell_angle_alpha   90.00978516
_cell_angle_beta   89.99021161
_cell_angle_gamma   89.67463285
_symmetry_Int_Tables_number   1
_chemical_formula_structural   Tm8V11Si16Os
_chemical_formula_sum   'Tm8 V11 Si16 Os1'
_cell_volume   574.80109286
_cell_formula_units_Z   1
loop_
 _symmetry_equiv_pos_site_id
 _symmetry_equiv_pos_as_xyz
  1  'x, y, z'
loop_
 _atom_site_type_symbol
 _atom_site_label
 _atom_site_symmetry_multiplicity
 _atom_site_fract_x
 _atom_site_fract_y
 _atom_site_fract_z
 _atom_site_occupancy
  Tm  Tm0  1  0.000221  0.662956  0.029151  1
  Tm  Tm1  1  0.836419  0.499025  0.279747  1
  Tm  Tm2  1  0.163393  0.498561  0.780335  1
  Tm  Tm3  1  0.499025  0.836419  0.720253  1
  Tm  Tm4  1  0.498561  0.163393  0.219665  1
  Tm  Tm5  1  0.000692  0.336937  0.529723  1
  Tm  Tm6  1  0.662956  0.000221  0.970849  1
  Tm  Tm7  1  0.336937  0.000692  0.470277  1
  V  V8  1  0.171457  0.832828  0.247467  1
  V  V9  1  0.832828  0.171457  0.752533  1
  V  V10  1  0.669473  0.669473  0.500000  1
  V  V11  1  0.001139  0.154792  0.127076  1
  V  V12  1  0.341740  0.506377  0.374353  1
  V  V13  1  0.667706  0.493256  0.873621  1
  V  V14  1  0.506377  0.341740  0.625647  1
  V  V15  1  0.493256  0.667706  0.126379  1
  V  V16  1  0.992458  0.839870  0.624895  1
  V  V17  1  0.154792  0.001139  0.872924  1
  V  V18  1  0.839870  0.992458  0.375105  1
  Si  Si19  1  0.286175  0.962676  0.062655  1
  Si  Si20  1  0.539212  0.790683  0.315492  1
  Si  Si21  1  0.459470  0.209907  0.815788  1
  Si  Si22  1  0.790683  0.539212  0.684508  1
  Si  Si23  1  0.209907  0.459470  0.184212  1
  Si  Si24  1  0.710775  0.040823  0.565581  1
  Si  Si25  1  0.962676  0.286175  0.937345  1
  Si  Si26  1  0.040823  0.710775  0.434419  1
  Si  Si27  1  0.697589  0.378725  0.066334  1
  Si  Si28  1  0.125492  0.199526  0.316020  1
  Si  Si29  1  0.874369  0.797930  0.815274  1
  Si  Si30  1  0.199526  0.125492  0.683980  1
  Si  Si31  1  0.797930  0.874369  0.184726  1
  Si  Si32  1  0.299386  0.625142  0.565665  1
  Si  Si33  1  0.378725  0.697589  0.933666  1
  Si  Si34  1  0.625142  0.299386  0.434335  1
  Os  Os35  1  0.332817  0.332817  0.000000  1
