# generated using pymatgen
data_La10Si16B
_symmetry_space_group_name_H-M   'P 1'
_cell_length_a   6.85245092
_cell_length_b   8.72246193
_cell_length_c   11.38690800
_cell_angle_alpha   112.51987615
_cell_angle_beta   107.51116324
_cell_angle_gamma   90.00000016
_symmetry_Int_Tables_number   1
_chemical_formula_structural   La10Si16B
_chemical_formula_sum   'La10 Si16 B1'
_cell_volume   594.41295905
_cell_formula_units_Z   1
loop_
 _symmetry_equiv_pos_site_id
 _symmetry_equiv_pos_as_xyz
  1  'x, y, z'
loop_
 _atom_site_type_symbol
 _atom_site_label
 _atom_site_symmetry_multiplicity
 _atom_site_fract_x
 _atom_site_fract_y
 _atom_site_fract_z
 _atom_site_occupancy
  La  La0  1  0.234567  0.248597  0.000000  1
  La  La1  1  0.234567  0.751403  0.000000  1
  La  La2  1  0.831818  0.350689  0.198511  1
  La  La3  1  0.831818  0.847821  0.198511  1
  La  La4  1  0.432163  0.447955  0.398473  1
  La  La5  1  0.432163  0.950516  0.398473  1
  La  La6  1  0.033691  0.049484  0.601527  1
  La  La7  1  0.033691  0.552045  0.601527  1
  La  La8  1  0.633308  0.152179  0.801489  1
  La  La9  1  0.633308  0.649311  0.801489  1
  Si  Si10  1  0.880923  0.000000  0.000000  1
  Si  Si11  1  0.587183  0.500000  0.000000  1
  Si  Si12  1  0.149484  0.593563  0.187126  1
  Si  Si13  1  0.498852  0.600204  0.200407  1
  Si  Si14  1  0.502600  0.090650  0.181300  1
  Si  Si15  1  0.167386  0.104359  0.208718  1
  Si  Si16  1  0.784585  0.195992  0.391984  1
  Si  Si17  1  0.102155  0.701651  0.403303  1
  Si  Si18  1  0.758843  0.706338  0.412675  1
  Si  Si19  1  0.346168  0.293662  0.587325  1
  Si  Si20  1  0.698854  0.298349  0.596697  1
  Si  Si21  1  0.392599  0.804008  0.608015  1
  Si  Si22  1  0.958667  0.895641  0.791282  1
  Si  Si23  1  0.321300  0.909350  0.818700  1
  Si  Si24  1  0.298447  0.399796  0.799593  1
  Si  Si25  1  0.962356  0.406437  0.812874  1
  B  B26  1  0.569580  0.000000  0.000000  1
