# generated using pymatgen
data_Dy2Ho10Ir3Os
_symmetry_space_group_name_H-M   'P 1'
_cell_length_a   6.40756428
_cell_length_b   7.28292802
_cell_length_c   9.07776300
_cell_angle_alpha   90.00000000
_cell_angle_beta   90.00000000
_cell_angle_gamma   90.02078118
_symmetry_Int_Tables_number   1
_chemical_formula_structural   Dy2Ho10Ir3Os
_chemical_formula_sum   'Dy2 Ho10 Ir3 Os1'
_cell_volume   423.62131159
_cell_formula_units_Z   1
loop_
 _symmetry_equiv_pos_site_id
 _symmetry_equiv_pos_as_xyz
  1  'x, y, z'
loop_
 _atom_site_type_symbol
 _atom_site_label
 _atom_site_symmetry_multiplicity
 _atom_site_fract_x
 _atom_site_fract_y
 _atom_site_fract_z
 _atom_site_occupancy
  Dy  Dy0  1  0.130660  0.464871  0.750000  1
  Dy  Dy1  1  0.372379  0.963646  0.750000  1
  Ho  Ho2  1  0.325659  0.678685  0.064589  1
  Ho  Ho3  1  0.171787  0.175308  0.436116  1
  Ho  Ho4  1  0.671914  0.322828  0.562484  1
  Ho  Ho5  1  0.830989  0.823567  0.940086  1
  Ho  Ho6  1  0.671914  0.322828  0.937516  1
  Ho  Ho7  1  0.830989  0.823567  0.559914  1
  Ho  Ho8  1  0.325659  0.678685  0.435411  1
  Ho  Ho9  1  0.171787  0.175308  0.063884  1
  Ho  Ho10  1  0.871411  0.534649  0.250000  1
  Ho  Ho11  1  0.627160  0.035693  0.250000  1
  Ir  Ir12  1  0.458558  0.384791  0.250000  1
  Ir  Ir13  1  0.958199  0.115833  0.750000  1
  Ir  Ir14  1  0.545221  0.615283  0.750000  1
  Os  Os15  1  0.035716  0.884458  0.250000  1
