# generated using pymatgen
data_YbTm3(MnB4)4
_symmetry_space_group_name_H-M   'P 1'
_cell_length_a   3.36457900
_cell_length_b   5.87552941
_cell_length_c   11.36035501
_cell_angle_alpha   90.03745910
_cell_angle_beta   90.00000000
_cell_angle_gamma   90.00000000
_symmetry_Int_Tables_number   1
_chemical_formula_structural   YbTm3(MnB4)4
_chemical_formula_sum   'Yb1 Tm3 Mn4 B16'
_cell_volume   224.57920747
_cell_formula_units_Z   1
loop_
 _symmetry_equiv_pos_site_id
 _symmetry_equiv_pos_as_xyz
  1  'x, y, z'
loop_
 _atom_site_type_symbol
 _atom_site_label
 _atom_site_symmetry_multiplicity
 _atom_site_fract_x
 _atom_site_fract_y
 _atom_site_fract_z
 _atom_site_occupancy
  Yb  Yb0  1  0.500000  0.874004  0.349723  1
  Tm  Tm1  1  0.500000  0.373052  0.150837  1
  Tm  Tm2  1  0.500000  0.626238  0.849020  1
  Tm  Tm3  1  0.500000  0.125701  0.650144  1
  Mn  Mn4  1  0.500000  0.373403  0.418178  1
  Mn  Mn5  1  0.500000  0.625763  0.584222  1
  Mn  Mn6  1  0.500000  0.127477  0.915820  1
  Mn  Mn7  1  0.500000  0.872153  0.082454  1
  B  B8  1  0.000000  0.113061  0.046174  1
  B  B9  1  0.000000  0.887712  0.952525  1
  B  B10  1  0.000000  0.387709  0.547387  1
  B  B11  1  0.000000  0.613203  0.454063  1
  B  B12  1  0.000000  0.137324  0.468169  1
  B  B13  1  0.000000  0.862343  0.533039  1
  B  B14  1  0.000000  0.362630  0.967391  1
  B  B15  1  0.000000  0.637053  0.031555  1
  B  B16  1  0.000000  0.025144  0.191019  1
  B  B17  1  0.000000  0.975566  0.808092  1
  B  B18  1  0.000000  0.475496  0.691892  1
  B  B19  1  0.000000  0.523754  0.308851  1
  B  B20  1  0.000000  0.218628  0.316204  1
  B  B21  1  0.000000  0.782288  0.683912  1
  B  B22  1  0.000000  0.282022  0.815725  1
  B  B23  1  0.000000  0.718271  0.183606  1
