# generated using pymatgen
data_Sm8Er12Sn15Ru
_symmetry_space_group_name_H-M   'P 1'
_cell_length_a   7.89836100
_cell_length_b   8.24332316
_cell_length_c   15.35298200
_cell_angle_alpha   90.00000000
_cell_angle_beta   90.00000000
_cell_angle_gamma   89.74419044
_symmetry_Int_Tables_number   1
_chemical_formula_structural   Sm8Er12Sn15Ru
_chemical_formula_sum   'Sm8 Er12 Sn15 Ru1'
_cell_volume   999.60338338
_cell_formula_units_Z   1
loop_
 _symmetry_equiv_pos_site_id
 _symmetry_equiv_pos_as_xyz
  1  'x, y, z'
loop_
 _atom_site_type_symbol
 _atom_site_label
 _atom_site_symmetry_multiplicity
 _atom_site_fract_x
 _atom_site_fract_y
 _atom_site_fract_z
 _atom_site_occupancy
  Sm  Sm0  1  0.508106  0.330832  0.902349  1
  Sm  Sm1  1  0.013014  0.180165  0.597091  1
  Sm  Sm2  1  0.490140  0.682213  0.404830  1
  Sm  Sm3  1  0.989814  0.824304  0.095485  1
  Sm  Sm4  1  0.490140  0.682213  0.095170  1
  Sm  Sm5  1  0.989814  0.824304  0.404515  1
  Sm  Sm6  1  0.508106  0.330832  0.597651  1
  Sm  Sm7  1  0.013014  0.180165  0.902909  1
  Er  Er8  1  0.374303  0.814007  0.866357  1
  Er  Er9  1  0.816483  0.661065  0.633050  1
  Er  Er10  1  0.652950  0.167996  0.375966  1
  Er  Er11  1  0.154279  0.334573  0.124808  1
  Er  Er12  1  0.652950  0.167996  0.124034  1
  Er  Er13  1  0.154279  0.334573  0.375192  1
  Er  Er14  1  0.374303  0.814007  0.633643  1
  Er  Er15  1  0.816483  0.661065  0.866950  1
  Er  Er16  1  0.198807  0.503111  0.750000  1
  Er  Er17  1  0.683725  0.997586  0.750000  1
  Er  Er18  1  0.819593  0.501488  0.250000  1
  Er  Er19  1  0.318238  0.999882  0.250000  1
  Sn  Sn20  1  0.314148  0.038238  0.035742  1
  Sn  Sn21  1  0.817321  0.464003  0.460258  1
  Sn  Sn22  1  0.691427  0.967654  0.540548  1
  Sn  Sn23  1  0.176317  0.543836  0.958830  1
  Sn  Sn24  1  0.691427  0.967654  0.959452  1
  Sn  Sn25  1  0.176317  0.543836  0.541170  1
  Sn  Sn26  1  0.314148  0.038238  0.464258  1
  Sn  Sn27  1  0.817321  0.464003  0.039742  1
  Sn  Sn28  1  0.047533  0.879632  0.750000  1
  Sn  Sn29  1  0.455932  0.378132  0.250000  1
  Sn  Sn30  1  0.955591  0.121055  0.250000  1
  Sn  Sn31  1  0.312590  0.140607  0.750000  1
  Sn  Sn32  1  0.806264  0.356422  0.750000  1
  Sn  Sn33  1  0.683485  0.853816  0.250000  1
  Sn  Sn34  1  0.181891  0.648472  0.250000  1
  Ru  Ru35  1  0.539745  0.602026  0.750000  1
