# generated using pymatgen
data_Dy11Ho5(TmSn4)4
_symmetry_space_group_name_H-M   'P 1'
_cell_length_a   7.99668902
_cell_length_b   8.13450894
_cell_length_c   15.39734162
_cell_angle_alpha   90.00462524
_cell_angle_beta   89.97815594
_cell_angle_gamma   90.01349798
_symmetry_Int_Tables_number   1
_chemical_formula_structural   Dy11Ho5(TmSn4)4
_chemical_formula_sum   'Dy11 Ho5 Tm4 Sn16'
_cell_volume   1001.58369994
_cell_formula_units_Z   1
loop_
 _symmetry_equiv_pos_site_id
 _symmetry_equiv_pos_as_xyz
  1  'x, y, z'
loop_
 _atom_site_type_symbol
 _atom_site_label
 _atom_site_symmetry_multiplicity
 _atom_site_fract_x
 _atom_site_fract_y
 _atom_site_fract_z
 _atom_site_occupancy
  Dy  Dy0  1  0.132295  0.336863  0.377349  1
  Dy  Dy1  1  0.368015  0.836944  0.622296  1
  Dy  Dy2  1  0.867497  0.663247  0.878306  1
  Dy  Dy3  1  0.521021  0.320424  0.903470  1
  Dy  Dy4  1  0.021241  0.179167  0.597178  1
  Dy  Dy5  1  0.478838  0.679193  0.402600  1
  Dy  Dy6  1  0.978883  0.821060  0.097189  1
  Dy  Dy7  1  0.479706  0.679176  0.096864  1
  Dy  Dy8  1  0.979382  0.821200  0.402801  1
  Dy  Dy9  1  0.520329  0.320968  0.596938  1
  Dy  Dy10  1  0.020740  0.179109  0.903039  1
  Ho  Ho11  1  0.366588  0.837285  0.877235  1
  Ho  Ho12  1  0.866552  0.662721  0.622710  1
  Ho  Ho13  1  0.633338  0.162602  0.377181  1
  Ho  Ho14  1  0.133222  0.337589  0.122446  1
  Ho  Ho15  1  0.632492  0.162540  0.122905  1
  Tm  Tm16  1  0.198278  0.503311  0.750425  1
  Tm  Tm17  1  0.698521  0.996737  0.749912  1
  Tm  Tm18  1  0.801401  0.496602  0.250137  1
  Tm  Tm19  1  0.301502  0.003531  0.249384  1
  Sn  Sn20  1  0.294051  0.037621  0.041516  1
  Sn  Sn21  1  0.792228  0.462999  0.458403  1
  Sn  Sn22  1  0.707864  0.963058  0.541528  1
  Sn  Sn23  1  0.207786  0.537086  0.958438  1
  Sn  Sn24  1  0.704505  0.963782  0.958402  1
  Sn  Sn25  1  0.204765  0.536745  0.542337  1
  Sn  Sn26  1  0.294992  0.036815  0.457476  1
  Sn  Sn27  1  0.794113  0.461665  0.042544  1
  Sn  Sn28  1  0.564266  0.618578  0.750255  1
  Sn  Sn29  1  0.064301  0.881111  0.750014  1
  Sn  Sn30  1  0.436105  0.380679  0.249625  1
  Sn  Sn31  1  0.935471  0.118960  0.249367  1
  Sn  Sn32  1  0.330416  0.148918  0.750273  1
  Sn  Sn33  1  0.830310  0.351466  0.749909  1
  Sn  Sn34  1  0.669410  0.851366  0.249870  1
  Sn  Sn35  1  0.169581  0.648883  0.249677  1
