# generated using pymatgen
data_Er3Tm2(ReO6)2
_symmetry_space_group_name_H-M   'P 1'
_cell_length_a   6.77386338
_cell_length_b   6.77386335
_cell_length_c   7.47304704
_cell_angle_alpha   73.76902465
_cell_angle_beta   73.76902142
_cell_angle_gamma   49.21496588
_symmetry_Int_Tables_number   1
_chemical_formula_structural   Er3Tm2(ReO6)2
_chemical_formula_sum   'Er3 Tm2 Re2 O12'
_cell_volume   247.06003256
_cell_formula_units_Z   1
loop_
 _symmetry_equiv_pos_site_id
 _symmetry_equiv_pos_as_xyz
  1  'x, y, z'
loop_
 _atom_site_type_symbol
 _atom_site_label
 _atom_site_symmetry_multiplicity
 _atom_site_fract_x
 _atom_site_fract_y
 _atom_site_fract_z
 _atom_site_occupancy
  Er  Er0  1  0.802494  0.802494  0.359398  1
  Er  Er1  1  0.197487  0.197487  0.640894  1
  Er  Er2  1  0.185469  0.185469  0.177362  1
  Tm  Tm3  1  0.814460  0.814460  0.822318  1
  Tm  Tm4  1  0.499964  0.499964  0.500124  1
  Re  Re5  1  0.285366  0.714717  0.999852  1
  Re  Re6  1  0.714717  0.285366  0.999852  1
  O  O7  1  0.413573  0.920438  0.913039  1
  O  O8  1  0.078662  0.587944  0.086245  1
  O  O9  1  0.587944  0.078662  0.086245  1
  O  O10  1  0.920438  0.413573  0.913039  1
  O  O11  1  0.599129  0.094657  0.573200  1
  O  O12  1  0.904615  0.401513  0.427707  1
  O  O13  1  0.401513  0.904615  0.427707  1
  O  O14  1  0.000298  0.000298  0.819800  1
  O  O15  1  0.999220  0.999220  0.179996  1
  O  O16  1  0.497888  0.497888  0.791927  1
  O  O17  1  0.502108  0.502108  0.208096  1
  O  O18  1  0.094657  0.599129  0.573200  1
