# generated using pymatgen
data_Th6IrOsAu6
_symmetry_space_group_name_H-M   'P 1'
_cell_length_a   8.29667235
_cell_length_b   8.29667184
_cell_length_c   8.29667273
_cell_angle_alpha   114.24901452
_cell_angle_beta   114.24902394
_cell_angle_gamma   114.24900612
_symmetry_Int_Tables_number   1
_chemical_formula_structural   Th6IrOsAu6
_chemical_formula_sum   'Th6 Ir1 Os1 Au6'
_cell_volume   340.47126212
_cell_formula_units_Z   1
loop_
 _symmetry_equiv_pos_site_id
 _symmetry_equiv_pos_as_xyz
  1  'x, y, z'
loop_
 _atom_site_type_symbol
 _atom_site_label
 _atom_site_symmetry_multiplicity
 _atom_site_fract_x
 _atom_site_fract_y
 _atom_site_fract_z
 _atom_site_occupancy
  Th  Th0  1  0.042726  0.391518  0.282076  1
  Th  Th1  1  0.391518  0.282076  0.042726  1
  Th  Th2  1  0.717924  0.957274  0.608482  1
  Th  Th3  1  0.282076  0.042726  0.391518  1
  Th  Th4  1  0.608482  0.717924  0.957274  1
  Th  Th5  1  0.957274  0.608482  0.717924  1
  Ir  Ir6  1  0.500000  0.500000  0.500000  1
  Os  Os7  1  0.000000  0.000000  0.000000  1
  Au  Au8  1  0.431771  0.939032  0.773308  1
  Au  Au9  1  0.939032  0.773308  0.431771  1
  Au  Au10  1  0.226692  0.568229  0.060968  1
  Au  Au11  1  0.773308  0.431771  0.939032  1
  Au  Au12  1  0.060968  0.226692  0.568229  1
  Au  Au13  1  0.568229  0.060968  0.226692  1
