# generated using pymatgen
data_Dy7ErTa12Si15P
_symmetry_space_group_name_H-M   'P 1'
_cell_length_a   7.05364851
_cell_length_b   7.04591263
_cell_length_c   12.95514600
_cell_angle_alpha   90.00596059
_cell_angle_beta   89.82605687
_cell_angle_gamma   89.93458199
_symmetry_Int_Tables_number   1
_chemical_formula_structural   Dy7ErTa12Si15P
_chemical_formula_sum   'Dy7 Er1 Ta12 Si15 P1'
_cell_volume   643.85947749
_cell_formula_units_Z   1
loop_
 _symmetry_equiv_pos_site_id
 _symmetry_equiv_pos_as_xyz
  1  'x, y, z'
loop_
 _atom_site_type_symbol
 _atom_site_label
 _atom_site_symmetry_multiplicity
 _atom_site_fract_x
 _atom_site_fract_y
 _atom_site_fract_z
 _atom_site_occupancy
  Dy  Dy0  1  0.340343  0.002771  0.469138  1
  Dy  Dy1  1  0.495044  0.844816  0.718352  1
  Dy  Dy2  1  0.501589  0.157971  0.218162  1
  Dy  Dy3  1  0.841016  0.496894  0.281795  1
  Dy  Dy4  1  0.158806  0.498575  0.780559  1
  Dy  Dy5  1  0.660477  0.996706  0.968768  1
  Dy  Dy6  1  0.002047  0.340768  0.532685  1
  Er  Er7  1  0.998849  0.658305  0.031311  1
  Ta  Ta8  1  0.328808  0.329025  0.999833  1
  Ta  Ta9  1  0.171517  0.828534  0.249631  1
  Ta  Ta10  1  0.829922  0.171912  0.749517  1
  Ta  Ta11  1  0.670489  0.670755  0.500302  1
  Ta  Ta12  1  0.155450  0.009137  0.871711  1
  Ta  Ta13  1  0.492334  0.653176  0.124075  1
  Ta  Ta14  1  0.503904  0.344318  0.625372  1
  Ta  Ta15  1  0.654567  0.495964  0.876546  1
  Ta  Ta16  1  0.345983  0.506368  0.375671  1
  Ta  Ta17  1  0.846569  0.993223  0.374459  1
  Ta  Ta18  1  0.007421  0.152256  0.125627  1
  Ta  Ta19  1  0.995005  0.848821  0.625934  1
  Si  Si20  1  0.364871  0.703529  0.931487  1
  Si  Si21  1  0.632812  0.296258  0.432503  1
  Si  Si22  1  0.704321  0.366765  0.068162  1
  Si  Si23  1  0.296866  0.633739  0.567865  1
  Si  Si24  1  0.797183  0.865127  0.181673  1
  Si  Si25  1  0.133762  0.202821  0.318083  1
  Si  Si26  1  0.867346  0.796457  0.817835  1
  Si  Si27  1  0.294287  0.954770  0.063038  1
  Si  Si28  1  0.545007  0.793824  0.313956  1
  Si  Si29  1  0.461149  0.207757  0.816777  1
  Si  Si30  1  0.792478  0.546338  0.685816  1
  Si  Si31  1  0.205337  0.454843  0.185827  1
  Si  Si32  1  0.705728  0.044721  0.563675  1
  Si  Si33  1  0.955403  0.294647  0.936577  1
  Si  Si34  1  0.044326  0.705506  0.436074  1
  P  P35  1  0.198986  0.132598  0.681210  1
