# generated using pymatgen
data_CeEr7(Si3Ir)4
_symmetry_space_group_name_H-M   'P 1'
_cell_length_a   8.15440900
_cell_length_b   8.15440895
_cell_length_c   7.91752400
_cell_angle_alpha   90.00000000
_cell_angle_beta   90.00000000
_cell_angle_gamma   120.00000426
_symmetry_Int_Tables_number   1
_chemical_formula_structural   CeEr7(Si3Ir)4
_chemical_formula_sum   'Ce1 Er7 Si12 Ir4'
_cell_volume   455.93714973
_cell_formula_units_Z   1
loop_
 _symmetry_equiv_pos_site_id
 _symmetry_equiv_pos_as_xyz
  1  'x, y, z'
loop_
 _atom_site_type_symbol
 _atom_site_label
 _atom_site_symmetry_multiplicity
 _atom_site_fract_x
 _atom_site_fract_y
 _atom_site_fract_z
 _atom_site_occupancy
  Ce  Ce0  1  0.000000  0.000000  0.250000  1
  Er  Er1  1  0.000000  0.000000  0.750000  1
  Er  Er2  1  0.491362  0.508638  0.250000  1
  Er  Er3  1  0.491362  0.982726  0.250000  1
  Er  Er4  1  0.017274  0.508638  0.250000  1
  Er  Er5  1  0.509678  0.490322  0.750000  1
  Er  Er6  1  0.980643  0.490322  0.750000  1
  Er  Er7  1  0.509678  0.019357  0.750000  1
  Si  Si8  1  0.833464  0.166536  0.501190  1
  Si  Si9  1  0.833464  0.666928  0.501190  1
  Si  Si10  1  0.333072  0.166536  0.501190  1
  Si  Si11  1  0.833464  0.166536  0.998810  1
  Si  Si12  1  0.833464  0.666928  0.998810  1
  Si  Si13  1  0.333072  0.166536  0.998810  1
  Si  Si14  1  0.167356  0.832644  0.000294  1
  Si  Si15  1  0.665289  0.832644  0.000294  1
  Si  Si16  1  0.167356  0.334711  0.000294  1
  Si  Si17  1  0.167356  0.832644  0.499706  1
  Si  Si18  1  0.665289  0.832644  0.499706  1
  Si  Si19  1  0.167356  0.334711  0.499706  1
  Ir  Ir20  1  0.666667  0.333333  0.470244  1
  Ir  Ir21  1  0.666667  0.333333  0.029756  1
  Ir  Ir22  1  0.333333  0.666667  0.963355  1
  Ir  Ir23  1  0.333333  0.666667  0.536645  1
