# generated using pymatgen
data_La2EuNiSn3Pd2
_symmetry_space_group_name_H-M   'P 1'
_cell_length_a   7.65374300
_cell_length_b   7.65327339
_cell_length_c   4.13128400
_cell_angle_alpha   90.00000000
_cell_angle_beta   90.00000000
_cell_angle_gamma   119.99797394
_symmetry_Int_Tables_number   1
_chemical_formula_structural   La2EuNiSn3Pd2
_chemical_formula_sum   'La2 Eu1 Ni1 Sn3 Pd2'
_cell_volume   209.57798080
_cell_formula_units_Z   1
loop_
 _symmetry_equiv_pos_site_id
 _symmetry_equiv_pos_as_xyz
  1  'x, y, z'
loop_
 _atom_site_type_symbol
 _atom_site_label
 _atom_site_symmetry_multiplicity
 _atom_site_fract_x
 _atom_site_fract_y
 _atom_site_fract_z
 _atom_site_occupancy
  La  La0  1  0.411098  0.411171  0.000000  1
  La  La1  1  0.588902  0.000073  0.000000  1
  Eu  Eu2  1  0.000000  0.589024  0.000000  1
  Ni  Ni3  1  0.000000  0.000136  0.000000  1
  Sn  Sn4  1  0.759355  0.759129  0.500000  1
  Sn  Sn5  1  0.000000  0.240863  0.500000  1
  Sn  Sn6  1  0.240645  0.999774  0.500000  1
  Pd  Pd7  1  0.666429  0.333129  0.500000  1
  Pd  Pd8  1  0.333571  0.666700  0.500000  1
