# generated using pymatgen
data_CaNdB5Os2Ru
_symmetry_space_group_name_H-M   'P 1'
_cell_length_a   5.70242720
_cell_length_b   5.66679922
_cell_length_c   8.10932853
_cell_angle_alpha   57.17435939
_cell_angle_beta   57.45067667
_cell_angle_gamma   41.95200417
_symmetry_Int_Tables_number   1
_chemical_formula_structural   CaNdB5Os2Ru
_chemical_formula_sum   'Ca1 Nd1 B5 Os2 Ru1'
_cell_volume   142.90364819
_cell_formula_units_Z   1
loop_
 _symmetry_equiv_pos_site_id
 _symmetry_equiv_pos_as_xyz
  1  'x, y, z'
loop_
 _atom_site_type_symbol
 _atom_site_label
 _atom_site_symmetry_multiplicity
 _atom_site_fract_x
 _atom_site_fract_y
 _atom_site_fract_z
 _atom_site_occupancy
  Ca  Ca0  1  0.078417  0.597993  0.257960  1
  Nd  Nd1  1  0.391131  0.932140  0.743622  1
  B  B2  1  0.736923  0.260472  0.003111  1
  B  B3  1  0.534267  0.523518  0.379966  1
  B  B4  1  0.475687  0.471193  0.619439  1
  B  B5  1  0.081481  0.627258  0.811882  1
  B  B6  1  0.372114  0.917900  0.186891  1
  Os  Os7  1  0.612540  0.124987  0.901579  1
  Os  Os8  1  0.874116  0.389734  0.097404  1
  Ru  Ru9  1  0.009594  0.988533  0.498146  1
