# generated using pymatgen
data_HoTm2Lu2Pb3
_symmetry_space_group_name_H-M   'P 1'
_cell_length_a   6.49252900
_cell_length_b   8.94878307
_cell_length_c   8.94415010
_cell_angle_alpha   120.01713945
_cell_angle_beta   90.00008016
_cell_angle_gamma   89.99982347
_symmetry_Int_Tables_number   1
_chemical_formula_structural   HoTm2Lu2Pb3
_chemical_formula_sum   'Ho2 Tm4 Lu4 Pb6'
_cell_volume   449.95860007
_cell_formula_units_Z   2
loop_
 _symmetry_equiv_pos_site_id
 _symmetry_equiv_pos_as_xyz
  1  'x, y, z'
loop_
 _atom_site_type_symbol
 _atom_site_label
 _atom_site_symmetry_multiplicity
 _atom_site_fract_x
 _atom_site_fract_y
 _atom_site_fract_z
 _atom_site_occupancy
  Ho  Ho0  1  0.250002  0.236833  0.236927  1
  Ho  Ho1  1  0.250002  0.999905  0.763073  1
  Tm  Tm2  1  0.750026  0.236880  0.000000  1
  Tm  Tm3  1  0.750004  0.763110  0.763137  1
  Tm  Tm4  1  0.750004  0.999976  0.236863  1
  Tm  Tm5  1  0.249995  0.763055  0.000000  1
  Lu  Lu6  1  0.500017  0.333364  0.666717  1
  Lu  Lu7  1  0.500017  0.666647  0.333283  1
  Lu  Lu8  1  0.999963  0.666683  0.333267  1
  Lu  Lu9  1  0.999963  0.333417  0.666733  1
  Pb  Pb10  1  0.750005  0.604859  0.000000  1
  Pb  Pb11  1  0.750007  0.395082  0.395038  1
  Pb  Pb12  1  0.750007  0.000045  0.604962  1
  Pb  Pb13  1  0.250011  0.396386  0.000000  1
  Pb  Pb14  1  0.249988  0.604399  0.605040  1
  Pb  Pb15  1  0.249988  0.999357  0.394960  1
