# generated using pymatgen
data_Dy8Zn(Ga4Pd)3
_symmetry_space_group_name_H-M   'P 1'
_cell_length_a   7.09230007
_cell_length_b   8.91831219
_cell_length_c   8.92610900
_cell_angle_alpha   119.95500958
_cell_angle_beta   89.99178407
_cell_angle_gamma   90.00452639
_symmetry_Int_Tables_number   1
_chemical_formula_structural   Dy8Zn(Ga4Pd)3
_chemical_formula_sum   'Dy8 Zn1 Ga12 Pd3'
_cell_volume   489.16941648
_cell_formula_units_Z   1
loop_
 _symmetry_equiv_pos_site_id
 _symmetry_equiv_pos_as_xyz
  1  'x, y, z'
loop_
 _atom_site_type_symbol
 _atom_site_label
 _atom_site_symmetry_multiplicity
 _atom_site_fract_x
 _atom_site_fract_y
 _atom_site_fract_z
 _atom_site_occupancy
  Dy  Dy0  1  0.749838  0.999962  0.999909  1
  Dy  Dy1  1  0.246451  0.000034  0.000073  1
  Dy  Dy2  1  0.752096  0.481980  0.518009  1
  Dy  Dy3  1  0.248060  0.513912  0.486140  1
  Dy  Dy4  1  0.752102  0.036049  0.518020  1
  Dy  Dy5  1  0.248069  0.972255  0.486177  1
  Dy  Dy6  1  0.752132  0.481969  0.963940  1
  Dy  Dy7  1  0.248104  0.513834  0.027716  1
  Zn  Zn8  1  0.559899  0.666662  0.333336  1
  Ga  Ga9  1  0.960574  0.832025  0.167979  1
  Ga  Ga10  1  0.037300  0.167108  0.832891  1
  Ga  Ga11  1  0.960588  0.335950  0.167983  1
  Ga  Ga12  1  0.459135  0.167055  0.832965  1
  Ga  Ga13  1  0.037321  0.665770  0.832881  1
  Ga  Ga14  1  0.535361  0.833414  0.166552  1
  Ga  Ga15  1  0.960642  0.832017  0.664042  1
  Ga  Ga16  1  0.459097  0.665900  0.832954  1
  Ga  Ga17  1  0.037351  0.167113  0.334223  1
  Ga  Ga18  1  0.535305  0.333133  0.166545  1
  Ga  Ga19  1  0.459097  0.167063  0.334119  1
  Ga  Ga20  1  0.535272  0.833472  0.666927  1
  Pd  Pd21  1  0.970085  0.666688  0.333398  1
  Pd  Pd22  1  0.030622  0.333320  0.666605  1
  Pd  Pd23  1  0.465501  0.333318  0.666613  1
