# generated using pymatgen
data_LuPa3(SnPt2)2
_symmetry_space_group_name_H-M   'P 1'
_cell_length_a   7.78226686
_cell_length_b   7.78226686
_cell_length_c   3.67712400
_cell_angle_alpha   90.00000000
_cell_angle_beta   90.00000000
_cell_angle_gamma   90.05371571
_symmetry_Int_Tables_number   1
_chemical_formula_structural   LuPa3(SnPt2)2
_chemical_formula_sum   'Lu1 Pa3 Sn2 Pt4'
_cell_volume   222.70005384
_cell_formula_units_Z   1
loop_
 _symmetry_equiv_pos_site_id
 _symmetry_equiv_pos_as_xyz
  1  'x, y, z'
loop_
 _atom_site_type_symbol
 _atom_site_label
 _atom_site_symmetry_multiplicity
 _atom_site_fract_x
 _atom_site_fract_y
 _atom_site_fract_z
 _atom_site_occupancy
  Lu  Lu0  1  0.672995  0.827005  0.500000  1
  Pa  Pa1  1  0.330671  0.169329  0.500000  1
  Pa  Pa2  1  0.826117  0.327916  0.500000  1
  Pa  Pa3  1  0.172084  0.673883  0.500000  1
  Sn  Sn4  1  0.991558  0.996102  0.000000  1
  Sn  Sn5  1  0.503898  0.508442  0.000000  1
  Pt  Pt6  1  0.627346  0.133465  0.000000  1
  Pt  Pt7  1  0.132893  0.367108  0.000000  1
  Pt  Pt8  1  0.875904  0.624097  0.000000  1
  Pt  Pt9  1  0.366536  0.872655  0.000000  1
