# generated using pymatgen
data_Hf8Zr7Ta5Ge16
_symmetry_space_group_name_H-M   'P 1'
_cell_length_a   7.19623406
_cell_length_b   7.19360211
_cell_length_c   13.17640500
_cell_angle_alpha   90.18854367
_cell_angle_beta   90.11326623
_cell_angle_gamma   89.98760838
_symmetry_Int_Tables_number   1
_chemical_formula_structural   Hf8Zr7Ta5Ge16
_chemical_formula_sum   'Hf8 Zr7 Ta5 Ge16'
_cell_volume   682.09586783
_cell_formula_units_Z   1
loop_
 _symmetry_equiv_pos_site_id
 _symmetry_equiv_pos_as_xyz
  1  'x, y, z'
loop_
 _atom_site_type_symbol
 _atom_site_label
 _atom_site_symmetry_multiplicity
 _atom_site_fract_x
 _atom_site_fract_y
 _atom_site_fract_z
 _atom_site_occupancy
  Hf  Hf0  1  0.847373  0.997341  0.373086  1
  Hf  Hf1  1  0.005061  0.153431  0.127814  1
  Hf  Hf2  1  0.996086  0.845614  0.626531  1
  Hf  Hf3  1  0.653432  0.496853  0.877106  1
  Hf  Hf4  1  0.502518  0.345678  0.623594  1
  Hf  Hf5  1  0.498045  0.653058  0.122775  1
  Hf  Hf6  1  0.152890  0.003754  0.873268  1
  Hf  Hf7  1  0.002875  0.656620  0.026954  1
  Zr  Zr8  1  0.000488  0.343270  0.524767  1
  Zr  Zr9  1  0.657807  0.999538  0.974097  1
  Zr  Zr10  1  0.154850  0.499915  0.776361  1
  Zr  Zr11  1  0.844929  0.499323  0.277506  1
  Zr  Zr12  1  0.499599  0.158803  0.224990  1
  Zr  Zr13  1  0.499273  0.842602  0.722108  1
  Zr  Zr14  1  0.341331  0.999050  0.473058  1
  Ta  Ta15  1  0.346709  0.507609  0.375573  1
  Ta  Ta16  1  0.669033  0.669995  0.498635  1
  Ta  Ta17  1  0.826917  0.172122  0.750159  1
  Ta  Ta18  1  0.174894  0.826359  0.250975  1
  Ta  Ta19  1  0.328462  0.328058  0.000951  1
  Ge  Ge20  1  0.040285  0.699221  0.431665  1
  Ge  Ge21  1  0.962897  0.303044  0.932501  1
  Ge  Ge22  1  0.697811  0.038008  0.567907  1
  Ge  Ge23  1  0.199861  0.462753  0.182488  1
  Ge  Ge24  1  0.801080  0.537017  0.680915  1
  Ge  Ge25  1  0.462363  0.197457  0.818844  1
  Ge  Ge26  1  0.538390  0.800317  0.318276  1
  Ge  Ge27  1  0.302710  0.961776  0.068826  1
  Ge  Ge28  1  0.856934  0.802502  0.827136  1
  Ge  Ge29  1  0.142426  0.202901  0.328430  1
  Ge  Ge30  1  0.805165  0.856066  0.172518  1
  Ge  Ge31  1  0.301827  0.640693  0.574582  1
  Ge  Ge32  1  0.698285  0.356621  0.077188  1
  Ge  Ge33  1  0.636504  0.303715  0.421877  1
  Ge  Ge34  1  0.355828  0.696132  0.923532  1
  Ge  Ge35  1  0.195063  0.142782  0.673002  1
