# generated using pymatgen
data_Y2Pa2Tc7Os
_symmetry_space_group_name_H-M   'P 1'
_cell_length_a   5.23434100
_cell_length_b   5.23434188
_cell_length_c   9.32436500
_cell_angle_alpha   90.00000000
_cell_angle_beta   90.00000000
_cell_angle_gamma   120.00000079
_symmetry_Int_Tables_number   1
_chemical_formula_structural   Y2Pa2Tc7Os
_chemical_formula_sum   'Y2 Pa2 Tc7 Os1'
_cell_volume   221.24526789
_cell_formula_units_Z   1
loop_
 _symmetry_equiv_pos_site_id
 _symmetry_equiv_pos_as_xyz
  1  'x, y, z'
loop_
 _atom_site_type_symbol
 _atom_site_label
 _atom_site_symmetry_multiplicity
 _atom_site_fract_x
 _atom_site_fract_y
 _atom_site_fract_z
 _atom_site_occupancy
  Y  Y0  1  0.666667  0.333333  0.935701  1
  Y  Y1  1  0.333333  0.666667  0.064299  1
  Pa  Pa2  1  0.333333  0.666667  0.439770  1
  Pa  Pa3  1  0.666667  0.333333  0.560230  1
  Tc  Tc4  1  0.000000  0.000000  0.500000  1
  Tc  Tc5  1  0.829746  0.170254  0.247512  1
  Tc  Tc6  1  0.829746  0.659491  0.247512  1
  Tc  Tc7  1  0.340509  0.170254  0.247512  1
  Tc  Tc8  1  0.170254  0.829746  0.752488  1
  Tc  Tc9  1  0.170254  0.340509  0.752488  1
  Tc  Tc10  1  0.659491  0.829746  0.752488  1
  Os  Os11  1  0.000000  0.000000  0.000000  1
