# generated using pymatgen
data_SmYTh2(Fe2I)2
_symmetry_space_group_name_H-M   'P 1'
_cell_length_a   3.99347800
_cell_length_b   3.99347902
_cell_length_c   17.65779700
_cell_angle_alpha   90.00000000
_cell_angle_beta   90.00000000
_cell_angle_gamma   120.00000810
_symmetry_Int_Tables_number   1
_chemical_formula_structural   SmYTh2(Fe2I)2
_chemical_formula_sum   'Sm1 Y1 Th2 Fe4 I2'
_cell_volume   243.87642474
_cell_formula_units_Z   1
loop_
 _symmetry_equiv_pos_site_id
 _symmetry_equiv_pos_as_xyz
  1  'x, y, z'
loop_
 _atom_site_type_symbol
 _atom_site_label
 _atom_site_symmetry_multiplicity
 _atom_site_fract_x
 _atom_site_fract_y
 _atom_site_fract_z
 _atom_site_occupancy
  Sm  Sm0  1  0.000000  0.000000  0.109434  1
  Y  Y1  1  0.000000  0.000000  0.392170  1
  Th  Th2  1  0.000000  0.000000  0.598669  1
  Th  Th3  1  0.000000  0.000000  0.900044  1
  Fe  Fe4  1  0.666667  0.333333  0.001217  1
  Fe  Fe5  1  0.333333  0.666667  0.496223  1
  Fe  Fe6  1  0.666667  0.333333  0.497890  1
  Fe  Fe7  1  0.333333  0.666667  0.001553  1
  I  I8  1  0.666667  0.333333  0.253239  1
  I  I9  1  0.333333  0.666667  0.749561  1
