# generated using pymatgen
data_Hf6Ti2Bi9
_symmetry_space_group_name_H-M   'P 1'
_cell_length_a   10.67393400
_cell_length_b   10.67393400
_cell_length_c   7.59374800
_cell_angle_alpha   90.00000000
_cell_angle_beta   90.00000000
_cell_angle_gamma   90.00000000
_symmetry_Int_Tables_number   1
_chemical_formula_structural   Hf6Ti2Bi9
_chemical_formula_sum   'Hf12 Ti4 Bi18'
_cell_volume   865.17748119
_cell_formula_units_Z   2
loop_
 _symmetry_equiv_pos_site_id
 _symmetry_equiv_pos_as_xyz
  1  'x, y, z'
loop_
 _atom_site_type_symbol
 _atom_site_label
 _atom_site_symmetry_multiplicity
 _atom_site_fract_x
 _atom_site_fract_y
 _atom_site_fract_z
 _atom_site_occupancy
  Hf  Hf0  1  0.250000  0.250000  0.083138  1
  Hf  Hf1  1  0.603926  0.250000  0.151416  1
  Hf  Hf2  1  0.896074  0.250000  0.151416  1
  Hf  Hf3  1  0.250000  0.603926  0.151416  1
  Hf  Hf4  1  0.250000  0.896074  0.151416  1
  Hf  Hf5  1  0.750000  0.750000  0.437286  1
  Hf  Hf6  1  0.250000  0.250000  0.562714  1
  Hf  Hf7  1  0.750000  0.103926  0.848584  1
  Hf  Hf8  1  0.750000  0.396074  0.848584  1
  Hf  Hf9  1  0.103926  0.750000  0.848584  1
  Hf  Hf10  1  0.396074  0.750000  0.848584  1
  Hf  Hf11  1  0.750000  0.750000  0.916862  1
  Ti  Ti12  1  0.000000  0.000000  0.000000  1
  Ti  Ti13  1  0.500000  0.000000  0.000000  1
  Ti  Ti14  1  0.000000  0.500000  0.000000  1
  Ti  Ti15  1  0.500000  0.500000  0.000000  1
  Bi  Bi16  1  0.750000  0.517425  0.194930  1
  Bi  Bi17  1  0.517425  0.750000  0.194930  1
  Bi  Bi18  1  0.982575  0.750000  0.194930  1
  Bi  Bi19  1  0.750000  0.982575  0.194930  1
  Bi  Bi20  1  0.080771  0.080771  0.345827  1
  Bi  Bi21  1  0.419229  0.080771  0.345827  1
  Bi  Bi22  1  0.080771  0.419229  0.345827  1
  Bi  Bi23  1  0.419229  0.419229  0.345827  1
  Bi  Bi24  1  0.750000  0.250000  0.499999  1
  Bi  Bi25  1  0.250000  0.750000  0.499999  1
  Bi  Bi26  1  0.580771  0.580771  0.654173  1
  Bi  Bi27  1  0.919229  0.580771  0.654173  1
  Bi  Bi28  1  0.580771  0.919229  0.654173  1
  Bi  Bi29  1  0.919229  0.919229  0.654173  1
  Bi  Bi30  1  0.250000  0.017425  0.805070  1
  Bi  Bi31  1  0.017425  0.250000  0.805070  1
  Bi  Bi32  1  0.482576  0.250000  0.805070  1
  Bi  Bi33  1  0.250000  0.482576  0.805070  1
