# generated using pymatgen
data_Nb3Se3S
_symmetry_space_group_name_H-M   'P 1'
_cell_length_a   10.00325500
_cell_length_b   10.00325529
_cell_length_c   3.42750800
_cell_angle_alpha   90.00000000
_cell_angle_beta   90.00000000
_cell_angle_gamma   119.99999661
_symmetry_Int_Tables_number   1
_chemical_formula_structural   Nb3Se3S
_chemical_formula_sum   'Nb6 Se6 S2'
_cell_volume   297.02418717
_cell_formula_units_Z   2
loop_
 _symmetry_equiv_pos_site_id
 _symmetry_equiv_pos_as_xyz
  1  'x, y, z'
loop_
 _atom_site_type_symbol
 _atom_site_label
 _atom_site_symmetry_multiplicity
 _atom_site_fract_x
 _atom_site_fract_y
 _atom_site_fract_z
 _atom_site_occupancy
  Nb  Nb0  1  0.506908  0.884614  0.750000  1
  Nb  Nb1  1  0.622294  0.506908  0.250000  1
  Nb  Nb2  1  0.884614  0.377706  0.250000  1
  Nb  Nb3  1  0.115386  0.622294  0.750000  1
  Nb  Nb4  1  0.377706  0.493092  0.750000  1
  Nb  Nb5  1  0.493092  0.115386  0.250000  1
  Se  Se6  1  0.663622  0.719655  0.750000  1
  Se  Se7  1  0.943967  0.663622  0.250000  1
  Se  Se8  1  0.719655  0.056033  0.250000  1
  Se  Se9  1  0.280345  0.943967  0.750000  1
  Se  Se10  1  0.056033  0.336378  0.750000  1
  Se  Se11  1  0.336378  0.280345  0.250000  1
  S  S12  1  0.333333  0.666667  0.250000  1
  S  S13  1  0.666667  0.333333  0.750000  1
