# generated using pymatgen
data_Zr2Co12GeP6
_symmetry_space_group_name_H-M   'P 1'
_cell_length_a   8.98380500
_cell_length_b   8.98380458
_cell_length_c   3.55868500
_cell_angle_alpha   90.00000000
_cell_angle_beta   90.00000000
_cell_angle_gamma   120.00000622
_symmetry_Int_Tables_number   1
_chemical_formula_structural   Zr2Co12GeP6
_chemical_formula_sum   'Zr2 Co12 Ge1 P6'
_cell_volume   248.73721374
_cell_formula_units_Z   1
loop_
 _symmetry_equiv_pos_site_id
 _symmetry_equiv_pos_as_xyz
  1  'x, y, z'
loop_
 _atom_site_type_symbol
 _atom_site_label
 _atom_site_symmetry_multiplicity
 _atom_site_fract_x
 _atom_site_fract_y
 _atom_site_fract_z
 _atom_site_occupancy
  Zr  Zr0  1  0.333333  0.666667  0.000000  1
  Zr  Zr1  1  0.666667  0.333333  0.500000  1
  Co  Co2  1  0.439494  0.064346  0.000000  1
  Co  Co3  1  0.935654  0.375149  0.000000  1
  Co  Co4  1  0.624851  0.560506  0.000000  1
  Co  Co5  1  0.387752  0.441427  0.500000  1
  Co  Co6  1  0.558573  0.946324  0.500000  1
  Co  Co7  1  0.053676  0.612248  0.500000  1
  Co  Co8  1  0.164753  0.290781  0.000000  1
  Co  Co9  1  0.709219  0.873971  0.000000  1
  Co  Co10  1  0.126029  0.835247  0.000000  1
  Co  Co11  1  0.249442  0.109574  0.500000  1
  Co  Co12  1  0.890426  0.139867  0.500000  1
  Co  Co13  1  0.860133  0.750558  0.500000  1
  Ge  Ge14  1  0.000000  0.000000  0.000000  1
  P  P15  1  0.116216  0.406320  0.500000  1
  P  P16  1  0.593680  0.709896  0.500000  1
  P  P17  1  0.290104  0.883784  0.500000  1
  P  P18  1  0.409141  0.292738  0.000000  1
  P  P19  1  0.707262  0.116404  0.000000  1
  P  P20  1  0.883596  0.590859  0.000000  1
