# generated using pymatgen
data_ErThAl3Re
_symmetry_space_group_name_H-M   'P 1'
_cell_length_a   5.51316900
_cell_length_b   5.51316890
_cell_length_c   9.07940400
_cell_angle_alpha   90.00000000
_cell_angle_beta   90.00000000
_cell_angle_gamma   120.00000663
_symmetry_Int_Tables_number   1
_chemical_formula_structural   ErThAl3Re
_chemical_formula_sum   'Er2 Th2 Al6 Re2'
_cell_volume   238.99595274
_cell_formula_units_Z   2
loop_
 _symmetry_equiv_pos_site_id
 _symmetry_equiv_pos_as_xyz
  1  'x, y, z'
loop_
 _atom_site_type_symbol
 _atom_site_label
 _atom_site_symmetry_multiplicity
 _atom_site_fract_x
 _atom_site_fract_y
 _atom_site_fract_z
 _atom_site_occupancy
  Er  Er0  1  0.666667  0.333333  0.443136  1
  Er  Er1  1  0.333333  0.666667  0.556864  1
  Th  Th2  1  0.333333  0.666667  0.956269  1
  Th  Th3  1  0.666667  0.333333  0.043731  1
  Al  Al4  1  0.675012  0.837506  0.257491  1
  Al  Al5  1  0.162494  0.837506  0.257491  1
  Al  Al6  1  0.162494  0.324988  0.257491  1
  Al  Al7  1  0.324988  0.162494  0.742509  1
  Al  Al8  1  0.837506  0.162494  0.742509  1
  Al  Al9  1  0.837506  0.675012  0.742509  1
  Re  Re10  1  0.000000  0.000000  0.500000  1
  Re  Re11  1  0.000000  0.000000  0.000000  1
