# generated using pymatgen
data_Pr4OsCl4
_symmetry_space_group_name_H-M   'P 1'
_cell_length_a   9.08302283
_cell_length_b   9.08302406
_cell_length_c   6.72772245
_cell_angle_alpha   90.28211604
_cell_angle_beta   90.28212267
_cell_angle_gamma   89.70250973
_symmetry_Int_Tables_number   1
_chemical_formula_structural   Pr4OsCl4
_chemical_formula_sum   'Pr8 Os2 Cl8'
_cell_volume   555.02507886
_cell_formula_units_Z   2
loop_
 _symmetry_equiv_pos_site_id
 _symmetry_equiv_pos_as_xyz
  1  'x, y, z'
loop_
 _atom_site_type_symbol
 _atom_site_label
 _atom_site_symmetry_multiplicity
 _atom_site_fract_x
 _atom_site_fract_y
 _atom_site_fract_z
 _atom_site_occupancy
  Pr  Pr0  1  0.104582  0.741810  0.987726  1
  Pr  Pr1  1  0.258190  0.895418  0.512274  1
  Pr  Pr2  1  0.895418  0.258190  0.012274  1
  Pr  Pr3  1  0.741810  0.104582  0.487726  1
  Pr  Pr4  1  0.742599  0.895564  0.999597  1
  Pr  Pr5  1  0.104436  0.257401  0.500403  1
  Pr  Pr6  1  0.257401  0.104436  0.000403  1
  Pr  Pr7  1  0.895564  0.742599  0.499597  1
  Os  Os8  1  0.003784  0.996216  0.250000  1
  Os  Os9  1  0.996216  0.003784  0.750000  1
  Cl  Cl10  1  0.411168  0.824306  0.920539  1
  Cl  Cl11  1  0.175694  0.588832  0.579461  1
  Cl  Cl12  1  0.588832  0.175694  0.079461  1
  Cl  Cl13  1  0.824306  0.411168  0.420539  1
  Cl  Cl14  1  0.822339  0.589431  0.918133  1
  Cl  Cl15  1  0.410569  0.177661  0.581867  1
  Cl  Cl16  1  0.177661  0.410569  0.081867  1
  Cl  Cl17  1  0.589431  0.822339  0.418133  1
