# generated using pymatgen
data_Ta9Ti3Al8(CoN)4
_symmetry_space_group_name_H-M   'P 1'
_cell_length_a   8.10995795
_cell_length_b   8.11370124
_cell_length_c   8.13069424
_cell_angle_alpha   59.90022508
_cell_angle_beta   60.05672074
_cell_angle_gamma   60.15391801
_symmetry_Int_Tables_number   1
_chemical_formula_structural   Ta9Ti3Al8(CoN)4
_chemical_formula_sum   'Ta9 Ti3 Al8 Co4 N4'
_cell_volume   378.62523601
_cell_formula_units_Z   1
loop_
 _symmetry_equiv_pos_site_id
 _symmetry_equiv_pos_as_xyz
  1  'x, y, z'
loop_
 _atom_site_type_symbol
 _atom_site_label
 _atom_site_symmetry_multiplicity
 _atom_site_fract_x
 _atom_site_fract_y
 _atom_site_fract_z
 _atom_site_occupancy
  Ta  Ta0  1  0.310829  0.689171  0.310829  1
  Ta  Ta1  1  0.688855  0.688199  0.312645  1
  Ta  Ta2  1  0.312645  0.310301  0.688855  1
  Ta  Ta3  1  0.562065  0.560613  0.937611  1
  Ta  Ta4  1  0.937925  0.560476  0.561430  1
  Ta  Ta5  1  0.561430  0.940168  0.937925  1
  Ta  Ta6  1  0.937611  0.939710  0.562065  1
  Ta  Ta7  1  0.687900  0.312100  0.687900  1
  Ta  Ta8  1  0.938267  0.561733  0.938267  1
  Ti  Ti9  1  0.563600  0.936400  0.563600  1
  Ti  Ti10  1  0.314853  0.685412  0.686947  1
  Ti  Ti11  1  0.686947  0.312788  0.314853  1
  Al  Al12  1  0.919491  0.918175  0.917907  1
  Al  Al13  1  0.003138  0.331312  0.331344  1
  Al  Al14  1  0.331468  0.004023  0.334608  1
  Al  Al15  1  0.331344  0.334204  0.003138  1
  Al  Al16  1  0.917907  0.244429  0.919491  1
  Al  Al17  1  0.915254  0.919639  0.246941  1
  Al  Al18  1  0.246941  0.918169  0.915254  1
  Al  Al19  1  0.334608  0.329899  0.331468  1
  Co  Co20  1  0.126025  0.123805  0.125000  1
  Co  Co21  1  0.624390  0.124663  0.123928  1
  Co  Co22  1  0.125000  0.625170  0.126025  1
  Co  Co23  1  0.123928  0.127019  0.624390  1
  N  N24  1  0.620929  0.629797  0.624534  1
  N  N25  1  0.127677  0.625806  0.624437  1
  N  N26  1  0.624534  0.124740  0.620929  1
  N  N27  1  0.624437  0.622079  0.127677  1
