# generated using pymatgen
data_Er5Ti3(Co4As3)4
_symmetry_space_group_name_H-M   'P 1'
_cell_length_a   12.55794100
_cell_length_b   12.55794181
_cell_length_c   3.78857200
_cell_angle_alpha   90.00000000
_cell_angle_beta   90.00000000
_cell_angle_gamma   120.00000576
_symmetry_Int_Tables_number   1
_chemical_formula_structural   Er5Ti3(Co4As3)4
_chemical_formula_sum   'Er5 Ti3 Co16 As12'
_cell_volume   517.41981522
_cell_formula_units_Z   1
loop_
 _symmetry_equiv_pos_site_id
 _symmetry_equiv_pos_as_xyz
  1  'x, y, z'
loop_
 _atom_site_type_symbol
 _atom_site_label
 _atom_site_symmetry_multiplicity
 _atom_site_fract_x
 _atom_site_fract_y
 _atom_site_fract_z
 _atom_site_occupancy
  Er  Er0  1  0.185453  0.185453  0.500000  1
  Er  Er1  1  0.814547  0.000000  0.500000  1
  Er  Er2  1  0.000000  0.814547  0.500000  1
  Er  Er3  1  0.333333  0.666667  0.000000  1
  Er  Er4  1  0.666667  0.333333  0.000000  1
  Ti  Ti5  1  0.563184  0.563184  0.000000  1
  Ti  Ti6  1  0.436816  0.000000  0.000000  1
  Ti  Ti7  1  0.000000  0.436816  0.000000  1
  Co  Co8  1  0.716495  0.716495  0.500000  1
  Co  Co9  1  0.283505  0.000000  0.500000  1
  Co  Co10  1  0.000000  0.283505  0.500000  1
  Co  Co11  1  0.177019  0.375758  0.000000  1
  Co  Co12  1  0.624242  0.801261  0.000000  1
  Co  Co13  1  0.198739  0.822981  0.000000  1
  Co  Co14  1  0.801261  0.624242  0.000000  1
  Co  Co15  1  0.822981  0.198739  0.000000  1
  Co  Co16  1  0.375758  0.177019  0.000000  1
  Co  Co17  1  0.355576  0.479649  0.500000  1
  Co  Co18  1  0.520351  0.875927  0.500000  1
  Co  Co19  1  0.124073  0.644424  0.500000  1
  Co  Co20  1  0.875927  0.520351  0.500000  1
  Co  Co21  1  0.644424  0.124073  0.500000  1
  Co  Co22  1  0.479649  0.355576  0.500000  1
  Co  Co23  1  0.000000  0.000000  0.000000  1
  As  As24  1  0.822081  0.822081  0.000000  1
  As  As25  1  0.177919  0.000000  0.000000  1
  As  As26  1  0.000000  0.177919  0.000000  1
  As  As27  1  0.169049  0.483750  0.500000  1
  As  As28  1  0.516250  0.685300  0.500000  1
  As  As29  1  0.314700  0.830951  0.500000  1
  As  As30  1  0.685300  0.516250  0.500000  1
  As  As31  1  0.830951  0.314700  0.500000  1
  As  As32  1  0.483750  0.169049  0.500000  1
  As  As33  1  0.358450  0.358450  0.000000  1
  As  As34  1  0.641550  0.000000  0.000000  1
  As  As35  1  0.000000  0.641550  0.000000  1
