# generated using pymatgen
data_Zr6Zn22SiRu
_symmetry_space_group_name_H-M   'P 1'
_cell_length_a   8.76506702
_cell_length_b   8.76506688
_cell_length_c   8.76506700
_cell_angle_alpha   60.00000330
_cell_angle_beta   60.00000385
_cell_angle_gamma   59.99999548
_symmetry_Int_Tables_number   1
_chemical_formula_structural   Zr6Zn22SiRu
_chemical_formula_sum   'Zr6 Zn22 Si1 Ru1'
_cell_volume   476.15760618
_cell_formula_units_Z   1
loop_
 _symmetry_equiv_pos_site_id
 _symmetry_equiv_pos_as_xyz
  1  'x, y, z'
loop_
 _atom_site_type_symbol
 _atom_site_label
 _atom_site_symmetry_multiplicity
 _atom_site_fract_x
 _atom_site_fract_y
 _atom_site_fract_z
 _atom_site_occupancy
  Zr  Zr0  1  0.711518  0.288482  0.288482  1
  Zr  Zr1  1  0.288482  0.711518  0.711518  1
  Zr  Zr2  1  0.288482  0.711518  0.288482  1
  Zr  Zr3  1  0.711518  0.288482  0.711518  1
  Zr  Zr4  1  0.288482  0.288482  0.711518  1
  Zr  Zr5  1  0.711518  0.711518  0.288482  1
  Zn  Zn6  1  0.120751  0.120751  0.120751  1
  Zn  Zn7  1  0.879249  0.879249  0.879249  1
  Zn  Zn8  1  0.120751  0.120751  0.637747  1
  Zn  Zn9  1  0.120751  0.637747  0.120751  1
  Zn  Zn10  1  0.879249  0.879249  0.362253  1
  Zn  Zn11  1  0.879249  0.362253  0.879249  1
  Zn  Zn12  1  0.637747  0.120751  0.120751  1
  Zn  Zn13  1  0.362253  0.879249  0.879249  1
  Zn  Zn14  1  0.500000  0.000000  0.000000  1
  Zn  Zn15  1  0.000000  0.500000  0.500000  1
  Zn  Zn16  1  0.000000  0.500000  0.000000  1
  Zn  Zn17  1  0.500000  0.000000  0.500000  1
  Zn  Zn18  1  0.000000  0.000000  0.500000  1
  Zn  Zn19  1  0.500000  0.500000  0.000000  1
  Zn  Zn20  1  0.336456  0.336456  0.336456  1
  Zn  Zn21  1  0.663544  0.663544  0.663544  1
  Zn  Zn22  1  0.336456  0.336456  0.990631  1
  Zn  Zn23  1  0.336456  0.990631  0.336456  1
  Zn  Zn24  1  0.663544  0.663544  0.009369  1
  Zn  Zn25  1  0.663544  0.009369  0.663544  1
  Zn  Zn26  1  0.990631  0.336456  0.336456  1
  Zn  Zn27  1  0.009369  0.663544  0.663544  1
  Si  Si28  1  0.500000  0.500000  0.500000  1
  Ru  Ru29  1  0.000000  0.000000  0.000000  1
