# generated using pymatgen
data_Mg7Np(FeB6)4
_symmetry_space_group_name_H-M   'P 1'
_cell_length_a   8.79041100
_cell_length_b   11.05056100
_cell_length_c   3.32449000
_cell_angle_alpha   90.00000000
_cell_angle_beta   90.00000000
_cell_angle_gamma   90.00170714
_symmetry_Int_Tables_number   1
_chemical_formula_structural   Mg7Np(FeB6)4
_chemical_formula_sum   'Mg7 Np1 Fe4 B24'
_cell_volume   322.93754418
_cell_formula_units_Z   1
loop_
 _symmetry_equiv_pos_site_id
 _symmetry_equiv_pos_as_xyz
  1  'x, y, z'
loop_
 _atom_site_type_symbol
 _atom_site_label
 _atom_site_symmetry_multiplicity
 _atom_site_fract_x
 _atom_site_fract_y
 _atom_site_fract_z
 _atom_site_occupancy
  Mg  Mg0  1  0.442552  0.131309  0.000000  1
  Mg  Mg1  1  0.944153  0.371383  0.000000  1
  Mg  Mg2  1  0.328093  0.416371  0.000000  1
  Mg  Mg3  1  0.670527  0.586241  0.000000  1
  Mg  Mg4  1  0.058029  0.631216  0.000000  1
  Mg  Mg5  1  0.555385  0.867223  0.000000  1
  Mg  Mg6  1  0.175110  0.911969  0.000000  1
  Np  Np7  1  0.823066  0.085333  0.000000  1
  Fe  Fe8  1  0.139019  0.180730  0.000000  1
  Fe  Fe9  1  0.643589  0.317203  0.000000  1
  Fe  Fe10  1  0.359900  0.678940  0.000000  1
  Fe  Fe11  1  0.858237  0.819202  0.000000  1
  B  B12  1  0.593782  0.025237  0.500001  1
  B  B13  1  0.056842  0.066112  0.500001  1
  B  B14  1  0.254135  0.081377  0.500001  1
  B  B15  1  0.630280  0.184110  0.500001  1
  B  B16  1  0.984631  0.212428  0.500001  1
  B  B17  1  0.294398  0.237544  0.500001  1
  B  B18  1  0.793722  0.265938  0.500001  1
  B  B19  1  0.481947  0.289760  0.500001  1
  B  B20  1  0.132022  0.318796  0.500001  1
  B  B21  1  0.752714  0.421375  0.500001  1
  B  B22  1  0.555599  0.434150  0.500001  1
  B  B23  1  0.095093  0.474935  0.500001  1
  B  B24  1  0.904906  0.526422  0.500001  1
  B  B25  1  0.444715  0.565812  0.500001  1
  B  B26  1  0.246413  0.581356  0.500001  1
  B  B27  1  0.869424  0.682477  0.500001  1
  B  B28  1  0.517289  0.711192  0.500001  1
  B  B29  1  0.205943  0.737653  0.500001  1
  B  B30  1  0.704788  0.760892  0.500001  1
  B  B31  1  0.018531  0.787220  0.500001  1
  B  B32  1  0.368809  0.817209  0.500001  1
  B  B33  1  0.747108  0.916045  0.500001  1
  B  B34  1  0.945230  0.931108  0.500001  1
  B  B35  1  0.404012  0.973723  0.500001  1
