# generated using pymatgen
data_ScTi5Si6Tc5Os
_symmetry_space_group_name_H-M   'P 1'
_cell_length_a   7.56258028
_cell_length_b   7.55422243
_cell_length_c   7.56028326
_cell_angle_alpha   126.27207376
_cell_angle_beta   128.80241907
_cell_angle_gamma   77.40721983
_symmetry_Int_Tables_number   1
_chemical_formula_structural   ScTi5Si6Tc5Os
_chemical_formula_sum   'Sc1 Ti5 Si6 Tc5 Os1'
_cell_volume   263.23154680
_cell_formula_units_Z   1
loop_
 _symmetry_equiv_pos_site_id
 _symmetry_equiv_pos_as_xyz
  1  'x, y, z'
loop_
 _atom_site_type_symbol
 _atom_site_label
 _atom_site_symmetry_multiplicity
 _atom_site_fract_x
 _atom_site_fract_y
 _atom_site_fract_z
 _atom_site_occupancy
  Sc  Sc0  1  0.451788  0.407826  0.456576  1
  Ti  Ti1  1  0.549854  0.004889  0.957684  1
  Ti  Ti2  1  0.049998  0.004417  0.452468  1
  Ti  Ti3  1  0.951443  0.409610  0.957072  1
  Ti  Ti4  1  0.251457  0.598204  0.847995  1
  Ti  Ti5  1  0.746277  0.597223  0.349187  1
  Si  Si6  1  0.251199  0.002184  0.252658  1
  Si  Si7  1  0.747620  0.001618  0.752156  1
  Si  Si8  1  0.160717  0.673796  0.502143  1
  Si  Si9  1  0.840221  0.336155  0.507296  1
  Si  Si10  1  0.672412  0.672211  0.011620  1
  Si  Si11  1  0.327373  0.334514  0.995375  1
  Tc  Tc12  1  0.997519  0.263149  0.262090  1
  Tc  Tc13  1  0.500110  0.262858  0.766130  1
  Tc  Tc14  1  0.365920  0.743424  0.369344  1
  Tc  Tc15  1  0.634595  0.000727  0.373721  1
  Tc  Tc16  1  0.875273  0.744293  0.877524  1
  Os  Os17  1  0.126223  0.000904  0.866961  1
