# generated using pymatgen
data_Y16AlHg3Pt4
_symmetry_space_group_name_H-M   'P 1'
_cell_length_a   9.66890734
_cell_length_b   9.67849290
_cell_length_c   9.67849300
_cell_angle_alpha   60.00000307
_cell_angle_beta   59.96720307
_cell_angle_gamma   59.96720713
_symmetry_Int_Tables_number   1
_chemical_formula_structural   Y16AlHg3Pt4
_chemical_formula_sum   'Y16 Al1 Hg3 Pt4'
_cell_volume   640.12152462
_cell_formula_units_Z   1
loop_
 _symmetry_equiv_pos_site_id
 _symmetry_equiv_pos_as_xyz
  1  'x, y, z'
loop_
 _atom_site_type_symbol
 _atom_site_label
 _atom_site_symmetry_multiplicity
 _atom_site_fract_x
 _atom_site_fract_y
 _atom_site_fract_z
 _atom_site_occupancy
  Y  Y0  1  0.354904  0.356087  0.356087  1
  Y  Y1  1  0.354904  0.356087  0.932922  1
  Y  Y2  1  0.354904  0.932922  0.356087  1
  Y  Y3  1  0.931909  0.356031  0.356031  1
  Y  Y4  1  0.811111  0.189091  0.189091  1
  Y  Y5  1  0.189029  0.809400  0.809400  1
  Y  Y6  1  0.189029  0.809400  0.192172  1
  Y  Y7  1  0.811111  0.189091  0.810707  1
  Y  Y8  1  0.189029  0.192172  0.809400  1
  Y  Y9  1  0.811111  0.810707  0.189091  1
  Y  Y10  1  0.936237  0.564995  0.564995  1
  Y  Y11  1  0.562706  0.936371  0.936371  1
  Y  Y12  1  0.562706  0.936371  0.564552  1
  Y  Y13  1  0.936237  0.564995  0.933772  1
  Y  Y14  1  0.562706  0.564552  0.936371  1
  Y  Y15  1  0.936237  0.933772  0.564995  1
  Al  Al16  1  0.254769  0.581743  0.581743  1
  Hg  Hg17  1  0.584228  0.587476  0.587476  1
  Hg  Hg18  1  0.584228  0.587476  0.240820  1
  Hg  Hg19  1  0.584228  0.240820  0.587476  1
  Pt  Pt20  1  0.144292  0.144084  0.144084  1
  Pt  Pt21  1  0.144292  0.144084  0.567541  1
  Pt  Pt22  1  0.144292  0.567541  0.144084  1
  Pt  Pt23  1  0.565805  0.144731  0.144731  1
