# generated using pymatgen
data_Y2Fe3Co(PC)2
_symmetry_space_group_name_H-M   'P 1'
_cell_length_a   5.50322492
_cell_length_b   5.50322495
_cell_length_c   6.68891651
_cell_angle_alpha   89.81794469
_cell_angle_beta   90.18205749
_cell_angle_gamma   141.06389188
_symmetry_Int_Tables_number   1
_chemical_formula_structural   Y2Fe3Co(PC)2
_chemical_formula_sum   'Y2 Fe3 Co1 P2 C2'
_cell_volume   127.30952783
_cell_formula_units_Z   1
loop_
 _symmetry_equiv_pos_site_id
 _symmetry_equiv_pos_as_xyz
  1  'x, y, z'
loop_
 _atom_site_type_symbol
 _atom_site_label
 _atom_site_symmetry_multiplicity
 _atom_site_fract_x
 _atom_site_fract_y
 _atom_site_fract_z
 _atom_site_occupancy
  Y  Y0  1  0.547702  0.452298  0.251146  1
  Y  Y1  1  0.451784  0.548216  0.749691  1
  Fe  Fe2  1  0.166517  0.833483  0.944803  1
  Fe  Fe3  1  0.167351  0.832649  0.557808  1
  Fe  Fe4  1  0.832952  0.167048  0.442850  1
  Co  Co5  1  0.833075  0.166925  0.053394  1
  P  P6  1  0.269729  0.730271  0.253573  1
  P  P7  1  0.728685  0.271315  0.747471  1
  C  C8  1  0.002003  0.997997  0.999302  1
  C  C9  1  0.000202  0.999798  0.499962  1
