# generated using pymatgen
data_Pr10BCCl15
_symmetry_space_group_name_H-M   'P 1'
_cell_length_a   9.10307765
_cell_length_b   9.88865513
_cell_length_c   10.69266085
_cell_angle_alpha   90.84579612
_cell_angle_beta   114.55635749
_cell_angle_gamma   111.03893408
_symmetry_Int_Tables_number   1
_chemical_formula_structural   Pr10BCCl15
_chemical_formula_sum   'Pr10 B1 C1 Cl15'
_cell_volume   801.71971619
_cell_formula_units_Z   1
loop_
 _symmetry_equiv_pos_site_id
 _symmetry_equiv_pos_as_xyz
  1  'x, y, z'
loop_
 _atom_site_type_symbol
 _atom_site_label
 _atom_site_symmetry_multiplicity
 _atom_site_fract_x
 _atom_site_fract_y
 _atom_site_fract_z
 _atom_site_occupancy
  Pr  Pr0  1  0.813161  0.420162  0.279137  1
  Pr  Pr1  1  0.190564  0.585012  0.724964  1
  Pr  Pr2  1  0.681045  0.747145  0.822986  1
  Pr  Pr3  1  0.318226  0.256261  0.182354  1
  Pr  Pr4  1  0.525722  0.701795  0.097057  1
  Pr  Pr5  1  0.472057  0.300558  0.895911  1
  Pr  Pr6  1  0.593645  0.038293  0.336710  1
  Pr  Pr7  1  0.409603  0.958419  0.669722  1
  Pr  Pr8  1  0.730689  0.072447  0.046045  1
  Pr  Pr9  1  0.267659  0.918142  0.948377  1
  B  B10  1  0.534798  0.182264  0.125927  1
  C  C11  1  0.464058  0.817559  0.873169  1
  Cl  Cl12  1  0.002391  0.000160  0.999279  1
  Cl  Cl13  1  0.633989  0.880299  0.587520  1
  Cl  Cl14  1  0.365680  0.116665  0.416029  1
  Cl  Cl15  1  0.884263  0.302009  0.525732  1
  Cl  Cl16  1  0.120116  0.701383  0.478315  1
  Cl  Cl17  1  0.298416  0.766213  0.182376  1
  Cl  Cl18  1  0.702460  0.232218  0.816844  1
  Cl  Cl19  1  0.052656  0.341967  0.224342  1
  Cl  Cl20  1  0.168922  0.056848  0.704772  1
  Cl  Cl21  1  0.830423  0.940342  0.293294  1
  Cl  Cl22  1  0.237400  0.412156  0.946521  1
  Cl  Cl23  1  0.762545  0.589529  0.053248  1
  Cl  Cl24  1  0.405965  0.473603  0.660297  1
  Cl  Cl25  1  0.593359  0.533903  0.337317  1
  Cl  Cl26  1  0.940191  0.654647  0.771758  1
