# generated using pymatgen
data_Er3In4HgRu
_symmetry_space_group_name_H-M   'P 1'
_cell_length_a   8.04295400
_cell_length_b   8.04295358
_cell_length_c   3.84024100
_cell_angle_alpha   90.00000000
_cell_angle_beta   90.00000000
_cell_angle_gamma   120.00000173
_symmetry_Int_Tables_number   1
_chemical_formula_structural   Er3In4HgRu
_chemical_formula_sum   'Er3 In4 Hg1 Ru1'
_cell_volume   215.13954765
_cell_formula_units_Z   1
loop_
 _symmetry_equiv_pos_site_id
 _symmetry_equiv_pos_as_xyz
  1  'x, y, z'
loop_
 _atom_site_type_symbol
 _atom_site_label
 _atom_site_symmetry_multiplicity
 _atom_site_fract_x
 _atom_site_fract_y
 _atom_site_fract_z
 _atom_site_occupancy
  Er  Er0  1  0.712532  0.961830  0.500000  1
  Er  Er1  1  0.249298  0.287468  0.500000  1
  Er  Er2  1  0.038170  0.750702  0.500000  1
  In  In3  1  0.947167  0.331013  0.000000  1
  In  In4  1  0.383847  0.052833  0.000000  1
  In  In5  1  0.668987  0.616153  0.000000  1
  In  In6  1  0.333333  0.666667  0.000000  1
  Hg  Hg7  1  0.666667  0.333333  0.500000  1
  Ru  Ru8  1  0.000000  0.000000  0.000000  1
