# generated using pymatgen
data_Fe4Co8Mo5P12W7
_symmetry_space_group_name_H-M   'P 1'
_cell_length_a   3.75010000
_cell_length_b   5.82396087
_cell_length_c   20.18684343
_cell_angle_alpha   89.98106077
_cell_angle_beta   90.00000000
_cell_angle_gamma   90.00000000
_symmetry_Int_Tables_number   1
_chemical_formula_structural   Fe4Co8Mo5P12W7
_chemical_formula_sum   'Fe4 Co8 Mo5 P12 W7'
_cell_volume   440.88943131
_cell_formula_units_Z   1
loop_
 _symmetry_equiv_pos_site_id
 _symmetry_equiv_pos_as_xyz
  1  'x, y, z'
loop_
 _atom_site_type_symbol
 _atom_site_label
 _atom_site_symmetry_multiplicity
 _atom_site_fract_x
 _atom_site_fract_y
 _atom_site_fract_z
 _atom_site_occupancy
  Fe  Fe0  1  0.500000  0.362069  0.811750  1
  Fe  Fe1  1  0.500000  0.362177  0.477916  1
  Fe  Fe2  1  0.500000  0.361807  0.144823  1
  Fe  Fe3  1  0.500000  0.861693  0.688487  1
  Co  Co4  1  0.500000  0.861257  0.356032  1
  Co  Co5  1  0.500000  0.857825  0.022552  1
  Co  Co6  1  0.000000  0.639404  0.855862  1
  Co  Co7  1  0.000000  0.640752  0.522785  1
  Co  Co8  1  0.000000  0.639817  0.188731  1
  Co  Co9  1  0.000000  0.141491  0.977042  1
  Co  Co10  1  0.000000  0.141784  0.643783  1
  Co  Co11  1  0.000000  0.139743  0.311082  1
  Mo  Mo12  1  0.500000  0.467755  0.276729  1
  Mo  Mo13  1  0.500000  0.965405  0.889324  1
  Mo  Mo14  1  0.500000  0.965397  0.556182  1
  Mo  Mo15  1  0.500000  0.966364  0.223168  1
  Mo  Mo16  1  0.000000  0.033207  0.110160  1
  P  P17  1  0.500000  0.732381  0.792185  1
  P  P18  1  0.500000  0.732284  0.459535  1
  P  P19  1  0.500000  0.732964  0.126848  1
  P  P20  1  0.500000  0.232244  0.707870  1
  P  P21  1  0.500000  0.234916  0.373714  1
  P  P22  1  0.500000  0.232040  0.041125  1
  P  P23  1  0.000000  0.267239  0.873245  1
  P  P24  1  0.000000  0.268597  0.539981  1
  P  P25  1  0.000000  0.267211  0.206436  1
  P  P26  1  0.000000  0.768095  0.959521  1
  P  P27  1  0.000000  0.769492  0.626653  1
  P  P28  1  0.000000  0.766542  0.292875  1
  W  W29  1  0.500000  0.467642  0.943096  1
  W  W30  1  0.500000  0.468190  0.609950  1
  W  W31  1  0.000000  0.529038  0.723587  1
  W  W32  1  0.000000  0.531602  0.390415  1
  W  W33  1  0.000000  0.528374  0.056865  1
  W  W34  1  0.000000  0.030255  0.776113  1
  W  W35  1  0.000000  0.032944  0.443577  1
