# generated using pymatgen
data_TbEr7Ga3Ir
_symmetry_space_group_name_H-M   'P 1'
_cell_length_a   9.98544400
_cell_length_b   9.98544435
_cell_length_c   6.99239100
_cell_angle_alpha   90.00000000
_cell_angle_beta   90.00000000
_cell_angle_gamma   120.00000546
_symmetry_Int_Tables_number   1
_chemical_formula_structural   TbEr7Ga3Ir
_chemical_formula_sum   'Tb2 Er14 Ga6 Ir2'
_cell_volume   603.79719210
_cell_formula_units_Z   2
loop_
 _symmetry_equiv_pos_site_id
 _symmetry_equiv_pos_as_xyz
  1  'x, y, z'
loop_
 _atom_site_type_symbol
 _atom_site_label
 _atom_site_symmetry_multiplicity
 _atom_site_fract_x
 _atom_site_fract_y
 _atom_site_fract_z
 _atom_site_occupancy
  Tb  Tb0  1  0.000000  0.000000  0.268422  1
  Tb  Tb1  1  0.000000  0.000000  0.768422  1
  Er  Er2  1  0.171589  0.828411  0.991064  1
  Er  Er3  1  0.828411  0.171589  0.491064  1
  Er  Er4  1  0.171589  0.343178  0.991064  1
  Er  Er5  1  0.656822  0.828411  0.991064  1
  Er  Er6  1  0.343178  0.171589  0.491064  1
  Er  Er7  1  0.828411  0.656822  0.491064  1
  Er  Er8  1  0.333333  0.666667  0.663065  1
  Er  Er9  1  0.666667  0.333333  0.163065  1
  Er  Er10  1  0.465560  0.534440  0.294880  1
  Er  Er11  1  0.534440  0.465560  0.794880  1
  Er  Er12  1  0.465560  0.931120  0.294880  1
  Er  Er13  1  0.068880  0.534440  0.294880  1
  Er  Er14  1  0.931120  0.465560  0.794880  1
  Er  Er15  1  0.534440  0.068880  0.794880  1
  Ga  Ga16  1  0.164081  0.835919  0.542430  1
  Ga  Ga17  1  0.835919  0.164081  0.042430  1
  Ga  Ga18  1  0.164081  0.328160  0.542430  1
  Ga  Ga19  1  0.671840  0.835919  0.542430  1
  Ga  Ga20  1  0.328160  0.164081  0.042430  1
  Ga  Ga21  1  0.835919  0.671840  0.042430  1
  Ir  Ir22  1  0.333333  0.666667  0.056452  1
  Ir  Ir23  1  0.666667  0.333333  0.556452  1
