# generated using pymatgen
data_Th3Al3CuNi2
_symmetry_space_group_name_H-M   'P 1'
_cell_length_a   7.02044900
_cell_length_b   7.02044946
_cell_length_c   4.17545500
_cell_angle_alpha   90.00000000
_cell_angle_beta   90.00000000
_cell_angle_gamma   119.99999312
_symmetry_Int_Tables_number   1
_chemical_formula_structural   Th3Al3CuNi2
_chemical_formula_sum   'Th3 Al3 Cu1 Ni2'
_cell_volume   178.22321567
_cell_formula_units_Z   1
loop_
 _symmetry_equiv_pos_site_id
 _symmetry_equiv_pos_as_xyz
  1  'x, y, z'
loop_
 _atom_site_type_symbol
 _atom_site_label
 _atom_site_symmetry_multiplicity
 _atom_site_fract_x
 _atom_site_fract_y
 _atom_site_fract_z
 _atom_site_occupancy
  Th  Th0  1  0.992177  0.415623  0.500000  1
  Th  Th1  1  0.584377  0.576554  0.500000  1
  Th  Th2  1  0.423446  0.007823  0.500000  1
  Al  Al3  1  0.999532  0.769920  0.000000  1
  Al  Al4  1  0.230080  0.229611  0.000000  1
  Al  Al5  1  0.770389  0.000468  0.000000  1
  Cu  Cu6  1  0.333333  0.666667  0.000000  1
  Ni  Ni7  1  0.666667  0.333333  0.000000  1
  Ni  Ni8  1  0.000000  0.000000  0.500000  1
