# generated using pymatgen
data_CaLa5PrOsI12
_symmetry_space_group_name_H-M   'P 1'
_cell_length_a   10.30749361
_cell_length_b   10.16569328
_cell_length_c   10.15867973
_cell_angle_alpha   106.98971129
_cell_angle_beta   107.33577322
_cell_angle_gamma   106.95120030
_symmetry_Int_Tables_number   1
_chemical_formula_structural   CaLa5PrOsI12
_chemical_formula_sum   'Ca1 La5 Pr1 Os1 I12'
_cell_volume   884.23926335
_cell_formula_units_Z   1
loop_
 _symmetry_equiv_pos_site_id
 _symmetry_equiv_pos_as_xyz
  1  'x, y, z'
loop_
 _atom_site_type_symbol
 _atom_site_label
 _atom_site_symmetry_multiplicity
 _atom_site_fract_x
 _atom_site_fract_y
 _atom_site_fract_z
 _atom_site_occupancy
  Ca  Ca0  1  0.500102  0.499146  0.498658  1
  La  La1  1  0.028792  0.299816  0.097153  1
  La  La2  1  0.097904  0.028950  0.300880  1
  La  La3  1  0.903726  0.971678  0.699865  1
  La  La4  1  0.970897  0.700301  0.903073  1
  La  La5  1  0.683047  0.897674  0.969999  1
  Pr  Pr6  1  0.312692  0.102011  0.029803  1
  Os  Os7  1  0.999867  0.000123  0.000237  1
  I  I8  1  0.684936  0.230062  0.074217  1
  I  I9  1  0.386311  0.459340  0.159698  1
  I  I10  1  0.074303  0.683769  0.230174  1
  I  I11  1  0.773327  0.926913  0.317395  1
  I  I12  1  0.459979  0.160377  0.385167  1
  I  I13  1  0.165411  0.389181  0.463040  1
  I  I14  1  0.835273  0.610870  0.537326  1
  I  I15  1  0.540301  0.838488  0.611566  1
  I  I16  1  0.229230  0.073901  0.686033  1
  I  I17  1  0.926047  0.316456  0.770252  1
  I  I18  1  0.613441  0.538001  0.838304  1
  I  I19  1  0.314417  0.772946  0.927165  1
