# generated using pymatgen
data_Tm5GaBiPb
_symmetry_space_group_name_H-M   'P 1'
_cell_length_a   8.82082177
_cell_length_b   8.76417745
_cell_length_c   6.49362000
_cell_angle_alpha   90.00000000
_cell_angle_beta   90.00000000
_cell_angle_gamma   119.78780346
_symmetry_Int_Tables_number   1
_chemical_formula_structural   Tm5GaBiPb
_chemical_formula_sum   'Tm10 Ga2 Bi2 Pb2'
_cell_volume   435.67472800
_cell_formula_units_Z   2
loop_
 _symmetry_equiv_pos_site_id
 _symmetry_equiv_pos_as_xyz
  1  'x, y, z'
loop_
 _atom_site_type_symbol
 _atom_site_label
 _atom_site_symmetry_multiplicity
 _atom_site_fract_x
 _atom_site_fract_y
 _atom_site_fract_z
 _atom_site_occupancy
  Tm  Tm0  1  0.693020  0.347347  0.002313  1
  Tm  Tm1  1  0.306980  0.654328  0.002313  1
  Tm  Tm2  1  0.306980  0.654328  0.497687  1
  Tm  Tm3  1  0.693020  0.347347  0.497687  1
  Tm  Tm4  1  0.775444  0.757209  0.750000  1
  Tm  Tm5  1  0.224556  0.981764  0.750000  1
  Tm  Tm6  1  0.000000  0.245566  0.750000  1
  Tm  Tm7  1  0.227402  0.242160  0.250000  1
  Tm  Tm8  1  0.772598  0.014758  0.250000  1
  Tm  Tm9  1  0.000000  0.756917  0.250000  1
  Ga  Ga10  1  0.000000  0.600282  0.750000  1
  Ga  Ga11  1  0.000000  0.396852  0.250000  1
  Bi  Bi12  1  0.396850  0.389610  0.750000  1
  Bi  Bi13  1  0.603150  0.992760  0.750000  1
  Pb  Pb14  1  0.602259  0.610514  0.250000  1
  Pb  Pb15  1  0.397741  0.008256  0.250000  1
