# generated using pymatgen
data_MgP4(Ru2Rh)2
_symmetry_space_group_name_H-M   'P 1'
_cell_length_a   6.96499248
_cell_length_b   6.96499222
_cell_length_c   3.63039000
_cell_angle_alpha   90.00000000
_cell_angle_beta   90.00000000
_cell_angle_gamma   119.33159822
_symmetry_Int_Tables_number   1
_chemical_formula_structural   MgP4(Ru2Rh)2
_chemical_formula_sum   'Mg1 P4 Ru4 Rh2'
_cell_volume   153.53629635
_cell_formula_units_Z   1
loop_
 _symmetry_equiv_pos_site_id
 _symmetry_equiv_pos_as_xyz
  1  'x, y, z'
loop_
 _atom_site_type_symbol
 _atom_site_label
 _atom_site_symmetry_multiplicity
 _atom_site_fract_x
 _atom_site_fract_y
 _atom_site_fract_z
 _atom_site_occupancy
  Mg  Mg0  1  0.999430  0.000570  0.000000  1
  P  P1  1  0.807729  0.192271  0.500000  1
  P  P2  1  0.381569  0.186904  0.500000  1
  P  P3  1  0.329048  0.670952  0.000000  1
  P  P4  1  0.813096  0.618431  0.500000  1
  Ru  Ru5  1  0.195456  0.804544  0.500000  1
  Ru  Ru6  1  0.536206  0.071793  0.000000  1
  Ru  Ru7  1  0.928207  0.463794  0.000000  1
  Ru  Ru8  1  0.534049  0.465951  0.000000  1
  Rh  Rh9  1  0.190871  0.382328  0.500000  1
  Rh  Rh10  1  0.617672  0.809129  0.500000  1
