# generated using pymatgen
data_Ba11Sr9(Bi2As)4
_symmetry_space_group_name_H-M   'P 1'
_cell_length_a   9.06957011
_cell_length_b   10.35106765
_cell_length_c   13.87330980
_cell_angle_alpha   89.91745464
_cell_angle_beta   90.01250533
_cell_angle_gamma   90.01229884
_symmetry_Int_Tables_number   1
_chemical_formula_structural   Ba11Sr9(Bi2As)4
_chemical_formula_sum   'Ba11 Sr9 Bi8 As4'
_cell_volume   1302.42121842
_cell_formula_units_Z   1
loop_
 _symmetry_equiv_pos_site_id
 _symmetry_equiv_pos_as_xyz
  1  'x, y, z'
loop_
 _atom_site_type_symbol
 _atom_site_label
 _atom_site_symmetry_multiplicity
 _atom_site_fract_x
 _atom_site_fract_y
 _atom_site_fract_z
 _atom_site_occupancy
  Ba  Ba0  1  0.856167  0.746205  0.800103  1
  Ba  Ba1  1  0.144604  0.252920  0.200724  1
  Ba  Ba2  1  0.355790  0.252516  0.699012  1
  Ba  Ba3  1  0.643524  0.747764  0.300708  1
  Ba  Ba4  1  0.684057  0.965748  0.573343  1
  Ba  Ba5  1  0.813845  0.966357  0.074374  1
  Ba  Ba6  1  0.186192  0.033443  0.925897  1
  Ba  Ba7  1  0.330401  0.747558  0.713453  1
  Ba  Ba8  1  0.668374  0.251638  0.286396  1
  Ba  Ba9  1  0.830150  0.253038  0.785649  1
  Ba  Ba10  1  0.170764  0.747509  0.215778  1
  Sr  Sr11  1  0.045973  0.747434  0.500770  1
  Sr  Sr12  1  0.958728  0.251887  0.498429  1
  Sr  Sr13  1  0.545004  0.254572  0.999429  1
  Sr  Sr14  1  0.455265  0.745491  0.001497  1
  Sr  Sr15  1  0.683901  0.533230  0.572892  1
  Sr  Sr16  1  0.316894  0.465165  0.425815  1
  Sr  Sr17  1  0.182941  0.465188  0.926477  1
  Sr  Sr18  1  0.312132  0.032836  0.425214  1
  Sr  Sr19  1  0.817688  0.534867  0.074226  1
  Bi  Bi20  1  0.558644  0.508790  0.832670  1
  Bi  Bi21  1  0.441356  0.491316  0.166728  1
  Bi  Bi22  1  0.059514  0.490879  0.666313  1
  Bi  Bi23  1  0.436455  0.008240  0.168679  1
  Bi  Bi24  1  0.940467  0.508156  0.333969  1
  Bi  Bi25  1  0.563540  0.992245  0.835211  1
  Bi  Bi26  1  0.941972  0.992643  0.335340  1
  Bi  Bi27  1  0.064645  0.008658  0.665276  1
  As  As28  1  0.077670  0.741407  0.985943  1
  As  As29  1  0.923472  0.258620  0.014067  1
  As  As30  1  0.572670  0.256598  0.512911  1
  As  As31  1  0.417202  0.747082  0.482709  1
