# generated using pymatgen
data_LiTbTl(P3Pd10)2
_symmetry_space_group_name_H-M   'P 1'
_cell_length_a   8.63417621
_cell_length_b   8.63417616
_cell_length_c   8.63417500
_cell_angle_alpha   60.00000062
_cell_angle_beta   60.00000081
_cell_angle_gamma   59.99999372
_symmetry_Int_Tables_number   1
_chemical_formula_structural   LiTbTl(P3Pd10)2
_chemical_formula_sum   'Li1 Tb1 Tl1 P6 Pd20'
_cell_volume   455.14276766
_cell_formula_units_Z   1
loop_
 _symmetry_equiv_pos_site_id
 _symmetry_equiv_pos_as_xyz
  1  'x, y, z'
loop_
 _atom_site_type_symbol
 _atom_site_label
 _atom_site_symmetry_multiplicity
 _atom_site_fract_x
 _atom_site_fract_y
 _atom_site_fract_z
 _atom_site_occupancy
  Li  Li0  1  0.000000  0.000000  0.000000  1
  Tb  Tb1  1  0.750000  0.750000  0.750000  1
  Tl  Tl2  1  0.250000  0.250000  0.250000  1
  P  P3  1  0.737720  0.262280  0.262280  1
  P  P4  1  0.262280  0.737720  0.737720  1
  P  P5  1  0.262280  0.737720  0.262280  1
  P  P6  1  0.737720  0.262280  0.737720  1
  P  P7  1  0.262280  0.262280  0.737720  1
  P  P8  1  0.737720  0.737720  0.262280  1
  Pd  Pd9  1  0.383235  0.383235  0.383235  1
  Pd  Pd10  1  0.613805  0.613805  0.613805  1
  Pd  Pd11  1  0.383235  0.383235  0.850297  1
  Pd  Pd12  1  0.383235  0.850297  0.383235  1
  Pd  Pd13  1  0.613805  0.613805  0.158586  1
  Pd  Pd14  1  0.613805  0.158586  0.613805  1
  Pd  Pd15  1  0.850297  0.383235  0.383235  1
  Pd  Pd16  1  0.158586  0.613805  0.613805  1
  Pd  Pd17  1  0.346998  0.996861  0.996861  1
  Pd  Pd18  1  0.659280  0.996861  0.996861  1
  Pd  Pd19  1  0.996861  0.346998  0.659280  1
  Pd  Pd20  1  0.996861  0.659280  0.346998  1
  Pd  Pd21  1  0.996861  0.346998  0.996861  1
  Pd  Pd22  1  0.659280  0.996861  0.346998  1
  Pd  Pd23  1  0.996861  0.659280  0.996861  1
  Pd  Pd24  1  0.346998  0.996861  0.659280  1
  Pd  Pd25  1  0.996861  0.996861  0.346998  1
  Pd  Pd26  1  0.996861  0.996861  0.659280  1
  Pd  Pd27  1  0.659280  0.346998  0.996861  1
  Pd  Pd28  1  0.346998  0.659280  0.996861  1
