# generated using pymatgen
data_La4GaOs3I2
_symmetry_space_group_name_H-M   'P 1'
_cell_length_a   4.37214400
_cell_length_b   4.37214420
_cell_length_c   17.92668500
_cell_angle_alpha   90.00000000
_cell_angle_beta   90.00000000
_cell_angle_gamma   119.99999851
_symmetry_Int_Tables_number   1
_chemical_formula_structural   La4GaOs3I2
_chemical_formula_sum   'La4 Ga1 Os3 I2'
_cell_volume   296.76970141
_cell_formula_units_Z   1
loop_
 _symmetry_equiv_pos_site_id
 _symmetry_equiv_pos_as_xyz
  1  'x, y, z'
loop_
 _atom_site_type_symbol
 _atom_site_label
 _atom_site_symmetry_multiplicity
 _atom_site_fract_x
 _atom_site_fract_y
 _atom_site_fract_z
 _atom_site_occupancy
  La  La0  1  0.000000  0.000000  0.106525  1
  La  La1  1  0.000000  0.000000  0.892262  1
  La  La2  1  0.000000  0.000000  0.604572  1
  La  La3  1  0.000000  0.000000  0.396886  1
  Ga  Ga4  1  0.333333  0.666667  0.501097  1
  Os  Os5  1  0.666667  0.333333  0.499842  1
  Os  Os6  1  0.666667  0.333333  0.001073  1
  Os  Os7  1  0.333333  0.666667  0.998121  1
  I  I8  1  0.333333  0.666667  0.250841  1
  I  I9  1  0.666667  0.333333  0.748781  1
