# generated using pymatgen
data_Tm12TlZn(CoNi)2
_symmetry_space_group_name_H-M   'P 1'
_cell_length_a   8.21111179
_cell_length_b   8.21111223
_cell_length_c   8.21111209
_cell_angle_alpha   111.73227240
_cell_angle_beta   109.56892006
_cell_angle_gamma   107.14491186
_symmetry_Int_Tables_number   1
_chemical_formula_structural   Tm12TlZn(CoNi)2
_chemical_formula_sum   'Tm12 Tl1 Zn1 Co2 Ni2'
_cell_volume   425.48843585
_cell_formula_units_Z   1
loop_
 _symmetry_equiv_pos_site_id
 _symmetry_equiv_pos_as_xyz
  1  'x, y, z'
loop_
 _atom_site_type_symbol
 _atom_site_label
 _atom_site_symmetry_multiplicity
 _atom_site_fract_x
 _atom_site_fract_y
 _atom_site_fract_z
 _atom_site_occupancy
  Tm  Tm0  1  0.431273  0.232082  0.199192  1
  Tm  Tm1  1  0.568727  0.767918  0.800808  1
  Tm  Tm2  1  0.032890  0.232082  0.800808  1
  Tm  Tm3  1  0.967110  0.767918  0.199192  1
  Tm  Tm4  1  0.180770  0.285017  0.465787  1
  Tm  Tm5  1  0.819230  0.714983  0.534213  1
  Tm  Tm6  1  0.180770  0.714983  0.895751  1
  Tm  Tm7  1  0.819230  0.285017  0.104249  1
  Tm  Tm8  1  0.319231  0.627849  0.308616  1
  Tm  Tm9  1  0.680769  0.372151  0.691384  1
  Tm  Tm10  1  0.319231  0.010615  0.691384  1
  Tm  Tm11  1  0.680769  0.989385  0.308616  1
  Tl  Tl12  1  0.500000  0.500000  0.000000  1
  Zn  Zn13  1  0.000000  0.000000  0.000000  1
  Co  Co14  1  0.115628  0.615628  0.500000  1
  Co  Co15  1  0.884372  0.384372  0.500000  1
  Ni  Ni16  1  0.351784  0.000000  0.351784  1
  Ni  Ni17  1  0.648216  0.000000  0.648216  1
