# generated using pymatgen
data_Zr6Ga5SnRh6
_symmetry_space_group_name_H-M   'P 1'
_cell_length_a   7.26859300
_cell_length_b   7.23950089
_cell_length_c   6.99831234
_cell_angle_alpha   90.02993456
_cell_angle_beta   90.00000000
_cell_angle_gamma   120.13301642
_symmetry_Int_Tables_number   1
_chemical_formula_structural   Zr6Ga5SnRh6
_chemical_formula_sum   'Zr6 Ga5 Sn1 Rh6'
_cell_volume   318.49247616
_cell_formula_units_Z   1
loop_
 _symmetry_equiv_pos_site_id
 _symmetry_equiv_pos_as_xyz
  1  'x, y, z'
loop_
 _atom_site_type_symbol
 _atom_site_label
 _atom_site_symmetry_multiplicity
 _atom_site_fract_x
 _atom_site_fract_y
 _atom_site_fract_z
 _atom_site_occupancy
  Zr  Zr0  1  0.604813  0.992655  0.753215  1
  Zr  Zr1  1  0.395105  0.409512  0.751262  1
  Zr  Zr2  1  0.001090  0.598576  0.752280  1
  Zr  Zr3  1  0.612158  0.007345  0.246785  1
  Zr  Zr4  1  0.402514  0.401424  0.247720  1
  Zr  Zr5  1  0.985593  0.590488  0.248738  1
  Ga  Ga6  1  0.275432  0.000000  0.000000  1
  Ga  Ga7  1  0.741406  0.741143  0.499652  1
  Ga  Ga8  1  0.000264  0.258857  0.500348  1
  Ga  Ga9  1  0.002868  0.280107  0.000294  1
  Ga  Ga10  1  0.722762  0.719893  0.999706  1
  Sn  Sn11  1  0.255255  0.000000  0.500000  1
  Rh  Rh12  1  0.667057  0.330843  0.987908  1
  Rh  Rh13  1  0.673039  0.336221  0.512082  1
  Rh  Rh14  1  0.336213  0.669157  0.012092  1
  Rh  Rh15  1  0.336817  0.663779  0.487918  1
  Rh  Rh16  1  0.993977  0.000341  0.776493  1
  Rh  Rh17  1  0.993636  0.999659  0.223507  1
