# generated using pymatgen
data_Ca4Zn3Ni11
_symmetry_space_group_name_H-M   'P 1'
_cell_length_a   5.09776048
_cell_length_b   5.09776011
_cell_length_c   12.34342469
_cell_angle_alpha   78.08285485
_cell_angle_beta   78.08285387
_cell_angle_gamma   59.99999459
_symmetry_Int_Tables_number   1
_chemical_formula_structural   Ca4Zn3Ni11
_chemical_formula_sum   'Ca4 Zn3 Ni11'
_cell_volume   269.78289340
_cell_formula_units_Z   1
loop_
 _symmetry_equiv_pos_site_id
 _symmetry_equiv_pos_as_xyz
  1  'x, y, z'
loop_
 _atom_site_type_symbol
 _atom_site_label
 _atom_site_symmetry_multiplicity
 _atom_site_fract_x
 _atom_site_fract_y
 _atom_site_fract_z
 _atom_site_occupancy
  Ca  Ca0  1  0.950124  0.950124  0.149626  1
  Ca  Ca1  1  0.051604  0.051604  0.845189  1
  Ca  Ca2  1  0.851675  0.851675  0.444976  1
  Ca  Ca3  1  0.148037  0.148037  0.555888  1
  Zn  Zn4  1  0.721992  0.721992  0.834022  1
  Zn  Zn5  1  0.277775  0.277775  0.166675  1
  Zn  Zn6  1  0.611556  0.611556  0.165331  1
  Ni  Ni7  1  0.500263  0.500263  0.499211  1
  Ni  Ni8  1  0.388157  0.388157  0.835528  1
  Ni  Ni9  1  0.004091  0.498140  0.999628  1
  Ni  Ni10  1  0.498140  0.004091  0.999628  1
  Ni  Ni11  1  0.498140  0.498140  0.999628  1
  Ni  Ni12  1  0.390252  0.390252  0.331483  1
  Ni  Ni13  1  0.888014  0.390252  0.331483  1
  Ni  Ni14  1  0.390252  0.888014  0.331483  1
  Ni  Ni15  1  0.607229  0.607229  0.670073  1
  Ni  Ni16  1  0.115467  0.607229  0.670073  1
  Ni  Ni17  1  0.607229  0.115467  0.670073  1
