# generated using pymatgen
data_SmErGe2(BiO5)2
_symmetry_space_group_name_H-M   'P 1'
_cell_length_a   5.43284807
_cell_length_b   11.23244371
_cell_length_c   15.47842548
_cell_angle_alpha   89.93737087
_cell_angle_beta   89.98271297
_cell_angle_gamma   90.00791965
_symmetry_Int_Tables_number   1
_chemical_formula_structural   SmErGe2(BiO5)2
_chemical_formula_sum   'Sm4 Er4 Ge8 Bi8 O40'
_cell_volume   944.55729958
_cell_formula_units_Z   4
loop_
 _symmetry_equiv_pos_site_id
 _symmetry_equiv_pos_as_xyz
  1  'x, y, z'
loop_
 _atom_site_type_symbol
 _atom_site_label
 _atom_site_symmetry_multiplicity
 _atom_site_fract_x
 _atom_site_fract_y
 _atom_site_fract_z
 _atom_site_occupancy
  Sm  Sm0  1  0.011986  0.859319  0.552924  1
  Sm  Sm1  1  0.511888  0.142375  0.946409  1
  Sm  Sm2  1  0.487986  0.359349  0.447273  1
  Sm  Sm3  1  0.488147  0.857541  0.053363  1
  Er  Er4  1  0.991818  0.141197  0.446389  1
  Er  Er5  1  0.508252  0.641086  0.553475  1
  Er  Er6  1  0.008382  0.360623  0.947306  1
  Er  Er7  1  0.991601  0.639320  0.052892  1
  Ge  Ge8  1  0.006295  0.404715  0.596335  1
  Ge  Ge9  1  0.993159  0.597005  0.403784  1
  Ge  Ge10  1  0.507084  0.593840  0.904441  1
  Ge  Ge11  1  0.493135  0.904262  0.402796  1
  Ge  Ge12  1  0.993354  0.098315  0.097078  1
  Ge  Ge13  1  0.006452  0.901048  0.902088  1
  Ge  Ge14  1  0.493063  0.405533  0.096390  1
  Ge  Ge15  1  0.507417  0.097446  0.597103  1
  Bi  Bi16  1  0.547208  0.647530  0.237696  1
  Bi  Bi17  1  0.045501  0.350314  0.261676  1
  Bi  Bi18  1  0.547145  0.147255  0.263156  1
  Bi  Bi19  1  0.454439  0.848879  0.738309  1
  Bi  Bi20  1  0.954924  0.150816  0.762365  1
  Bi  Bi21  1  0.452509  0.353730  0.762356  1
  Bi  Bi22  1  0.952962  0.645941  0.736904  1
  Bi  Bi23  1  0.045416  0.850449  0.237545  1
  O  O24  1  0.190946  0.978188  0.128010  1
  O  O25  1  0.243074  0.239155  0.848714  1
  O  O26  1  0.691382  0.526053  0.126730  1
  O  O27  1  0.757164  0.761040  0.151044  1
  O  O28  1  0.201443  0.962602  0.435168  1
  O  O29  1  0.932160  0.671586  0.303189  1
  O  O30  1  0.799635  0.045921  0.560279  1
  O  O31  1  0.933266  0.171263  0.198162  1
  O  O32  1  0.199151  0.458883  0.060996  1
  O  O33  1  0.756148  0.261703  0.349273  1
  O  O34  1  0.801065  0.540645  0.939669  1
  O  O35  1  0.064395  0.827291  0.800738  1
  O  O36  1  0.250188  0.233420  0.348550  1
  O  O37  1  0.868155  0.309148  0.519989  1
  O  O38  1  0.866085  0.806446  0.978952  1
  O  O39  1  0.434189  0.330413  0.197486  1
  O  O40  1  0.809605  0.021719  0.871379  1
  O  O41  1  0.743591  0.760850  0.650936  1
  O  O42  1  0.702746  0.041779  0.063958  1
  O  O43  1  0.631974  0.809399  0.479712  1
  O  O44  1  0.750710  0.267851  0.848937  1
  O  O45  1  0.695694  0.023839  0.373319  1
  O  O46  1  0.350827  0.188568  0.522397  1
  O  O47  1  0.250048  0.732530  0.651268  1
  O  O48  1  0.065943  0.331091  0.697510  1
  O  O49  1  0.297095  0.957662  0.935319  1
  O  O50  1  0.647144  0.313594  0.021730  1
  O  O51  1  0.134158  0.193405  0.020702  1
  O  O52  1  0.567865  0.668210  0.803583  1
  O  O53  1  0.308052  0.473834  0.873864  1
  O  O54  1  0.700420  0.545555  0.440028  1
  O  O55  1  0.314711  0.975750  0.628860  1
  O  O56  1  0.298451  0.462966  0.564532  1
  O  O57  1  0.186201  0.475934  0.371801  1
  O  O58  1  0.566489  0.172102  0.698060  1
  O  O59  1  0.803424  0.523660  0.626054  1
  O  O60  1  0.352554  0.686225  0.978588  1
  O  O61  1  0.149174  0.688863  0.477923  1
  O  O62  1  0.435377  0.830595  0.301244  1
  O  O63  1  0.249180  0.732377  0.151291  1
