# generated using pymatgen
data_PrEr19Si15As
_symmetry_space_group_name_H-M   'P 1'
_cell_length_a   7.44744374
_cell_length_b   7.61163030
_cell_length_c   14.51498256
_cell_angle_alpha   90.10307324
_cell_angle_beta   93.73175472
_cell_angle_gamma   89.94892710
_symmetry_Int_Tables_number   1
_chemical_formula_structural   PrEr19Si15As
_chemical_formula_sum   'Pr1 Er19 Si15 As1'
_cell_volume   821.06736392
_cell_formula_units_Z   1
loop_
 _symmetry_equiv_pos_site_id
 _symmetry_equiv_pos_as_xyz
  1  'x, y, z'
loop_
 _atom_site_type_symbol
 _atom_site_label
 _atom_site_symmetry_multiplicity
 _atom_site_fract_x
 _atom_site_fract_y
 _atom_site_fract_z
 _atom_site_occupancy
  Pr  Pr0  1  0.002469  0.815588  0.598406  1
  Er  Er1  1  0.496419  0.673858  0.599873  1
  Er  Er2  1  0.322534  0.823565  0.122700  1
  Er  Er3  1  0.822769  0.676336  0.122879  1
  Er  Er4  1  0.833058  0.504986  0.746743  1
  Er  Er5  1  0.472641  0.315423  0.101752  1
  Er  Er6  1  0.028206  0.814465  0.897910  1
  Er  Er7  1  0.499460  0.319988  0.400617  1
  Er  Er8  1  0.666110  0.006449  0.251196  1
  Er  Er9  1  0.528558  0.685570  0.900362  1
  Er  Er10  1  0.675536  0.177375  0.879026  1
  Er  Er11  1  0.148417  0.335146  0.620839  1
  Er  Er12  1  0.177536  0.323547  0.879084  1
  Er  Er13  1  0.851966  0.663880  0.378429  1
  Er  Er14  1  0.349853  0.833656  0.379590  1
  Er  Er15  1  0.333349  0.994184  0.745472  1
  Er  Er16  1  0.647772  0.165218  0.620103  1
  Er  Er17  1  0.167014  0.494452  0.253359  1
  Er  Er18  1  0.973020  0.185104  0.101366  1
  Er  Er19  1  0.004537  0.182669  0.399714  1
  Si  Si20  1  0.221430  0.627056  0.754452  1
  Si  Si21  1  0.299879  0.042388  0.540548  1
  Si  Si22  1  0.039275  0.891308  0.248603  1
  Si  Si23  1  0.713868  0.870908  0.753696  1
  Si  Si24  1  0.284350  0.130533  0.248278  1
  Si  Si25  1  0.794757  0.460181  0.540550  1
  Si  Si26  1  0.460945  0.390542  0.753273  1
  Si  Si27  1  0.201369  0.533796  0.456478  1
  Si  Si28  1  0.144195  0.528415  0.043120  1
  Si  Si29  1  0.958391  0.111599  0.753406  1
  Si  Si30  1  0.784867  0.368990  0.248140  1
  Si  Si31  1  0.354200  0.028519  0.958533  1
  Si  Si32  1  0.855771  0.472664  0.957570  1
  Si  Si33  1  0.644697  0.972266  0.042860  1
  Si  Si34  1  0.539217  0.609219  0.248234  1
  As  As35  1  0.701565  0.970152  0.452840  1
