# generated using pymatgen
data_AlV2(Ni10B3)2
_symmetry_space_group_name_H-M   'P 1'
_cell_length_a   7.38754779
_cell_length_b   7.38754732
_cell_length_c   7.38754700
_cell_angle_alpha   59.99999697
_cell_angle_beta   59.99999907
_cell_angle_gamma   59.99999986
_symmetry_Int_Tables_number   1
_chemical_formula_structural   AlV2(Ni10B3)2
_chemical_formula_sum   'Al1 V2 Ni20 B6'
_cell_volume   285.09252141
_cell_formula_units_Z   1
loop_
 _symmetry_equiv_pos_site_id
 _symmetry_equiv_pos_as_xyz
  1  'x, y, z'
loop_
 _atom_site_type_symbol
 _atom_site_label
 _atom_site_symmetry_multiplicity
 _atom_site_fract_x
 _atom_site_fract_y
 _atom_site_fract_z
 _atom_site_occupancy
  Al  Al0  1  0.750000  0.750000  0.750000  1
  V  V1  1  0.000000  0.000000  0.000000  1
  V  V2  1  0.250000  0.250000  0.250000  1
  Ni  Ni3  1  0.617164  0.617164  0.148507  1
  Ni  Ni4  1  0.617164  0.148507  0.617164  1
  Ni  Ni5  1  0.148507  0.617164  0.617164  1
  Ni  Ni6  1  0.617164  0.617164  0.617164  1
  Ni  Ni7  1  0.380984  0.380984  0.857048  1
  Ni  Ni8  1  0.380984  0.857048  0.380984  1
  Ni  Ni9  1  0.857048  0.380984  0.380984  1
  Ni  Ni10  1  0.380984  0.380984  0.380984  1
  Ni  Ni11  1  0.001336  0.001336  0.337895  1
  Ni  Ni12  1  0.659433  0.001336  0.337895  1
  Ni  Ni13  1  0.001336  0.659433  0.337895  1
  Ni  Ni14  1  0.659433  0.337895  0.001336  1
  Ni  Ni15  1  0.001336  0.337895  0.001336  1
  Ni  Ni16  1  0.001336  0.337895  0.659433  1
  Ni  Ni17  1  0.337895  0.659433  0.001336  1
  Ni  Ni18  1  0.337895  0.001336  0.659433  1
  Ni  Ni19  1  0.337895  0.001336  0.001336  1
  Ni  Ni20  1  0.001336  0.001336  0.659433  1
  Ni  Ni21  1  0.001336  0.659433  0.001336  1
  Ni  Ni22  1  0.659433  0.001336  0.001336  1
  B  B23  1  0.729224  0.729224  0.270776  1
  B  B24  1  0.270776  0.729224  0.270776  1
  B  B25  1  0.729224  0.270776  0.270776  1
  B  B26  1  0.270776  0.270776  0.729224  1
  B  B27  1  0.729224  0.270776  0.729224  1
  B  B28  1  0.270776  0.729224  0.729224  1
