# generated using pymatgen
data_Na3P2W3O14
_symmetry_space_group_name_H-M   'P 1'
_cell_length_a   7.32592000
_cell_length_b   6.39184068
_cell_length_c   12.58302900
_cell_angle_alpha   72.02665616
_cell_angle_beta   90.00000000
_cell_angle_gamma   90.00000000
_symmetry_Int_Tables_number   1
_chemical_formula_structural   Na3P2W3O14
_chemical_formula_sum   'Na6 P4 W6 O28'
_cell_volume   560.46078939
_cell_formula_units_Z   2
loop_
 _symmetry_equiv_pos_site_id
 _symmetry_equiv_pos_as_xyz
  1  'x, y, z'
loop_
 _atom_site_type_symbol
 _atom_site_label
 _atom_site_symmetry_multiplicity
 _atom_site_fract_x
 _atom_site_fract_y
 _atom_site_fract_z
 _atom_site_occupancy
  Na  Na0  1  0.213605  0.522513  0.567533  1
  Na  Na1  1  0.786395  0.477487  0.432467  1
  Na  Na2  1  0.713605  0.477487  0.932467  1
  Na  Na3  1  0.286395  0.522513  0.067533  1
  Na  Na4  1  0.500000  0.000000  0.000000  1
  Na  Na5  1  0.000000  0.000000  0.500000  1
  P  P6  1  0.237537  0.409754  0.839466  1
  P  P7  1  0.762463  0.590246  0.160534  1
  P  P8  1  0.737537  0.590246  0.660534  1
  P  P9  1  0.262463  0.409754  0.339466  1
  W  W10  1  0.245933  0.965595  0.761939  1
  W  W11  1  0.754067  0.034405  0.238061  1
  W  W12  1  0.745933  0.034405  0.738061  1
  W  W13  1  0.254067  0.965595  0.261939  1
  W  W14  1  0.500000  0.000000  0.500000  1
  W  W15  1  0.000000  0.000000  0.000000  1
  O  O16  1  0.816168  0.966351  0.900003  1
  O  O17  1  0.183832  0.033649  0.099997  1
  O  O18  1  0.316168  0.033649  0.599997  1
  O  O19  1  0.683832  0.966351  0.400003  1
  O  O20  1  0.502413  0.952248  0.796389  1
  O  O21  1  0.497587  0.047752  0.203611  1
  O  O22  1  0.002413  0.047752  0.703611  1
  O  O23  1  0.997587  0.952248  0.296389  1
  O  O24  1  0.271032  0.291751  0.749134  1
  O  O25  1  0.728968  0.708249  0.250866  1
  O  O26  1  0.771032  0.708249  0.750866  1
  O  O27  1  0.228968  0.291751  0.249134  1
  O  O28  1  0.895616  0.618681  0.579413  1
  O  O29  1  0.104384  0.381319  0.420587  1
  O  O30  1  0.395616  0.381319  0.920587  1
  O  O31  1  0.604384  0.618681  0.079413  1
  O  O32  1  0.946199  0.676129  0.098275  1
  O  O33  1  0.053801  0.323871  0.901725  1
  O  O34  1  0.446199  0.323871  0.401725  1
  O  O35  1  0.553801  0.676129  0.598275  1
  O  O36  1  0.195125  0.872950  0.923803  1
  O  O37  1  0.804875  0.127050  0.076197  1
  O  O38  1  0.695125  0.127050  0.576197  1
  O  O39  1  0.304875  0.872950  0.423803  1
  O  O40  1  0.208627  0.651851  0.764953  1
  O  O41  1  0.791373  0.348149  0.235047  1
  O  O42  1  0.708627  0.348149  0.735047  1
  O  O43  1  0.291373  0.651851  0.264953  1
