# generated using pymatgen
data_YbPr6NiI12
_symmetry_space_group_name_H-M   'P 1'
_cell_length_a   10.06592166
_cell_length_b   10.06592086
_cell_length_c   10.06592200
_cell_angle_alpha   106.84785096
_cell_angle_beta   106.84784956
_cell_angle_gamma   106.84785371
_symmetry_Int_Tables_number   1
_chemical_formula_structural   YbPr6NiI12
_chemical_formula_sum   'Yb1 Pr6 Ni1 I12'
_cell_volume   852.88918180
_cell_formula_units_Z   1
loop_
 _symmetry_equiv_pos_site_id
 _symmetry_equiv_pos_as_xyz
  1  'x, y, z'
loop_
 _atom_site_type_symbol
 _atom_site_label
 _atom_site_symmetry_multiplicity
 _atom_site_fract_x
 _atom_site_fract_y
 _atom_site_fract_z
 _atom_site_occupancy
  Yb  Yb0  1  0.500000  0.500000  0.500000  1
  Pr  Pr1  1  0.900289  0.974803  0.698164  1
  Pr  Pr2  1  0.698164  0.900289  0.974803  1
  Pr  Pr3  1  0.974803  0.698164  0.900289  1
  Pr  Pr4  1  0.099711  0.025197  0.301836  1
  Pr  Pr5  1  0.301836  0.099711  0.025197  1
  Pr  Pr6  1  0.025197  0.301836  0.099711  1
  Ni  Ni7  1  0.000000  0.000000  0.000000  1
  I  I8  1  0.926260  0.321185  0.774194  1
  I  I9  1  0.774194  0.926260  0.321185  1
  I  I10  1  0.321185  0.774194  0.926260  1
  I  I11  1  0.073740  0.678815  0.225806  1
  I  I12  1  0.225806  0.073740  0.678815  1
  I  I13  1  0.678815  0.225806  0.073740  1
  I  I14  1  0.539069  0.839990  0.616566  1
  I  I15  1  0.616566  0.539069  0.839990  1
  I  I16  1  0.839990  0.616566  0.539069  1
  I  I17  1  0.460931  0.160010  0.383434  1
  I  I18  1  0.383434  0.460931  0.160010  1
  I  I19  1  0.160010  0.383434  0.460931  1
