# generated using pymatgen
data_Na2IrF6
_symmetry_space_group_name_H-M   'P 1'
_cell_length_a   9.42342100
_cell_length_b   9.42342077
_cell_length_c   5.30989400
_cell_angle_alpha   90.00000000
_cell_angle_beta   90.00000000
_cell_angle_gamma   119.99999730
_symmetry_Int_Tables_number   1
_chemical_formula_structural   Na2IrF6
_chemical_formula_sum   'Na6 Ir3 F18'
_cell_volume   408.35104613
_cell_formula_units_Z   3
loop_
 _symmetry_equiv_pos_site_id
 _symmetry_equiv_pos_as_xyz
  1  'x, y, z'
loop_
 _atom_site_type_symbol
 _atom_site_label
 _atom_site_symmetry_multiplicity
 _atom_site_fract_x
 _atom_site_fract_y
 _atom_site_fract_z
 _atom_site_occupancy
  Na  Na0  1  0.291840  0.000000  0.500000  1
  Na  Na1  1  0.000000  0.291840  0.500000  1
  Na  Na2  1  0.708160  0.708160  0.500000  1
  Na  Na3  1  0.627549  0.000000  0.000000  1
  Na  Na4  1  0.000000  0.627549  0.000000  1
  Na  Na5  1  0.372451  0.372451  0.000000  1
  Ir  Ir6  1  0.333333  0.666667  0.493751  1
  Ir  Ir7  1  0.666667  0.333333  0.506249  1
  Ir  Ir8  1  0.000000  0.000000  0.000000  1
  F  F9  1  0.468587  0.250970  0.295092  1
  F  F10  1  0.749030  0.217617  0.295092  1
  F  F11  1  0.250970  0.468587  0.704908  1
  F  F12  1  0.782383  0.531413  0.295092  1
  F  F13  1  0.217617  0.749030  0.704908  1
  F  F14  1  0.531413  0.782383  0.704908  1
  F  F15  1  0.107008  0.200934  0.205179  1
  F  F16  1  0.799066  0.906074  0.205179  1
  F  F17  1  0.200934  0.107008  0.794821  1
  F  F18  1  0.093926  0.892992  0.205179  1
  F  F19  1  0.906074  0.799066  0.794821  1
  F  F20  1  0.892992  0.093926  0.794821  1
  F  F21  1  0.136139  0.546612  0.282183  1
  F  F22  1  0.453388  0.589528  0.282183  1
  F  F23  1  0.546612  0.136139  0.717817  1
  F  F24  1  0.410472  0.863861  0.282183  1
  F  F25  1  0.589528  0.453388  0.717817  1
  F  F26  1  0.863861  0.410472  0.717817  1
