# generated using pymatgen
data_Y6Mn7Ni11P12
_symmetry_space_group_name_H-M   'P 1'
_cell_length_a   3.80704300
_cell_length_b   10.58574100
_cell_length_c   12.70648200
_cell_angle_alpha   90.00000000
_cell_angle_beta   90.00000000
_cell_angle_gamma   90.00000000
_symmetry_Int_Tables_number   1
_chemical_formula_structural   Y6Mn7Ni11P12
_chemical_formula_sum   'Y6 Mn7 Ni11 P12'
_cell_volume   512.07594091
_cell_formula_units_Z   1
loop_
 _symmetry_equiv_pos_site_id
 _symmetry_equiv_pos_as_xyz
  1  'x, y, z'
loop_
 _atom_site_type_symbol
 _atom_site_label
 _atom_site_symmetry_multiplicity
 _atom_site_fract_x
 _atom_site_fract_y
 _atom_site_fract_z
 _atom_site_occupancy
  Y  Y0  1  0.000000  0.500000  0.520005  1
  Y  Y1  1  0.500000  0.000000  0.478812  1
  Y  Y2  1  0.500000  0.816991  0.211702  1
  Y  Y3  1  0.500000  0.183009  0.211702  1
  Y  Y4  1  0.000000  0.683051  0.787402  1
  Y  Y5  1  0.000000  0.316949  0.787402  1
  Mn  Mn6  1  0.500000  0.500000  0.163856  1
  Mn  Mn7  1  0.000000  0.000000  0.840070  1
  Mn  Mn8  1  0.000000  0.500000  0.983497  1
  Mn  Mn9  1  0.500000  0.336112  0.996696  1
  Mn  Mn10  1  0.500000  0.663888  0.996696  1
  Mn  Mn11  1  0.000000  0.166797  0.002494  1
  Mn  Mn12  1  0.000000  0.833203  0.002494  1
  Ni  Ni13  1  0.500000  0.500000  0.698024  1
  Ni  Ni14  1  0.000000  0.000000  0.299497  1
  Ni  Ni15  1  0.500000  0.000000  0.016103  1
  Ni  Ni16  1  0.500000  0.300960  0.429175  1
  Ni  Ni17  1  0.500000  0.699040  0.429175  1
  Ni  Ni18  1  0.000000  0.197803  0.571282  1
  Ni  Ni19  1  0.000000  0.802197  0.571282  1
  Ni  Ni20  1  0.500000  0.878801  0.708285  1
  Ni  Ni21  1  0.500000  0.121199  0.708285  1
  Ni  Ni22  1  0.000000  0.621017  0.291981  1
  Ni  Ni23  1  0.000000  0.378983  0.291981  1
  P  P24  1  0.500000  0.500000  0.874013  1
  P  P25  1  0.000000  0.000000  0.123723  1
  P  P26  1  0.500000  0.500000  0.349486  1
  P  P27  1  0.000000  0.000000  0.652265  1
  P  P28  1  0.500000  0.312720  0.612237  1
  P  P29  1  0.500000  0.687280  0.612237  1
  P  P30  1  0.000000  0.186303  0.387054  1
  P  P31  1  0.000000  0.813697  0.387054  1
  P  P32  1  0.500000  0.844869  0.891587  1
  P  P33  1  0.500000  0.155131  0.891587  1
  P  P34  1  0.000000  0.654653  0.110429  1
  P  P35  1  0.000000  0.345347  0.110429  1
