# generated using pymatgen
data_KMoS2O9
_symmetry_space_group_name_H-M   'P 1'
_cell_length_a   5.22893800
_cell_length_b   8.49817748
_cell_length_c   9.26986963
_cell_angle_alpha   77.09369710
_cell_angle_beta   90.00000000
_cell_angle_gamma   90.00000000
_symmetry_Int_Tables_number   1
_chemical_formula_structural   KMoS2O9
_chemical_formula_sum   'K2 Mo2 S4 O18'
_cell_volume   401.51354646
_cell_formula_units_Z   2
loop_
 _symmetry_equiv_pos_site_id
 _symmetry_equiv_pos_as_xyz
  1  'x, y, z'
loop_
 _atom_site_type_symbol
 _atom_site_label
 _atom_site_symmetry_multiplicity
 _atom_site_fract_x
 _atom_site_fract_y
 _atom_site_fract_z
 _atom_site_occupancy
  K  K0  1  0.250000  0.425575  0.226242  1
  K  K1  1  0.750000  0.574425  0.773758  1
  Mo  Mo2  1  0.250000  0.916484  0.258205  1
  Mo  Mo3  1  0.750000  0.083516  0.741795  1
  S  S4  1  0.250000  0.329268  0.652338  1
  S  S5  1  0.750000  0.670732  0.347662  1
  S  S6  1  0.250000  0.843058  0.893687  1
  S  S7  1  0.750000  0.156942  0.106313  1
  O  O8  1  0.250000  0.275075  0.515448  1
  O  O9  1  0.750000  0.724925  0.484552  1
  O  O10  1  0.250000  0.501775  0.644155  1
  O  O11  1  0.750000  0.498225  0.355845  1
  O  O12  1  0.016897  0.259549  0.748687  1
  O  O13  1  0.516897  0.740451  0.251313  1
  O  O14  1  0.983103  0.740451  0.251313  1
  O  O15  1  0.483103  0.259549  0.748687  1
  O  O16  1  0.250000  0.930593  0.014463  1
  O  O17  1  0.750000  0.069407  0.985537  1
  O  O18  1  0.250000  0.668468  0.941238  1
  O  O19  1  0.750000  0.331532  0.058762  1
  O  O20  1  0.016063  0.893735  0.797848  1
  O  O21  1  0.516063  0.106265  0.202152  1
  O  O22  1  0.983937  0.106265  0.202152  1
  O  O23  1  0.483937  0.893735  0.797848  1
  O  O24  1  0.250000  0.900322  0.442850  1
  O  O25  1  0.750000  0.099678  0.557150  1
