# generated using pymatgen
data_K3Rb6AlAs4
_symmetry_space_group_name_H-M   'P 1'
_cell_length_a   10.37809000
_cell_length_b   10.37808950
_cell_length_c   10.92461900
_cell_angle_alpha   90.00000000
_cell_angle_beta   90.00000000
_cell_angle_gamma   120.00000161
_symmetry_Int_Tables_number   1
_chemical_formula_structural   K3Rb6AlAs4
_chemical_formula_sum   'K6 Rb12 Al2 As8'
_cell_volume   1018.99433248
_cell_formula_units_Z   2
loop_
 _symmetry_equiv_pos_site_id
 _symmetry_equiv_pos_as_xyz
  1  'x, y, z'
loop_
 _atom_site_type_symbol
 _atom_site_label
 _atom_site_symmetry_multiplicity
 _atom_site_fract_x
 _atom_site_fract_y
 _atom_site_fract_z
 _atom_site_occupancy
  K  K0  1  0.241363  0.120681  0.750000  1
  K  K1  1  0.879319  0.120681  0.750000  1
  K  K2  1  0.758637  0.879319  0.250000  1
  K  K3  1  0.120681  0.241363  0.250000  1
  K  K4  1  0.120681  0.879319  0.250000  1
  K  K5  1  0.879319  0.758637  0.750000  1
  Rb  Rb6  1  0.208129  0.791871  0.953853  1
  Rb  Rb7  1  0.208129  0.416259  0.953853  1
  Rb  Rb8  1  0.583741  0.791871  0.953853  1
  Rb  Rb9  1  0.416259  0.208129  0.453853  1
  Rb  Rb10  1  0.791871  0.583741  0.046147  1
  Rb  Rb11  1  0.791871  0.208129  0.453853  1
  Rb  Rb12  1  0.791871  0.583741  0.453853  1
  Rb  Rb13  1  0.208129  0.791871  0.546147  1
  Rb  Rb14  1  0.583741  0.791871  0.546147  1
  Rb  Rb15  1  0.416259  0.208129  0.046147  1
  Rb  Rb16  1  0.791871  0.208129  0.046147  1
  Rb  Rb17  1  0.208129  0.416259  0.546147  1
  Al  Al18  1  0.333333  0.666667  0.250000  1
  Al  Al19  1  0.666667  0.333333  0.750000  1
  As  As20  1  0.000000  0.000000  0.000000  1
  As  As21  1  0.056937  0.528468  0.250000  1
  As  As22  1  0.471532  0.943063  0.250000  1
  As  As23  1  0.528468  0.056937  0.750000  1
  As  As24  1  0.528468  0.471532  0.750000  1
  As  As25  1  0.000000  0.000000  0.500000  1
  As  As26  1  0.471532  0.528468  0.250000  1
  As  As27  1  0.943063  0.471532  0.750000  1
