# generated using pymatgen
data_Sc4Fe11Ni8MoP12
_symmetry_space_group_name_H-M   'P 1'
_cell_length_a   3.62795400
_cell_length_b   10.28936391
_cell_length_c   11.64323748
_cell_angle_alpha   90.03531553
_cell_angle_beta   90.00000000
_cell_angle_gamma   90.00000000
_symmetry_Int_Tables_number   1
_chemical_formula_structural   Sc4Fe11Ni8MoP12
_chemical_formula_sum   'Sc4 Fe11 Ni8 Mo1 P12'
_cell_volume   434.63427578
_cell_formula_units_Z   1
loop_
 _symmetry_equiv_pos_site_id
 _symmetry_equiv_pos_as_xyz
  1  'x, y, z'
loop_
 _atom_site_type_symbol
 _atom_site_label
 _atom_site_symmetry_multiplicity
 _atom_site_fract_x
 _atom_site_fract_y
 _atom_site_fract_z
 _atom_site_occupancy
  Sc  Sc0  1  0.250000  0.579262  0.702340  1
  Sc  Sc1  1  0.250000  0.921746  0.201953  1
  Sc  Sc2  1  0.750000  0.420688  0.297031  1
  Sc  Sc3  1  0.750000  0.081594  0.795890  1
  Fe  Fe4  1  0.250000  0.405650  0.488966  1
  Fe  Fe5  1  0.250000  0.098138  0.989087  1
  Fe  Fe6  1  0.750000  0.592298  0.512013  1
  Fe  Fe7  1  0.750000  0.910538  0.010497  1
  Fe  Fe8  1  0.250000  0.459795  0.931239  1
  Fe  Fe9  1  0.250000  0.036354  0.429462  1
  Fe  Fe10  1  0.750000  0.533697  0.071115  1
  Fe  Fe11  1  0.750000  0.962664  0.570503  1
  Fe  Fe12  1  0.250000  0.787136  0.491684  1
  Fe  Fe13  1  0.750000  0.289179  0.008568  1
  Fe  Fe14  1  0.750000  0.211737  0.508611  1
  Ni  Ni15  1  0.250000  0.225685  0.179622  1
  Ni  Ni16  1  0.250000  0.273268  0.677896  1
  Ni  Ni17  1  0.750000  0.773838  0.819091  1
  Ni  Ni18  1  0.750000  0.726626  0.323395  1
  Ni  Ni19  1  0.250000  0.880675  0.704506  1
  Ni  Ni20  1  0.250000  0.617707  0.206697  1
  Ni  Ni21  1  0.750000  0.120356  0.296127  1
  Ni  Ni22  1  0.750000  0.379208  0.794955  1
  Mo  Mo23  1  0.250000  0.708689  0.988293  1
  P  P24  1  0.250000  0.422856  0.115729  1
  P  P25  1  0.250000  0.075404  0.613006  1
  P  P26  1  0.750000  0.571470  0.883901  1
  P  P27  1  0.750000  0.924943  0.386137  1
  P  P28  1  0.250000  0.260812  0.870752  1
  P  P29  1  0.250000  0.238120  0.372599  1
  P  P30  1  0.750000  0.739894  0.132313  1
  P  P31  1  0.750000  0.761129  0.626312  1
  P  P32  1  0.250000  0.594956  0.397835  1
  P  P33  1  0.250000  0.912466  0.895094  1
  P  P34  1  0.750000  0.402638  0.602960  1
  P  P35  1  0.750000  0.098784  0.103816  1
