# generated using pymatgen
data_KTh2(TeSe2)2
_symmetry_space_group_name_H-M   'P 1'
_cell_length_a   11.78920786
_cell_length_b   11.78920838
_cell_length_c   5.78859650
_cell_angle_alpha   91.16181678
_cell_angle_beta   88.83818180
_cell_angle_gamma   158.95976623
_symmetry_Int_Tables_number   1
_chemical_formula_structural   KTh2(TeSe2)2
_chemical_formula_sum   'K1 Th2 Te2 Se4'
_cell_volume   288.78389432
_cell_formula_units_Z   1
loop_
 _symmetry_equiv_pos_site_id
 _symmetry_equiv_pos_as_xyz
  1  'x, y, z'
loop_
 _atom_site_type_symbol
 _atom_site_label
 _atom_site_symmetry_multiplicity
 _atom_site_fract_x
 _atom_site_fract_y
 _atom_site_fract_z
 _atom_site_occupancy
  K  K0  1  0.503696  0.496304  0.457865  1
  Th  Th1  1  0.316997  0.683003  0.495119  1
  Th  Th2  1  0.683035  0.316965  0.013821  1
  Te  Te3  1  0.895299  0.104701  0.760172  1
  Te  Te4  1  0.104940  0.895060  0.753820  1
  Se  Se5  1  0.728061  0.271939  0.507402  1
  Se  Se6  1  0.271803  0.728197  0.001307  1
  Se  Se7  1  0.889202  0.110798  0.259333  1
  Se  Se8  1  0.111268  0.888732  0.251161  1
