# generated using pymatgen
data_Y7Er3Si5Bi
_symmetry_space_group_name_H-M   'P 1'
_cell_length_a   8.52596700
_cell_length_b   8.57243158
_cell_length_c   6.35507900
_cell_angle_alpha   90.00208227
_cell_angle_beta   89.99649698
_cell_angle_gamma   119.82228355
_symmetry_Int_Tables_number   1
_chemical_formula_structural   Y7Er3Si5Bi
_chemical_formula_sum   'Y7 Er3 Si5 Bi1'
_cell_volume   402.97138421
_cell_formula_units_Z   1
loop_
 _symmetry_equiv_pos_site_id
 _symmetry_equiv_pos_as_xyz
  1  'x, y, z'
loop_
 _atom_site_type_symbol
 _atom_site_label
 _atom_site_symmetry_multiplicity
 _atom_site_fract_x
 _atom_site_fract_y
 _atom_site_fract_z
 _atom_site_occupancy
  Y  Y0  1  0.985083  0.744324  0.750418  1
  Y  Y1  1  0.998476  0.244283  0.249514  1
  Y  Y2  1  0.754355  0.755636  0.249421  1
  Y  Y3  1  0.767111  0.000043  0.750304  1
  Y  Y4  1  0.240576  0.255569  0.750593  1
  Y  Y5  1  0.240904  0.000038  0.250035  1
  Y  Y6  1  0.330957  0.654762  0.495152  1
  Er  Er7  1  0.676389  0.345333  0.005035  1
  Er  Er8  1  0.676568  0.345814  0.494998  1
  Er  Er9  1  0.330972  0.654589  0.004887  1
  Si  Si10  1  0.394275  0.391030  0.248218  1
  Si  Si11  1  0.001350  0.608072  0.248546  1
  Si  Si12  1  0.997795  0.394391  0.751575  1
  Si  Si13  1  0.604251  0.604549  0.751624  1
  Si  Si14  1  0.607175  0.000921  0.248936  1
  Bi  Bi15  1  0.393761  0.000647  0.750742  1
