# generated using pymatgen
data_DyEr4Sc3(P3Ir4)4
_symmetry_space_group_name_H-M   'P 1'
_cell_length_a   12.83905700
_cell_length_b   12.83905766
_cell_length_c   3.95493700
_cell_angle_alpha   90.00000000
_cell_angle_beta   90.00000000
_cell_angle_gamma   120.00000087
_symmetry_Int_Tables_number   1
_chemical_formula_structural   DyEr4Sc3(P3Ir4)4
_chemical_formula_sum   'Dy1 Er4 Sc3 P12 Ir16'
_cell_volume   564.59428016
_cell_formula_units_Z   1
loop_
 _symmetry_equiv_pos_site_id
 _symmetry_equiv_pos_as_xyz
  1  'x, y, z'
loop_
 _atom_site_type_symbol
 _atom_site_label
 _atom_site_symmetry_multiplicity
 _atom_site_fract_x
 _atom_site_fract_y
 _atom_site_fract_z
 _atom_site_occupancy
  Dy  Dy0  1  0.666667  0.333333  0.500000  1
  Er  Er1  1  0.333333  0.666667  0.500000  1
  Er  Er2  1  0.999998  0.811828  0.000000  1
  Er  Er3  1  0.188172  0.188169  0.000000  1
  Er  Er4  1  0.811831  0.000002  0.000000  1
  Sc  Sc5  1  0.000023  0.444925  0.500000  1
  Sc  Sc6  1  0.555075  0.555099  0.500000  1
  Sc  Sc7  1  0.444901  0.999977  0.500000  1
  P  P8  1  0.999945  0.646014  0.500000  1
  P  P9  1  0.353986  0.353930  0.500000  1
  P  P10  1  0.646070  0.000055  0.500000  1
  P  P11  1  0.516517  0.686486  0.000000  1
  P  P12  1  0.313514  0.830031  0.000000  1
  P  P13  1  0.169969  0.483483  0.000000  1
  P  P14  1  0.483140  0.169649  0.000000  1
  P  P15  1  0.686509  0.516860  0.000000  1
  P  P16  1  0.830351  0.313491  0.000000  1
  P  P17  1  0.999998  0.176338  0.500000  1
  P  P18  1  0.823662  0.823660  0.500000  1
  P  P19  1  0.176340  0.000002  0.500000  1
  Ir  Ir20  1  0.509520  0.867294  0.000000  1
  Ir  Ir21  1  0.132706  0.642227  0.000000  1
  Ir  Ir22  1  0.357773  0.490480  0.000000  1
  Ir  Ir23  1  0.489911  0.357877  0.000000  1
  Ir  Ir24  1  0.867967  0.510089  0.000000  1
  Ir  Ir25  1  0.642123  0.132033  0.000000  1
  Ir  Ir26  1  0.000035  0.277644  0.000000  1
  Ir  Ir27  1  0.722356  0.722391  0.000000  1
  Ir  Ir28  1  0.277609  0.999965  0.000000  1
  Ir  Ir29  1  0.628238  0.807278  0.500000  1
  Ir  Ir30  1  0.192722  0.820960  0.500000  1
  Ir  Ir31  1  0.179040  0.371762  0.500000  1
  Ir  Ir32  1  0.371649  0.178965  0.500000  1
  Ir  Ir33  1  0.807316  0.628351  0.500000  1
  Ir  Ir34  1  0.821035  0.192684  0.500000  1
  Ir  Ir35  1  0.000000  0.000000  0.500000  1
