# generated using pymatgen
data_YbDy2Y(W2O7)2
_symmetry_space_group_name_H-M   'P 1'
_cell_length_a   7.33704176
_cell_length_b   7.34083903
_cell_length_c   7.45558919
_cell_angle_alpha   60.52337001
_cell_angle_beta   60.50859536
_cell_angle_gamma   59.97864518
_symmetry_Int_Tables_number   1
_chemical_formula_structural   YbDy2Y(W2O7)2
_chemical_formula_sum   'Yb1 Dy2 Y1 W4 O14'
_cell_volume   286.09210285
_cell_formula_units_Z   1
loop_
 _symmetry_equiv_pos_site_id
 _symmetry_equiv_pos_as_xyz
  1  'x, y, z'
loop_
 _atom_site_type_symbol
 _atom_site_label
 _atom_site_symmetry_multiplicity
 _atom_site_fract_x
 _atom_site_fract_y
 _atom_site_fract_z
 _atom_site_occupancy
  Yb  Yb0  1  0.500000  0.500000  0.000000  1
  Dy  Dy1  1  0.500000  0.000000  0.500000  1
  Dy  Dy2  1  0.500000  0.500000  0.500000  1
  Y  Y3  1  0.000000  0.500000  0.500000  1
  W  W4  1  0.500000  0.000000  0.000000  1
  W  W5  1  0.000000  0.500000  0.000000  1
  W  W6  1  0.000000  0.000000  0.000000  1
  W  W7  1  0.000000  0.000000  0.500000  1
  O  O8  1  0.372936  0.372549  0.382047  1
  O  O9  1  0.627064  0.627451  0.617953  1
  O  O10  1  0.084306  0.671866  0.660202  1
  O  O11  1  0.338566  0.924898  0.898172  1
  O  O12  1  0.671566  0.084202  0.660051  1
  O  O13  1  0.084763  0.084099  0.659858  1
  O  O14  1  0.661729  0.661844  0.103072  1
  O  O15  1  0.075201  0.661696  0.101320  1
  O  O16  1  0.661434  0.075102  0.101828  1
  O  O17  1  0.338271  0.338156  0.896928  1
  O  O18  1  0.915237  0.915901  0.340142  1
  O  O19  1  0.915694  0.328134  0.339798  1
  O  O20  1  0.924799  0.338304  0.898680  1
  O  O21  1  0.328434  0.915798  0.339949  1
