# generated using pymatgen
data_CsTaF6
_symmetry_space_group_name_H-M   'P 1'
_cell_length_a   5.48659195
_cell_length_b   5.48659131
_cell_length_c   5.48659156
_cell_angle_alpha   96.94062350
_cell_angle_beta   96.94062043
_cell_angle_gamma   96.94064249
_symmetry_Int_Tables_number   1
_chemical_formula_structural   CsTaF6
_chemical_formula_sum   'Cs1 Ta1 F6'
_cell_volume   161.20467630
_cell_formula_units_Z   1
loop_
 _symmetry_equiv_pos_site_id
 _symmetry_equiv_pos_as_xyz
  1  'x, y, z'
loop_
 _atom_site_type_symbol
 _atom_site_label
 _atom_site_symmetry_multiplicity
 _atom_site_fract_x
 _atom_site_fract_y
 _atom_site_fract_z
 _atom_site_occupancy
  Cs  Cs0  1  0.500000  0.500000  0.500000  1
  Ta  Ta1  1  0.000000  0.000000  0.000000  1
  F  F2  1  0.246657  0.246657  0.917140  1
  F  F3  1  0.917140  0.246657  0.246657  1
  F  F4  1  0.082860  0.753343  0.753343  1
  F  F5  1  0.753343  0.753343  0.082860  1
  F  F6  1  0.753343  0.082860  0.753343  1
  F  F7  1  0.246657  0.917140  0.246657  1
