# generated using pymatgen
data_Rb2Ti7CBr18
_symmetry_space_group_name_H-M   'P 1'
_cell_length_a   10.62112174
_cell_length_b   10.62112133
_cell_length_c   10.62112176
_cell_angle_alpha   55.69216726
_cell_angle_beta   55.69216307
_cell_angle_gamma   55.69216320
_symmetry_Int_Tables_number   1
_chemical_formula_structural   Rb2Ti7CBr18
_chemical_formula_sum   'Rb2 Ti7 C1 Br18'
_cell_volume   762.55150695
_cell_formula_units_Z   1
loop_
 _symmetry_equiv_pos_site_id
 _symmetry_equiv_pos_as_xyz
  1  'x, y, z'
loop_
 _atom_site_type_symbol
 _atom_site_label
 _atom_site_symmetry_multiplicity
 _atom_site_fract_x
 _atom_site_fract_y
 _atom_site_fract_z
 _atom_site_occupancy
  Rb  Rb0  1  0.775808  0.775808  0.775808  1
  Rb  Rb1  1  0.224192  0.224192  0.224192  1
  Ti  Ti2  1  0.149508  0.906140  0.807653  1
  Ti  Ti3  1  0.850492  0.093860  0.192347  1
  Ti  Ti4  1  0.093860  0.192347  0.850492  1
  Ti  Ti5  1  0.192347  0.850492  0.093860  1
  Ti  Ti6  1  0.906140  0.807653  0.149508  1
  Ti  Ti7  1  0.807653  0.149508  0.906140  1
  Ti  Ti8  1  0.500000  0.500000  0.500000  1
  C  C9  1  0.000000  0.000000  0.000000  1
  Br  Br10  1  0.217508  0.468765  0.646698  1
  Br  Br11  1  0.782492  0.531235  0.353302  1
  Br  Br12  1  0.339530  0.052389  0.934550  1
  Br  Br13  1  0.660470  0.947611  0.065450  1
  Br  Br14  1  0.934550  0.339530  0.052389  1
  Br  Br15  1  0.715464  0.880463  0.405559  1
  Br  Br16  1  0.353302  0.782492  0.531235  1
  Br  Br17  1  0.594441  0.284536  0.119537  1
  Br  Br18  1  0.284536  0.119537  0.594441  1
  Br  Br19  1  0.119537  0.594441  0.284536  1
  Br  Br20  1  0.947611  0.065450  0.660470  1
  Br  Br21  1  0.405559  0.715464  0.880463  1
  Br  Br22  1  0.880463  0.405559  0.715464  1
  Br  Br23  1  0.065450  0.660470  0.947611  1
  Br  Br24  1  0.468765  0.646698  0.217508  1
  Br  Br25  1  0.646698  0.217508  0.468765  1
  Br  Br26  1  0.531235  0.353302  0.782492  1
  Br  Br27  1  0.052389  0.934550  0.339530  1
