# generated using pymatgen
data_Gd3Al12(OsPt)2
_symmetry_space_group_name_H-M   'P 1'
_cell_length_a   8.89798750
_cell_length_b   8.89798894
_cell_length_c   9.56861800
_cell_angle_alpha   90.46298874
_cell_angle_beta   89.53701763
_cell_angle_gamma   119.96815534
_symmetry_Int_Tables_number   1
_chemical_formula_structural   Gd3Al12(OsPt)2
_chemical_formula_sum   'Gd6 Al24 Os4 Pt4'
_cell_volume   656.27197731
_cell_formula_units_Z   2
loop_
 _symmetry_equiv_pos_site_id
 _symmetry_equiv_pos_as_xyz
  1  'x, y, z'
loop_
 _atom_site_type_symbol
 _atom_site_label
 _atom_site_symmetry_multiplicity
 _atom_site_fract_x
 _atom_site_fract_y
 _atom_site_fract_z
 _atom_site_occupancy
  Gd  Gd0  1  0.188173  0.381553  0.252837  1
  Gd  Gd1  1  0.811827  0.618447  0.747163  1
  Gd  Gd2  1  0.618447  0.811827  0.252837  1
  Gd  Gd3  1  0.381553  0.188173  0.747163  1
  Gd  Gd4  1  0.191295  0.808705  0.252629  1
  Gd  Gd5  1  0.808705  0.191295  0.747371  1
  Al  Al6  1  0.333341  0.666659  0.032296  1
  Al  Al7  1  0.666659  0.333341  0.967704  1
  Al  Al8  1  0.669137  0.330863  0.525804  1
  Al  Al9  1  0.330863  0.669137  0.474196  1
  Al  Al10  1  0.158305  0.325726  0.574710  1
  Al  Al11  1  0.841695  0.674274  0.425290  1
  Al  Al12  1  0.674274  0.841695  0.574710  1
  Al  Al13  1  0.837777  0.676317  0.078152  1
  Al  Al14  1  0.325726  0.158305  0.425290  1
  Al  Al15  1  0.162223  0.323683  0.921848  1
  Al  Al16  1  0.164003  0.835997  0.574777  1
  Al  Al17  1  0.323683  0.162223  0.078152  1
  Al  Al18  1  0.835997  0.164003  0.425223  1
  Al  Al19  1  0.676317  0.837777  0.921848  1
  Al  Al20  1  0.837328  0.162672  0.078203  1
  Al  Al21  1  0.162672  0.837328  0.921797  1
  Al  Al22  1  0.562891  0.126586  0.252481  1
  Al  Al23  1  0.437109  0.873414  0.747519  1
  Al  Al24  1  0.873414  0.437109  0.252481  1
  Al  Al25  1  0.126586  0.562891  0.747519  1
  Al  Al26  1  0.563535  0.436465  0.249363  1
  Al  Al27  1  0.436465  0.563535  0.750637  1
  Al  Al28  1  0.999534  0.000466  0.250538  1
  Al  Al29  1  0.000466  0.999534  0.749462  1
  Os  Os30  1  0.500000  0.000000  0.500000  1
  Os  Os31  1  0.000000  0.500000  0.500000  1
  Os  Os32  1  0.000000  0.000000  0.000000  1
  Os  Os33  1  0.000000  0.000000  0.500000  1
  Pt  Pt34  1  0.500000  0.000000  0.000000  1
  Pt  Pt35  1  0.000000  0.500000  0.000000  1
  Pt  Pt36  1  0.500000  0.500000  0.000000  1
  Pt  Pt37  1  0.500000  0.500000  0.500000  1
