# generated using pymatgen
data_Dy6Tm3LuSi6
_symmetry_space_group_name_H-M   'P 1'
_cell_length_a   8.40168300
_cell_length_b   8.40168246
_cell_length_c   6.27854800
_cell_angle_alpha   90.00000000
_cell_angle_beta   90.00000000
_cell_angle_gamma   120.00000606
_symmetry_Int_Tables_number   1
_chemical_formula_structural   Dy6Tm3LuSi6
_chemical_formula_sum   'Dy6 Tm3 Lu1 Si6'
_cell_volume   383.81538462
_cell_formula_units_Z   1
loop_
 _symmetry_equiv_pos_site_id
 _symmetry_equiv_pos_as_xyz
  1  'x, y, z'
loop_
 _atom_site_type_symbol
 _atom_site_label
 _atom_site_symmetry_multiplicity
 _atom_site_fract_x
 _atom_site_fract_y
 _atom_site_fract_z
 _atom_site_occupancy
  Dy  Dy0  1  0.755936  0.755846  0.250130  1
  Dy  Dy1  1  0.244154  0.000089  0.250130  1
  Dy  Dy2  1  0.999911  0.244064  0.250130  1
  Dy  Dy3  1  0.244154  0.244064  0.749870  1
  Dy  Dy4  1  0.755936  0.000089  0.749870  1
  Dy  Dy5  1  0.999911  0.755846  0.749870  1
  Tm  Tm6  1  0.333333  0.666667  0.500000  1
  Tm  Tm7  1  0.333333  0.666667  0.000000  1
  Tm  Tm8  1  0.666667  0.333333  0.000000  1
  Lu  Lu9  1  0.666667  0.333333  0.500000  1
  Si  Si10  1  0.394978  0.394642  0.250304  1
  Si  Si11  1  0.605358  0.000336  0.250304  1
  Si  Si12  1  0.999664  0.605022  0.250304  1
  Si  Si13  1  0.605358  0.605022  0.749696  1
  Si  Si14  1  0.394978  0.000336  0.749696  1
  Si  Si15  1  0.999664  0.394642  0.749696  1
