# generated using pymatgen
data_SnSb11(PtRh)2
_symmetry_space_group_name_H-M   'P 1'
_cell_length_a   8.19717783
_cell_length_b   8.19860485
_cell_length_c   8.18875659
_cell_angle_alpha   109.52181561
_cell_angle_beta   109.26200793
_cell_angle_gamma   109.67598592
_symmetry_Int_Tables_number   1
_chemical_formula_structural   SnSb11(PtRh)2
_chemical_formula_sum   'Sn1 Sb11 Pt2 Rh2'
_cell_volume   423.39766195
_cell_formula_units_Z   1
loop_
 _symmetry_equiv_pos_site_id
 _symmetry_equiv_pos_as_xyz
  1  'x, y, z'
loop_
 _atom_site_type_symbol
 _atom_site_label
 _atom_site_symmetry_multiplicity
 _atom_site_fract_x
 _atom_site_fract_y
 _atom_site_fract_z
 _atom_site_occupancy
  Sn  Sn0  1  0.158513  0.814843  0.663257  1
  Sb  Sb1  1  0.844291  0.190251  0.339339  1
  Sb  Sb2  1  0.850521  0.505684  0.661443  1
  Sb  Sb3  1  0.151203  0.498373  0.340022  1
  Sb  Sb4  1  0.813662  0.655722  0.151808  1
  Sb  Sb5  1  0.186488  0.343468  0.848671  1
  Sb  Sb6  1  0.504191  0.662983  0.849059  1
  Sb  Sb7  1  0.494518  0.336495  0.149957  1
  Sb  Sb8  1  0.659998  0.154207  0.816954  1
  Sb  Sb9  1  0.337270  0.842844  0.180750  1
  Sb  Sb10  1  0.655376  0.846268  0.502338  1
  Sb  Sb11  1  0.344188  0.150865  0.497342  1
  Pt  Pt12  1  0.999295  0.001106  0.498793  1
  Pt  Pt13  1  0.498868  0.497712  0.498975  1
  Rh  Rh14  1  0.503208  0.001798  0.003074  1
  Rh  Rh15  1  0.998410  0.497380  0.998219  1
