# generated using pymatgen
data_K4Al5Sn3Au20
_symmetry_space_group_name_H-M   'P 1'
_cell_length_a   7.39832800
_cell_length_b   9.35898872
_cell_length_c   10.10580564
_cell_angle_alpha   90.53078754
_cell_angle_beta   90.00000000
_cell_angle_gamma   90.00000000
_symmetry_Int_Tables_number   1
_chemical_formula_structural   K4Al5Sn3Au20
_chemical_formula_sum   'K4 Al5 Sn3 Au20'
_cell_volume   699.70473147
_cell_formula_units_Z   1
loop_
 _symmetry_equiv_pos_site_id
 _symmetry_equiv_pos_as_xyz
  1  'x, y, z'
loop_
 _atom_site_type_symbol
 _atom_site_label
 _atom_site_symmetry_multiplicity
 _atom_site_fract_x
 _atom_site_fract_y
 _atom_site_fract_z
 _atom_site_occupancy
  K  K0  1  0.250000  0.248490  0.115939  1
  K  K1  1  0.250000  0.751955  0.383326  1
  K  K2  1  0.750000  0.751675  0.884060  1
  K  K3  1  0.750000  0.253199  0.618870  1
  Al  Al4  1  0.250000  0.052753  0.611674  1
  Al  Al5  1  0.250000  0.552912  0.881243  1
  Al  Al6  1  0.750000  0.953757  0.384584  1
  Al  Al7  1  0.750000  0.446187  0.118434  1
  Al  Al8  1  0.250000  0.350596  0.479213  1
  Sn  Sn9  1  0.250000  0.857688  0.027287  1
  Sn  Sn10  1  0.750000  0.646500  0.533452  1
  Sn  Sn11  1  0.750000  0.142507  0.970193  1
  Au  Au12  1  0.056188  0.117250  0.399351  1
  Au  Au13  1  0.442354  0.594037  0.107350  1
  Au  Au14  1  0.555236  0.907509  0.599363  1
  Au  Au15  1  0.943882  0.406189  0.894990  1
  Au  Au16  1  0.944764  0.907509  0.599363  1
  Au  Au17  1  0.556118  0.406189  0.894990  1
  Au  Au18  1  0.443812  0.117250  0.399351  1
  Au  Au19  1  0.057646  0.594037  0.107350  1
  Au  Au20  1  0.052894  0.057768  0.844909  1
  Au  Au21  1  0.442931  0.544532  0.636756  1
  Au  Au22  1  0.551381  0.936758  0.161229  1
  Au  Au23  1  0.970710  0.437856  0.355788  1
  Au  Au24  1  0.948619  0.936758  0.161229  1
  Au  Au25  1  0.529290  0.437856  0.355788  1
  Au  Au26  1  0.447106  0.057768  0.844909  1
  Au  Au27  1  0.057069  0.544532  0.636756  1
  Au  Au28  1  0.250000  0.297938  0.736169  1
  Au  Au29  1  0.250000  0.792965  0.752185  1
  Au  Au30  1  0.750000  0.691891  0.263749  1
  Au  Au31  1  0.750000  0.205188  0.240152  1
