# generated using pymatgen
data_Ho6Er10In6CoAu
_symmetry_space_group_name_H-M   'P 1'
_cell_length_a   10.42337800
_cell_length_b   10.42337738
_cell_length_c   6.89513900
_cell_angle_alpha   90.00000000
_cell_angle_beta   90.00000000
_cell_angle_gamma   119.99999563
_symmetry_Int_Tables_number   1
_chemical_formula_structural   Ho6Er10In6CoAu
_chemical_formula_sum   'Ho6 Er10 In6 Co1 Au1'
_cell_volume   648.76980036
_cell_formula_units_Z   1
loop_
 _symmetry_equiv_pos_site_id
 _symmetry_equiv_pos_as_xyz
  1  'x, y, z'
loop_
 _atom_site_type_symbol
 _atom_site_label
 _atom_site_symmetry_multiplicity
 _atom_site_fract_x
 _atom_site_fract_y
 _atom_site_fract_z
 _atom_site_occupancy
  Ho  Ho0  1  0.525641  0.051281  0.797043  1
  Ho  Ho1  1  0.948719  0.474359  0.797043  1
  Ho  Ho2  1  0.525641  0.474359  0.797043  1
  Ho  Ho3  1  0.465039  0.930078  0.294142  1
  Ho  Ho4  1  0.069922  0.534961  0.294142  1
  Ho  Ho5  1  0.465039  0.534961  0.294142  1
  Er  Er6  1  0.826903  0.653808  0.501020  1
  Er  Er7  1  0.346192  0.173097  0.501020  1
  Er  Er8  1  0.826903  0.173097  0.501020  1
  Er  Er9  1  0.177695  0.355389  0.005865  1
  Er  Er10  1  0.644611  0.822305  0.005865  1
  Er  Er11  1  0.177695  0.822305  0.005865  1
  Er  Er12  1  0.666667  0.333333  0.155578  1
  Er  Er13  1  0.333333  0.666667  0.685148  1
  Er  Er14  1  0.000000  0.000000  0.777084  1
  Er  Er15  1  0.000000  0.000000  0.277000  1
  In  In16  1  0.837274  0.674550  0.031656  1
  In  In17  1  0.325450  0.162726  0.031656  1
  In  In18  1  0.837274  0.162726  0.031656  1
  In  In19  1  0.163122  0.326245  0.538648  1
  In  In20  1  0.673755  0.836878  0.538648  1
  In  In21  1  0.163122  0.836878  0.538648  1
  Co  Co22  1  0.333333  0.666667  0.070151  1
  Au  Au23  1  0.666667  0.333333  0.565825  1
