# generated using pymatgen
data_Sc10FeHg3
_symmetry_space_group_name_H-M   'P 1'
_cell_length_a   8.93010800
_cell_length_b   8.93010890
_cell_length_c   8.99450800
_cell_angle_alpha   90.00000000
_cell_angle_beta   90.00000000
_cell_angle_gamma   119.99998927
_symmetry_Int_Tables_number   1
_chemical_formula_structural   Sc10FeHg3
_chemical_formula_sum   'Sc20 Fe2 Hg6'
_cell_volume   621.18585403
_cell_formula_units_Z   2
loop_
 _symmetry_equiv_pos_site_id
 _symmetry_equiv_pos_as_xyz
  1  'x, y, z'
loop_
 _atom_site_type_symbol
 _atom_site_label
 _atom_site_symmetry_multiplicity
 _atom_site_fract_x
 _atom_site_fract_y
 _atom_site_fract_z
 _atom_site_occupancy
  Sc  Sc0  1  0.000000  0.000000  0.500000  1
  Sc  Sc1  1  0.000000  0.000000  0.000000  1
  Sc  Sc2  1  0.541317  0.458683  0.250000  1
  Sc  Sc3  1  0.541317  0.082633  0.250000  1
  Sc  Sc4  1  0.917367  0.458683  0.250000  1
  Sc  Sc5  1  0.458683  0.541317  0.750000  1
  Sc  Sc6  1  0.458683  0.917367  0.750000  1
  Sc  Sc7  1  0.082633  0.541317  0.750000  1
  Sc  Sc8  1  0.212200  0.787800  0.436001  1
  Sc  Sc9  1  0.212200  0.424400  0.436001  1
  Sc  Sc10  1  0.575600  0.787800  0.436001  1
  Sc  Sc11  1  0.787800  0.212200  0.563999  1
  Sc  Sc12  1  0.787800  0.575600  0.563999  1
  Sc  Sc13  1  0.424400  0.212200  0.563999  1
  Sc  Sc14  1  0.787800  0.212200  0.936001  1
  Sc  Sc15  1  0.787800  0.575600  0.936001  1
  Sc  Sc16  1  0.424400  0.212200  0.936001  1
  Sc  Sc17  1  0.212200  0.787800  0.063999  1
  Sc  Sc18  1  0.212200  0.424400  0.063999  1
  Sc  Sc19  1  0.575600  0.787800  0.063999  1
  Fe  Fe20  1  0.333333  0.666667  0.250000  1
  Fe  Fe21  1  0.666667  0.333333  0.750000  1
  Hg  Hg22  1  0.881661  0.118339  0.250000  1
  Hg  Hg23  1  0.881661  0.763324  0.250000  1
  Hg  Hg24  1  0.236676  0.118339  0.250000  1
  Hg  Hg25  1  0.118339  0.881661  0.750000  1
  Hg  Hg26  1  0.118339  0.236676  0.750000  1
  Hg  Hg27  1  0.763324  0.881661  0.750000  1
