# generated using pymatgen
data_DyY11(Tm2Bi3)4
_symmetry_space_group_name_H-M   'P 1'
_cell_length_a   8.23288910
_cell_length_b   9.47913100
_cell_length_c   12.04962215
_cell_angle_alpha   90.00272002
_cell_angle_beta   89.98194871
_cell_angle_gamma   90.00132624
_symmetry_Int_Tables_number   1
_chemical_formula_structural   DyY11(Tm2Bi3)4
_chemical_formula_sum   'Dy1 Y11 Tm8 Bi12'
_cell_volume   940.36010839
_cell_formula_units_Z   1
loop_
 _symmetry_equiv_pos_site_id
 _symmetry_equiv_pos_as_xyz
  1  'x, y, z'
loop_
 _atom_site_type_symbol
 _atom_site_label
 _atom_site_symmetry_multiplicity
 _atom_site_fract_x
 _atom_site_fract_y
 _atom_site_fract_z
 _atom_site_occupancy
  Dy  Dy0  1  0.186436  0.749638  0.718804  1
  Y  Y1  1  0.686431  0.750369  0.781165  1
  Y  Y2  1  0.813570  0.249629  0.281162  1
  Y  Y3  1  0.313670  0.250367  0.218847  1
  Y  Y4  1  0.693566  0.562852  0.059702  1
  Y  Y5  1  0.193599  0.937110  0.440372  1
  Y  Y6  1  0.306413  0.062841  0.940285  1
  Y  Y7  1  0.806442  0.437151  0.559700  1
  Y  Y8  1  0.354115  0.750047  0.215652  1
  Y  Y9  1  0.854078  0.749954  0.284354  1
  Y  Y10  1  0.645882  0.250053  0.784328  1
  Y  Y11  1  0.145851  0.249941  0.715706  1
  Tm  Tm12  1  0.025535  0.750289  0.988779  1
  Tm  Tm13  1  0.525361  0.749698  0.511115  1
  Tm  Tm14  1  0.974558  0.250292  0.011034  1
  Tm  Tm15  1  0.474595  0.249713  0.488949  1
  Tm  Tm16  1  0.306562  0.434255  0.940286  1
  Tm  Tm17  1  0.806572  0.065755  0.559690  1
  Tm  Tm18  1  0.693411  0.934280  0.059695  1
  Tm  Tm19  1  0.193428  0.565755  0.440367  1
  Bi  Bi20  1  0.434176  0.003551  0.672448  1
  Bi  Bi21  1  0.934330  0.496421  0.827521  1
  Bi  Bi22  1  0.565722  0.503622  0.327579  1
  Bi  Bi23  1  0.065730  0.996379  0.172427  1
  Bi  Bi24  1  0.566491  0.996037  0.327685  1
  Bi  Bi25  1  0.066502  0.503960  0.172320  1
  Bi  Bi26  1  0.433408  0.496108  0.672341  1
  Bi  Bi27  1  0.933560  0.003922  0.827629  1
  Bi  Bi28  1  0.407453  0.748058  0.957944  1
  Bi  Bi29  1  0.907511  0.751947  0.542112  1
  Bi  Bi30  1  0.592527  0.248063  0.042021  1
  Bi  Bi31  1  0.092516  0.251942  0.457980  1
