# generated using pymatgen
data_Ho3TiMnC6
_symmetry_space_group_name_H-M   'P 1'
_cell_length_a   8.20723200
_cell_length_b   8.20723201
_cell_length_c   5.00286600
_cell_angle_alpha   90.00000000
_cell_angle_beta   90.00000000
_cell_angle_gamma   119.99999886
_symmetry_Int_Tables_number   1
_chemical_formula_structural   Ho3TiMnC6
_chemical_formula_sum   'Ho6 Ti2 Mn2 C12'
_cell_volume   291.83873103
_cell_formula_units_Z   2
loop_
 _symmetry_equiv_pos_site_id
 _symmetry_equiv_pos_as_xyz
  1  'x, y, z'
loop_
 _atom_site_type_symbol
 _atom_site_label
 _atom_site_symmetry_multiplicity
 _atom_site_fract_x
 _atom_site_fract_y
 _atom_site_fract_z
 _atom_site_occupancy
  Ho  Ho0  1  0.621517  0.678449  0.750000  1
  Ho  Ho1  1  0.943069  0.621517  0.250000  1
  Ho  Ho2  1  0.678449  0.056931  0.250000  1
  Ho  Ho3  1  0.321551  0.943069  0.750000  1
  Ho  Ho4  1  0.056931  0.378483  0.750000  1
  Ho  Ho5  1  0.378483  0.321551  0.250000  1
  Ti  Ti6  1  0.000000  0.000000  0.500000  1
  Ti  Ti7  1  0.000000  0.000000  0.000000  1
  Mn  Mn8  1  0.666667  0.333333  0.750000  1
  Mn  Mn9  1  0.333333  0.666667  0.250000  1
  C  C10  1  0.965371  0.761644  0.750000  1
  C  C11  1  0.203728  0.965371  0.250000  1
  C  C12  1  0.761644  0.796272  0.250000  1
  C  C13  1  0.238356  0.203728  0.750000  1
  C  C14  1  0.796272  0.034629  0.750000  1
  C  C15  1  0.034629  0.238356  0.250000  1
  C  C16  1  0.863964  0.569151  0.750000  1
  C  C17  1  0.294813  0.863964  0.250000  1
  C  C18  1  0.569151  0.705187  0.250000  1
  C  C19  1  0.430849  0.294813  0.750000  1
  C  C20  1  0.136036  0.430849  0.250000  1
  C  C21  1  0.705187  0.136036  0.750000  1
