# generated using pymatgen
data_Ba3CaIrO6
_symmetry_space_group_name_H-M   'P 1'
_cell_length_a   7.17750184
_cell_length_b   7.17750136
_cell_length_c   7.17750155
_cell_angle_alpha   92.37479165
_cell_angle_beta   92.37479632
_cell_angle_gamma   92.37480409
_symmetry_Int_Tables_number   1
_chemical_formula_structural   Ba3CaIrO6
_chemical_formula_sum   'Ba6 Ca2 Ir2 O12'
_cell_volume   368.78007178
_cell_formula_units_Z   2
loop_
 _symmetry_equiv_pos_site_id
 _symmetry_equiv_pos_as_xyz
  1  'x, y, z'
loop_
 _atom_site_type_symbol
 _atom_site_label
 _atom_site_symmetry_multiplicity
 _atom_site_fract_x
 _atom_site_fract_y
 _atom_site_fract_z
 _atom_site_occupancy
  Ba  Ba0  1  0.750000  0.389490  0.110510  1
  Ba  Ba1  1  0.110510  0.750000  0.389490  1
  Ba  Ba2  1  0.389490  0.110510  0.750000  1
  Ba  Ba3  1  0.250000  0.610510  0.889490  1
  Ba  Ba4  1  0.889490  0.250000  0.610510  1
  Ba  Ba5  1  0.610510  0.889490  0.250000  1
  Ca  Ca6  1  0.250000  0.250000  0.250000  1
  Ca  Ca7  1  0.750000  0.750000  0.750000  1
  Ir  Ir8  1  0.000000  0.000000  0.000000  1
  Ir  Ir9  1  0.500000  0.500000  0.500000  1
  O  O10  1  0.456366  0.773346  0.588894  1
  O  O11  1  0.588894  0.456366  0.773346  1
  O  O12  1  0.773346  0.588894  0.456366  1
  O  O13  1  0.043634  0.911106  0.726654  1
  O  O14  1  0.726654  0.043634  0.911106  1
  O  O15  1  0.911106  0.726654  0.043634  1
  O  O16  1  0.543634  0.226654  0.411106  1
  O  O17  1  0.411106  0.543634  0.226654  1
  O  O18  1  0.226654  0.411106  0.543634  1
  O  O19  1  0.956366  0.088894  0.273346  1
  O  O20  1  0.088894  0.273346  0.956366  1
  O  O21  1  0.273346  0.956366  0.088894  1
