# generated using pymatgen
data_Tb7Er(TmIn5)4
_symmetry_space_group_name_H-M   'P 1'
_cell_length_a   6.49285265
_cell_length_b   10.40223586
_cell_length_c   12.25380500
_cell_angle_alpha   90.05526754
_cell_angle_beta   89.95920462
_cell_angle_gamma   90.00401614
_symmetry_Int_Tables_number   1
_chemical_formula_structural   Tb7Er(TmIn5)4
_chemical_formula_sum   'Tb7 Er1 Tm4 In20'
_cell_volume   827.62365561
_cell_formula_units_Z   1
loop_
 _symmetry_equiv_pos_site_id
 _symmetry_equiv_pos_as_xyz
  1  'x, y, z'
loop_
 _atom_site_type_symbol
 _atom_site_label
 _atom_site_symmetry_multiplicity
 _atom_site_fract_x
 _atom_site_fract_y
 _atom_site_fract_z
 _atom_site_occupancy
  Tb  Tb0  1  0.609539  0.006756  0.642202  1
  Tb  Tb1  1  0.109461  0.993006  0.857930  1
  Tb  Tb2  1  0.390566  0.506966  0.357817  1
  Tb  Tb3  1  0.109249  0.506921  0.858485  1
  Tb  Tb4  1  0.390563  0.993103  0.357638  1
  Tb  Tb5  1  0.890292  0.007017  0.142332  1
  Tb  Tb6  1  0.609603  0.493102  0.642089  1
  Er  Er7  1  0.890905  0.492887  0.141647  1
  Tm  Tm8  1  0.349179  0.750263  0.055768  1
  Tm  Tm9  1  0.149875  0.749993  0.555641  1
  Tm  Tm10  1  0.650144  0.250294  0.944533  1
  Tm  Tm11  1  0.849952  0.249752  0.444296  1
  In  In12  1  0.614822  0.749879  0.504560  1
  In  In13  1  0.884382  0.749121  0.006026  1
  In  In14  1  0.385382  0.249940  0.495185  1
  In  In15  1  0.114468  0.250097  0.995176  1
  In  In16  1  0.651243  0.749122  0.244232  1
  In  In17  1  0.849570  0.749865  0.745040  1
  In  In18  1  0.349735  0.250142  0.755237  1
  In  In19  1  0.150455  0.250582  0.254937  1
  In  In20  1  0.124912  0.749919  0.283472  1
  In  In21  1  0.375069  0.749784  0.783375  1
  In  In22  1  0.875108  0.250113  0.716592  1
  In  In23  1  0.626461  0.251282  0.216230  1
  In  In24  1  0.875623  0.543030  0.400445  1
  In  In25  1  0.624982  0.956439  0.901616  1
  In  In26  1  0.124517  0.043563  0.598482  1
  In  In27  1  0.374563  0.456832  0.098825  1
  In  In28  1  0.124465  0.456553  0.598540  1
  In  In29  1  0.375167  0.043848  0.098595  1
  In  In30  1  0.875331  0.956402  0.401393  1
  In  In31  1  0.624419  0.543428  0.901665  1
