# generated using pymatgen
data_Ta3HC2
_symmetry_space_group_name_H-M   'P 1'
_cell_length_a   3.11558600
_cell_length_b   3.11558546
_cell_length_c   7.78364300
_cell_angle_alpha   90.00000000
_cell_angle_beta   90.00000000
_cell_angle_gamma   120.00000573
_symmetry_Int_Tables_number   1
_chemical_formula_structural   Ta3HC2
_chemical_formula_sum   'Ta3 H1 C2'
_cell_volume   65.43241162
_cell_formula_units_Z   1
loop_
 _symmetry_equiv_pos_site_id
 _symmetry_equiv_pos_as_xyz
  1  'x, y, z'
loop_
 _atom_site_type_symbol
 _atom_site_label
 _atom_site_symmetry_multiplicity
 _atom_site_fract_x
 _atom_site_fract_y
 _atom_site_fract_z
 _atom_site_occupancy
  Ta  Ta0  1  0.000000  0.000000  0.500000  1
  Ta  Ta1  1  0.333333  0.666667  0.169214  1
  Ta  Ta2  1  0.666667  0.333333  0.830786  1
  H  H3  1  0.000000  0.000000  0.000000  1
  C  C4  1  0.333333  0.666667  0.668614  1
  C  C5  1  0.666667  0.333333  0.331386  1
