# generated using pymatgen
data_VGa2Ni5Pt4
_symmetry_space_group_name_H-M   'P 1'
_cell_length_a   3.70204000
_cell_length_b   3.76331300
_cell_length_c   11.34751200
_cell_angle_alpha   90.00000000
_cell_angle_beta   90.00000000
_cell_angle_gamma   90.00000000
_symmetry_Int_Tables_number   1
_chemical_formula_structural   VGa2Ni5Pt4
_chemical_formula_sum   'V1 Ga2 Ni5 Pt4'
_cell_volume   158.09280253
_cell_formula_units_Z   1
loop_
 _symmetry_equiv_pos_site_id
 _symmetry_equiv_pos_as_xyz
  1  'x, y, z'
loop_
 _atom_site_type_symbol
 _atom_site_label
 _atom_site_symmetry_multiplicity
 _atom_site_fract_x
 _atom_site_fract_y
 _atom_site_fract_z
 _atom_site_occupancy
  V  V0  1  0.000000  0.000000  0.000000  1
  Ga  Ga1  1  0.000000  0.000000  0.343940  1
  Ga  Ga2  1  0.000000  0.000000  0.656060  1
  Ni  Ni3  1  0.500000  0.500000  0.000000  1
  Ni  Ni4  1  0.500000  0.000000  0.500000  1
  Ni  Ni5  1  0.000000  0.500000  0.154120  1
  Ni  Ni6  1  0.000000  0.500000  0.500000  1
  Ni  Ni7  1  0.000000  0.500000  0.845880  1
  Pt  Pt8  1  0.500000  0.500000  0.335013  1
  Pt  Pt9  1  0.500000  0.500000  0.664987  1
  Pt  Pt10  1  0.500000  0.000000  0.156542  1
  Pt  Pt11  1  0.500000  0.000000  0.843458  1
