# generated using pymatgen
data_Sb8Ir3Pt
_symmetry_space_group_name_H-M   'P 1'
_cell_length_a   6.61659157
_cell_length_b   6.72084258
_cell_length_c   6.75054464
_cell_angle_alpha   69.39354437
_cell_angle_beta   90.04826918
_cell_angle_gamma   90.02575813
_symmetry_Int_Tables_number   1
_chemical_formula_structural   Sb8Ir3Pt
_chemical_formula_sum   'Sb8 Ir3 Pt1'
_cell_volume   280.98412291
_cell_formula_units_Z   1
loop_
 _symmetry_equiv_pos_site_id
 _symmetry_equiv_pos_as_xyz
  1  'x, y, z'
loop_
 _atom_site_type_symbol
 _atom_site_label
 _atom_site_symmetry_multiplicity
 _atom_site_fract_x
 _atom_site_fract_y
 _atom_site_fract_z
 _atom_site_occupancy
  Sb  Sb0  1  0.130897  0.138587  0.132724  1
  Sb  Sb1  1  0.638382  0.839050  0.368924  1
  Sb  Sb2  1  0.864457  0.858917  0.865245  1
  Sb  Sb3  1  0.362377  0.151843  0.641389  1
  Sb  Sb4  1  0.636207  0.361515  0.836616  1
  Sb  Sb5  1  0.139006  0.658028  0.660175  1
  Sb  Sb6  1  0.364125  0.649299  0.153787  1
  Sb  Sb7  1  0.865828  0.343025  0.341006  1
  Ir  Ir8  1  0.000403  0.734488  0.268681  1
  Ir  Ir9  1  0.501653  0.755292  0.760849  1
  Ir  Ir10  1  0.999486  0.265222  0.730967  1
  Pt  Pt11  1  0.497178  0.244734  0.239637  1
