# generated using pymatgen
data_Cs4Mg3Mn3Se8
_symmetry_space_group_name_H-M   'P 1'
_cell_length_a   10.22799834
_cell_length_b   10.22838652
_cell_length_c   10.22799900
_cell_angle_alpha   143.64052609
_cell_angle_beta   106.34199991
_cell_angle_gamma   85.02558746
_symmetry_Int_Tables_number   1
_chemical_formula_structural   Cs4Mg3Mn3Se8
_chemical_formula_sum   'Cs4 Mg3 Mn3 Se8'
_cell_volume   590.03961927
_cell_formula_units_Z   1
loop_
 _symmetry_equiv_pos_site_id
 _symmetry_equiv_pos_as_xyz
  1  'x, y, z'
loop_
 _atom_site_type_symbol
 _atom_site_label
 _atom_site_symmetry_multiplicity
 _atom_site_fract_x
 _atom_site_fract_y
 _atom_site_fract_z
 _atom_site_occupancy
  Cs  Cs0  1  0.119873  0.235843  0.357948  1
  Cs  Cs1  1  0.378814  0.735731  0.114943  1
  Cs  Cs2  1  0.622105  0.264157  0.884032  1
  Cs  Cs3  1  0.879213  0.764269  0.643083  1
  Mg  Mg4  1  0.249594  0.750000  0.499594  1
  Mg  Mg5  1  0.750119  0.250000  0.500119  1
  Mg  Mg6  1  0.477879  0.250000  0.227879  1
  Mn  Mn7  1  0.021630  0.250000  0.771630  1
  Mn  Mn8  1  0.978373  0.750000  0.228373  1
  Mn  Mn9  1  0.520632  0.750000  0.770632  1
  Se  Se10  1  0.483315  0.632760  0.420602  1
  Se  Se11  1  0.017393  0.434203  0.144205  1
  Se  Se12  1  0.287842  0.867240  0.850555  1
  Se  Se13  1  0.210000  0.065797  0.583189  1
  Se  Se14  1  0.711488  0.123263  0.141815  1
  Se  Se15  1  0.790264  0.934587  0.417503  1
  Se  Se16  1  0.982914  0.565413  0.855675  1
  Se  Se17  1  0.518552  0.376737  0.588225  1
