# generated using pymatgen
data_Zr3Ti2BeSn3
_symmetry_space_group_name_H-M   'P 1'
_cell_length_a   8.47823400
_cell_length_b   8.47823398
_cell_length_c   5.67164800
_cell_angle_alpha   90.00000000
_cell_angle_beta   90.00000000
_cell_angle_gamma   120.00000008
_symmetry_Int_Tables_number   1
_chemical_formula_structural   Zr3Ti2BeSn3
_chemical_formula_sum   'Zr6 Ti4 Be2 Sn6'
_cell_volume   353.06177283
_cell_formula_units_Z   2
loop_
 _symmetry_equiv_pos_site_id
 _symmetry_equiv_pos_as_xyz
  1  'x, y, z'
loop_
 _atom_site_type_symbol
 _atom_site_label
 _atom_site_symmetry_multiplicity
 _atom_site_fract_x
 _atom_site_fract_y
 _atom_site_fract_z
 _atom_site_occupancy
  Zr  Zr0  1  0.251415  0.000000  0.750000  1
  Zr  Zr1  1  0.748585  0.000000  0.250000  1
  Zr  Zr2  1  0.000000  0.251415  0.750000  1
  Zr  Zr3  1  0.000000  0.748585  0.250000  1
  Zr  Zr4  1  0.748585  0.748585  0.750000  1
  Zr  Zr5  1  0.251415  0.251415  0.250000  1
  Ti  Ti6  1  0.333333  0.666667  0.500000  1
  Ti  Ti7  1  0.666667  0.333333  0.500000  1
  Ti  Ti8  1  0.666667  0.333333  0.000000  1
  Ti  Ti9  1  0.333333  0.666667  0.000000  1
  Be  Be10  1  0.000000  0.000000  0.500000  1
  Be  Be11  1  0.000000  0.000000  0.000000  1
  Sn  Sn12  1  0.605143  0.000000  0.750000  1
  Sn  Sn13  1  0.394857  0.000000  0.250000  1
  Sn  Sn14  1  0.000000  0.605143  0.750000  1
  Sn  Sn15  1  0.000000  0.394857  0.250000  1
  Sn  Sn16  1  0.394857  0.394857  0.750000  1
  Sn  Sn17  1  0.605143  0.605143  0.250000  1
