# generated using pymatgen
data_K4Sc3Sb9Se20
_symmetry_space_group_name_H-M   'P 1'
_cell_length_a   3.99111800
_cell_length_b   12.00224131
_cell_length_c   21.62656200
_cell_angle_alpha   89.86501713
_cell_angle_beta   90.00000000
_cell_angle_gamma   90.00000000
_symmetry_Int_Tables_number   1
_chemical_formula_structural   K4Sc3Sb9Se20
_chemical_formula_sum   'K4 Sc3 Sb9 Se20'
_cell_volume   1035.96051218
_cell_formula_units_Z   1
loop_
 _symmetry_equiv_pos_site_id
 _symmetry_equiv_pos_as_xyz
  1  'x, y, z'
loop_
 _atom_site_type_symbol
 _atom_site_label
 _atom_site_symmetry_multiplicity
 _atom_site_fract_x
 _atom_site_fract_y
 _atom_site_fract_z
 _atom_site_occupancy
  K  K0  1  0.250000  0.488850  0.209070  1
  K  K1  1  0.750000  0.509853  0.791481  1
  K  K2  1  0.750000  0.987780  0.288601  1
  K  K3  1  0.250000  0.008308  0.710036  1
  Sc  Sc4  1  0.250000  0.367299  0.022288  1
  Sc  Sc5  1  0.750000  0.632458  0.977668  1
  Sc  Sc6  1  0.750000  0.863494  0.476593  1
  Sb  Sb7  1  0.250000  0.131552  0.523604  1
  Sb  Sb8  1  0.250000  0.804533  0.125616  1
  Sb  Sb9  1  0.750000  0.195212  0.873963  1
  Sb  Sb10  1  0.750000  0.307686  0.372963  1
  Sb  Sb11  1  0.250000  0.692757  0.627263  1
  Sb  Sb12  1  0.250000  0.598684  0.424029  1
  Sb  Sb13  1  0.750000  0.404246  0.575547  1
  Sb  Sb14  1  0.750000  0.100330  0.075776  1
  Sb  Sb15  1  0.250000  0.899631  0.924027  1
  Se  Se16  1  0.250000  0.816297  0.392108  1
  Se  Se17  1  0.750000  0.192767  0.616349  1
  Se  Se18  1  0.750000  0.315399  0.107462  1
  Se  Se19  1  0.250000  0.684511  0.892423  1
  Se  Se20  1  0.250000  0.248630  0.294019  1
  Se  Se21  1  0.750000  0.750350  0.706194  1
  Se  Se22  1  0.750000  0.747582  0.205109  1
  Se  Se23  1  0.250000  0.251408  0.794271  1
  Se  Se24  1  0.250000  0.362666  0.480155  1
  Se  Se25  1  0.750000  0.648968  0.517833  1
  Se  Se26  1  0.750000  0.848654  0.017897  1
  Se  Se27  1  0.250000  0.151365  0.981806  1
  Se  Se28  1  0.250000  0.026747  0.161576  1
  Se  Se29  1  0.750000  0.973142  0.838071  1
  Se  Se30  1  0.750000  0.528579  0.337186  1
  Se  Se31  1  0.250000  0.473202  0.663042  1
  Se  Se32  1  0.250000  0.581330  0.059044  1
  Se  Se33  1  0.750000  0.418522  0.940879  1
  Se  Se34  1  0.750000  0.075076  0.435784  1
  Se  Se35  1  0.250000  0.912137  0.560268  1
