# generated using pymatgen
data_Y6HfAu10
_symmetry_space_group_name_H-M   'P 1'
_cell_length_a   8.66870282
_cell_length_b   8.66870294
_cell_length_c   10.35667700
_cell_angle_alpha   90.00000000
_cell_angle_beta   90.00000000
_cell_angle_gamma   106.53652026
_symmetry_Int_Tables_number   1
_chemical_formula_structural   Y6HfAu10
_chemical_formula_sum   'Y12 Hf2 Au20'
_cell_volume   746.07680443
_cell_formula_units_Z   2
loop_
 _symmetry_equiv_pos_site_id
 _symmetry_equiv_pos_as_xyz
  1  'x, y, z'
loop_
 _atom_site_type_symbol
 _atom_site_label
 _atom_site_symmetry_multiplicity
 _atom_site_fract_x
 _atom_site_fract_y
 _atom_site_fract_z
 _atom_site_occupancy
  Y  Y0  1  0.694259  0.305741  0.000000  1
  Y  Y1  1  0.305741  0.694259  0.000000  1
  Y  Y2  1  0.805741  0.194259  0.500000  1
  Y  Y3  1  0.194259  0.805741  0.500000  1
  Y  Y4  1  0.002485  0.502485  0.250000  1
  Y  Y5  1  0.997515  0.497515  0.750000  1
  Y  Y6  1  0.497515  0.997515  0.750000  1
  Y  Y7  1  0.502485  0.002485  0.250000  1
  Y  Y8  1  0.309050  0.309050  0.191426  1
  Y  Y9  1  0.690950  0.690950  0.808574  1
  Y  Y10  1  0.190950  0.190950  0.691426  1
  Y  Y11  1  0.809050  0.809050  0.308574  1
  Hf  Hf12  1  0.000000  0.000000  0.000000  1
  Hf  Hf13  1  0.500000  0.500000  0.500000  1
  Au  Au14  1  0.865152  0.146380  0.203527  1
  Au  Au15  1  0.134848  0.853620  0.796473  1
  Au  Au16  1  0.634848  0.353620  0.703527  1
  Au  Au17  1  0.646380  0.365152  0.296473  1
  Au  Au18  1  0.365152  0.646380  0.296473  1
  Au  Au19  1  0.353620  0.634848  0.703527  1
  Au  Au20  1  0.853620  0.134848  0.796473  1
  Au  Au21  1  0.146380  0.865152  0.203527  1
  Au  Au22  1  0.937688  0.654633  0.003810  1
  Au  Au23  1  0.062312  0.345367  0.996190  1
  Au  Au24  1  0.562312  0.845367  0.503810  1
  Au  Au25  1  0.154633  0.437688  0.496190  1
  Au  Au26  1  0.437688  0.154633  0.496190  1
  Au  Au27  1  0.845367  0.562312  0.503810  1
  Au  Au28  1  0.345367  0.062312  0.996190  1
  Au  Au29  1  0.654633  0.937688  0.003810  1
  Au  Au30  1  0.101805  0.101805  0.398521  1
  Au  Au31  1  0.898195  0.898195  0.601479  1
  Au  Au32  1  0.398195  0.398195  0.898521  1
  Au  Au33  1  0.601805  0.601805  0.101479  1
