# generated using pymatgen
data_Zr11Ta9AlSi15
_symmetry_space_group_name_H-M   'P 1'
_cell_length_a   6.96517495
_cell_length_b   6.95261598
_cell_length_c   12.83768364
_cell_angle_alpha   90.14293614
_cell_angle_beta   89.83922832
_cell_angle_gamma   90.04083037
_symmetry_Int_Tables_number   1
_chemical_formula_structural   Zr11Ta9AlSi15
_chemical_formula_sum   'Zr11 Ta9 Al1 Si15'
_cell_volume   621.67552798
_cell_formula_units_Z   1
loop_
 _symmetry_equiv_pos_site_id
 _symmetry_equiv_pos_as_xyz
  1  'x, y, z'
loop_
 _atom_site_type_symbol
 _atom_site_label
 _atom_site_symmetry_multiplicity
 _atom_site_fract_x
 _atom_site_fract_y
 _atom_site_fract_z
 _atom_site_occupancy
  Zr  Zr0  1  0.500149  0.350929  0.623664  1
  Zr  Zr1  1  0.501664  0.650210  0.124543  1
  Zr  Zr2  1  0.148128  0.998462  0.874147  1
  Zr  Zr3  1  0.001237  0.654562  0.032651  1
  Zr  Zr4  1  0.996335  0.339922  0.530998  1
  Zr  Zr5  1  0.658627  0.000031  0.969108  1
  Zr  Zr6  1  0.153024  0.498215  0.781679  1
  Zr  Zr7  1  0.842791  0.499854  0.279540  1
  Zr  Zr8  1  0.502026  0.157519  0.219669  1
  Zr  Zr9  1  0.500376  0.843130  0.718013  1
  Zr  Zr10  1  0.344559  0.003581  0.468191  1
  Ta  Ta11  1  0.353310  0.505928  0.374443  1
  Ta  Ta12  1  0.847832  0.002689  0.371949  1
  Ta  Ta13  1  0.007107  0.152697  0.126014  1
  Ta  Ta14  1  0.991155  0.849466  0.628923  1
  Ta  Ta15  1  0.651682  0.490549  0.875973  1
  Ta  Ta16  1  0.667736  0.673324  0.500213  1
  Ta  Ta17  1  0.827497  0.169385  0.749756  1
  Ta  Ta18  1  0.173546  0.834316  0.249345  1
  Ta  Ta19  1  0.330168  0.326987  0.000456  1
  Al  Al20  1  0.043502  0.702475  0.435550  1
  Si  Si21  1  0.953858  0.299170  0.936463  1
  Si  Si22  1  0.703439  0.044003  0.562429  1
  Si  Si23  1  0.201220  0.453789  0.187286  1
  Si  Si24  1  0.799302  0.546569  0.685709  1
  Si  Si25  1  0.455375  0.199135  0.815066  1
  Si  Si26  1  0.547959  0.801260  0.315998  1
  Si  Si27  1  0.300936  0.956580  0.064910  1
  Si  Si28  1  0.855191  0.788508  0.822165  1
  Si  Si29  1  0.138160  0.209852  0.323775  1
  Si  Si30  1  0.800948  0.865149  0.179377  1
  Si  Si31  1  0.288118  0.643652  0.571144  1
  Si  Si32  1  0.709769  0.356331  0.071346  1
  Si  Si33  1  0.638163  0.295808  0.425914  1
  Si  Si34  1  0.363748  0.699260  0.926739  1
  Si  Si35  1  0.201365  0.136703  0.676851  1
