# generated using pymatgen
data_Eu20IrPt7Rh4
_symmetry_space_group_name_H-M   'P 1'
_cell_length_a   11.49471662
_cell_length_b   11.49471680
_cell_length_c   6.62090900
_cell_angle_alpha   90.04546392
_cell_angle_beta   90.04546392
_cell_angle_gamma   89.98978551
_symmetry_Int_Tables_number   1
_chemical_formula_structural   Eu20IrPt7Rh4
_chemical_formula_sum   'Eu20 Ir1 Pt7 Rh4'
_cell_volume   874.81029116
_cell_formula_units_Z   1
loop_
 _symmetry_equiv_pos_site_id
 _symmetry_equiv_pos_as_xyz
  1  'x, y, z'
loop_
 _atom_site_type_symbol
 _atom_site_label
 _atom_site_symmetry_multiplicity
 _atom_site_fract_x
 _atom_site_fract_y
 _atom_site_fract_z
 _atom_site_occupancy
  Eu  Eu0  1  0.293422  0.086259  0.373629  1
  Eu  Eu1  1  0.294902  0.907852  0.874739  1
  Eu  Eu2  1  0.705471  0.085989  0.873711  1
  Eu  Eu3  1  0.704709  0.912355  0.373388  1
  Eu  Eu4  1  0.583631  0.791888  0.873638  1
  Eu  Eu5  1  0.586864  0.206910  0.374172  1
  Eu  Eu6  1  0.410566  0.791100  0.379809  1
  Eu  Eu7  1  0.412152  0.204449  0.873994  1
  Eu  Eu8  1  0.208112  0.416369  0.626362  1
  Eu  Eu9  1  0.208900  0.589434  0.120191  1
  Eu  Eu10  1  0.793090  0.413136  0.125828  1
  Eu  Eu11  1  0.795551  0.587848  0.626006  1
  Eu  Eu12  1  0.913741  0.706578  0.126371  1
  Eu  Eu13  1  0.914011  0.294529  0.626289  1
  Eu  Eu14  1  0.092148  0.705098  0.625261  1
  Eu  Eu15  1  0.087645  0.295291  0.126612  1
  Eu  Eu16  1  0.999079  0.998992  0.500471  1
  Eu  Eu17  1  0.001008  0.000921  0.999529  1
  Eu  Eu18  1  0.497025  0.501443  0.998619  1
  Eu  Eu19  1  0.498557  0.502975  0.501381  1
  Ir  Ir20  1  0.347206  0.652794  0.750000  1
  Pt  Pt21  1  0.846190  0.153810  0.250000  1
  Pt  Pt22  1  0.845246  0.846561  0.751088  1
  Pt  Pt23  1  0.153439  0.154754  0.748912  1
  Pt  Pt24  1  0.153594  0.846406  0.250000  1
  Pt  Pt25  1  0.653438  0.346562  0.750000  1
  Pt  Pt26  1  0.654582  0.654066  0.250201  1
  Pt  Pt27  1  0.345934  0.345418  0.249799  1
  Rh  Rh28  1  0.499682  0.999770  0.117368  1
  Rh  Rh29  1  0.500169  0.000293  0.615886  1
  Rh  Rh30  1  0.999707  0.499831  0.884114  1
  Rh  Rh31  1  0.000230  0.500318  0.382632  1
