# generated using pymatgen
data_Ho2Fe2C3
_symmetry_space_group_name_H-M   'P 1'
_cell_length_a   3.41128076
_cell_length_b   5.50465446
_cell_length_c   5.20729206
_cell_angle_alpha   104.48908501
_cell_angle_beta   109.12004010
_cell_angle_gamma   89.99999452
_symmetry_Int_Tables_number   1
_chemical_formula_structural   Ho2Fe2C3
_chemical_formula_sum   'Ho2 Fe2 C3'
_cell_volume   89.08988497
_cell_formula_units_Z   1
loop_
 _symmetry_equiv_pos_site_id
 _symmetry_equiv_pos_as_xyz
  1  'x, y, z'
loop_
 _atom_site_type_symbol
 _atom_site_label
 _atom_site_symmetry_multiplicity
 _atom_site_fract_x
 _atom_site_fract_y
 _atom_site_fract_z
 _atom_site_occupancy
  Ho  Ho0  1  0.607649  0.814225  0.215301  1
  Ho  Ho1  1  0.392349  0.185776  0.784698  1
  Fe  Fe2  1  0.158941  0.397447  0.317883  1
  Fe  Fe3  1  0.841058  0.602554  0.682118  1
  C  C4  1  0.000000  0.500000  0.000000  1
  C  C5  1  0.708447  0.269431  0.416898  1
  C  C6  1  0.291551  0.730568  0.583100  1
