# generated using pymatgen
data_Eu(GaAu)3
_symmetry_space_group_name_H-M   'P 1'
_cell_length_a   4.58313200
_cell_length_b   7.14574500
_cell_length_c   8.82486100
_cell_angle_alpha   90.00000000
_cell_angle_beta   90.00000000
_cell_angle_gamma   90.00000000
_symmetry_Int_Tables_number   1
_chemical_formula_structural   Eu(GaAu)3
_chemical_formula_sum   'Eu2 Ga6 Au6'
_cell_volume   289.01324972
_cell_formula_units_Z   2
loop_
 _symmetry_equiv_pos_site_id
 _symmetry_equiv_pos_as_xyz
  1  'x, y, z'
loop_
 _atom_site_type_symbol
 _atom_site_label
 _atom_site_symmetry_multiplicity
 _atom_site_fract_x
 _atom_site_fract_y
 _atom_site_fract_z
 _atom_site_occupancy
  Eu  Eu0  1  0.000000  0.500000  0.251488  1
  Eu  Eu1  1  0.500000  0.000000  0.748512  1
  Ga  Ga2  1  0.500000  0.500000  0.625573  1
  Ga  Ga3  1  0.000000  0.307361  0.888205  1
  Ga  Ga4  1  0.000000  0.692639  0.888205  1
  Ga  Ga5  1  0.500000  0.807361  0.111795  1
  Ga  Ga6  1  0.000000  0.000000  0.374427  1
  Ga  Ga7  1  0.500000  0.192639  0.111795  1
  Au  Au8  1  0.000000  0.729402  0.597910  1
  Au  Au9  1  0.500000  0.500000  0.942007  1
  Au  Au10  1  0.000000  0.270598  0.597910  1
  Au  Au11  1  0.500000  0.770598  0.402090  1
  Au  Au12  1  0.000000  0.000000  0.057993  1
  Au  Au13  1  0.500000  0.229402  0.402090  1
