# generated using pymatgen
data_Yb3SmSnSb3O14
_symmetry_space_group_name_H-M   'P 1'
_cell_length_a   7.39384161
_cell_length_b   7.38595833
_cell_length_c   7.41744500
_cell_angle_alpha   59.85887466
_cell_angle_beta   59.89433864
_cell_angle_gamma   59.80171674
_symmetry_Int_Tables_number   1
_chemical_formula_structural   Yb3SmSnSb3O14
_chemical_formula_sum   'Yb3 Sm1 Sn1 Sb3 O14'
_cell_volume   285.46385629
_cell_formula_units_Z   1
loop_
 _symmetry_equiv_pos_site_id
 _symmetry_equiv_pos_as_xyz
  1  'x, y, z'
loop_
 _atom_site_type_symbol
 _atom_site_label
 _atom_site_symmetry_multiplicity
 _atom_site_fract_x
 _atom_site_fract_y
 _atom_site_fract_z
 _atom_site_occupancy
  Yb  Yb0  1  0.625000  0.625000  0.125000  1
  Yb  Yb1  1  0.625000  0.125000  0.625000  1
  Yb  Yb2  1  0.625000  0.625000  0.625000  1
  Sm  Sm3  1  0.125000  0.625000  0.625000  1
  Sn  Sn4  1  0.125000  0.625000  0.125000  1
  Sb  Sb5  1  0.125000  0.125000  0.625000  1
  Sb  Sb6  1  0.625000  0.125000  0.125000  1
  Sb  Sb7  1  0.125000  0.125000  0.125000  1
  O  O8  1  0.752495  0.750657  0.748425  1
  O  O9  1  0.497505  0.499343  0.501575  1
  O  O10  1  0.044598  0.450057  0.042783  1
  O  O11  1  0.800104  0.196665  0.799008  1
  O  O12  1  0.046226  0.052066  0.450854  1
  O  O13  1  0.449896  0.053335  0.045778  1
  O  O14  1  0.044598  0.450057  0.462560  1
  O  O15  1  0.461814  0.449598  0.044294  1
  O  O16  1  0.449896  0.053335  0.450992  1
  O  O17  1  0.205402  0.799943  0.787440  1
  O  O18  1  0.800104  0.196665  0.204222  1
  O  O19  1  0.205402  0.799943  0.207217  1
  O  O20  1  0.788186  0.800402  0.205706  1
  O  O21  1  0.203774  0.197934  0.799146  1
