# generated using pymatgen
data_La8Al7Ga3Br4
_symmetry_space_group_name_H-M   'P 1'
_cell_length_a   11.83755979
_cell_length_b   11.82102749
_cell_length_c   4.31415200
_cell_angle_alpha   90.00000000
_cell_angle_beta   90.00000000
_cell_angle_gamma   93.40790432
_symmetry_Int_Tables_number   1
_chemical_formula_structural   La8Al7Ga3Br4
_chemical_formula_sum   'La8 Al7 Ga3 Br4'
_cell_volume   602.62089354
_cell_formula_units_Z   1
loop_
 _symmetry_equiv_pos_site_id
 _symmetry_equiv_pos_as_xyz
  1  'x, y, z'
loop_
 _atom_site_type_symbol
 _atom_site_label
 _atom_site_symmetry_multiplicity
 _atom_site_fract_x
 _atom_site_fract_y
 _atom_site_fract_z
 _atom_site_occupancy
  La  La0  1  0.734491  0.735472  0.000000  1
  La  La1  1  0.040313  0.677203  0.500000  1
  La  La2  1  0.363350  0.636164  0.000000  1
  La  La3  1  0.960535  0.323974  0.500000  1
  La  La4  1  0.265495  0.265306  0.000000  1
  La  La5  1  0.636197  0.363531  0.000000  1
  La  La6  1  0.675522  0.039460  0.500000  1
  La  La7  1  0.324525  0.960510  0.500000  1
  Al  Al8  1  0.579470  0.580030  0.500000  1
  Al  Al9  1  0.420084  0.419922  0.500000  1
  Al  Al10  1  0.214374  0.479999  0.500000  1
  Al  Al11  1  0.784477  0.520088  0.500000  1
  Al  Al12  1  0.519527  0.785780  0.500000  1
  Al  Al13  1  0.480475  0.214225  0.500000  1
  Al  Al14  1  0.899889  0.528989  0.000000  1
  Ga  Ga15  1  0.531190  0.899292  0.000000  1
  Ga  Ga16  1  0.468741  0.100693  0.000000  1
  Ga  Ga17  1  0.101422  0.469390  0.000000  1
  Br  Br18  1  0.878287  0.878849  0.500000  1
  Br  Br19  1  0.172520  0.828092  0.000000  1
  Br  Br20  1  0.121568  0.121183  0.500000  1
  Br  Br21  1  0.827547  0.171849  0.000000  1
