# generated using pymatgen
data_CaYb2DyNi13C4
_symmetry_space_group_name_H-M   'P 1'
_cell_length_a   8.31224248
_cell_length_b   8.31224188
_cell_length_c   3.85254100
_cell_angle_alpha   90.00000000
_cell_angle_beta   90.00000000
_cell_angle_gamma   90.53477073
_symmetry_Int_Tables_number   1
_chemical_formula_structural   CaYb2DyNi13C4
_chemical_formula_sum   'Ca1 Yb2 Dy1 Ni13 C4'
_cell_volume   266.17344682
_cell_formula_units_Z   1
loop_
 _symmetry_equiv_pos_site_id
 _symmetry_equiv_pos_as_xyz
  1  'x, y, z'
loop_
 _atom_site_type_symbol
 _atom_site_label
 _atom_site_symmetry_multiplicity
 _atom_site_fract_x
 _atom_site_fract_y
 _atom_site_fract_z
 _atom_site_occupancy
  Ca  Ca0  1  0.348846  0.348846  0.500000  1
  Yb  Yb1  1  0.808449  0.191123  0.500000  1
  Yb  Yb2  1  0.191123  0.808449  0.500000  1
  Dy  Dy3  1  0.652536  0.652536  0.500000  1
  Ni  Ni4  1  0.998446  0.998446  0.000000  1
  Ni  Ni5  1  0.215941  0.575571  0.000000  1
  Ni  Ni6  1  0.786716  0.429530  0.000000  1
  Ni  Ni7  1  0.429530  0.786716  0.000000  1
  Ni  Ni8  1  0.575571  0.215941  0.000000  1
  Ni  Ni9  1  0.995323  0.502259  0.500000  1
  Ni  Ni10  1  0.502259  0.995323  0.500000  1
  Ni  Ni11  1  0.069495  0.286521  0.000000  1
  Ni  Ni12  1  0.925888  0.709952  0.000000  1
  Ni  Ni13  1  0.709952  0.925888  0.000000  1
  Ni  Ni14  1  0.286521  0.069495  0.000000  1
  Ni  Ni15  1  0.116709  0.116709  0.500000  1
  Ni  Ni16  1  0.881217  0.881217  0.500000  1
  C  C17  1  0.003410  0.499262  0.000000  1
  C  C18  1  0.499262  0.003410  0.000000  1
  C  C19  1  0.444059  0.558748  0.000000  1
  C  C20  1  0.558748  0.444059  0.000000  1
