# generated using pymatgen
data_LiEr8TlCo2
_symmetry_space_group_name_H-M   'P 1'
_cell_length_a   9.43762499
_cell_length_b   9.43762653
_cell_length_c   9.44206800
_cell_angle_alpha   59.98443103
_cell_angle_beta   59.98442561
_cell_angle_gamma   59.87520092
_symmetry_Int_Tables_number   1
_chemical_formula_structural   LiEr8TlCo2
_chemical_formula_sum   'Li2 Er16 Tl2 Co4'
_cell_volume   593.96967960
_cell_formula_units_Z   2
loop_
 _symmetry_equiv_pos_site_id
 _symmetry_equiv_pos_as_xyz
  1  'x, y, z'
loop_
 _atom_site_type_symbol
 _atom_site_label
 _atom_site_symmetry_multiplicity
 _atom_site_fract_x
 _atom_site_fract_y
 _atom_site_fract_z
 _atom_site_occupancy
  Li  Li0  1  0.821707  0.821707  0.530998  1
  Li  Li1  1  0.821715  0.821715  0.825564  1
  Er  Er2  1  0.439456  0.439456  0.060613  1
  Er  Er3  1  0.595551  0.595551  0.598260  1
  Er  Er4  1  0.186992  0.811647  0.812608  1
  Er  Er5  1  0.066653  0.066653  0.433338  1
  Er  Er6  1  0.437020  0.064029  0.061712  1
  Er  Er7  1  0.811647  0.186992  0.812608  1
  Er  Er8  1  0.437020  0.064080  0.437238  1
  Er  Er9  1  0.593425  0.218387  0.594070  1
  Er  Er10  1  0.810095  0.810095  0.189890  1
  Er  Er11  1  0.218387  0.593425  0.594070  1
  Er  Er12  1  0.811643  0.186980  0.188763  1
  Er  Er13  1  0.064080  0.437020  0.437238  1
  Er  Er14  1  0.186980  0.811643  0.188763  1
  Er  Er15  1  0.595534  0.595534  0.210626  1
  Er  Er16  1  0.186722  0.186722  0.813278  1
  Er  Er17  1  0.064029  0.437020  0.061712  1
  Tl  Tl18  1  0.506254  0.836546  0.828595  1
  Tl  Tl19  1  0.836546  0.506254  0.828595  1
  Co  Co20  1  0.392960  0.392960  0.387273  1
  Co  Co21  1  0.827976  0.394652  0.388684  1
  Co  Co22  1  0.394652  0.827976  0.388684  1
  Co  Co23  1  0.392958  0.392958  0.826819  1
