# generated using pymatgen
data_Ho16In4PdRu2Rh
_symmetry_space_group_name_H-M   'P 1'
_cell_length_a   9.64197983
_cell_length_b   9.63258775
_cell_length_c   9.62293639
_cell_angle_alpha   59.91804804
_cell_angle_beta   59.93452453
_cell_angle_gamma   59.96774831
_symmetry_Int_Tables_number   1
_chemical_formula_structural   Ho16In4PdRu2Rh
_chemical_formula_sum   'Ho16 In4 Pd1 Ru2 Rh1'
_cell_volume   631.11903329
_cell_formula_units_Z   1
loop_
 _symmetry_equiv_pos_site_id
 _symmetry_equiv_pos_as_xyz
  1  'x, y, z'
loop_
 _atom_site_type_symbol
 _atom_site_label
 _atom_site_symmetry_multiplicity
 _atom_site_fract_x
 _atom_site_fract_y
 _atom_site_fract_z
 _atom_site_occupancy
  Ho  Ho0  1  0.189195  0.187693  0.810081  1
  Ho  Ho1  1  0.602055  0.596142  0.199750  1
  Ho  Ho2  1  0.439967  0.066729  0.438531  1
  Ho  Ho3  1  0.439891  0.438601  0.062294  1
  Ho  Ho4  1  0.813031  0.187693  0.810081  1
  Ho  Ho5  1  0.188637  0.808460  0.188222  1
  Ho  Ho6  1  0.439869  0.064874  0.055388  1
  Ho  Ho7  1  0.187054  0.811159  0.814733  1
  Ho  Ho8  1  0.059213  0.438601  0.062294  1
  Ho  Ho9  1  0.814681  0.808460  0.188222  1
  Ho  Ho10  1  0.200129  0.595884  0.601560  1
  Ho  Ho11  1  0.060893  0.439192  0.439021  1
  Ho  Ho12  1  0.054773  0.066729  0.438531  1
  Ho  Ho13  1  0.809673  0.189830  0.190824  1
  Ho  Ho14  1  0.599021  0.203004  0.598953  1
  Ho  Ho15  1  0.602428  0.595884  0.601560  1
  In  In16  1  0.832935  0.832743  0.831932  1
  In  In17  1  0.832817  0.832513  0.501852  1
  In  In18  1  0.502389  0.832743  0.831932  1
  In  In19  1  0.833408  0.500348  0.832837  1
  Pd  Pd20  1  0.392102  0.823025  0.392770  1
  Ru  Ru21  1  0.391122  0.393253  0.392342  1
  Ru  Ru22  1  0.823283  0.393253  0.392342  1
  Rh  Rh23  1  0.391433  0.393190  0.823944  1
