# generated using pymatgen
data_Zr6GaPbC4
_symmetry_space_group_name_H-M   'P 1'
_cell_length_a   3.38254600
_cell_length_b   3.38254670
_cell_length_c   20.01432000
_cell_angle_alpha   90.00000000
_cell_angle_beta   90.00000000
_cell_angle_gamma   120.00001268
_symmetry_Int_Tables_number   1
_chemical_formula_structural   Zr6GaPbC4
_chemical_formula_sum   'Zr6 Ga1 Pb1 C4'
_cell_volume   198.31653622
_cell_formula_units_Z   1
loop_
 _symmetry_equiv_pos_site_id
 _symmetry_equiv_pos_as_xyz
  1  'x, y, z'
loop_
 _atom_site_type_symbol
 _atom_site_label
 _atom_site_symmetry_multiplicity
 _atom_site_fract_x
 _atom_site_fract_y
 _atom_site_fract_z
 _atom_site_occupancy
  Zr  Zr0  1  0.000000  0.000000  0.994176  1
  Zr  Zr1  1  0.333333  0.666667  0.122093  1
  Zr  Zr2  1  0.333333  0.666667  0.377907  1
  Zr  Zr3  1  0.000000  0.000000  0.505824  1
  Zr  Zr4  1  0.666667  0.333335  0.634970  1
  Zr  Zr5  1  0.666667  0.333335  0.865030  1
  Ga  Ga6  1  0.000000  0.000000  0.750000  1
  Pb  Pb7  1  0.000000  0.000000  0.250000  1
  C  C8  1  0.666667  0.333335  0.064470  1
  C  C9  1  0.666667  0.333335  0.435530  1
  C  C10  1  0.333333  0.666667  0.576406  1
  C  C11  1  0.333333  0.666667  0.923594  1
