# generated using pymatgen
data_ScSeIO6
_symmetry_space_group_name_H-M   'P 1'
_cell_length_a   5.51250900
_cell_length_b   5.57750512
_cell_length_c   9.47685888
_cell_angle_alpha   90.41365908
_cell_angle_beta   90.00054827
_cell_angle_gamma   89.99939993
_symmetry_Int_Tables_number   1
_chemical_formula_structural   ScSeIO6
_chemical_formula_sum   'Sc2 Se2 I2 O12'
_cell_volume   291.36835616
_cell_formula_units_Z   2
loop_
 _symmetry_equiv_pos_site_id
 _symmetry_equiv_pos_as_xyz
  1  'x, y, z'
loop_
 _atom_site_type_symbol
 _atom_site_label
 _atom_site_symmetry_multiplicity
 _atom_site_fract_x
 _atom_site_fract_y
 _atom_site_fract_z
 _atom_site_occupancy
  Sc  Sc0  1  0.812532  0.732454  0.260985  1
  Sc  Sc1  1  0.312536  0.267533  0.739017  1
  Se  Se2  1  0.709588  0.234025  0.432141  1
  Se  Se3  1  0.209586  0.765981  0.567861  1
  I  I4  1  0.729150  0.774254  0.891442  1
  I  I5  1  0.229151  0.225739  0.108553  1
  O  O6  1  0.625877  0.662202  0.063567  1
  O  O7  1  0.125878  0.337807  0.936436  1
  O  O8  1  0.012890  0.820740  0.431335  1
  O  O9  1  0.512882  0.179255  0.568657  1
  O  O10  1  0.587923  0.492852  0.360357  1
  O  O11  1  0.087916  0.507163  0.639642  1
  O  O12  1  0.548201  0.051268  0.888048  1
  O  O13  1  0.048203  0.948726  0.111951  1
  O  O14  1  0.548014  0.581634  0.777840  1
  O  O15  1  0.048023  0.418365  0.222161  1
  O  O16  1  0.601071  0.028239  0.306070  1
  O  O17  1  0.101074  0.971767  0.693939  1
