# generated using pymatgen
data_La6Tb2YPt6
_symmetry_space_group_name_H-M   'P 1'
_cell_length_a   7.76801142
_cell_length_b   7.76801091
_cell_length_c   7.76801147
_cell_angle_alpha   71.11719393
_cell_angle_beta   71.11719442
_cell_angle_gamma   71.11719132
_symmetry_Int_Tables_number   1
_chemical_formula_structural   La6Tb2YPt6
_chemical_formula_sum   'La6 Tb2 Y1 Pt6'
_cell_volume   406.90556261
_cell_formula_units_Z   1
loop_
 _symmetry_equiv_pos_site_id
 _symmetry_equiv_pos_as_xyz
  1  'x, y, z'
loop_
 _atom_site_type_symbol
 _atom_site_label
 _atom_site_symmetry_multiplicity
 _atom_site_fract_x
 _atom_site_fract_y
 _atom_site_fract_z
 _atom_site_occupancy
  La  La0  1  0.327033  0.607026  0.840161  1
  La  La1  1  0.840161  0.327033  0.607026  1
  La  La2  1  0.607026  0.840161  0.327033  1
  La  La3  1  0.672929  0.392903  0.159866  1
  La  La4  1  0.159866  0.672929  0.392903  1
  La  La5  1  0.392903  0.159866  0.672929  1
  Tb  Tb6  1  0.999999  0.999999  0.999999  1
  Tb  Tb7  1  0.804296  0.804296  0.804296  1
  Y  Y8  1  0.195747  0.195747  0.195747  1
  Pt  Pt9  1  0.160295  0.962645  0.591329  1
  Pt  Pt10  1  0.591329  0.160295  0.962645  1
  Pt  Pt11  1  0.962645  0.591329  0.160295  1
  Pt  Pt12  1  0.839616  0.037347  0.408809  1
  Pt  Pt13  1  0.408809  0.839616  0.037347  1
  Pt  Pt14  1  0.037347  0.408809  0.839616  1
