# generated using pymatgen
data_CsBi(WO4)2
_symmetry_space_group_name_H-M   'P 1'
_cell_length_a   7.88147382
_cell_length_b   7.88147423
_cell_length_c   7.64581270
_cell_angle_alpha   62.69623943
_cell_angle_beta   62.69623800
_cell_angle_gamma   90.21773710
_symmetry_Int_Tables_number   1
_chemical_formula_structural   CsBi(WO4)2
_chemical_formula_sum   'Cs2 Bi2 W4 O16'
_cell_volume   360.94188618
_cell_formula_units_Z   2
loop_
 _symmetry_equiv_pos_site_id
 _symmetry_equiv_pos_as_xyz
  1  'x, y, z'
loop_
 _atom_site_type_symbol
 _atom_site_label
 _atom_site_symmetry_multiplicity
 _atom_site_fract_x
 _atom_site_fract_y
 _atom_site_fract_z
 _atom_site_occupancy
  Cs  Cs0  1  0.705547  0.294453  0.250000  1
  Cs  Cs1  1  0.294453  0.705547  0.750000  1
  Bi  Bi2  1  0.713817  0.286183  0.750000  1
  Bi  Bi3  1  0.286183  0.713817  0.250000  1
  W  W4  1  0.186190  0.195701  0.785969  1
  W  W5  1  0.195701  0.186190  0.285969  1
  W  W6  1  0.804299  0.813810  0.714031  1
  W  W7  1  0.813810  0.804299  0.214031  1
  O  O8  1  0.447920  0.269962  0.702487  1
  O  O9  1  0.730038  0.552080  0.797513  1
  O  O10  1  0.552080  0.730038  0.297513  1
  O  O11  1  0.269962  0.447920  0.202487  1
  O  O12  1  0.142601  0.438446  0.632092  1
  O  O13  1  0.561554  0.857399  0.867908  1
  O  O14  1  0.857399  0.561554  0.367908  1
  O  O15  1  0.438446  0.142601  0.132092  1
  O  O16  1  0.129790  0.243515  0.063511  1
  O  O17  1  0.756485  0.870210  0.436489  1
  O  O18  1  0.870210  0.756485  0.936489  1
  O  O19  1  0.243515  0.129790  0.563511  1
  O  O20  1  0.090876  0.880584  0.466749  1
  O  O21  1  0.119416  0.909124  0.033251  1
  O  O22  1  0.909124  0.119416  0.533251  1
  O  O23  1  0.880584  0.090876  0.966749  1
