# generated using pymatgen
data_DyHo2Cd3Sn2Au
_symmetry_space_group_name_H-M   'P 1'
_cell_length_a   7.46899500
_cell_length_b   7.47111836
_cell_length_c   4.53898100
_cell_angle_alpha   90.00000000
_cell_angle_beta   90.00000000
_cell_angle_gamma   119.99058562
_symmetry_Int_Tables_number   1
_chemical_formula_structural   DyHo2Cd3Sn2Au
_chemical_formula_sum   'Dy1 Ho2 Cd3 Sn2 Au1'
_cell_volume   219.37037286
_cell_formula_units_Z   1
loop_
 _symmetry_equiv_pos_site_id
 _symmetry_equiv_pos_as_xyz
  1  'x, y, z'
loop_
 _atom_site_type_symbol
 _atom_site_label
 _atom_site_symmetry_multiplicity
 _atom_site_fract_x
 _atom_site_fract_y
 _atom_site_fract_z
 _atom_site_occupancy
  Dy  Dy0  1  0.593902  0.000000  0.000000  1
  Ho  Ho1  1  0.999987  0.594008  0.000000  1
  Ho  Ho2  1  0.405979  0.405992  0.000000  1
  Cd  Cd3  1  0.240266  0.000000  0.500000  1
  Cd  Cd4  1  0.000060  0.240360  0.500000  1
  Cd  Cd5  1  0.759700  0.759640  0.500000  1
  Sn  Sn6  1  0.333178  0.666445  0.500000  1
  Sn  Sn7  1  0.666734  0.333555  0.500000  1
  Au  Au8  1  0.000193  0.000000  0.000000  1
