# generated using pymatgen
data_ThCu4(AuO4)3
_symmetry_space_group_name_H-M   'P 1'
_cell_length_a   6.59276763
_cell_length_b   6.59276797
_cell_length_c   6.59276700
_cell_angle_alpha   109.47121765
_cell_angle_beta   109.47121871
_cell_angle_gamma   109.47121715
_symmetry_Int_Tables_number   1
_chemical_formula_structural   ThCu4(AuO4)3
_chemical_formula_sum   'Th1 Cu4 Au3 O12'
_cell_volume   220.58777553
_cell_formula_units_Z   1
loop_
 _symmetry_equiv_pos_site_id
 _symmetry_equiv_pos_as_xyz
  1  'x, y, z'
loop_
 _atom_site_type_symbol
 _atom_site_label
 _atom_site_symmetry_multiplicity
 _atom_site_fract_x
 _atom_site_fract_y
 _atom_site_fract_z
 _atom_site_occupancy
  Th  Th0  1  0.000000  0.000000  0.000000  1
  Cu  Cu1  1  0.500000  0.000000  0.000000  1
  Cu  Cu2  1  0.500000  0.500000  0.500000  1
  Cu  Cu3  1  0.000000  0.500000  0.000000  1
  Cu  Cu4  1  0.000000  0.000000  0.500000  1
  Au  Au5  1  0.000000  0.500000  0.500000  1
  Au  Au6  1  0.500000  0.500000  0.000000  1
  Au  Au7  1  0.500000  0.000000  0.500000  1
  O  O8  1  0.294276  0.826921  0.121197  1
  O  O9  1  0.705724  0.173079  0.878803  1
  O  O10  1  0.705724  0.826921  0.532645  1
  O  O11  1  0.878803  0.705724  0.173079  1
  O  O12  1  0.826921  0.121197  0.294276  1
  O  O13  1  0.173079  0.467355  0.294276  1
  O  O14  1  0.467355  0.294276  0.173079  1
  O  O15  1  0.173079  0.878803  0.705724  1
  O  O16  1  0.294276  0.173079  0.467355  1
  O  O17  1  0.121197  0.294276  0.826921  1
  O  O18  1  0.826921  0.532645  0.705724  1
  O  O19  1  0.532645  0.705724  0.826921  1
