# generated using pymatgen
data_ErZr2TcF15
_symmetry_space_group_name_H-M   'P 1'
_cell_length_a   8.14195483
_cell_length_b   8.14195500
_cell_length_c   8.14173802
_cell_angle_alpha   79.74579949
_cell_angle_beta   79.74580166
_cell_angle_gamma   99.93473591
_symmetry_Int_Tables_number   1
_chemical_formula_structural   ErZr2TcF15
_chemical_formula_sum   'Er2 Zr4 Tc2 F30'
_cell_volume   510.86877151
_cell_formula_units_Z   2
loop_
 _symmetry_equiv_pos_site_id
 _symmetry_equiv_pos_as_xyz
  1  'x, y, z'
loop_
 _atom_site_type_symbol
 _atom_site_label
 _atom_site_symmetry_multiplicity
 _atom_site_fract_x
 _atom_site_fract_y
 _atom_site_fract_z
 _atom_site_occupancy
  Er  Er0  1  0.178067  0.821933  0.250000  1
  Er  Er1  1  0.821933  0.178067  0.750000  1
  Zr  Zr2  1  0.747887  0.678132  0.673240  1
  Zr  Zr3  1  0.321868  0.252113  0.826760  1
  Zr  Zr4  1  0.252113  0.321868  0.326760  1
  Zr  Zr5  1  0.678132  0.747887  0.173240  1
  Tc  Tc6  1  0.750362  0.249638  0.250000  1
  Tc  Tc7  1  0.249638  0.750362  0.750000  1
  F  F8  1  0.314114  0.350332  0.054526  1
  F  F9  1  0.936933  0.811333  0.153062  1
  F  F10  1  0.843812  0.459194  0.685873  1
  F  F11  1  0.459194  0.843812  0.185873  1
  F  F12  1  0.811333  0.936933  0.653062  1
  F  F13  1  0.350332  0.314114  0.554525  1
  F  F14  1  0.685886  0.649668  0.945474  1
  F  F15  1  0.063067  0.188667  0.846938  1
  F  F16  1  0.156188  0.540806  0.314127  1
  F  F17  1  0.540806  0.156188  0.814127  1
  F  F18  1  0.188667  0.063067  0.346938  1
  F  F19  1  0.649668  0.685886  0.445474  1
  F  F20  1  0.772930  0.279949  0.002408  1
  F  F21  1  0.999522  0.273715  0.217301  1
  F  F22  1  0.779713  0.500622  0.224378  1
  F  F23  1  0.500622  0.779713  0.724378  1
  F  F24  1  0.273715  0.999522  0.717301  1
  F  F25  1  0.279949  0.772930  0.502408  1
  F  F26  1  0.227070  0.720051  0.997592  1
  F  F27  1  0.000478  0.726285  0.782699  1
  F  F28  1  0.220287  0.499378  0.775622  1
  F  F29  1  0.499378  0.220287  0.275622  1
  F  F30  1  0.726285  0.000478  0.282699  1
  F  F31  1  0.720051  0.227070  0.497592  1
  F  F32  1  0.468501  0.531499  0.250000  1
  F  F33  1  0.747465  0.956173  0.971179  1
  F  F34  1  0.043827  0.252535  0.528821  1
  F  F35  1  0.252535  0.043827  0.028821  1
  F  F36  1  0.956173  0.747465  0.471179  1
  F  F37  1  0.531499  0.468501  0.750000  1
