# generated using pymatgen
data_Dy5MgZr2(P3Ir4)4
_symmetry_space_group_name_H-M   'P 1'
_cell_length_a   12.89227279
_cell_length_b   12.82831690
_cell_length_c   3.98073500
_cell_angle_alpha   90.00000000
_cell_angle_beta   90.00000000
_cell_angle_gamma   119.83603404
_symmetry_Int_Tables_number   1
_chemical_formula_structural   Dy5MgZr2(P3Ir4)4
_chemical_formula_sum   'Dy5 Mg1 Zr2 P12 Ir16'
_cell_volume   571.09485915
_cell_formula_units_Z   1
loop_
 _symmetry_equiv_pos_site_id
 _symmetry_equiv_pos_as_xyz
  1  'x, y, z'
loop_
 _atom_site_type_symbol
 _atom_site_label
 _atom_site_symmetry_multiplicity
 _atom_site_fract_x
 _atom_site_fract_y
 _atom_site_fract_z
 _atom_site_occupancy
  Dy  Dy0  1  0.334502  0.667159  0.500000  1
  Dy  Dy1  1  0.665498  0.332656  0.500000  1
  Dy  Dy2  1  0.000000  0.812568  0.000000  1
  Dy  Dy3  1  0.186680  0.184651  0.000000  1
  Dy  Dy4  1  0.813320  0.997970  0.000000  1
  Mg  Mg5  1  0.000000  0.448489  0.500000  1
  Zr  Zr6  1  0.552590  0.552240  0.500000  1
  Zr  Zr7  1  0.447410  0.999649  0.500000  1
  P  P8  1  0.000000  0.645414  0.500000  1
  P  P9  1  0.350100  0.352972  0.500000  1
  P  P10  1  0.649900  0.002872  0.500000  1
  P  P11  1  0.517089  0.685842  0.000000  1
  P  P12  1  0.311801  0.829261  0.000000  1
  P  P13  1  0.170769  0.483885  0.000000  1
  P  P14  1  0.482911  0.168753  0.000000  1
  P  P15  1  0.688199  0.517460  0.000000  1
  P  P16  1  0.829231  0.313117  0.000000  1
  P  P17  1  0.000000  0.178402  0.500000  1
  P  P18  1  0.824279  0.824369  0.500000  1
  P  P19  1  0.175721  0.000090  0.500000  1
  Ir  Ir20  1  0.505656  0.862851  0.000000  1
  Ir  Ir21  1  0.133246  0.641518  0.000000  1
  Ir  Ir22  1  0.356219  0.488957  0.000000  1
  Ir  Ir23  1  0.494344  0.357194  0.000000  1
  Ir  Ir24  1  0.866754  0.508271  0.000000  1
  Ir  Ir25  1  0.643781  0.132737  0.000000  1
  Ir  Ir26  1  0.000000  0.279312  0.000000  1
  Ir  Ir27  1  0.721851  0.721871  0.000000  1
  Ir  Ir28  1  0.278149  0.000021  0.000000  1
  Ir  Ir29  1  0.629767  0.808864  0.500000  1
  Ir  Ir30  1  0.191643  0.820763  0.500000  1
  Ir  Ir31  1  0.176551  0.372959  0.500000  1
  Ir  Ir32  1  0.370233  0.179097  0.500000  1
  Ir  Ir33  1  0.808357  0.629120  0.500000  1
  Ir  Ir34  1  0.823449  0.196408  0.500000  1
  Ir  Ir35  1  0.000000  0.002235  0.500000  1
