# generated using pymatgen
data_Tb8Lu7Sc5Si15Os
_symmetry_space_group_name_H-M   'P 1'
_cell_length_a   7.18621824
_cell_length_b   7.60288743
_cell_length_c   14.21823470
_cell_angle_alpha   90.07671487
_cell_angle_beta   90.02907206
_cell_angle_gamma   90.22977334
_symmetry_Int_Tables_number   1
_chemical_formula_structural   Tb8Lu7Sc5Si15Os
_chemical_formula_sum   'Tb8 Lu7 Sc5 Si15 Os1'
_cell_volume   776.82054452
_cell_formula_units_Z   1
loop_
 _symmetry_equiv_pos_site_id
 _symmetry_equiv_pos_as_xyz
  1  'x, y, z'
loop_
 _atom_site_type_symbol
 _atom_site_label
 _atom_site_symmetry_multiplicity
 _atom_site_fract_x
 _atom_site_fract_y
 _atom_site_fract_z
 _atom_site_occupancy
  Tb  Tb0  1  0.016144  0.181819  0.097247  1
  Tb  Tb1  1  0.987048  0.826171  0.905059  1
  Tb  Tb2  1  0.484061  0.679530  0.904003  1
  Tb  Tb3  1  0.986197  0.826731  0.596555  1
  Tb  Tb4  1  0.514240  0.321555  0.096141  1
  Tb  Tb5  1  0.016096  0.182909  0.401343  1
  Tb  Tb6  1  0.514929  0.321059  0.402271  1
  Tb  Tb7  1  0.484519  0.679114  0.596088  1
  Lu  Lu8  1  0.311528  0.172393  0.628071  1
  Lu  Lu9  1  0.677256  0.826012  0.372534  1
  Lu  Lu10  1  0.176960  0.677929  0.373157  1
  Lu  Lu11  1  0.676802  0.825836  0.125952  1
  Lu  Lu12  1  0.833443  0.316308  0.628032  1
  Lu  Lu13  1  0.311431  0.172703  0.873111  1
  Lu  Lu14  1  0.833374  0.317684  0.873443  1
  Sc  Sc15  1  0.153968  0.507922  0.750594  1
  Sc  Sc16  1  0.843202  0.490791  0.248797  1
  Sc  Sc17  1  0.342859  0.010983  0.248623  1
  Sc  Sc18  1  0.667234  0.990109  0.750470  1
  Sc  Sc19  1  0.177168  0.678201  0.127322  1
  Si  Si20  1  0.979916  0.892202  0.247885  1
  Si  Si21  1  0.476353  0.604547  0.247640  1
  Si  Si22  1  0.521203  0.398871  0.750518  1
  Si  Si23  1  0.281075  0.861866  0.750475  1
  Si  Si24  1  0.715838  0.135971  0.249164  1
  Si  Si25  1  0.217445  0.368488  0.248573  1
  Si  Si26  1  0.775263  0.629334  0.750389  1
  Si  Si27  1  0.156563  0.472304  0.538022  1
  Si  Si28  1  0.846307  0.533020  0.460481  1
  Si  Si29  1  0.346695  0.969046  0.458712  1
  Si  Si30  1  0.852336  0.533426  0.041467  1
  Si  Si31  1  0.650315  0.031733  0.538615  1
  Si  Si32  1  0.159148  0.474275  0.965484  1
  Si  Si33  1  0.649566  0.031285  0.961286  1
  Si  Si34  1  0.343170  0.964255  0.041718  1
  Os  Os35  1  0.020345  0.093618  0.750759  1
