# generated using pymatgen
data_KRb5DyHoF12
_symmetry_space_group_name_H-M   'P 1'
_cell_length_a   6.84593152
_cell_length_b   6.61318665
_cell_length_c   11.47437527
_cell_angle_alpha   55.25052932
_cell_angle_beta   90.05832143
_cell_angle_gamma   90.18503539
_symmetry_Int_Tables_number   1
_chemical_formula_structural   KRb5DyHoF12
_chemical_formula_sum   'K1 Rb5 Dy1 Ho1 F12'
_cell_volume   426.83293446
_cell_formula_units_Z   1
loop_
 _symmetry_equiv_pos_site_id
 _symmetry_equiv_pos_as_xyz
  1  'x, y, z'
loop_
 _atom_site_type_symbol
 _atom_site_label
 _atom_site_symmetry_multiplicity
 _atom_site_fract_x
 _atom_site_fract_y
 _atom_site_fract_z
 _atom_site_occupancy
  K  K0  1  0.000000  0.500000  0.500000  1
  Rb  Rb1  1  0.500000  0.500000  0.000000  1
  Rb  Rb2  1  0.049370  0.735302  0.751606  1
  Rb  Rb3  1  0.950630  0.264698  0.248394  1
  Rb  Rb4  1  0.550377  0.267513  0.745980  1
  Rb  Rb5  1  0.449623  0.732487  0.254020  1
  Dy  Dy6  1  0.500000  0.000000  0.500000  1
  Ho  Ho7  1  0.000000  0.000000  0.000000  1
  F  F8  1  0.764766  0.769646  0.561101  1
  F  F9  1  0.235234  0.230354  0.438899  1
  F  F10  1  0.264225  0.225759  0.937349  1
  F  F11  1  0.735775  0.774241  0.062651  1
  F  F12  1  0.451418  0.884564  0.718589  1
  F  F13  1  0.548582  0.115436  0.281411  1
  F  F14  1  0.953166  0.120984  0.779631  1
  F  F15  1  0.046834  0.879016  0.220369  1
  F  F16  1  0.322564  0.684385  0.544276  1
  F  F17  1  0.677436  0.315615  0.455724  1
  F  F18  1  0.829818  0.315460  0.954328  1
  F  F19  1  0.170182  0.684540  0.045672  1
