# generated using pymatgen
data_HfZr2Mn(Co4P3)2
_symmetry_space_group_name_H-M   'P 1'
_cell_length_a   11.92941617
_cell_length_b   11.96268644
_cell_length_c   3.62078200
_cell_angle_alpha   90.00000000
_cell_angle_beta   90.00000000
_cell_angle_gamma   120.12121970
_symmetry_Int_Tables_number   1
_chemical_formula_structural   HfZr2Mn(Co4P3)2
_chemical_formula_sum   'Hf2 Zr4 Mn2 Co16 P12'
_cell_volume   446.93990791
_cell_formula_units_Z   2
loop_
 _symmetry_equiv_pos_site_id
 _symmetry_equiv_pos_as_xyz
  1  'x, y, z'
loop_
 _atom_site_type_symbol
 _atom_site_label
 _atom_site_symmetry_multiplicity
 _atom_site_fract_x
 _atom_site_fract_y
 _atom_site_fract_z
 _atom_site_occupancy
  Hf  Hf0  1  0.999764  0.556079  0.000000  1
  Hf  Hf1  1  0.818238  0.817962  0.500000  1
  Zr  Zr2  1  0.666433  0.332433  0.000000  1
  Zr  Zr3  1  0.333569  0.665950  0.000000  1
  Zr  Zr4  1  0.182492  0.999830  0.500000  1
  Zr  Zr5  1  0.999969  0.176905  0.500000  1
  Mn  Mn6  1  0.446598  0.446256  0.000000  1
  Mn  Mn7  1  0.553824  0.999506  0.000000  1
  Co  Co8  1  0.199242  0.374554  0.000000  1
  Co  Co9  1  0.181531  0.809364  0.000000  1
  Co  Co10  1  0.818015  0.628841  0.000000  1
  Co  Co11  1  0.800721  0.174949  0.000000  1
  Co  Co12  1  0.376738  0.198328  0.000000  1
  Co  Co13  1  0.127312  0.479305  0.500000  1
  Co  Co14  1  0.359023  0.875230  0.500000  1
  Co  Co15  1  0.516961  0.645173  0.500000  1
  Co  Co16  1  0.641174  0.516474  0.500000  1
  Co  Co17  1  0.872543  0.351862  0.500000  1
  Co  Co18  1  0.483404  0.128264  0.500000  1
  Co  Co19  1  0.998888  0.000169  0.000000  1
  Co  Co20  1  0.715803  0.998864  0.500000  1
  Co  Co21  1  0.999459  0.721485  0.500000  1
  Co  Co22  1  0.624248  0.821502  0.000000  1
  Co  Co23  1  0.284408  0.283793  0.500000  1
  P  P24  1  0.639686  0.643810  0.000000  1
  P  P25  1  0.361359  0.004064  0.000000  1
  P  P26  1  0.000006  0.345419  0.000000  1
  P  P27  1  0.482262  0.315562  0.500000  1
  P  P28  1  0.683669  0.165261  0.500000  1
  P  P29  1  0.824739  0.516510  0.500000  1
  P  P30  1  0.517706  0.833302  0.500000  1
  P  P31  1  0.175078  0.691783  0.500000  1
  P  P32  1  0.821401  0.997414  0.000000  1
  P  P33  1  0.999221  0.825540  0.000000  1
  P  P34  1  0.316385  0.481895  0.500000  1
  P  P35  1  0.178129  0.176365  0.000000  1
