# generated using pymatgen
data_Sc3Zn3CuSiGe
_symmetry_space_group_name_H-M   'P 1'
_cell_length_a   6.53030700
_cell_length_b   6.53030746
_cell_length_c   4.06800400
_cell_angle_alpha   90.00000000
_cell_angle_beta   90.00000000
_cell_angle_gamma   120.00000273
_symmetry_Int_Tables_number   1
_chemical_formula_structural   Sc3Zn3CuSiGe
_chemical_formula_sum   'Sc3 Zn3 Cu1 Si1 Ge1'
_cell_volume   150.23780122
_cell_formula_units_Z   1
loop_
 _symmetry_equiv_pos_site_id
 _symmetry_equiv_pos_as_xyz
  1  'x, y, z'
loop_
 _atom_site_type_symbol
 _atom_site_label
 _atom_site_symmetry_multiplicity
 _atom_site_fract_x
 _atom_site_fract_y
 _atom_site_fract_z
 _atom_site_occupancy
  Sc  Sc0  1  0.418826  0.997306  0.000000  1
  Sc  Sc1  1  0.002694  0.421521  0.000000  1
  Sc  Sc2  1  0.578480  0.581174  0.000000  1
  Zn  Zn3  1  0.758090  0.993326  0.500000  1
  Zn  Zn4  1  0.235237  0.241909  0.500000  1
  Zn  Zn5  1  0.006674  0.764762  0.500000  1
  Cu  Cu6  1  0.000000  0.000000  0.000000  1
  Si  Si7  1  0.333333  0.666667  0.500000  1
  Ge  Ge8  1  0.666667  0.333333  0.500000  1
