# generated using pymatgen
data_Cs5Ce2S4Br9
_symmetry_space_group_name_H-M   'P 1'
_cell_length_a   11.36373148
_cell_length_b   11.36373178
_cell_length_c   11.36373233
_cell_angle_alpha   139.92258399
_cell_angle_beta   120.69646271
_cell_angle_gamma   73.99835005
_symmetry_Int_Tables_number   1
_chemical_formula_structural   Cs5Ce2S4Br9
_chemical_formula_sum   'Cs5 Ce2 S4 Br9'
_cell_volume   794.69241267
_cell_formula_units_Z   1
loop_
 _symmetry_equiv_pos_site_id
 _symmetry_equiv_pos_as_xyz
  1  'x, y, z'
loop_
 _atom_site_type_symbol
 _atom_site_label
 _atom_site_symmetry_multiplicity
 _atom_site_fract_x
 _atom_site_fract_y
 _atom_site_fract_z
 _atom_site_occupancy
  Cs  Cs0  1  0.434443  0.659128  0.775315  1
  Cs  Cs1  1  0.883813  0.659128  0.224685  1
  Cs  Cs2  1  0.500000  0.000000  0.500000  1
  Cs  Cs3  1  0.565557  0.340872  0.224685  1
  Cs  Cs4  1  0.116187  0.340872  0.775315  1
  Ce  Ce5  1  0.106440  0.106440  0.000000  1
  Ce  Ce6  1  0.893560  0.893560  0.000000  1
  S  S7  1  0.091125  0.768308  0.859433  1
  S  S8  1  0.908875  0.768308  0.677183  1
  S  S9  1  0.908875  0.231692  0.140567  1
  S  S10  1  0.091125  0.231692  0.322817  1
  Br  Br11  1  0.219548  0.474173  0.254626  1
  Br  Br12  1  0.124563  0.865780  0.258783  1
  Br  Br13  1  0.393005  0.134220  0.258783  1
  Br  Br14  1  0.219548  0.964921  0.745374  1
  Br  Br15  1  0.780452  0.035079  0.254626  1
  Br  Br16  1  0.606995  0.865780  0.741217  1
  Br  Br17  1  0.780452  0.525827  0.745374  1
  Br  Br18  1  0.500000  0.500000  0.000000  1
  Br  Br19  1  0.875437  0.134220  0.741217  1
