# generated using pymatgen
data_MgBeB14
_symmetry_space_group_name_H-M   'P 1'
_cell_length_a   7.11974632
_cell_length_b   7.11974499
_cell_length_c   7.11974613
_cell_angle_alpha   132.10457821
_cell_angle_beta   110.61718666
_cell_angle_gamma   88.70452618
_symmetry_Int_Tables_number   1
_chemical_formula_structural   MgBeB14
_chemical_formula_sum   'Mg2 Be2 B28'
_cell_volume   238.47705974
_cell_formula_units_Z   2
loop_
 _symmetry_equiv_pos_site_id
 _symmetry_equiv_pos_as_xyz
  1  'x, y, z'
loop_
 _atom_site_type_symbol
 _atom_site_label
 _atom_site_symmetry_multiplicity
 _atom_site_fract_x
 _atom_site_fract_y
 _atom_site_fract_z
 _atom_site_occupancy
  Mg  Mg0  1  0.112618  0.750000  0.362618  1
  Mg  Mg1  1  0.887382  0.250000  0.637382  1
  Be  Be2  1  0.500000  0.500000  0.500000  1
  Be  Be3  1  0.500000  0.000000  0.000000  1
  B  B4  1  0.138315  0.166448  0.971868  1
  B  B5  1  0.861685  0.833552  0.028132  1
  B  B6  1  0.694581  0.666448  0.028132  1
  B  B7  1  0.305419  0.333552  0.971868  1
  B  B8  1  0.284716  0.656102  0.628614  1
  B  B9  1  0.715284  0.343898  0.371386  1
  B  B10  1  0.527489  0.156102  0.371386  1
  B  B11  1  0.472511  0.843898  0.628614  1
  B  B12  1  0.416628  0.588688  0.827939  1
  B  B13  1  0.583372  0.411312  0.172061  1
  B  B14  1  0.260748  0.088688  0.172061  1
  B  B15  1  0.739252  0.911312  0.827939  1
  B  B16  1  0.900597  0.902819  0.677972  1
  B  B17  1  0.099403  0.777374  0.002222  1
  B  B18  1  0.724848  0.402819  0.002222  1
  B  B19  1  0.275152  0.277374  0.677972  1
  B  B20  1  0.099403  0.097181  0.322028  1
  B  B21  1  0.900597  0.222626  0.997778  1
  B  B22  1  0.275152  0.597181  0.997778  1
  B  B23  1  0.724848  0.722626  0.322028  1
  B  B24  1  0.534606  0.328950  0.700905  1
  B  B25  1  0.465394  0.166299  0.794345  1
  B  B26  1  0.128046  0.828950  0.794345  1
  B  B27  1  0.871954  0.666299  0.700905  1
  B  B28  1  0.465394  0.671050  0.299095  1
  B  B29  1  0.534606  0.833701  0.205655  1
  B  B30  1  0.871954  0.171050  0.205655  1
  B  B31  1  0.128046  0.333701  0.299095  1
