# generated using pymatgen
data_Sm2Sc3(SnSb)2
_symmetry_space_group_name_H-M   'P 1'
_cell_length_a   7.91759700
_cell_length_b   7.90190300
_cell_length_c   14.83519600
_cell_angle_alpha   90.00000000
_cell_angle_beta   90.00000000
_cell_angle_gamma   90.00000000
_symmetry_Int_Tables_number   1
_chemical_formula_structural   Sm2Sc3(SnSb)2
_chemical_formula_sum   'Sm8 Sc12 Sn8 Sb8'
_cell_volume   928.15044109
_cell_formula_units_Z   4
loop_
 _symmetry_equiv_pos_site_id
 _symmetry_equiv_pos_as_xyz
  1  'x, y, z'
loop_
 _atom_site_type_symbol
 _atom_site_label
 _atom_site_symmetry_multiplicity
 _atom_site_fract_x
 _atom_site_fract_y
 _atom_site_fract_z
 _atom_site_occupancy
  Sm  Sm0  1  0.521124  0.321497  0.903448  1
  Sm  Sm1  1  0.021124  0.178503  0.596552  1
  Sm  Sm2  1  0.478876  0.678503  0.403448  1
  Sm  Sm3  1  0.978876  0.821497  0.096552  1
  Sm  Sm4  1  0.478876  0.678503  0.096552  1
  Sm  Sm5  1  0.978876  0.821497  0.403448  1
  Sm  Sm6  1  0.521124  0.321497  0.596552  1
  Sm  Sm7  1  0.021124  0.178503  0.903448  1
  Sc  Sc8  1  0.360774  0.840331  0.874423  1
  Sc  Sc9  1  0.860774  0.659669  0.625577  1
  Sc  Sc10  1  0.639226  0.159669  0.374423  1
  Sc  Sc11  1  0.139226  0.340331  0.125577  1
  Sc  Sc12  1  0.639226  0.159669  0.125577  1
  Sc  Sc13  1  0.139226  0.340331  0.374423  1
  Sc  Sc14  1  0.360774  0.840331  0.625577  1
  Sc  Sc15  1  0.860774  0.659669  0.874423  1
  Sc  Sc16  1  0.188562  0.501864  0.750000  1
  Sc  Sc17  1  0.688562  0.998136  0.750000  1
  Sc  Sc18  1  0.811438  0.498136  0.250000  1
  Sc  Sc19  1  0.311438  0.001864  0.250000  1
  Sn  Sn20  1  0.554831  0.629345  0.750000  1
  Sn  Sn21  1  0.054831  0.870655  0.750000  1
  Sn  Sn22  1  0.445169  0.370655  0.250000  1
  Sn  Sn23  1  0.945169  0.129345  0.250000  1
  Sn  Sn24  1  0.327795  0.143953  0.750000  1
  Sn  Sn25  1  0.827795  0.356047  0.750000  1
  Sn  Sn26  1  0.672205  0.856047  0.250000  1
  Sn  Sn27  1  0.172205  0.643953  0.250000  1
  Sb  Sb28  1  0.298597  0.044560  0.044407  1
  Sb  Sb29  1  0.798597  0.455440  0.455593  1
  Sb  Sb30  1  0.701403  0.955440  0.544407  1
  Sb  Sb31  1  0.201403  0.544560  0.955593  1
  Sb  Sb32  1  0.701403  0.955440  0.955593  1
  Sb  Sb33  1  0.201403  0.544560  0.544407  1
  Sb  Sb34  1  0.298597  0.044560  0.455593  1
  Sb  Sb35  1  0.798597  0.455440  0.044407  1
