# generated using pymatgen
data_Y6Co17P12Os
_symmetry_space_group_name_H-M   'P 1'
_cell_length_a   3.70579400
_cell_length_b   10.51467000
_cell_length_c   12.21940500
_cell_angle_alpha   90.00000000
_cell_angle_beta   90.00000000
_cell_angle_gamma   90.00000000
_symmetry_Int_Tables_number   1
_chemical_formula_structural   Y6Co17P12Os
_chemical_formula_sum   'Y6 Co17 P12 Os1'
_cell_volume   476.13157190
_cell_formula_units_Z   1
loop_
 _symmetry_equiv_pos_site_id
 _symmetry_equiv_pos_as_xyz
  1  'x, y, z'
loop_
 _atom_site_type_symbol
 _atom_site_label
 _atom_site_symmetry_multiplicity
 _atom_site_fract_x
 _atom_site_fract_y
 _atom_site_fract_z
 _atom_site_occupancy
  Y  Y0  1  0.000000  0.500000  0.524189  1
  Y  Y1  1  0.500000  0.000000  0.478190  1
  Y  Y2  1  0.500000  0.817181  0.206684  1
  Y  Y3  1  0.500000  0.182819  0.206684  1
  Y  Y4  1  0.000000  0.683398  0.794271  1
  Y  Y5  1  0.000000  0.316602  0.794271  1
  Co  Co6  1  0.000000  0.000000  0.840560  1
  Co  Co7  1  0.500000  0.500000  0.703559  1
  Co  Co8  1  0.000000  0.000000  0.295759  1
  Co  Co9  1  0.000000  0.500000  0.987900  1
  Co  Co10  1  0.500000  0.000000  0.014474  1
  Co  Co11  1  0.500000  0.332865  0.991497  1
  Co  Co12  1  0.500000  0.667135  0.991497  1
  Co  Co13  1  0.000000  0.166984  0.006028  1
  Co  Co14  1  0.000000  0.833016  0.006028  1
  Co  Co15  1  0.500000  0.297386  0.430009  1
  Co  Co16  1  0.500000  0.702614  0.430009  1
  Co  Co17  1  0.000000  0.203272  0.568662  1
  Co  Co18  1  0.000000  0.796728  0.568662  1
  Co  Co19  1  0.500000  0.879373  0.709480  1
  Co  Co20  1  0.500000  0.120627  0.709480  1
  Co  Co21  1  0.000000  0.620043  0.290672  1
  Co  Co22  1  0.000000  0.379957  0.290672  1
  P  P23  1  0.500000  0.500000  0.881116  1
  P  P24  1  0.000000  0.000000  0.117045  1
  P  P25  1  0.500000  0.500000  0.350111  1
  P  P26  1  0.000000  0.000000  0.656369  1
  P  P27  1  0.500000  0.310682  0.616215  1
  P  P28  1  0.500000  0.689318  0.616215  1
  P  P29  1  0.000000  0.188632  0.384068  1
  P  P30  1  0.000000  0.811368  0.384068  1
  P  P31  1  0.500000  0.849415  0.892671  1
  P  P32  1  0.500000  0.150585  0.892671  1
  P  P33  1  0.000000  0.655044  0.105884  1
  P  P34  1  0.000000  0.344956  0.105884  1
  Os  Os35  1  0.500000  0.500000  0.158445  1
