# generated using pymatgen
data_Sr3AcPd4
_symmetry_space_group_name_H-M   'P 1'
_cell_length_a   4.57228700
_cell_length_b   6.17229116
_cell_length_c   7.93867461
_cell_angle_alpha   89.45473686
_cell_angle_beta   90.00000000
_cell_angle_gamma   90.00000000
_symmetry_Int_Tables_number   1
_chemical_formula_structural   Sr3AcPd4
_chemical_formula_sum   'Sr3 Ac1 Pd4'
_cell_volume   224.03105420
_cell_formula_units_Z   1
loop_
 _symmetry_equiv_pos_site_id
 _symmetry_equiv_pos_as_xyz
  1  'x, y, z'
loop_
 _atom_site_type_symbol
 _atom_site_label
 _atom_site_symmetry_multiplicity
 _atom_site_fract_x
 _atom_site_fract_y
 _atom_site_fract_z
 _atom_site_occupancy
  Sr  Sr0  1  0.250000  0.363511  0.678398  1
  Sr  Sr1  1  0.250000  0.140831  0.186702  1
  Sr  Sr2  1  0.750000  0.637889  0.316016  1
  Ac  Ac3  1  0.750000  0.864184  0.817180  1
  Pd  Pd4  1  0.250000  0.863865  0.550057  1
  Pd  Pd5  1  0.250000  0.642383  0.023505  1
  Pd  Pd6  1  0.750000  0.125083  0.470169  1
  Pd  Pd7  1  0.750000  0.362255  0.957974  1
