# generated using pymatgen
data_TmLu2Co8P6W
_symmetry_space_group_name_H-M   'P 1'
_cell_length_a   3.69573600
_cell_length_b   10.51402800
_cell_length_c   12.18039400
_cell_angle_alpha   90.00000000
_cell_angle_beta   90.00000000
_cell_angle_gamma   90.00000000
_symmetry_Int_Tables_number   1
_chemical_formula_structural   TmLu2Co8P6W
_chemical_formula_sum   'Tm2 Lu4 Co16 P12 W2'
_cell_volume   473.29444402
_cell_formula_units_Z   2
loop_
 _symmetry_equiv_pos_site_id
 _symmetry_equiv_pos_as_xyz
  1  'x, y, z'
loop_
 _atom_site_type_symbol
 _atom_site_label
 _atom_site_symmetry_multiplicity
 _atom_site_fract_x
 _atom_site_fract_y
 _atom_site_fract_z
 _atom_site_occupancy
  Tm  Tm0  1  0.000000  0.500000  0.525518  1
  Tm  Tm1  1  0.500000  0.000000  0.474482  1
  Lu  Lu2  1  0.500000  0.820079  0.205260  1
  Lu  Lu3  1  0.500000  0.179921  0.205260  1
  Lu  Lu4  1  0.000000  0.679921  0.794740  1
  Lu  Lu5  1  0.000000  0.320079  0.794740  1
  Co  Co6  1  0.500000  0.500000  0.701168  1
  Co  Co7  1  0.000000  0.000000  0.298832  1
  Co  Co8  1  0.000000  0.500000  0.986866  1
  Co  Co9  1  0.500000  0.000000  0.013134  1
  Co  Co10  1  0.500000  0.332749  0.989732  1
  Co  Co11  1  0.500000  0.667251  0.989732  1
  Co  Co12  1  0.000000  0.167251  0.010268  1
  Co  Co13  1  0.000000  0.832749  0.010268  1
  Co  Co14  1  0.500000  0.295853  0.431621  1
  Co  Co15  1  0.500000  0.704147  0.431621  1
  Co  Co16  1  0.000000  0.204147  0.568379  1
  Co  Co17  1  0.000000  0.795853  0.568379  1
  Co  Co18  1  0.500000  0.877020  0.706880  1
  Co  Co19  1  0.500000  0.122980  0.706880  1
  Co  Co20  1  0.000000  0.622980  0.293120  1
  Co  Co21  1  0.000000  0.377020  0.293120  1
  P  P22  1  0.500000  0.500000  0.879136  1
  P  P23  1  0.000000  0.000000  0.120864  1
  P  P24  1  0.500000  0.500000  0.352222  1
  P  P25  1  0.000000  0.000000  0.647778  1
  P  P26  1  0.500000  0.312687  0.616777  1
  P  P27  1  0.500000  0.687313  0.616777  1
  P  P28  1  0.000000  0.187313  0.383223  1
  P  P29  1  0.000000  0.812687  0.383223  1
  P  P30  1  0.500000  0.842997  0.891348  1
  P  P31  1  0.500000  0.157003  0.891348  1
  P  P32  1  0.000000  0.657003  0.108652  1
  P  P33  1  0.000000  0.342997  0.108652  1
  W  W34  1  0.500000  0.500000  0.157395  1
  W  W35  1  0.000000  0.000000  0.842605  1
