# generated using pymatgen
data_SrDySi7Ir12
_symmetry_space_group_name_H-M   'P 1'
_cell_length_a   9.80205500
_cell_length_b   9.80205556
_cell_length_c   3.90583300
_cell_angle_alpha   90.00000000
_cell_angle_beta   90.00000000
_cell_angle_gamma   120.00000148
_symmetry_Int_Tables_number   1
_chemical_formula_structural   SrDySi7Ir12
_chemical_formula_sum   'Sr1 Dy1 Si7 Ir12'
_cell_volume   324.99643018
_cell_formula_units_Z   1
loop_
 _symmetry_equiv_pos_site_id
 _symmetry_equiv_pos_as_xyz
  1  'x, y, z'
loop_
 _atom_site_type_symbol
 _atom_site_label
 _atom_site_symmetry_multiplicity
 _atom_site_fract_x
 _atom_site_fract_y
 _atom_site_fract_z
 _atom_site_occupancy
  Sr  Sr0  1  0.666667  0.333333  0.250274  1
  Dy  Dy1  1  0.333333  0.666667  0.750099  1
  Si  Si2  1  0.000000  0.000000  0.501305  1
  Si  Si3  1  0.290785  0.886744  0.248864  1
  Si  Si4  1  0.595959  0.709215  0.248864  1
  Si  Si5  1  0.113256  0.404041  0.248864  1
  Si  Si6  1  0.711502  0.113950  0.750764  1
  Si  Si7  1  0.402448  0.288498  0.750764  1
  Si  Si8  1  0.886050  0.597552  0.750764  1
  Ir  Ir9  1  0.259881  0.116273  0.253880  1
  Ir  Ir10  1  0.856393  0.740119  0.253880  1
  Ir  Ir11  1  0.883727  0.143607  0.253880  1
  Ir  Ir12  1  0.740297  0.884862  0.745639  1
  Ir  Ir13  1  0.144564  0.259703  0.745639  1
  Ir  Ir14  1  0.115138  0.855436  0.745639  1
  Ir  Ir15  1  0.065597  0.621705  0.248874  1
  Ir  Ir16  1  0.556109  0.934403  0.248874  1
  Ir  Ir17  1  0.378295  0.443891  0.248874  1
  Ir  Ir18  1  0.945290  0.384800  0.751420  1
  Ir  Ir19  1  0.439509  0.054710  0.751420  1
  Ir  Ir20  1  0.615200  0.560491  0.751420  1
