# generated using pymatgen
data_Th2(B2Ir)3
_symmetry_space_group_name_H-M   'P 1'
_cell_length_a   3.80550700
_cell_length_b   6.06481203
_cell_length_c   6.06481164
_cell_angle_alpha   94.54659349
_cell_angle_beta   90.00000000
_cell_angle_gamma   90.00000000
_symmetry_Int_Tables_number   1
_chemical_formula_structural   Th2(B2Ir)3
_chemical_formula_sum   'Th2 B6 Ir3'
_cell_volume   139.53346996
_cell_formula_units_Z   1
loop_
 _symmetry_equiv_pos_site_id
 _symmetry_equiv_pos_as_xyz
  1  'x, y, z'
loop_
 _atom_site_type_symbol
 _atom_site_label
 _atom_site_symmetry_multiplicity
 _atom_site_fract_x
 _atom_site_fract_y
 _atom_site_fract_z
 _atom_site_occupancy
  Th  Th0  1  0.000000  0.269403  0.730597  1
  Th  Th1  1  0.000000  0.730597  0.269403  1
  B  B2  1  0.500000  0.911909  0.614467  1
  B  B3  1  0.500000  0.088091  0.385533  1
  B  B4  1  0.500000  0.614467  0.911909  1
  B  B5  1  0.500000  0.385533  0.088091  1
  B  B6  1  0.500000  0.608060  0.608060  1
  B  B7  1  0.500000  0.391940  0.391940  1
  Ir  Ir8  1  0.500000  0.000000  0.000000  1
  Ir  Ir9  1  0.000000  0.763034  0.763034  1
  Ir  Ir10  1  0.000000  0.236966  0.236966  1
