# generated using pymatgen
data_Dy8V3Si16W9
_symmetry_space_group_name_H-M   'P 1'
_cell_length_a   6.86038492
_cell_length_b   6.86038470
_cell_length_c   12.78052708
_cell_angle_alpha   90.05896092
_cell_angle_beta   89.94103835
_cell_angle_gamma   89.84560846
_symmetry_Int_Tables_number   1
_chemical_formula_structural   Dy8V3Si16W9
_chemical_formula_sum   'Dy8 V3 Si16 W9'
_cell_volume   601.51114747
_cell_formula_units_Z   1
loop_
 _symmetry_equiv_pos_site_id
 _symmetry_equiv_pos_as_xyz
  1  'x, y, z'
loop_
 _atom_site_type_symbol
 _atom_site_label
 _atom_site_symmetry_multiplicity
 _atom_site_fract_x
 _atom_site_fract_y
 _atom_site_fract_z
 _atom_site_occupancy
  Dy  Dy0  1  0.999330  0.662038  0.031288  1
  Dy  Dy1  1  0.999988  0.338351  0.531303  1
  Dy  Dy2  1  0.662038  0.999330  0.968712  1
  Dy  Dy3  1  0.162782  0.500737  0.781639  1
  Dy  Dy4  1  0.837492  0.500988  0.281117  1
  Dy  Dy5  1  0.500737  0.162782  0.218361  1
  Dy  Dy6  1  0.500988  0.837492  0.718883  1
  Dy  Dy7  1  0.338351  0.999988  0.468697  1
  V  V8  1  0.832687  0.166006  0.749306  1
  V  V9  1  0.166006  0.832687  0.250694  1
  V  V10  1  0.332172  0.332172  0.000000  1
  Si  Si11  1  0.037098  0.711820  0.436137  1
  Si  Si12  1  0.961914  0.290109  0.935430  1
  Si  Si13  1  0.711820  0.037098  0.563863  1
  Si  Si14  1  0.210397  0.463451  0.184837  1
  Si  Si15  1  0.789999  0.535082  0.687006  1
  Si  Si16  1  0.463451  0.210397  0.815163  1
  Si  Si17  1  0.535082  0.789999  0.312994  1
  Si  Si18  1  0.290109  0.961914  0.064570  1
  Si  Si19  1  0.801094  0.873058  0.184092  1
  Si  Si20  1  0.300607  0.625879  0.565815  1
  Si  Si21  1  0.699047  0.372190  0.064918  1
  Si  Si22  1  0.625879  0.300607  0.434185  1
  Si  Si23  1  0.372190  0.699047  0.935082  1
  Si  Si24  1  0.127168  0.200775  0.314550  1
  Si  Si25  1  0.200775  0.127168  0.685450  1
  Si  Si26  1  0.873058  0.801094  0.815908  1
  W  W27  1  0.333500  0.502273  0.374433  1
  W  W28  1  0.838972  0.998465  0.372994  1
  W  W29  1  0.004496  0.162091  0.124405  1
  W  W30  1  0.998465  0.838972  0.627006  1
  W  W31  1  0.502273  0.333500  0.625567  1
  W  W32  1  0.162091  0.004496  0.875595  1
  W  W33  1  0.667914  0.667914  0.500000  1
  W  W34  1  0.497962  0.662072  0.124085  1
  W  W35  1  0.662072  0.497962  0.875915  1
