# generated using pymatgen
data_NaMgHg(P3Pd10)2
_symmetry_space_group_name_H-M   'P 1'
_cell_length_a   8.61713441
_cell_length_b   8.61713415
_cell_length_c   8.61713500
_cell_angle_alpha   60.00000824
_cell_angle_beta   60.00000924
_cell_angle_gamma   60.00000295
_symmetry_Int_Tables_number   1
_chemical_formula_structural   NaMgHg(P3Pd10)2
_chemical_formula_sum   'Na1 Mg1 Hg1 P6 Pd20'
_cell_volume   452.45322381
_cell_formula_units_Z   1
loop_
 _symmetry_equiv_pos_site_id
 _symmetry_equiv_pos_as_xyz
  1  'x, y, z'
loop_
 _atom_site_type_symbol
 _atom_site_label
 _atom_site_symmetry_multiplicity
 _atom_site_fract_x
 _atom_site_fract_y
 _atom_site_fract_z
 _atom_site_occupancy
  Na  Na0  1  0.750000  0.750000  0.750000  1
  Mg  Mg1  1  0.000000  0.000000  0.000000  1
  Hg  Hg2  1  0.250000  0.250000  0.250000  1
  P  P3  1  0.735260  0.264740  0.264740  1
  P  P4  1  0.264740  0.735260  0.735260  1
  P  P5  1  0.264740  0.735260  0.264740  1
  P  P6  1  0.735260  0.264740  0.735260  1
  P  P7  1  0.264740  0.264740  0.735260  1
  P  P8  1  0.735260  0.735260  0.264740  1
  Pd  Pd9  1  0.381870  0.381870  0.381870  1
  Pd  Pd10  1  0.612410  0.612410  0.612410  1
  Pd  Pd11  1  0.381870  0.381870  0.854391  1
  Pd  Pd12  1  0.381870  0.854391  0.381870  1
  Pd  Pd13  1  0.612410  0.612410  0.162768  1
  Pd  Pd14  1  0.612410  0.162768  0.612410  1
  Pd  Pd15  1  0.854391  0.381870  0.381870  1
  Pd  Pd16  1  0.162768  0.612410  0.612410  1
  Pd  Pd17  1  0.343245  0.999014  0.999014  1
  Pd  Pd18  1  0.658726  0.999014  0.999014  1
  Pd  Pd19  1  0.999014  0.343245  0.658726  1
  Pd  Pd20  1  0.999014  0.658726  0.343245  1
  Pd  Pd21  1  0.999014  0.343245  0.999014  1
  Pd  Pd22  1  0.658726  0.999014  0.343245  1
  Pd  Pd23  1  0.999014  0.658726  0.999014  1
  Pd  Pd24  1  0.343245  0.999014  0.658726  1
  Pd  Pd25  1  0.999014  0.999014  0.343245  1
  Pd  Pd26  1  0.999014  0.999014  0.658726  1
  Pd  Pd27  1  0.658726  0.343245  0.999014  1
  Pd  Pd28  1  0.343245  0.658726  0.999014  1
