# generated using pymatgen
data_DyYAlSi4Rh3
_symmetry_space_group_name_H-M   'P 1'
_cell_length_a   8.18755120
_cell_length_b   8.18750199
_cell_length_c   5.68834200
_cell_angle_alpha   71.24576937
_cell_angle_beta   71.24906156
_cell_angle_gamma   93.52222914
_symmetry_Int_Tables_number   1
_chemical_formula_structural   DyYAlSi4Rh3
_chemical_formula_sum   'Dy2 Y2 Al2 Si8 Rh6'
_cell_volume   336.08783701
_cell_formula_units_Z   2
loop_
 _symmetry_equiv_pos_site_id
 _symmetry_equiv_pos_as_xyz
  1  'x, y, z'
loop_
 _atom_site_type_symbol
 _atom_site_label
 _atom_site_symmetry_multiplicity
 _atom_site_fract_x
 _atom_site_fract_y
 _atom_site_fract_z
 _atom_site_occupancy
  Dy  Dy0  1  0.867031  0.601199  0.757164  1
  Dy  Dy1  1  0.132969  0.398801  0.242836  1
  Y  Y2  1  0.398769  0.132955  0.742911  1
  Y  Y3  1  0.601231  0.867045  0.257089  1
  Al  Al4  1  0.773879  0.226194  0.749976  1
  Al  Al5  1  0.226121  0.773806  0.250024  1
  Si  Si6  1  0.516563  0.483466  0.750066  1
  Si  Si7  1  0.483437  0.516534  0.249934  1
  Si  Si8  1  0.212483  0.787439  0.750043  1
  Si  Si9  1  0.787517  0.212561  0.249957  1
  Si  Si10  1  0.265827  0.059701  0.338205  1
  Si  Si11  1  0.734173  0.940299  0.661795  1
  Si  Si12  1  0.940368  0.734103  0.161817  1
  Si  Si13  1  0.059632  0.265897  0.838183  1
  Rh  Rh14  1  0.534478  0.263076  0.138440  1
  Rh  Rh15  1  0.737033  0.465575  0.361414  1
  Rh  Rh16  1  0.465522  0.736924  0.861560  1
  Rh  Rh17  1  0.262967  0.534425  0.638586  1
  Rh  Rh18  1  0.994558  0.005451  0.249999  1
  Rh  Rh19  1  0.005442  0.994549  0.750001  1
