# generated using pymatgen
data_Y3Lu5B24RuW3
_symmetry_space_group_name_H-M   'P 1'
_cell_length_a   3.57641400
_cell_length_b   9.20450528
_cell_length_c   11.60473464
_cell_angle_alpha   89.88822949
_cell_angle_beta   90.00000000
_cell_angle_gamma   90.00000000
_symmetry_Int_Tables_number   1
_chemical_formula_structural   Y3Lu5B24RuW3
_chemical_formula_sum   'Y3 Lu5 B24 Ru1 W3'
_cell_volume   382.01694344
_cell_formula_units_Z   1
loop_
 _symmetry_equiv_pos_site_id
 _symmetry_equiv_pos_as_xyz
  1  'x, y, z'
loop_
 _atom_site_type_symbol
 _atom_site_label
 _atom_site_symmetry_multiplicity
 _atom_site_fract_x
 _atom_site_fract_y
 _atom_site_fract_z
 _atom_site_occupancy
  Y  Y0  1  0.000000  0.320626  0.413682  1
  Y  Y1  1  0.000000  0.678795  0.585834  1
  Y  Y2  1  0.000000  0.820814  0.085034  1
  Lu  Lu3  1  0.000000  0.178402  0.913774  1
  Lu  Lu4  1  0.000000  0.944407  0.372687  1
  Lu  Lu5  1  0.000000  0.054347  0.630413  1
  Lu  Lu6  1  0.000000  0.444992  0.126271  1
  Lu  Lu7  1  0.000000  0.558794  0.871405  1
  B  B8  1  0.500000  0.551299  0.434693  1
  B  B9  1  0.500000  0.447766  0.566401  1
  B  B10  1  0.500000  0.051330  0.062481  1
  B  B11  1  0.500000  0.945917  0.931390  1
  B  B12  1  0.500000  0.753176  0.421409  1
  B  B13  1  0.500000  0.246236  0.580162  1
  B  B14  1  0.500000  0.253463  0.076560  1
  B  B15  1  0.500000  0.751166  0.917550  1
  B  B16  1  0.500000  0.795812  0.264527  1
  B  B17  1  0.500000  0.203014  0.738598  1
  B  B18  1  0.500000  0.295135  0.234789  1
  B  B19  1  0.500000  0.709456  0.765896  1
  B  B20  1  0.500000  0.630613  0.181994  1
  B  B21  1  0.500000  0.369087  0.819431  1
  B  B22  1  0.500000  0.129620  0.316662  1
  B  B23  1  0.500000  0.870018  0.686166  1
  B  B24  1  0.500000  0.978276  0.213039  1
  B  B25  1  0.500000  0.016947  0.788299  1
  B  B26  1  0.500000  0.478195  0.285531  1
  B  B27  1  0.500000  0.522465  0.714246  1
  B  B28  1  0.500000  0.601165  0.026364  1
  B  B29  1  0.500000  0.400786  0.971677  1
  B  B30  1  0.500000  0.098586  0.473564  1
  B  B31  1  0.500000  0.900258  0.529273  1
  Ru  Ru32  1  0.000000  0.861552  0.820246  1
  W  W33  1  0.000000  0.639215  0.319709  1
  W  W34  1  0.000000  0.359496  0.682185  1
  W  W35  1  0.000000  0.138773  0.178056  1
