# generated using pymatgen
data_TbPr2Ho2(Sn5Rh2)2
_symmetry_space_group_name_H-M   'P 1'
_cell_length_a   14.15449800
_cell_length_b   14.15449800
_cell_length_c   4.56626200
_cell_angle_alpha   90.00000000
_cell_angle_beta   90.00000000
_cell_angle_gamma   90.00000000
_symmetry_Int_Tables_number   1
_chemical_formula_structural   TbPr2Ho2(Sn5Rh2)2
_chemical_formula_sum   'Tb2 Pr4 Ho4 Sn20 Rh8'
_cell_volume   914.84974069
_cell_formula_units_Z   2
loop_
 _symmetry_equiv_pos_site_id
 _symmetry_equiv_pos_as_xyz
  1  'x, y, z'
loop_
 _atom_site_type_symbol
 _atom_site_label
 _atom_site_symmetry_multiplicity
 _atom_site_fract_x
 _atom_site_fract_y
 _atom_site_fract_z
 _atom_site_occupancy
  Tb  Tb0  1  0.500000  0.500000  0.000000  1
  Tb  Tb1  1  0.000000  0.000000  0.000000  1
  Pr  Pr2  1  0.888143  0.388143  0.500000  1
  Pr  Pr3  1  0.111857  0.611857  0.500000  1
  Pr  Pr4  1  0.388143  0.111857  0.500000  1
  Pr  Pr5  1  0.611857  0.888143  0.500000  1
  Ho  Ho6  1  0.676894  0.176894  0.500000  1
  Ho  Ho7  1  0.323106  0.823106  0.500000  1
  Ho  Ho8  1  0.176894  0.323106  0.500000  1
  Ho  Ho9  1  0.823106  0.676894  0.500000  1
  Sn  Sn10  1  0.570211  0.070211  0.000000  1
  Sn  Sn11  1  0.429789  0.929789  0.000000  1
  Sn  Sn12  1  0.070211  0.429789  0.000000  1
  Sn  Sn13  1  0.929789  0.570211  0.000000  1
  Sn  Sn14  1  0.653885  0.698636  0.000000  1
  Sn  Sn15  1  0.346115  0.301364  0.000000  1
  Sn  Sn16  1  0.153885  0.801364  0.000000  1
  Sn  Sn17  1  0.846115  0.198636  0.000000  1
  Sn  Sn18  1  0.301364  0.653885  0.000000  1
  Sn  Sn19  1  0.698636  0.346115  0.000000  1
  Sn  Sn20  1  0.198636  0.153885  0.000000  1
  Sn  Sn21  1  0.801364  0.846115  0.000000  1
  Sn  Sn22  1  0.661848  0.506267  0.500000  1
  Sn  Sn23  1  0.338152  0.493733  0.500000  1
  Sn  Sn24  1  0.161848  0.993733  0.500000  1
  Sn  Sn25  1  0.838152  0.006267  0.500000  1
  Sn  Sn26  1  0.493733  0.661848  0.500000  1
  Sn  Sn27  1  0.506267  0.338152  0.500000  1
  Sn  Sn28  1  0.006267  0.161848  0.500000  1
  Sn  Sn29  1  0.993733  0.838152  0.500000  1
  Rh  Rh30  1  0.746320  0.530421  0.000000  1
  Rh  Rh31  1  0.253680  0.469579  0.000000  1
  Rh  Rh32  1  0.246320  0.969579  0.000000  1
  Rh  Rh33  1  0.753680  0.030421  0.000000  1
  Rh  Rh34  1  0.469579  0.746320  0.000000  1
  Rh  Rh35  1  0.530421  0.253680  0.000000  1
  Rh  Rh36  1  0.030421  0.246320  0.000000  1
  Rh  Rh37  1  0.969579  0.753680  0.000000  1
