# generated using pymatgen
data_PrNdHo6(Si3Rh)4
_symmetry_space_group_name_H-M   'P 1'
_cell_length_a   8.19685200
_cell_length_b   8.19685245
_cell_length_c   8.00898400
_cell_angle_alpha   90.00000000
_cell_angle_beta   90.00000000
_cell_angle_gamma   120.00000627
_symmetry_Int_Tables_number   1
_chemical_formula_structural   PrNdHo6(Si3Rh)4
_chemical_formula_sum   'Pr1 Nd1 Ho6 Si12 Rh4'
_cell_volume   466.01751661
_cell_formula_units_Z   1
loop_
 _symmetry_equiv_pos_site_id
 _symmetry_equiv_pos_as_xyz
  1  'x, y, z'
loop_
 _atom_site_type_symbol
 _atom_site_label
 _atom_site_symmetry_multiplicity
 _atom_site_fract_x
 _atom_site_fract_y
 _atom_site_fract_z
 _atom_site_occupancy
  Pr  Pr0  1  0.000000  0.000000  0.750000  1
  Nd  Nd1  1  0.000000  0.000000  0.250000  1
  Ho  Ho2  1  0.508619  0.491381  0.250000  1
  Ho  Ho3  1  0.508619  0.017237  0.250000  1
  Ho  Ho4  1  0.982763  0.491381  0.250000  1
  Ho  Ho5  1  0.491379  0.508621  0.750000  1
  Ho  Ho6  1  0.491379  0.982759  0.750000  1
  Ho  Ho7  1  0.017241  0.508621  0.750000  1
  Si  Si8  1  0.168487  0.831513  0.500806  1
  Si  Si9  1  0.168487  0.336974  0.500806  1
  Si  Si10  1  0.663026  0.831513  0.500806  1
  Si  Si11  1  0.831532  0.168468  0.498519  1
  Si  Si12  1  0.831532  0.663064  0.498519  1
  Si  Si13  1  0.336936  0.168468  0.498519  1
  Si  Si14  1  0.831532  0.168468  0.001481  1
  Si  Si15  1  0.831532  0.663064  0.001481  1
  Si  Si16  1  0.336936  0.168468  0.001481  1
  Si  Si17  1  0.168487  0.831513  0.999194  1
  Si  Si18  1  0.168487  0.336974  0.999194  1
  Si  Si19  1  0.663026  0.831513  0.999194  1
  Rh  Rh20  1  0.333333  0.666667  0.465029  1
  Rh  Rh21  1  0.666667  0.333333  0.534799  1
  Rh  Rh22  1  0.666667  0.333333  0.965201  1
  Rh  Rh23  1  0.333333  0.666667  0.034971  1
