# generated using pymatgen
data_FeTcF6
_symmetry_space_group_name_H-M   'P 1'
_cell_length_a   5.63519601
_cell_length_b   5.66327350
_cell_length_c   5.67761909
_cell_angle_alpha   58.14309687
_cell_angle_beta   58.10593012
_cell_angle_gamma   57.68662842
_symmetry_Int_Tables_number   1
_chemical_formula_structural   FeTcF6
_chemical_formula_sum   'Fe1 Tc1 F6'
_cell_volume   122.17641360
_cell_formula_units_Z   1
loop_
 _symmetry_equiv_pos_site_id
 _symmetry_equiv_pos_as_xyz
  1  'x, y, z'
loop_
 _atom_site_type_symbol
 _atom_site_label
 _atom_site_symmetry_multiplicity
 _atom_site_fract_x
 _atom_site_fract_y
 _atom_site_fract_z
 _atom_site_occupancy
  Fe  Fe0  1  0.500000  0.500000  0.500000  1
  Tc  Tc1  1  0.000000  0.000000  0.000000  1
  F  F2  1  0.243025  0.669988  0.845289  1
  F  F3  1  0.842645  0.242240  0.672084  1
  F  F4  1  0.669705  0.847222  0.240790  1
  F  F5  1  0.756975  0.330012  0.154711  1
  F  F6  1  0.157355  0.757760  0.327916  1
  F  F7  1  0.330295  0.152778  0.759210  1
