# generated using pymatgen
data_Ti4Pt2O
_symmetry_space_group_name_H-M   'P 1'
_cell_length_a   8.30879651
_cell_length_b   8.30879644
_cell_length_c   8.30879600
_cell_angle_alpha   60.00000177
_cell_angle_beta   60.00000203
_cell_angle_gamma   60.00000109
_symmetry_Int_Tables_number   1
_chemical_formula_structural   Ti4Pt2O
_chemical_formula_sum   'Ti16 Pt8 O4'
_cell_volume   405.60131711
_cell_formula_units_Z   4
loop_
 _symmetry_equiv_pos_site_id
 _symmetry_equiv_pos_as_xyz
  1  'x, y, z'
loop_
 _atom_site_type_symbol
 _atom_site_label
 _atom_site_symmetry_multiplicity
 _atom_site_fract_x
 _atom_site_fract_y
 _atom_site_fract_z
 _atom_site_occupancy
  Ti  Ti0  1  0.933642  0.933642  0.566358  1
  Ti  Ti1  1  0.566358  0.933642  0.566358  1
  Ti  Ti2  1  0.933642  0.566358  0.566358  1
  Ti  Ti3  1  0.566358  0.566358  0.933642  1
  Ti  Ti4  1  0.933642  0.566358  0.933642  1
  Ti  Ti5  1  0.566358  0.933642  0.933642  1
  Ti  Ti6  1  0.316358  0.316358  0.683642  1
  Ti  Ti7  1  0.683642  0.316358  0.683642  1
  Ti  Ti8  1  0.316358  0.683642  0.683642  1
  Ti  Ti9  1  0.683642  0.683642  0.316358  1
  Ti  Ti10  1  0.316358  0.683642  0.316358  1
  Ti  Ti11  1  0.683642  0.316358  0.316358  1
  Ti  Ti12  1  0.125000  0.125000  0.625000  1
  Ti  Ti13  1  0.125000  0.625000  0.125000  1
  Ti  Ti14  1  0.625000  0.125000  0.125000  1
  Ti  Ti15  1  0.125000  0.125000  0.125000  1
  Pt  Pt16  1  0.342342  0.342342  0.972973  1
  Pt  Pt17  1  0.342342  0.972973  0.342342  1
  Pt  Pt18  1  0.972973  0.342342  0.342342  1
  Pt  Pt19  1  0.342342  0.342342  0.342342  1
  Pt  Pt20  1  0.907658  0.907658  0.277027  1
  Pt  Pt21  1  0.907658  0.277027  0.907658  1
  Pt  Pt22  1  0.277027  0.907658  0.907658  1
  Pt  Pt23  1  0.907658  0.907658  0.907658  1
  O  O24  1  0.625000  0.625000  0.125000  1
  O  O25  1  0.625000  0.125000  0.625000  1
  O  O26  1  0.125000  0.625000  0.625000  1
  O  O27  1  0.625000  0.625000  0.625000  1
