# generated using pymatgen
data_Cs8AsP3(PtS8)2
_symmetry_space_group_name_H-M   'P 1'
_cell_length_a   13.48470452
_cell_length_b   7.57977659
_cell_length_c   9.95293609
_cell_angle_alpha   85.52380898
_cell_angle_beta   89.73927108
_cell_angle_gamma   90.29403479
_symmetry_Int_Tables_number   1
_chemical_formula_structural   Cs8AsP3(PtS8)2
_chemical_formula_sum   'Cs8 As1 P3 Pt2 S16'
_cell_volume   1014.17124648
_cell_formula_units_Z   1
loop_
 _symmetry_equiv_pos_site_id
 _symmetry_equiv_pos_as_xyz
  1  'x, y, z'
loop_
 _atom_site_type_symbol
 _atom_site_label
 _atom_site_symmetry_multiplicity
 _atom_site_fract_x
 _atom_site_fract_y
 _atom_site_fract_z
 _atom_site_occupancy
  Cs  Cs0  1  0.130300  0.823640  0.677007  1
  Cs  Cs1  1  0.631813  0.176452  0.822825  1
  Cs  Cs2  1  0.869401  0.175454  0.323168  1
  Cs  Cs3  1  0.367815  0.824693  0.179100  1
  Cs  Cs4  1  0.345476  0.283335  0.535504  1
  Cs  Cs5  1  0.846472  0.715050  0.963978  1
  Cs  Cs6  1  0.654585  0.717655  0.465246  1
  Cs  Cs7  1  0.152051  0.280123  0.036347  1
  As  As8  1  0.420070  0.764598  0.755267  1
  P  P9  1  0.918780  0.239565  0.741719  1
  P  P10  1  0.580076  0.239874  0.241275  1
  P  P11  1  0.080748  0.759841  0.258587  1
  Pt  Pt12  1  0.999794  0.499744  0.500148  1
  Pt  Pt13  1  0.501211  0.498397  0.000543  1
  S  S14  1  0.065109  0.308110  0.676012  1
  S  S15  1  0.573746  0.688386  0.829497  1
  S  S16  1  0.934421  0.691229  0.324291  1
  S  S17  1  0.434212  0.306838  0.176139  1
  S  S18  1  0.397855  0.759674  0.541942  1
  S  S19  1  0.896643  0.239380  0.941889  1
  S  S20  1  0.601450  0.242527  0.441096  1
  S  S21  1  0.102659  0.760135  0.058360  1
  S  S22  1  0.142777  0.534502  0.364941  1
  S  S23  1  0.643806  0.465129  0.134980  1
  S  S24  1  0.856737  0.464829  0.635233  1
  S  S25  1  0.356318  0.523322  0.871520  1
  S  S26  1  0.371424  0.007320  0.832708  1
  S  S27  1  0.873637  0.010119  0.670650  1
  S  S28  1  0.624777  0.011022  0.170025  1
  S  S29  1  0.125838  0.989055  0.330000  1
