# generated using pymatgen
data_La15NdIn4Co3Tc
_symmetry_space_group_name_H-M   'P 1'
_cell_length_a   10.02072924
_cell_length_b   9.95376910
_cell_length_c   9.95610600
_cell_angle_alpha   59.99223339
_cell_angle_beta   60.21310142
_cell_angle_gamma   60.27232859
_symmetry_Int_Tables_number   1
_chemical_formula_structural   La15NdIn4Co3Tc
_chemical_formula_sum   'La15 Nd1 In4 Co3 Tc1'
_cell_volume   704.72398520
_cell_formula_units_Z   1
loop_
 _symmetry_equiv_pos_site_id
 _symmetry_equiv_pos_as_xyz
  1  'x, y, z'
loop_
 _atom_site_type_symbol
 _atom_site_label
 _atom_site_symmetry_multiplicity
 _atom_site_fract_x
 _atom_site_fract_y
 _atom_site_fract_z
 _atom_site_occupancy
  La  La0  1  0.560255  0.938487  0.560907  1
  La  La1  1  0.560255  0.938487  0.940353  1
  La  La2  1  0.687131  0.692193  0.310339  1
  La  La3  1  0.158403  0.153179  0.535041  1
  La  La4  1  0.303931  0.693637  0.691984  1
  La  La5  1  0.158403  0.153179  0.153377  1
  La  La6  1  0.539871  0.152551  0.153788  1
  La  La7  1  0.303931  0.693637  0.310449  1
  La  La8  1  0.306086  0.309679  0.692118  1
  La  La9  1  0.687244  0.310290  0.691887  1
  La  La10  1  0.933911  0.559798  0.557486  1
  La  La11  1  0.558262  0.559660  0.941039  1
  La  La12  1  0.158507  0.534411  0.153539  1
  La  La13  1  0.687244  0.310290  0.310581  1
  La  La14  1  0.933911  0.559798  0.948804  1
  Nd  Nd15  1  0.934411  0.948340  0.558624  1
  In  In16  1  0.239754  0.920080  0.920082  1
  In  In17  1  0.922579  0.920015  0.917052  1
  In  In18  1  0.922579  0.920015  0.240355  1
  In  In19  1  0.923673  0.236618  0.919855  1
  Co  Co20  1  0.369010  0.359130  0.913260  1
  Co  Co21  1  0.370313  0.913778  0.357954  1
  Co  Co22  1  0.369010  0.359130  0.358598  1
  Tc  Tc23  1  0.911324  0.363616  0.362529  1
