# generated using pymatgen
data_Tb6Lu2Sc12Si15Os
_symmetry_space_group_name_H-M   'P 1'
_cell_length_a   7.08670640
_cell_length_b   7.43377228
_cell_length_c   13.94906600
_cell_angle_alpha   89.89921970
_cell_angle_beta   89.94550645
_cell_angle_gamma   90.11140386
_symmetry_Int_Tables_number   1
_chemical_formula_structural   Tb6Lu2Sc12Si15Os
_chemical_formula_sum   'Tb6 Lu2 Sc12 Si15 Os1'
_cell_volume   734.84735016
_cell_formula_units_Z   1
loop_
 _symmetry_equiv_pos_site_id
 _symmetry_equiv_pos_as_xyz
  1  'x, y, z'
loop_
 _atom_site_type_symbol
 _atom_site_label
 _atom_site_symmetry_multiplicity
 _atom_site_fract_x
 _atom_site_fract_y
 _atom_site_fract_z
 _atom_site_occupancy
  Tb  Tb0  1  0.487914  0.675589  0.905209  1
  Tb  Tb1  1  0.989904  0.827876  0.596168  1
  Tb  Tb2  1  0.512436  0.323839  0.095469  1
  Tb  Tb3  1  0.011722  0.178941  0.403958  1
  Tb  Tb4  1  0.511395  0.323866  0.402878  1
  Tb  Tb5  1  0.488381  0.675133  0.596602  1
  Lu  Lu6  1  0.012108  0.180453  0.095881  1
  Lu  Lu7  1  0.989811  0.827558  0.903090  1
  Sc  Sc8  1  0.155988  0.497065  0.750757  1
  Sc  Sc9  1  0.839248  0.496548  0.249146  1
  Sc  Sc10  1  0.340566  0.006888  0.249270  1
  Sc  Sc11  1  0.667730  0.996419  0.750802  1
  Sc  Sc12  1  0.317065  0.171120  0.628274  1
  Sc  Sc13  1  0.673661  0.826889  0.373270  1
  Sc  Sc14  1  0.171551  0.678795  0.373356  1
  Sc  Sc15  1  0.674018  0.827647  0.125552  1
  Sc  Sc16  1  0.837272  0.318095  0.628434  1
  Sc  Sc17  1  0.314356  0.170125  0.873388  1
  Sc  Sc18  1  0.838053  0.316719  0.873077  1
  Sc  Sc19  1  0.171096  0.679698  0.125264  1
  Si  Si20  1  0.970298  0.887772  0.248846  1
  Si  Si21  1  0.469851  0.616972  0.249204  1
  Si  Si22  1  0.528930  0.386616  0.751220  1
  Si  Si23  1  0.284506  0.865248  0.751352  1
  Si  Si24  1  0.715932  0.131298  0.248410  1
  Si  Si25  1  0.213124  0.371539  0.248256  1
  Si  Si26  1  0.779221  0.625542  0.751382  1
  Si  Si27  1  0.158782  0.468195  0.537161  1
  Si  Si28  1  0.845119  0.536602  0.461640  1
  Si  Si29  1  0.345873  0.965531  0.459977  1
  Si  Si30  1  0.846122  0.536458  0.038488  1
  Si  Si31  1  0.653881  0.034459  0.538458  1
  Si  Si32  1  0.157591  0.469136  0.962803  1
  Si  Si33  1  0.656180  0.032581  0.961283  1
  Si  Si34  1  0.343024  0.967380  0.040398  1
  Os  Os35  1  0.027292  0.105409  0.751277  1
