# generated using pymatgen
data_HoMgNi3Pt
_symmetry_space_group_name_H-M   'P 1'
_cell_length_a   5.14226448
_cell_length_b   5.14226396
_cell_length_c   5.14226581
_cell_angle_alpha   57.75945532
_cell_angle_beta   57.75945350
_cell_angle_gamma   57.75945736
_symmetry_Int_Tables_number   1
_chemical_formula_structural   HoMgNi3Pt
_chemical_formula_sum   'Ho1 Mg1 Ni3 Pt1'
_cell_volume   91.20176603
_cell_formula_units_Z   1
loop_
 _symmetry_equiv_pos_site_id
 _symmetry_equiv_pos_as_xyz
  1  'x, y, z'
loop_
 _atom_site_type_symbol
 _atom_site_label
 _atom_site_symmetry_multiplicity
 _atom_site_fract_x
 _atom_site_fract_y
 _atom_site_fract_z
 _atom_site_occupancy
  Ho  Ho0  1  0.248316  0.248316  0.248316  1
  Mg  Mg1  1  0.005539  0.005539  0.005539  1
  Ni  Ni2  1  0.624456  0.624456  0.121987  1
  Ni  Ni3  1  0.624456  0.121987  0.624456  1
  Ni  Ni4  1  0.121987  0.624456  0.624456  1
  Pt  Pt5  1  0.625247  0.625247  0.625247  1
