# generated using pymatgen
data_Ti7Nb5(BOs)12
_symmetry_space_group_name_H-M   'P 1'
_cell_length_a   3.09266800
_cell_length_b   8.99618810
_cell_length_c   15.53264118
_cell_angle_alpha   89.98264995
_cell_angle_beta   90.00000000
_cell_angle_gamma   90.00000000
_symmetry_Int_Tables_number   1
_chemical_formula_structural   Ti7Nb5(BOs)12
_chemical_formula_sum   'Ti7 Nb5 B12 Os12'
_cell_volume   432.15258789
_cell_formula_units_Z   1
loop_
 _symmetry_equiv_pos_site_id
 _symmetry_equiv_pos_as_xyz
  1  'x, y, z'
loop_
 _atom_site_type_symbol
 _atom_site_label
 _atom_site_symmetry_multiplicity
 _atom_site_fract_x
 _atom_site_fract_y
 _atom_site_fract_z
 _atom_site_occupancy
  Ti  Ti0  1  0.000000  0.800190  0.495676  1
  Ti  Ti1  1  0.000000  0.199705  0.505509  1
  Ti  Ti2  1  0.000000  0.301691  0.004946  1
  Ti  Ti3  1  0.000000  0.696858  0.993502  1
  Ti  Ti4  1  0.000000  0.515073  0.594498  1
  Ti  Ti5  1  0.000000  0.484659  0.406302  1
  Ti  Ti6  1  0.000000  0.015586  0.904305  1
  Nb  Nb7  1  0.000000  0.982455  0.092864  1
  Nb  Nb8  1  0.000000  0.685216  0.205575  1
  Nb  Nb9  1  0.000000  0.315626  0.795002  1
  Nb  Nb10  1  0.000000  0.185986  0.296924  1
  Nb  Nb11  1  0.000000  0.815347  0.703918  1
  B  B12  1  0.500000  0.603400  0.495792  1
  B  B13  1  0.500000  0.396507  0.504715  1
  B  B14  1  0.500000  0.105871  0.001871  1
  B  B15  1  0.500000  0.893445  0.993106  1
  B  B16  1  0.000000  0.610387  0.833897  1
  B  B17  1  0.000000  0.393019  0.166239  1
  B  B18  1  0.000000  0.110820  0.665092  1
  B  B19  1  0.000000  0.888672  0.337547  1
  B  B20  1  0.500000  0.712032  0.598174  1
  B  B21  1  0.500000  0.288037  0.402631  1
  B  B22  1  0.500000  0.212497  0.901400  1
  B  B23  1  0.500000  0.781851  0.096699  1
  Os  Os24  1  0.500000  0.716196  0.360304  1
  Os  Os25  1  0.500000  0.283837  0.640211  1
  Os  Os26  1  0.500000  0.219416  0.141361  1
  Os  Os27  1  0.500000  0.783391  0.858919  1
  Os  Os28  1  0.500000  0.520089  0.093216  1
  Os  Os29  1  0.500000  0.479943  0.906404  1
  Os  Os30  1  0.500000  0.020240  0.407799  1
  Os  Os31  1  0.500000  0.980135  0.593100  1
  Os  Os32  1  0.500000  0.566363  0.731213  1
  Os  Os33  1  0.500000  0.434749  0.268900  1
  Os  Os34  1  0.500000  0.066654  0.768004  1
  Os  Os35  1  0.500000  0.934057  0.234387  1
