# generated using pymatgen
data_GdEr3Tc4F28
_symmetry_space_group_name_H-M   'P 1'
_cell_length_a   5.57091523
_cell_length_b   8.86724909
_cell_length_c   11.98794100
_cell_angle_alpha   62.69116373
_cell_angle_beta   89.98335918
_cell_angle_gamma   89.98751283
_symmetry_Int_Tables_number   1
_chemical_formula_structural   GdEr3Tc4F28
_chemical_formula_sum   'Gd1 Er3 Tc4 F28'
_cell_volume   526.18709185
_cell_formula_units_Z   1
loop_
 _symmetry_equiv_pos_site_id
 _symmetry_equiv_pos_as_xyz
  1  'x, y, z'
loop_
 _atom_site_type_symbol
 _atom_site_label
 _atom_site_symmetry_multiplicity
 _atom_site_fract_x
 _atom_site_fract_y
 _atom_site_fract_z
 _atom_site_occupancy
  Gd  Gd0  1  0.758628  0.814962  0.764976  1
  Er  Er1  1  0.258499  0.189701  0.735026  1
  Er  Er2  1  0.240944  0.185572  0.235383  1
  Er  Er3  1  0.741229  0.814545  0.264779  1
  Tc  Tc4  1  0.758143  0.270403  0.958010  1
  Tc  Tc5  1  0.257739  0.726633  0.540808  1
  Tc  Tc6  1  0.242407  0.726664  0.045591  1
  Tc  Tc7  1  0.741396  0.274734  0.455715  1
  F  F8  1  0.440702  0.704639  0.919297  1
  F  F9  1  0.944651  0.294258  0.581954  1
  F  F10  1  0.554916  0.292343  0.082994  1
  F  F11  1  0.054303  0.706176  0.415621  1
  F  F12  1  0.445967  0.276635  0.545576  1
  F  F13  1  0.946347  0.721652  0.957960  1
  F  F14  1  0.556171  0.724367  0.452617  1
  F  F15  1  0.054590  0.274702  0.047272  1
  F  F16  1  0.775969  0.517721  0.860525  1
  F  F17  1  0.275096  0.478238  0.639973  1
  F  F18  1  0.225881  0.477655  0.141641  1
  F  F19  1  0.724863  0.523129  0.358595  1
  F  F20  1  0.755497  0.023006  0.054218  1
  F  F21  1  0.255820  0.974308  0.446067  1
  F  F22  1  0.244047  0.973981  0.947731  1
  F  F23  1  0.743752  0.027239  0.550048  1
  F  F24  1  0.973764  0.725679  0.637098  1
  F  F25  1  0.473794  0.271298  0.860709  1
  F  F26  1  0.025046  0.272179  0.359587  1
  F  F27  1  0.527666  0.728758  0.140961  1
  F  F28  1  0.044368  0.747292  0.174253  1
  F  F29  1  0.543131  0.253680  0.326575  1
  F  F30  1  0.955794  0.251933  0.827768  1
  F  F31  1  0.449310  0.744818  0.671801  1
  F  F32  1  0.421197  0.972137  0.232467  1
  F  F33  1  0.920708  0.028436  0.267350  1
  F  F34  1  0.578690  0.035644  0.767988  1
  F  F35  1  0.088972  0.974881  0.731067  1
