# generated using pymatgen
data_Ac2Al16Pt9
_symmetry_space_group_name_H-M   'P 1'
_cell_length_a   11.27916432
_cell_length_b   11.27916483
_cell_length_c   11.27916517
_cell_angle_alpha   158.57464892
_cell_angle_beta   115.04177079
_cell_angle_gamma   69.25722300
_symmetry_Int_Tables_number   1
_chemical_formula_structural   Ac2Al16Pt9
_chemical_formula_sum   'Ac2 Al16 Pt9'
_cell_volume   471.43610585
_cell_formula_units_Z   1
loop_
 _symmetry_equiv_pos_site_id
 _symmetry_equiv_pos_as_xyz
  1  'x, y, z'
loop_
 _atom_site_type_symbol
 _atom_site_label
 _atom_site_symmetry_multiplicity
 _atom_site_fract_x
 _atom_site_fract_y
 _atom_site_fract_z
 _atom_site_occupancy
  Ac  Ac0  1  0.227698  0.227698  0.000000  1
  Ac  Ac1  1  0.772302  0.772302  0.000000  1
  Al  Al2  1  0.275391  0.393644  0.881747  1
  Al  Al3  1  0.095789  0.922378  0.173411  1
  Al  Al4  1  0.507266  0.203270  0.303997  1
  Al  Al5  1  0.251032  0.077622  0.173411  1
  Al  Al6  1  0.916728  0.416728  0.500000  1
  Al  Al7  1  0.724609  0.606356  0.118253  1
  Al  Al8  1  0.899272  0.203270  0.696003  1
  Al  Al9  1  0.492734  0.796730  0.696003  1
  Al  Al10  1  0.386089  0.000000  0.386089  1
  Al  Al11  1  0.613911  0.000000  0.613911  1
  Al  Al12  1  0.488103  0.606356  0.881747  1
  Al  Al13  1  0.100728  0.796730  0.303997  1
  Al  Al14  1  0.904211  0.077622  0.826589  1
  Al  Al15  1  0.748968  0.922378  0.826589  1
  Al  Al16  1  0.511897  0.393644  0.118253  1
  Al  Al17  1  0.083272  0.583272  0.500000  1
  Pt  Pt18  1  0.746170  0.500000  0.246170  1
  Pt  Pt19  1  0.029595  0.340666  0.688929  1
  Pt  Pt20  1  0.622365  0.122365  0.500000  1
  Pt  Pt21  1  0.253830  0.500000  0.753830  1
  Pt  Pt22  1  0.377635  0.877635  0.500000  1
  Pt  Pt23  1  0.000000  0.000000  0.000000  1
  Pt  Pt24  1  0.651737  0.340666  0.311071  1
  Pt  Pt25  1  0.348263  0.659334  0.688929  1
  Pt  Pt26  1  0.970405  0.659334  0.311071  1
