# generated using pymatgen
data_TmTh(ZnRh)2
_symmetry_space_group_name_H-M   'P 1'
_cell_length_a   3.95295900
_cell_length_b   7.10407896
_cell_length_c   8.38229884
_cell_angle_alpha   90.20091312
_cell_angle_beta   90.00000000
_cell_angle_gamma   90.00000000
_symmetry_Int_Tables_number   1
_chemical_formula_structural   TmTh(ZnRh)2
_chemical_formula_sum   'Tm2 Th2 Zn4 Rh4'
_cell_volume   235.39138237
_cell_formula_units_Z   2
loop_
 _symmetry_equiv_pos_site_id
 _symmetry_equiv_pos_as_xyz
  1  'x, y, z'
loop_
 _atom_site_type_symbol
 _atom_site_label
 _atom_site_symmetry_multiplicity
 _atom_site_fract_x
 _atom_site_fract_y
 _atom_site_fract_z
 _atom_site_occupancy
  Tm  Tm0  1  0.750000  0.951739  0.682707  1
  Tm  Tm1  1  0.250000  0.048261  0.317293  1
  Th  Th2  1  0.250000  0.548134  0.191157  1
  Th  Th3  1  0.750000  0.451866  0.808843  1
  Zn  Zn4  1  0.250000  0.644795  0.560201  1
  Zn  Zn5  1  0.750000  0.355205  0.439799  1
  Zn  Zn6  1  0.750000  0.883577  0.061902  1
  Zn  Zn7  1  0.250000  0.116423  0.938098  1
  Rh  Rh8  1  0.250000  0.738881  0.875150  1
  Rh  Rh9  1  0.750000  0.261119  0.124850  1
  Rh  Rh10  1  0.750000  0.754890  0.368028  1
  Rh  Rh11  1  0.250000  0.245110  0.631972  1
