# generated using pymatgen
data_In6IrRu
_symmetry_space_group_name_H-M   'P 1'
_cell_length_a   7.10807784
_cell_length_b   7.10807784
_cell_length_c   7.32286700
_cell_angle_alpha   90.00000000
_cell_angle_beta   90.00000000
_cell_angle_gamma   90.05571527
_symmetry_Int_Tables_number   1
_chemical_formula_structural   In6IrRu
_chemical_formula_sum   'In12 Ir2 Ru2'
_cell_volume   369.98600025
_cell_formula_units_Z   2
loop_
 _symmetry_equiv_pos_site_id
 _symmetry_equiv_pos_as_xyz
  1  'x, y, z'
loop_
 _atom_site_type_symbol
 _atom_site_label
 _atom_site_symmetry_multiplicity
 _atom_site_fract_x
 _atom_site_fract_y
 _atom_site_fract_z
 _atom_site_occupancy
  In  In0  1  0.500001  0.000000  0.000000  1
  In  In1  1  0.000000  0.500001  0.000000  1
  In  In2  1  0.654591  0.345409  0.241492  1
  In  In3  1  0.345409  0.654591  0.241492  1
  In  In4  1  0.154111  0.154111  0.263051  1
  In  In5  1  0.845888  0.845888  0.263051  1
  In  In6  1  0.500001  0.000000  0.500000  1
  In  In7  1  0.000000  0.500001  0.500000  1
  In  In8  1  0.154111  0.154111  0.736949  1
  In  In9  1  0.845888  0.845888  0.736949  1
  In  In10  1  0.654591  0.345409  0.758507  1
  In  In11  1  0.345409  0.654591  0.758507  1
  Ir  Ir12  1  0.343712  0.343712  0.000000  1
  Ir  Ir13  1  0.656289  0.656289  0.000000  1
  Ru  Ru14  1  0.845070  0.154930  0.500000  1
  Ru  Ru15  1  0.154930  0.845070  0.500000  1
