# generated using pymatgen
data_SrLi4Ho3Si8
_symmetry_space_group_name_H-M   'P 1'
_cell_length_a   3.80554100
_cell_length_b   7.78863739
_cell_length_c   10.33203473
_cell_angle_alpha   89.37688961
_cell_angle_beta   90.00000000
_cell_angle_gamma   90.00000000
_symmetry_Int_Tables_number   1
_chemical_formula_structural   SrLi4Ho3Si8
_chemical_formula_sum   'Sr1 Li4 Ho3 Si8'
_cell_volume   306.22318193
_cell_formula_units_Z   1
loop_
 _symmetry_equiv_pos_site_id
 _symmetry_equiv_pos_as_xyz
  1  'x, y, z'
loop_
 _atom_site_type_symbol
 _atom_site_label
 _atom_site_symmetry_multiplicity
 _atom_site_fract_x
 _atom_site_fract_y
 _atom_site_fract_z
 _atom_site_occupancy
  Sr  Sr0  1  0.750000  0.359795  0.362968  1
  Li  Li1  1  0.250000  0.996967  0.394082  1
  Li  Li2  1  0.750000  0.012412  0.609692  1
  Li  Li3  1  0.250000  0.486715  0.107171  1
  Li  Li4  1  0.750000  0.510788  0.895137  1
  Ho  Ho5  1  0.250000  0.127777  0.863093  1
  Ho  Ho6  1  0.750000  0.865551  0.132077  1
  Ho  Ho7  1  0.250000  0.634747  0.636577  1
  Si  Si8  1  0.750000  0.254834  0.057722  1
  Si  Si9  1  0.250000  0.735251  0.932881  1
  Si  Si10  1  0.750000  0.776676  0.433380  1
  Si  Si11  1  0.250000  0.236243  0.580160  1
  Si  Si12  1  0.750000  0.838911  0.816957  1
  Si  Si13  1  0.250000  0.147234  0.168441  1
  Si  Si14  1  0.750000  0.343135  0.689495  1
  Si  Si15  1  0.250000  0.672964  0.320166  1
