# generated using pymatgen
data_La7Nd9Cd4Ni3Ir
_symmetry_space_group_name_H-M   'P 1'
_cell_length_a   9.99934310
_cell_length_b   9.99895475
_cell_length_c   10.02568787
_cell_angle_alpha   59.60294063
_cell_angle_beta   59.79483155
_cell_angle_gamma   60.01027020
_symmetry_Int_Tables_number   1
_chemical_formula_structural   La7Nd9Cd4Ni3Ir
_chemical_formula_sum   'La7 Nd9 Cd4 Ni3 Ir1'
_cell_volume   705.60966284
_cell_formula_units_Z   1
loop_
 _symmetry_equiv_pos_site_id
 _symmetry_equiv_pos_as_xyz
  1  'x, y, z'
loop_
 _atom_site_type_symbol
 _atom_site_label
 _atom_site_symmetry_multiplicity
 _atom_site_fract_x
 _atom_site_fract_y
 _atom_site_fract_z
 _atom_site_occupancy
  La  La0  1  0.595099  0.595413  0.598565  1
  La  La1  1  0.599413  0.597778  0.206357  1
  La  La2  1  0.601477  0.205266  0.598757  1
  La  La3  1  0.204821  0.600959  0.600387  1
  La  La4  1  0.059953  0.439811  0.437402  1
  La  La5  1  0.437692  0.060697  0.058748  1
  La  La6  1  0.439137  0.060789  0.438734  1
  Nd  Nd7  1  0.058790  0.438921  0.058952  1
  Nd  Nd8  1  0.439782  0.441939  0.057119  1
  Nd  Nd9  1  0.057253  0.059024  0.438654  1
  Nd  Nd10  1  0.186954  0.815543  0.816653  1
  Nd  Nd11  1  0.808482  0.188187  0.186019  1
  Nd  Nd12  1  0.815538  0.187784  0.815959  1
  Nd  Nd13  1  0.188446  0.807484  0.186924  1
  Nd  Nd14  1  0.815579  0.814580  0.187912  1
  Nd  Nd15  1  0.187977  0.188349  0.808100  1
  Cd  Cd16  1  0.832090  0.830316  0.830306  1
  Cd  Cd17  1  0.830494  0.830244  0.508697  1
  Cd  Cd18  1  0.829328  0.508602  0.831060  1
  Cd  Cd19  1  0.509097  0.828420  0.830414  1
  Ni  Ni20  1  0.393088  0.389748  0.823876  1
  Ni  Ni21  1  0.393905  0.825402  0.391593  1
  Ni  Ni22  1  0.824831  0.393722  0.393465  1
  Ir  Ir23  1  0.390777  0.391026  0.395352  1
