# generated using pymatgen
data_La3ThHgRu
_symmetry_space_group_name_H-M   'P 1'
_cell_length_a   10.03894217
_cell_length_b   10.03894188
_cell_length_c   10.03894200
_cell_angle_alpha   59.99999960
_cell_angle_beta   60.00000057
_cell_angle_gamma   60.00000512
_symmetry_Int_Tables_number   1
_chemical_formula_structural   La3ThHgRu
_chemical_formula_sum   'La12 Th4 Hg4 Ru4'
_cell_volume   715.39987033
_cell_formula_units_Z   4
loop_
 _symmetry_equiv_pos_site_id
 _symmetry_equiv_pos_as_xyz
  1  'x, y, z'
loop_
 _atom_site_type_symbol
 _atom_site_label
 _atom_site_symmetry_multiplicity
 _atom_site_fract_x
 _atom_site_fract_y
 _atom_site_fract_z
 _atom_site_occupancy
  La  La0  1  0.057480  0.442520  0.442520  1
  La  La1  1  0.442520  0.057480  0.057480  1
  La  La2  1  0.442520  0.057480  0.442520  1
  La  La3  1  0.057480  0.442520  0.057480  1
  La  La4  1  0.442520  0.442520  0.057480  1
  La  La5  1  0.057480  0.057480  0.442520  1
  La  La6  1  0.191413  0.808587  0.808587  1
  La  La7  1  0.808587  0.191413  0.191413  1
  La  La8  1  0.808587  0.191413  0.808587  1
  La  La9  1  0.191413  0.808587  0.191413  1
  La  La10  1  0.808587  0.808587  0.191413  1
  La  La11  1  0.191413  0.191413  0.808587  1
  Th  Th12  1  0.594356  0.594356  0.594356  1
  Th  Th13  1  0.594356  0.594356  0.216932  1
  Th  Th14  1  0.594356  0.216932  0.594356  1
  Th  Th15  1  0.216932  0.594356  0.594356  1
  Hg  Hg16  1  0.831979  0.831979  0.831979  1
  Hg  Hg17  1  0.831979  0.831979  0.504061  1
  Hg  Hg18  1  0.831979  0.504061  0.831979  1
  Hg  Hg19  1  0.504061  0.831979  0.831979  1
  Ru  Ru20  1  0.394599  0.394599  0.394599  1
  Ru  Ru21  1  0.394599  0.394599  0.816203  1
  Ru  Ru22  1  0.394599  0.816203  0.394599  1
  Ru  Ru23  1  0.816203  0.394599  0.394599  1
