# generated using pymatgen
data_Li4Nd4RuPt3
_symmetry_space_group_name_H-M   'P 1'
_cell_length_a   4.08188300
_cell_length_b   7.22368316
_cell_length_c   8.60637609
_cell_angle_alpha   89.47377951
_cell_angle_beta   90.00000000
_cell_angle_gamma   90.00000000
_symmetry_Int_Tables_number   1
_chemical_formula_structural   Li4Nd4RuPt3
_chemical_formula_sum   'Li4 Nd4 Ru1 Pt3'
_cell_volume   253.75887771
_cell_formula_units_Z   1
loop_
 _symmetry_equiv_pos_site_id
 _symmetry_equiv_pos_as_xyz
  1  'x, y, z'
loop_
 _atom_site_type_symbol
 _atom_site_label
 _atom_site_symmetry_multiplicity
 _atom_site_fract_x
 _atom_site_fract_y
 _atom_site_fract_z
 _atom_site_occupancy
  Li  Li0  1  0.750000  0.876659  0.947852  1
  Li  Li1  1  0.250000  0.622307  0.446396  1
  Li  Li2  1  0.750000  0.376689  0.550857  1
  Li  Li3  1  0.250000  0.121158  0.057054  1
  Nd  Nd4  1  0.750000  0.450203  0.177054  1
  Nd  Nd5  1  0.250000  0.039582  0.679201  1
  Nd  Nd6  1  0.750000  0.946569  0.328890  1
  Nd  Nd7  1  0.250000  0.554763  0.810852  1
  Ru  Ru8  1  0.750000  0.761962  0.627799  1
  Pt  Pt9  1  0.750000  0.252923  0.876704  1
  Pt  Pt10  1  0.250000  0.250671  0.372026  1
  Pt  Pt11  1  0.250000  0.746516  0.125314  1
