# generated using pymatgen
data_Tb11NdY8(CoSb2)4
_symmetry_space_group_name_H-M   'P 1'
_cell_length_a   7.99789948
_cell_length_b   8.76075900
_cell_length_c   12.25698974
_cell_angle_alpha   90.00000000
_cell_angle_beta   89.96022389
_cell_angle_gamma   90.00000000
_symmetry_Int_Tables_number   1
_chemical_formula_structural   Tb11NdY8(CoSb2)4
_chemical_formula_sum   'Tb11 Nd1 Y8 Co4 Sb8'
_cell_volume   858.81850359
_cell_formula_units_Z   1
loop_
 _symmetry_equiv_pos_site_id
 _symmetry_equiv_pos_as_xyz
  1  'x, y, z'
loop_
 _atom_site_type_symbol
 _atom_site_label
 _atom_site_symmetry_multiplicity
 _atom_site_fract_x
 _atom_site_fract_y
 _atom_site_fract_z
 _atom_site_occupancy
  Tb  Tb0  1  0.122319  0.250000  0.193999  1
  Tb  Tb1  1  0.377453  0.250000  0.694649  1
  Tb  Tb2  1  0.877609  0.750000  0.805656  1
  Tb  Tb3  1  0.821849  0.965908  0.064809  1
  Tb  Tb4  1  0.320840  0.035871  0.435505  1
  Tb  Tb5  1  0.178059  0.465726  0.934953  1
  Tb  Tb6  1  0.678248  0.533500  0.565957  1
  Tb  Tb7  1  0.178059  0.034274  0.934953  1
  Tb  Tb8  1  0.678248  0.966500  0.565957  1
  Tb  Tb9  1  0.821849  0.534092  0.064809  1
  Tb  Tb10  1  0.320840  0.464129  0.435505  1
  Nd  Nd11  1  0.624265  0.750000  0.304498  1
  Y  Y12  1  0.155032  0.750000  0.203324  1
  Y  Y13  1  0.655642  0.250000  0.296121  1
  Y  Y14  1  0.844655  0.250000  0.796589  1
  Y  Y15  1  0.344580  0.750000  0.703617  1
  Y  Y16  1  0.455305  0.750000  0.997904  1
  Y  Y17  1  0.956259  0.250000  0.502099  1
  Y  Y18  1  0.544240  0.250000  0.001221  1
  Y  Y19  1  0.044849  0.750000  0.498414  1
  Co  Co20  1  0.434605  0.750000  0.490930  1
  Co  Co21  1  0.936344  0.250000  0.010226  1
  Co  Co22  1  0.563843  0.250000  0.510520  1
  Co  Co23  1  0.063705  0.750000  0.989729  1
  Sb  Sb24  1  0.930912  0.993480  0.327410  1
  Sb  Sb25  1  0.425931  0.010294  0.171674  1
  Sb  Sb26  1  0.071941  0.491670  0.672811  1
  Sb  Sb27  1  0.571868  0.508397  0.827133  1
  Sb  Sb28  1  0.071941  0.008330  0.672811  1
  Sb  Sb29  1  0.571868  0.991603  0.827133  1
  Sb  Sb30  1  0.930912  0.506520  0.327410  1
  Sb  Sb31  1  0.425931  0.489706  0.171674  1
