# generated using pymatgen
data_Ba4ErTm(FeO5)2
_symmetry_space_group_name_H-M   'P 1'
_cell_length_a   6.11520100
_cell_length_b   7.89423131
_cell_length_c   12.71542349
_cell_angle_alpha   91.93810447
_cell_angle_beta   90.00000000
_cell_angle_gamma   90.00000000
_symmetry_Int_Tables_number   1
_chemical_formula_structural   Ba4ErTm(FeO5)2
_chemical_formula_sum   'Ba8 Er2 Tm2 Fe4 O20'
_cell_volume   613.48352107
_cell_formula_units_Z   2
loop_
 _symmetry_equiv_pos_site_id
 _symmetry_equiv_pos_as_xyz
  1  'x, y, z'
loop_
 _atom_site_type_symbol
 _atom_site_label
 _atom_site_symmetry_multiplicity
 _atom_site_fract_x
 _atom_site_fract_y
 _atom_site_fract_z
 _atom_site_occupancy
  Ba  Ba0  1  0.758555  0.486632  0.349740  1
  Ba  Ba1  1  0.741445  0.986632  0.849740  1
  Ba  Ba2  1  0.241444  0.513541  0.650325  1
  Ba  Ba3  1  0.258556  0.013541  0.150325  1
  Ba  Ba4  1  0.754735  0.993112  0.380389  1
  Ba  Ba5  1  0.745265  0.493112  0.880389  1
  Ba  Ba6  1  0.245214  0.006634  0.619681  1
  Ba  Ba7  1  0.254786  0.506634  0.119681  1
  Er  Er8  1  0.750414  0.265674  0.630973  1
  Er  Er9  1  0.749586  0.765674  0.130973  1
  Tm  Tm10  1  0.249453  0.734726  0.369137  1
  Tm  Tm11  1  0.250547  0.234726  0.869137  1
  Fe  Fe12  1  0.735847  0.742567  0.582371  1
  Fe  Fe13  1  0.764153  0.242567  0.082371  1
  Fe  Fe14  1  0.264043  0.257182  0.416911  1
  Fe  Fe15  1  0.235957  0.757182  0.916911  1
  O  O16  1  0.759743  0.973185  0.631712  1
  O  O17  1  0.740257  0.473185  0.131712  1
  O  O18  1  0.240288  0.025946  0.368397  1
  O  O19  1  0.259712  0.525946  0.868397  1
  O  O20  1  0.734580  0.059510  0.174203  1
  O  O21  1  0.765420  0.559510  0.674203  1
  O  O22  1  0.265396  0.941406  0.826040  1
  O  O23  1  0.234604  0.441406  0.326040  1
  O  O24  1  0.538608  0.745948  0.271025  1
  O  O25  1  0.961392  0.245948  0.771025  1
  O  O26  1  0.459669  0.253910  0.729944  1
  O  O27  1  0.040331  0.753910  0.229944  1
  O  O28  1  0.544788  0.224091  0.975526  1
  O  O29  1  0.955212  0.724091  0.475526  1
  O  O30  1  0.454151  0.775968  0.024194  1
  O  O31  1  0.045849  0.275968  0.524194  1
  O  O32  1  0.043818  0.230427  0.016121  1
  O  O33  1  0.456182  0.730427  0.516121  1
  O  O34  1  0.956628  0.769543  0.983310  1
  O  O35  1  0.543372  0.269543  0.483310  1
