# generated using pymatgen
data_Tb3CeIn2(RhAu)2
_symmetry_space_group_name_H-M   'P 1'
_cell_length_a   7.87206280
_cell_length_b   7.87206274
_cell_length_c   3.73520000
_cell_angle_alpha   90.00000000
_cell_angle_beta   90.00000000
_cell_angle_gamma   87.92178338
_symmetry_Int_Tables_number   1
_chemical_formula_structural   Tb3CeIn2(RhAu)2
_chemical_formula_sum   'Tb3 Ce1 In2 Rh2 Au2'
_cell_volume   231.31575214
_cell_formula_units_Z   1
loop_
 _symmetry_equiv_pos_site_id
 _symmetry_equiv_pos_as_xyz
  1  'x, y, z'
loop_
 _atom_site_type_symbol
 _atom_site_label
 _atom_site_symmetry_multiplicity
 _atom_site_fract_x
 _atom_site_fract_y
 _atom_site_fract_z
 _atom_site_occupancy
  Tb  Tb0  1  0.655412  0.169020  0.500000  1
  Tb  Tb1  1  0.330980  0.844588  0.500000  1
  Tb  Tb2  1  0.186485  0.313515  0.500000  1
  Ce  Ce3  1  0.811499  0.688501  0.500000  1
  In  In4  1  0.997413  0.005892  0.000000  1
  In  In5  1  0.494108  0.502587  0.000000  1
  Rh  Rh6  1  0.643449  0.856551  0.000000  1
  Rh  Rh7  1  0.380306  0.119694  0.000000  1
  Au  Au8  1  0.127692  0.627346  0.000000  1
  Au  Au9  1  0.872654  0.372308  0.000000  1
