# generated using pymatgen
data_Zr6CoBiSb
_symmetry_space_group_name_H-M   'P 1'
_cell_length_a   7.90958400
_cell_length_b   7.90958255
_cell_length_c   3.64071000
_cell_angle_alpha   90.00000000
_cell_angle_beta   90.00000000
_cell_angle_gamma   120.00000608
_symmetry_Int_Tables_number   1
_chemical_formula_structural   Zr6CoBiSb
_chemical_formula_sum   'Zr6 Co1 Bi1 Sb1'
_cell_volume   197.25312727
_cell_formula_units_Z   1
loop_
 _symmetry_equiv_pos_site_id
 _symmetry_equiv_pos_as_xyz
  1  'x, y, z'
loop_
 _atom_site_type_symbol
 _atom_site_label
 _atom_site_symmetry_multiplicity
 _atom_site_fract_x
 _atom_site_fract_y
 _atom_site_fract_z
 _atom_site_occupancy
  Zr  Zr0  1  0.239017  0.002038  0.500000  1
  Zr  Zr1  1  0.997962  0.236979  0.500000  1
  Zr  Zr2  1  0.763021  0.760983  0.500000  1
  Zr  Zr3  1  0.606517  0.007819  0.000000  1
  Zr  Zr4  1  0.992181  0.598697  0.000000  1
  Zr  Zr5  1  0.401303  0.393483  0.000000  1
  Co  Co6  1  0.000000  0.000000  0.000000  1
  Bi  Bi7  1  0.333333  0.666667  0.500000  1
  Sb  Sb8  1  0.666667  0.333333  0.500000  1
