# generated using pymatgen
data_TiBe3AlTc
_symmetry_space_group_name_H-M   'P 1'
_cell_length_a   4.55631871
_cell_length_b   4.55631812
_cell_length_c   4.62469651
_cell_angle_alpha   90.00000055
_cell_angle_beta   60.48791335
_cell_angle_gamma   120.00000381
_symmetry_Int_Tables_number   1
_chemical_formula_structural   TiBe3AlTc
_chemical_formula_sum   'Ti1 Be3 Al1 Tc1'
_cell_volume   68.38488620
_cell_formula_units_Z   1
loop_
 _symmetry_equiv_pos_site_id
 _symmetry_equiv_pos_as_xyz
  1  'x, y, z'
loop_
 _atom_site_type_symbol
 _atom_site_label
 _atom_site_symmetry_multiplicity
 _atom_site_fract_x
 _atom_site_fract_y
 _atom_site_fract_z
 _atom_site_occupancy
  Ti  Ti0  1  0.994700  0.997351  0.007949  1
  Be  Be1  1  0.249925  0.375406  0.374668  1
  Be  Be2  1  0.249925  0.874519  0.374668  1
  Be  Be3  1  0.750812  0.375406  0.374668  1
  Al  Al4  1  0.752945  0.376472  0.870583  1
  Tc  Tc5  1  0.501692  0.750846  0.747462  1
