# generated using pymatgen
data_Th4Al24Pt8Rh
_symmetry_space_group_name_H-M   'P 1'
_cell_length_a   7.62708113
_cell_length_b   7.63991242
_cell_length_c   13.24517094
_cell_angle_alpha   84.50862475
_cell_angle_beta   78.97290503
_cell_angle_gamma   59.95464029
_symmetry_Int_Tables_number   1
_chemical_formula_structural   Th4Al24Pt8Rh
_chemical_formula_sum   'Th4 Al24 Pt8 Rh1'
_cell_volume   655.75688984
_cell_formula_units_Z   1
loop_
 _symmetry_equiv_pos_site_id
 _symmetry_equiv_pos_as_xyz
  1  'x, y, z'
loop_
 _atom_site_type_symbol
 _atom_site_label
 _atom_site_symmetry_multiplicity
 _atom_site_fract_x
 _atom_site_fract_y
 _atom_site_fract_z
 _atom_site_occupancy
  Th  Th0  1  0.395342  0.167187  0.807169  1
  Th  Th1  1  0.604658  0.832813  0.192831  1
  Th  Th2  1  0.733116  0.498505  0.807054  1
  Th  Th3  1  0.266884  0.501495  0.192946  1
  Al  Al4  1  0.690367  0.829931  0.946480  1
  Al  Al5  1  0.309633  0.170069  0.053520  1
  Al  Al6  1  0.145867  0.833289  0.560828  1
  Al  Al7  1  0.854133  0.166711  0.439172  1
  Al  Al8  1  0.481501  0.166758  0.557561  1
  Al  Al9  1  0.518499  0.833242  0.442439  1
  Al  Al10  1  0.211395  0.165699  0.334858  1
  Al  Al11  1  0.788605  0.834301  0.665142  1
  Al  Al12  1  0.435046  0.510496  0.665194  1
  Al  Al13  1  0.564954  0.489504  0.334806  1
  Al  Al14  1  0.111912  0.155973  0.663450  1
  Al  Al15  1  0.888088  0.844027  0.336550  1
  Al  Al16  1  0.345229  0.502475  0.946516  1
  Al  Al17  1  0.654771  0.497525  0.053484  1
  Al  Al18  1  0.014118  0.168494  0.957411  1
  Al  Al19  1  0.985882  0.831506  0.042589  1
  Al  Al20  1  0.186476  0.499457  0.442632  1
  Al  Al21  1  0.813524  0.500543  0.557368  1
  Al  Al22  1  0.739412  0.163326  0.183197  1
  Al  Al23  1  0.260588  0.836674  0.816803  1
  Al  Al24  1  0.060671  0.632407  0.817466  1
  Al  Al25  1  0.939329  0.367593  0.182534  1
  Al  Al26  1  0.860730  0.036886  0.816438  1
  Al  Al27  1  0.139270  0.963114  0.183563  1
  Pt  Pt28  1  0.120220  0.491706  0.639032  1
  Pt  Pt29  1  0.879780  0.508294  0.360968  1
  Pt  Pt30  1  0.656233  0.171883  0.999927  1
  Pt  Pt31  1  0.343767  0.828117  0.000073  1
  Pt  Pt32  1  0.537110  0.166746  0.361321  1
  Pt  Pt33  1  0.462890  0.833254  0.638679  1
  Pt  Pt34  1  0.778522  0.175490  0.637578  1
  Pt  Pt35  1  0.221478  0.824510  0.362422  1
  Rh  Rh36  1  0.000000  0.500000  0.000000  1
