# generated using pymatgen
data_YTm5TcRh
_symmetry_space_group_name_H-M   'P 1'
_cell_length_a   6.25536209
_cell_length_b   7.32475447
_cell_length_c   9.04406800
_cell_angle_alpha   90.00000000
_cell_angle_beta   90.00000000
_cell_angle_gamma   89.58605734
_symmetry_Int_Tables_number   1
_chemical_formula_structural   YTm5TcRh
_chemical_formula_sum   'Y2 Tm10 Tc2 Rh2'
_cell_volume   414.37925966
_cell_formula_units_Z   2
loop_
 _symmetry_equiv_pos_site_id
 _symmetry_equiv_pos_as_xyz
  1  'x, y, z'
loop_
 _atom_site_type_symbol
 _atom_site_label
 _atom_site_symmetry_multiplicity
 _atom_site_fract_x
 _atom_site_fract_y
 _atom_site_fract_z
 _atom_site_occupancy
  Y  Y0  1  0.125952  0.461629  0.750000  1
  Y  Y1  1  0.874048  0.538371  0.250000  1
  Tm  Tm2  1  0.636218  0.040085  0.250000  1
  Tm  Tm3  1  0.363782  0.959915  0.750000  1
  Tm  Tm4  1  0.173141  0.177992  0.065394  1
  Tm  Tm5  1  0.826859  0.822008  0.934606  1
  Tm  Tm6  1  0.662723  0.324883  0.938296  1
  Tm  Tm7  1  0.826859  0.822008  0.565394  1
  Tm  Tm8  1  0.337277  0.675117  0.061704  1
  Tm  Tm9  1  0.173141  0.177992  0.434606  1
  Tm  Tm10  1  0.337277  0.675117  0.438296  1
  Tm  Tm11  1  0.662723  0.324883  0.561704  1
  Tc  Tc12  1  0.460040  0.381516  0.250000  1
  Tc  Tc13  1  0.539960  0.618484  0.750000  1
  Rh  Rh14  1  0.955457  0.111112  0.750000  1
  Rh  Rh15  1  0.044543  0.888888  0.250000  1
