# generated using pymatgen
data_Li8Nd5Th3Rh8
_symmetry_space_group_name_H-M   'P 1'
_cell_length_a   3.98136200
_cell_length_b   7.45960778
_cell_length_c   16.61955500
_cell_angle_alpha   90.28578477
_cell_angle_beta   90.00000000
_cell_angle_gamma   90.00000000
_symmetry_Int_Tables_number   1
_chemical_formula_structural   Li8Nd5Th3Rh8
_chemical_formula_sum   'Li8 Nd5 Th3 Rh8'
_cell_volume   493.58465448
_cell_formula_units_Z   1
loop_
 _symmetry_equiv_pos_site_id
 _symmetry_equiv_pos_as_xyz
  1  'x, y, z'
loop_
 _atom_site_type_symbol
 _atom_site_label
 _atom_site_symmetry_multiplicity
 _atom_site_fract_x
 _atom_site_fract_y
 _atom_site_fract_z
 _atom_site_occupancy
  Li  Li0  1  0.750000  0.011881  0.560635  1
  Li  Li1  1  0.250000  0.626039  0.349638  1
  Li  Li2  1  0.750000  0.373734  0.651035  1
  Li  Li3  1  0.250000  0.494350  0.059905  1
  Li  Li4  1  0.750000  0.516034  0.939423  1
  Li  Li5  1  0.250000  0.987015  0.439000  1
  Li  Li6  1  0.250000  0.125595  0.149032  1
  Li  Li7  1  0.750000  0.873173  0.849320  1
  Nd  Nd8  1  0.750000  0.947625  0.282706  1
  Nd  Nd9  1  0.750000  0.831586  0.061077  1
  Nd  Nd10  1  0.750000  0.452334  0.215426  1
  Nd  Nd11  1  0.250000  0.050601  0.717818  1
  Nd  Nd12  1  0.250000  0.550945  0.784730  1
  Th  Th13  1  0.250000  0.162370  0.940105  1
  Th  Th14  1  0.250000  0.667029  0.561736  1
  Th  Th15  1  0.750000  0.332029  0.438581  1
  Rh  Rh16  1  0.750000  0.725319  0.445848  1
  Rh  Rh17  1  0.250000  0.252854  0.320511  1
  Rh  Rh18  1  0.750000  0.245155  0.821948  1
  Rh  Rh19  1  0.750000  0.747712  0.679062  1
  Rh  Rh20  1  0.250000  0.272279  0.554442  1
  Rh  Rh21  1  0.250000  0.744635  0.187804  1
  Rh  Rh22  1  0.750000  0.238169  0.053055  1
  Rh  Rh23  1  0.250000  0.771535  0.937163  1
