# generated using pymatgen
data_Cs4Na2HoErSb4
_symmetry_space_group_name_H-M   'P 1'
_cell_length_a   11.64639413
_cell_length_b   11.64639273
_cell_length_c   7.58966200
_cell_angle_alpha   90.00000000
_cell_angle_beta   90.00000000
_cell_angle_gamma   100.03639810
_symmetry_Int_Tables_number   1
_chemical_formula_structural   Cs4Na2HoErSb4
_chemical_formula_sum   'Cs8 Na4 Ho2 Er2 Sb8'
_cell_volume   1013.69678835
_cell_formula_units_Z   2
loop_
 _symmetry_equiv_pos_site_id
 _symmetry_equiv_pos_as_xyz
  1  'x, y, z'
loop_
 _atom_site_type_symbol
 _atom_site_label
 _atom_site_symmetry_multiplicity
 _atom_site_fract_x
 _atom_site_fract_y
 _atom_site_fract_z
 _atom_site_occupancy
  Cs  Cs0  1  0.070755  0.429245  0.250000  1
  Cs  Cs1  1  0.429245  0.070755  0.750000  1
  Cs  Cs2  1  0.929335  0.570665  0.750000  1
  Cs  Cs3  1  0.570665  0.929335  0.250000  1
  Cs  Cs4  1  0.676960  0.322981  0.212873  1
  Cs  Cs5  1  0.823040  0.177019  0.712873  1
  Cs  Cs6  1  0.322981  0.676960  0.787127  1
  Cs  Cs7  1  0.177019  0.823040  0.287127  1
  Na  Na8  1  0.381274  0.381274  0.000000  1
  Na  Na9  1  0.118726  0.118726  0.500000  1
  Na  Na10  1  0.618599  0.618599  0.000000  1
  Na  Na11  1  0.881401  0.881401  0.500000  1
  Ho  Ho12  1  0.869366  0.869366  0.000000  1
  Ho  Ho13  1  0.630634  0.630634  0.500000  1
  Er  Er14  1  0.130567  0.130567  0.000000  1
  Er  Er15  1  0.369433  0.369433  0.500000  1
  Sb  Sb16  1  0.841563  0.658436  0.250000  1
  Sb  Sb17  1  0.658436  0.841563  0.750000  1
  Sb  Sb18  1  0.158843  0.341156  0.750000  1
  Sb  Sb19  1  0.341156  0.158843  0.250000  1
  Sb  Sb20  1  0.905280  0.095336  0.209514  1
  Sb  Sb21  1  0.594720  0.404664  0.709514  1
  Sb  Sb22  1  0.095336  0.905280  0.790486  1
  Sb  Sb23  1  0.404664  0.594720  0.290486  1
