# generated using pymatgen
data_Lu2CI3
_symmetry_space_group_name_H-M   'P 1'
_cell_length_a   13.47101400
_cell_length_b   8.29785295
_cell_length_c   16.41872100
_cell_angle_alpha   59.77007216
_cell_angle_beta   90.00000000
_cell_angle_gamma   90.00000000
_symmetry_Int_Tables_number   1
_chemical_formula_structural   Lu2CI3
_chemical_formula_sum   'Lu16 C8 I24'
_cell_volume   1585.71482834
_cell_formula_units_Z   8
loop_
 _symmetry_equiv_pos_site_id
 _symmetry_equiv_pos_as_xyz
  1  'x, y, z'
loop_
 _atom_site_type_symbol
 _atom_site_label
 _atom_site_symmetry_multiplicity
 _atom_site_fract_x
 _atom_site_fract_y
 _atom_site_fract_z
 _atom_site_occupancy
  Lu  Lu0  1  0.595998  0.139436  0.572286  1
  Lu  Lu1  1  0.409657  0.276373  0.431983  1
  Lu  Lu2  1  0.095998  0.860564  0.927714  1
  Lu  Lu3  1  0.909657  0.723627  0.068017  1
  Lu  Lu4  1  0.404002  0.860564  0.427714  1
  Lu  Lu5  1  0.590343  0.723627  0.568017  1
  Lu  Lu6  1  0.904002  0.139436  0.072286  1
  Lu  Lu7  1  0.090343  0.276373  0.931983  1
  Lu  Lu8  1  0.601760  0.621258  0.378160  1
  Lu  Lu9  1  0.398240  0.378742  0.621840  1
  Lu  Lu10  1  0.101760  0.378742  0.121840  1
  Lu  Lu11  1  0.898240  0.621258  0.878160  1
  Lu  Lu12  1  0.367542  0.841685  0.658516  1
  Lu  Lu13  1  0.632458  0.158315  0.341484  1
  Lu  Lu14  1  0.867542  0.158315  0.841484  1
  Lu  Lu15  1  0.132458  0.841685  0.158516  1
  C  C16  1  0.466982  0.960707  0.539462  1
  C  C17  1  0.533018  0.039293  0.460538  1
  C  C18  1  0.966982  0.039293  0.960538  1
  C  C19  1  0.033018  0.960707  0.039462  1
  C  C20  1  0.517383  0.407894  0.512907  1
  C  C21  1  0.017383  0.592106  0.987093  1
  C  C22  1  0.482617  0.592106  0.487093  1
  C  C23  1  0.982617  0.407894  0.012907  1
  I  I24  1  0.764076  0.327531  0.425830  1
  I  I25  1  0.238333  0.186519  0.572148  1
  I  I26  1  0.264076  0.672469  0.074170  1
  I  I27  1  0.738333  0.813481  0.927852  1
  I  I28  1  0.235924  0.672469  0.574170  1
  I  I29  1  0.761667  0.813481  0.427852  1
  I  I30  1  0.735924  0.327531  0.925830  1
  I  I31  1  0.261667  0.186519  0.072148  1
  I  I32  1  0.725883  0.335280  0.666356  1
  I  I33  1  0.274117  0.664720  0.333644  1
  I  I34  1  0.225883  0.664720  0.833644  1
  I  I35  1  0.774117  0.335280  0.166356  1
  I  I36  1  0.483796  0.992768  0.761364  1
  I  I37  1  0.513666  0.515562  0.241800  1
  I  I38  1  0.983796  0.007232  0.738636  1
  I  I39  1  0.013666  0.484438  0.258200  1
  I  I40  1  0.516204  0.007232  0.238636  1
  I  I41  1  0.486334  0.484438  0.758200  1
  I  I42  1  0.016204  0.992768  0.261364  1
  I  I43  1  0.986334  0.515562  0.741800  1
  I  I44  1  0.739806  0.819619  0.675620  1
  I  I45  1  0.260194  0.180381  0.324380  1
  I  I46  1  0.239806  0.180381  0.824380  1
  I  I47  1  0.760194  0.819619  0.175620  1
