# generated using pymatgen
data_Sm2LuSn3Hg2
_symmetry_space_group_name_H-M   'P 1'
_cell_length_a   6.47956282
_cell_length_b   6.47956288
_cell_length_c   10.21182000
_cell_angle_alpha   90.00000000
_cell_angle_beta   90.00000000
_cell_angle_gamma   102.31803313
_symmetry_Int_Tables_number   1
_chemical_formula_structural   Sm2LuSn3Hg2
_chemical_formula_sum   'Sm4 Lu2 Sn6 Hg4'
_cell_volume   418.87029358
_cell_formula_units_Z   2
loop_
 _symmetry_equiv_pos_site_id
 _symmetry_equiv_pos_as_xyz
  1  'x, y, z'
loop_
 _atom_site_type_symbol
 _atom_site_label
 _atom_site_symmetry_multiplicity
 _atom_site_fract_x
 _atom_site_fract_y
 _atom_site_fract_z
 _atom_site_occupancy
  Sm  Sm0  1  0.794275  0.205725  0.000000  1
  Sm  Sm1  1  0.205725  0.794275  0.000000  1
  Sm  Sm2  1  0.205725  0.794275  0.500000  1
  Sm  Sm3  1  0.794275  0.205725  0.500000  1
  Lu  Lu4  1  0.619969  0.619969  0.250000  1
  Lu  Lu5  1  0.380031  0.380031  0.750000  1
  Sn  Sn6  1  0.059247  0.491074  0.250000  1
  Sn  Sn7  1  0.940753  0.508926  0.750000  1
  Sn  Sn8  1  0.491074  0.059247  0.250000  1
  Sn  Sn9  1  0.508926  0.940753  0.750000  1
  Sn  Sn10  1  0.007788  0.007788  0.250000  1
  Sn  Sn11  1  0.992212  0.992212  0.750000  1
  Hg  Hg12  1  0.315376  0.315376  0.037289  1
  Hg  Hg13  1  0.684624  0.684624  0.962711  1
  Hg  Hg14  1  0.684624  0.684624  0.537289  1
  Hg  Hg15  1  0.315376  0.315376  0.462711  1
