# generated using pymatgen
data_TbTm2Mg3Si2Au
_symmetry_space_group_name_H-M   'P 1'
_cell_length_a   7.19037900
_cell_length_b   7.21543720
_cell_length_c   4.28324800
_cell_angle_alpha   90.00000000
_cell_angle_beta   90.00000000
_cell_angle_gamma   119.88519882
_symmetry_Int_Tables_number   1
_chemical_formula_structural   TbTm2Mg3Si2Au
_chemical_formula_sum   'Tb1 Tm2 Mg3 Si2 Au1'
_cell_volume   192.67240646
_cell_formula_units_Z   1
loop_
 _symmetry_equiv_pos_site_id
 _symmetry_equiv_pos_as_xyz
  1  'x, y, z'
loop_
 _atom_site_type_symbol
 _atom_site_label
 _atom_site_symmetry_multiplicity
 _atom_site_fract_x
 _atom_site_fract_y
 _atom_site_fract_z
 _atom_site_occupancy
  Tb  Tb0  1  0.581298  0.000000  0.000000  1
  Tm  Tm1  1  0.998936  0.581806  0.000000  1
  Tm  Tm2  1  0.417130  0.418194  0.000000  1
  Mg  Mg3  1  0.247324  0.000000  0.500000  1
  Mg  Mg4  1  0.000318  0.247887  0.500000  1
  Mg  Mg5  1  0.752431  0.752113  0.500000  1
  Si  Si6  1  0.331170  0.662805  0.500000  1
  Si  Si7  1  0.668366  0.337195  0.500000  1
  Au  Au8  1  0.003026  0.000000  0.000000  1
