# generated using pymatgen
data_Tb7HoBePd24
_symmetry_space_group_name_H-M   'P 1'
_cell_length_a   8.33807766
_cell_length_b   8.33807732
_cell_length_c   8.33807700
_cell_angle_alpha   89.93939264
_cell_angle_beta   90.06060736
_cell_angle_gamma   90.06060959
_symmetry_Int_Tables_number   1
_chemical_formula_structural   Tb7HoBePd24
_chemical_formula_sum   'Tb7 Ho1 Be1 Pd24'
_cell_volume   579.69162645
_cell_formula_units_Z   1
loop_
 _symmetry_equiv_pos_site_id
 _symmetry_equiv_pos_as_xyz
  1  'x, y, z'
loop_
 _atom_site_type_symbol
 _atom_site_label
 _atom_site_symmetry_multiplicity
 _atom_site_fract_x
 _atom_site_fract_y
 _atom_site_fract_z
 _atom_site_occupancy
  Tb  Tb0  1  0.250508  0.250959  0.250959  1
  Tb  Tb1  1  0.749385  0.749676  0.749676  1
  Tb  Tb2  1  0.749041  0.749492  0.250959  1
  Tb  Tb3  1  0.749041  0.250959  0.749492  1
  Tb  Tb4  1  0.250324  0.250615  0.749676  1
  Tb  Tb5  1  0.250324  0.749676  0.250615  1
  Tb  Tb6  1  0.251445  0.748555  0.748555  1
  Ho  Ho7  1  0.748338  0.251662  0.251662  1
  Be  Be8  1  0.001439  0.998561  0.998561  1
  Pd  Pd9  1  0.253982  0.499733  0.000037  1
  Pd  Pd10  1  0.746057  0.499387  0.001285  1
  Pd  Pd11  1  0.998715  0.253943  0.499387  1
  Pd  Pd12  1  0.500613  0.253943  0.001285  1
  Pd  Pd13  1  0.999963  0.746018  0.499733  1
  Pd  Pd14  1  0.500267  0.746018  0.000037  1
  Pd  Pd15  1  0.500613  0.001285  0.253943  1
  Pd  Pd16  1  0.253982  0.000037  0.499733  1
  Pd  Pd17  1  0.500267  0.000037  0.746018  1
  Pd  Pd18  1  0.746057  0.001285  0.499387  1
  Pd  Pd19  1  0.998715  0.499387  0.253943  1
  Pd  Pd20  1  0.999963  0.499733  0.746018  1
  Pd  Pd21  1  0.250453  0.499781  0.499781  1
  Pd  Pd22  1  0.748939  0.499751  0.499751  1
  Pd  Pd23  1  0.500249  0.251061  0.499751  1
  Pd  Pd24  1  0.500219  0.749547  0.499781  1
  Pd  Pd25  1  0.500249  0.499751  0.251061  1
  Pd  Pd26  1  0.500219  0.499781  0.749547  1
  Pd  Pd27  1  0.269449  0.999630  0.999630  1
  Pd  Pd28  1  0.732692  0.001121  0.001121  1
  Pd  Pd29  1  0.998879  0.267308  0.001121  1
  Pd  Pd30  1  0.000370  0.730551  0.999630  1
  Pd  Pd31  1  0.998879  0.001121  0.267308  1
  Pd  Pd32  1  0.000370  0.999630  0.730551  1
