# generated using pymatgen
data_Dy2BeNiI
_symmetry_space_group_name_H-M   'P 1'
_cell_length_a   3.93562000
_cell_length_b   3.93561922
_cell_length_c   8.33184300
_cell_angle_alpha   90.00000000
_cell_angle_beta   90.00000000
_cell_angle_gamma   120.00000655
_symmetry_Int_Tables_number   1
_chemical_formula_structural   Dy2BeNiI
_chemical_formula_sum   'Dy2 Be1 Ni1 I1'
_cell_volume   111.76296444
_cell_formula_units_Z   1
loop_
 _symmetry_equiv_pos_site_id
 _symmetry_equiv_pos_as_xyz
  1  'x, y, z'
loop_
 _atom_site_type_symbol
 _atom_site_label
 _atom_site_symmetry_multiplicity
 _atom_site_fract_x
 _atom_site_fract_y
 _atom_site_fract_z
 _atom_site_occupancy
  Dy  Dy0  1  0.000000  0.000000  0.205273  1
  Dy  Dy1  1  0.000000  0.000000  0.794727  1
  Be  Be2  1  0.333333  0.666667  0.000000  1
  Ni  Ni3  1  0.666667  0.333333  0.000000  1
  I  I4  1  0.666667  0.333333  0.500000  1
