# generated using pymatgen
data_TmLu4(In2Co)2
_symmetry_space_group_name_H-M   'P 1'
_cell_length_a   3.49275500
_cell_length_b   7.85366100
_cell_length_c   17.79341400
_cell_angle_alpha   90.00000000
_cell_angle_beta   90.00000000
_cell_angle_gamma   90.00000000
_symmetry_Int_Tables_number   1
_chemical_formula_structural   TmLu4(In2Co)2
_chemical_formula_sum   'Tm2 Lu8 In8 Co4'
_cell_volume   488.08960433
_cell_formula_units_Z   2
loop_
 _symmetry_equiv_pos_site_id
 _symmetry_equiv_pos_as_xyz
  1  'x, y, z'
loop_
 _atom_site_type_symbol
 _atom_site_label
 _atom_site_symmetry_multiplicity
 _atom_site_fract_x
 _atom_site_fract_y
 _atom_site_fract_z
 _atom_site_occupancy
  Tm  Tm0  1  0.000000  0.500000  0.000000  1
  Tm  Tm1  1  0.000000  0.000000  0.500000  1
  Lu  Lu2  1  0.000000  0.884206  0.090411  1
  Lu  Lu3  1  0.000000  0.753166  0.278392  1
  Lu  Lu4  1  0.000000  0.746834  0.778392  1
  Lu  Lu5  1  0.000000  0.384206  0.409589  1
  Lu  Lu6  1  0.000000  0.115794  0.909589  1
  Lu  Lu7  1  0.000000  0.246834  0.721608  1
  Lu  Lu8  1  0.000000  0.253166  0.221608  1
  Lu  Lu9  1  0.000000  0.615794  0.590411  1
  In  In10  1  0.500000  0.204761  0.068235  1
  In  In11  1  0.500000  0.428413  0.847921  1
  In  In12  1  0.500000  0.571587  0.152079  1
  In  In13  1  0.500000  0.071587  0.347921  1
  In  In14  1  0.500000  0.928413  0.652079  1
  In  In15  1  0.500000  0.795239  0.931765  1
  In  In16  1  0.500000  0.704761  0.431765  1
  In  In17  1  0.500000  0.295239  0.568235  1
  Co  Co18  1  0.500000  0.976135  0.196361  1
  Co  Co19  1  0.500000  0.023865  0.803639  1
  Co  Co20  1  0.500000  0.523865  0.696361  1
  Co  Co21  1  0.500000  0.476135  0.303639  1
