# generated using pymatgen
data_Nd2ThSc2AlIr3
_symmetry_space_group_name_H-M   'P 1'
_cell_length_a   7.23765239
_cell_length_b   7.23765223
_cell_length_c   4.35931100
_cell_angle_alpha   90.00000000
_cell_angle_beta   90.00000000
_cell_angle_gamma   119.01399029
_symmetry_Int_Tables_number   1
_chemical_formula_structural   Nd2ThSc2AlIr3
_chemical_formula_sum   'Nd2 Th1 Sc2 Al1 Ir3'
_cell_volume   199.69801415
_cell_formula_units_Z   1
loop_
 _symmetry_equiv_pos_site_id
 _symmetry_equiv_pos_as_xyz
  1  'x, y, z'
loop_
 _atom_site_type_symbol
 _atom_site_label
 _atom_site_symmetry_multiplicity
 _atom_site_fract_x
 _atom_site_fract_y
 _atom_site_fract_z
 _atom_site_occupancy
  Nd  Nd0  1  0.414962  0.015479  0.500000  1
  Nd  Nd1  1  0.015479  0.414962  0.500000  1
  Th  Th2  1  0.572561  0.572561  0.500000  1
  Sc  Sc3  1  0.760710  0.013622  0.000000  1
  Sc  Sc4  1  0.013622  0.760710  0.000000  1
  Al  Al5  1  0.235268  0.235268  0.000000  1
  Ir  Ir6  1  0.350719  0.656782  0.000000  1
  Ir  Ir7  1  0.656782  0.350719  0.000000  1
  Ir  Ir8  1  0.979898  0.979898  0.500000  1
