# generated using pymatgen
data_TaNb17Os12
_symmetry_space_group_name_H-M   'P 1'
_cell_length_a   9.92602442
_cell_length_b   9.92602380
_cell_length_c   5.10915977
_cell_angle_alpha   89.93219245
_cell_angle_beta   89.93220084
_cell_angle_gamma   90.06589340
_symmetry_Int_Tables_number   1
_chemical_formula_structural   TaNb17Os12
_chemical_formula_sum   'Ta1 Nb17 Os12'
_cell_volume   503.38380552
_cell_formula_units_Z   1
loop_
 _symmetry_equiv_pos_site_id
 _symmetry_equiv_pos_as_xyz
  1  'x, y, z'
loop_
 _atom_site_type_symbol
 _atom_site_label
 _atom_site_symmetry_multiplicity
 _atom_site_fract_x
 _atom_site_fract_y
 _atom_site_fract_z
 _atom_site_occupancy
  Ta  Ta0  1  0.319391  0.319391  0.750881  1
  Nb  Nb1  1  0.105078  0.105078  0.503555  1
  Nb  Nb2  1  0.895047  0.895047  0.504167  1
  Nb  Nb3  1  0.601759  0.397870  0.992451  1
  Nb  Nb4  1  0.397870  0.601759  0.992451  1
  Nb  Nb5  1  0.039074  0.372009  0.501279  1
  Nb  Nb6  1  0.960940  0.628150  0.501031  1
  Nb  Nb7  1  0.534319  0.129797  0.002597  1
  Nb  Nb8  1  0.465554  0.870406  0.002821  1
  Nb  Nb9  1  0.628150  0.960940  0.501031  1
  Nb  Nb10  1  0.372009  0.039074  0.501279  1
  Nb  Nb11  1  0.870406  0.465554  0.002821  1
  Nb  Nb12  1  0.129797  0.534319  0.002597  1
  Nb  Nb13  1  0.818903  0.181152  0.750534  1
  Nb  Nb14  1  0.181152  0.818903  0.750534  1
  Nb  Nb15  1  0.680505  0.680505  0.752116  1
  Nb  Nb16  1  0.181844  0.817946  0.250729  1
  Nb  Nb17  1  0.817946  0.181844  0.250729  1
  Os  Os18  1  0.500193  0.500193  0.474989  1
  Os  Os19  1  0.000141  0.000141  0.001661  1
  Os  Os20  1  0.756716  0.434266  0.499315  1
  Os  Os21  1  0.243415  0.565242  0.500616  1
  Os  Os22  1  0.259437  0.070711  0.001629  1
  Os  Os23  1  0.740762  0.929593  0.003050  1
  Os  Os24  1  0.565242  0.243415  0.500616  1
  Os  Os25  1  0.434266  0.756716  0.499315  1
  Os  Os26  1  0.929593  0.740762  0.003050  1
  Os  Os27  1  0.070711  0.259437  0.001629  1
  Os  Os28  1  0.319156  0.319156  0.249730  1
  Os  Os29  1  0.680624  0.680624  0.250794  1
