# generated using pymatgen
data_Hf8TiBi4Os
_symmetry_space_group_name_H-M   'P 1'
_cell_length_a   8.28542735
_cell_length_b   8.28548100
_cell_length_c   8.28542800
_cell_angle_alpha   96.11498772
_cell_angle_beta   96.12693425
_cell_angle_gamma   141.88175409
_symmetry_Int_Tables_number   1
_chemical_formula_structural   Hf8TiBi4Os
_chemical_formula_sum   'Hf8 Ti1 Bi4 Os1'
_cell_volume   331.85720019
_cell_formula_units_Z   1
loop_
 _symmetry_equiv_pos_site_id
 _symmetry_equiv_pos_as_xyz
  1  'x, y, z'
loop_
 _atom_site_type_symbol
 _atom_site_label
 _atom_site_symmetry_multiplicity
 _atom_site_fract_x
 _atom_site_fract_y
 _atom_site_fract_z
 _atom_site_occupancy
  Hf  Hf0  1  0.586839  0.702926  0.285629  1
  Hf  Hf1  1  0.913159  0.198786  0.116089  1
  Hf  Hf2  1  0.301198  0.586839  0.883906  1
  Hf  Hf3  1  0.797067  0.913162  0.714359  1
  Hf  Hf4  1  0.702937  0.417300  0.116095  1
  Hf  Hf5  1  0.082704  0.797075  0.883913  1
  Hf  Hf6  1  0.417303  0.301214  0.714372  1
  Hf  Hf7  1  0.198794  0.082700  0.285638  1
  Ti  Ti8  1  0.749990  0.749999  0.999989  1
  Bi  Bi9  1  0.362728  0.862719  0.225447  1
  Bi  Bi10  1  0.137272  0.362718  0.499994  1
  Bi  Bi11  1  0.637278  0.137283  0.774556  1
  Bi  Bi12  1  0.862727  0.637281  0.500009  1
  Os  Os13  1  0.250002  0.249999  0.000003  1
