# generated using pymatgen
data_TaV2Si2B4W7
_symmetry_space_group_name_H-M   'P 1'
_cell_length_a   6.97454305
_cell_length_b   7.00352687
_cell_length_c   6.99536717
_cell_angle_alpha   129.07861299
_cell_angle_beta   128.96560642
_cell_angle_gamma   74.90734295
_symmetry_Int_Tables_number   1
_chemical_formula_structural   TaV2Si2B4W7
_chemical_formula_sum   'Ta1 V2 Si2 B4 W7'
_cell_volume   200.93464307
_cell_formula_units_Z   1
loop_
 _symmetry_equiv_pos_site_id
 _symmetry_equiv_pos_as_xyz
  1  'x, y, z'
loop_
 _atom_site_type_symbol
 _atom_site_label
 _atom_site_symmetry_multiplicity
 _atom_site_fract_x
 _atom_site_fract_y
 _atom_site_fract_z
 _atom_site_occupancy
  Ta  Ta0  1  0.523976  0.694972  0.500000  1
  V  V1  1  0.001087  0.000689  0.999752  1
  V  V2  1  0.501336  0.500937  0.000248  1
  Si  Si3  1  0.247936  0.246024  0.996048  1
  Si  Si4  1  0.751888  0.749976  0.003952  1
  B  B5  1  0.627551  0.129374  0.756071  1
  B  B6  1  0.126112  0.374526  0.500000  1
  B  B7  1  0.876454  0.626473  0.500000  1
  B  B8  1  0.371480  0.873303  0.243929  1
  W  W9  1  0.026987  0.527145  0.829841  1
  W  W10  1  0.697145  0.197303  0.170159  1
  W  W11  1  0.974027  0.472715  0.170279  1
  W  W12  1  0.195298  0.030307  0.500000  1
  W  W13  1  0.472425  0.301661  0.500000  1
  W  W14  1  0.802549  0.972157  0.500000  1
  W  W15  1  0.303748  0.802437  0.829721  1
