# generated using pymatgen
data_Ba6Dy2Al4O15
_symmetry_space_group_name_H-M   'P 1'
_cell_length_a   5.97011700
_cell_length_b   7.95398686
_cell_length_c   18.55933900
_cell_angle_alpha   88.30291805
_cell_angle_beta   90.00000000
_cell_angle_gamma   90.00000000
_symmetry_Int_Tables_number   1
_chemical_formula_structural   Ba6Dy2Al4O15
_chemical_formula_sum   'Ba12 Dy4 Al8 O30'
_cell_volume   880.92651003
_cell_formula_units_Z   2
loop_
 _symmetry_equiv_pos_site_id
 _symmetry_equiv_pos_as_xyz
  1  'x, y, z'
loop_
 _atom_site_type_symbol
 _atom_site_label
 _atom_site_symmetry_multiplicity
 _atom_site_fract_x
 _atom_site_fract_y
 _atom_site_fract_z
 _atom_site_occupancy
  Ba  Ba0  1  0.756359  0.501265  0.082379  1
  Ba  Ba1  1  0.243641  0.498735  0.917621  1
  Ba  Ba2  1  0.756359  0.498735  0.417621  1
  Ba  Ba3  1  0.243641  0.501265  0.582379  1
  Ba  Ba4  1  0.747785  0.970056  0.089688  1
  Ba  Ba5  1  0.252215  0.029944  0.910312  1
  Ba  Ba6  1  0.747785  0.029944  0.410312  1
  Ba  Ba7  1  0.252215  0.970056  0.589688  1
  Ba  Ba8  1  0.728030  0.000000  0.750000  1
  Ba  Ba9  1  0.271970  0.000000  0.250000  1
  Ba  Ba10  1  0.674282  0.500000  0.750000  1
  Ba  Ba11  1  0.325718  0.500000  0.250000  1
  Dy  Dy12  1  0.747454  0.752358  0.910668  1
  Dy  Dy13  1  0.252546  0.247642  0.089332  1
  Dy  Dy14  1  0.747454  0.247642  0.589332  1
  Dy  Dy15  1  0.252546  0.752358  0.410668  1
  Al  Al16  1  0.748229  0.752177  0.555794  1
  Al  Al17  1  0.251771  0.247823  0.444206  1
  Al  Al18  1  0.748229  0.247823  0.944206  1
  Al  Al19  1  0.251771  0.752177  0.055794  1
  Al  Al20  1  0.769417  0.779594  0.268075  1
  Al  Al21  1  0.230583  0.220406  0.731925  1
  Al  Al22  1  0.769417  0.220406  0.231925  1
  Al  Al23  1  0.230583  0.779594  0.768075  1
  O  O24  1  0.208443  0.000000  0.750000  1
  O  O25  1  0.791557  0.000000  0.250000  1
  O  O26  1  0.499897  0.764019  0.001192  1
  O  O27  1  0.500103  0.235981  0.998808  1
  O  O28  1  0.499897  0.235981  0.498808  1
  O  O29  1  0.500103  0.764019  0.501192  1
  O  O30  1  0.760638  0.943422  0.605612  1
  O  O31  1  0.239362  0.056578  0.394388  1
  O  O32  1  0.760638  0.056578  0.894388  1
  O  O33  1  0.239362  0.943422  0.105612  1
  O  O34  1  0.014478  0.762718  0.995260  1
  O  O35  1  0.985522  0.237282  0.004740  1
  O  O36  1  0.014478  0.237282  0.504740  1
  O  O37  1  0.985522  0.762718  0.495260  1
  O  O38  1  0.315943  0.691289  0.687438  1
  O  O39  1  0.684057  0.308711  0.312562  1
  O  O40  1  0.315943  0.308711  0.812562  1
  O  O41  1  0.684057  0.691289  0.187438  1
  O  O42  1  0.451900  0.755111  0.833289  1
  O  O43  1  0.548100  0.244889  0.166711  1
  O  O44  1  0.451900  0.244889  0.666711  1
  O  O45  1  0.548100  0.755111  0.333289  1
  O  O46  1  0.972771  0.730061  0.811693  1
  O  O47  1  0.027229  0.269939  0.188307  1
  O  O48  1  0.972771  0.269939  0.688307  1
  O  O49  1  0.027229  0.730061  0.311693  1
  O  O50  1  0.752769  0.539289  0.591773  1
  O  O51  1  0.247231  0.460711  0.408227  1
  O  O52  1  0.752769  0.460711  0.908227  1
  O  O53  1  0.247231  0.539289  0.091773  1
