# generated using pymatgen
data_Yb2Ag3SbO6
_symmetry_space_group_name_H-M   'P 1'
_cell_length_a   5.88206300
_cell_length_b   5.88206363
_cell_length_c   18.83104300
_cell_angle_alpha   90.00000000
_cell_angle_beta   90.00000000
_cell_angle_gamma   119.99999084
_symmetry_Int_Tables_number   1
_chemical_formula_structural   Yb2Ag3SbO6
_chemical_formula_sum   'Yb6 Ag9 Sb3 O18'
_cell_volume   564.24073526
_cell_formula_units_Z   3
loop_
 _symmetry_equiv_pos_site_id
 _symmetry_equiv_pos_as_xyz
  1  'x, y, z'
loop_
 _atom_site_type_symbol
 _atom_site_label
 _atom_site_symmetry_multiplicity
 _atom_site_fract_x
 _atom_site_fract_y
 _atom_site_fract_z
 _atom_site_occupancy
  Yb  Yb0  1  0.107010  0.892990  0.333333  1
  Yb  Yb1  1  0.107010  0.214020  0.666667  1
  Yb  Yb2  1  0.785980  0.892990  0.000000  1
  Yb  Yb3  1  0.773432  0.226568  0.333333  1
  Yb  Yb4  1  0.773432  0.546863  0.666667  1
  Yb  Yb5  1  0.453137  0.226568  0.000000  1
  Ag  Ag6  1  0.442835  0.221417  0.500000  1
  Ag  Ag7  1  0.778583  0.221417  0.833333  1
  Ag  Ag8  1  0.778583  0.557165  0.166667  1
  Ag  Ag9  1  0.141455  0.570727  0.500000  1
  Ag  Ag10  1  0.429273  0.570727  0.833333  1
  Ag  Ag11  1  0.429273  0.858545  0.166667  1
  Ag  Ag12  1  0.738417  0.869208  0.500000  1
  Ag  Ag13  1  0.130792  0.869208  0.833333  1
  Ag  Ag14  1  0.130792  0.261583  0.166667  1
  Sb  Sb15  1  0.440460  0.559540  0.333333  1
  Sb  Sb16  1  0.440460  0.880920  0.666667  1
  Sb  Sb17  1  0.119080  0.559540  0.000000  1
  O  O18  1  0.734978  0.559374  0.277277  1
  O  O19  1  0.440626  0.175604  0.610610  1
  O  O20  1  0.824396  0.265022  0.943944  1
  O  O21  1  0.734978  0.175604  0.722723  1
  O  O22  1  0.440626  0.265022  0.389390  1
  O  O23  1  0.824396  0.559374  0.056056  1
  O  O24  1  0.441462  0.855608  0.277773  1
  O  O25  1  0.144392  0.585854  0.611106  1
  O  O26  1  0.414146  0.558538  0.944440  1
  O  O27  1  0.441462  0.585854  0.722227  1
  O  O28  1  0.144392  0.558538  0.388894  1
  O  O29  1  0.414146  0.855608  0.055560  1
  O  O30  1  0.145718  0.263669  0.277720  1
  O  O31  1  0.736331  0.882049  0.611053  1
  O  O32  1  0.117951  0.854282  0.944386  1
  O  O33  1  0.145718  0.882049  0.722280  1
  O  O34  1  0.736331  0.854282  0.388947  1
  O  O35  1  0.117951  0.263669  0.055614  1
