# generated using pymatgen
data_NdZn3Ru2
_symmetry_space_group_name_H-M   'P 1'
_cell_length_a   5.40437200
_cell_length_b   5.28604192
_cell_length_c   4.32823200
_cell_angle_alpha   90.00000000
_cell_angle_beta   90.00000000
_cell_angle_gamma   120.74330707
_symmetry_Int_Tables_number   1
_chemical_formula_structural   NdZn3Ru2
_chemical_formula_sum   'Nd1 Zn3 Ru2'
_cell_volume   106.27109050
_cell_formula_units_Z   1
loop_
 _symmetry_equiv_pos_site_id
 _symmetry_equiv_pos_as_xyz
  1  'x, y, z'
loop_
 _atom_site_type_symbol
 _atom_site_label
 _atom_site_symmetry_multiplicity
 _atom_site_fract_x
 _atom_site_fract_y
 _atom_site_fract_z
 _atom_site_occupancy
  Nd  Nd0  1  0.006269  0.012538  0.000000  1
  Zn  Zn1  1  0.996068  0.479037  0.500000  1
  Zn  Zn2  1  0.665485  0.330969  0.000000  1
  Zn  Zn3  1  0.482969  0.479037  0.500000  1
  Ru  Ru4  1  0.355301  0.710602  0.000000  1
  Ru  Ru5  1  0.493908  0.987815  0.500000  1
