# generated using pymatgen
data_Sm3Ho2Sn3Br
_symmetry_space_group_name_H-M   'P 1'
_cell_length_a   9.28724200
_cell_length_b   9.28724243
_cell_length_c   6.65509100
_cell_angle_alpha   90.00000000
_cell_angle_beta   90.00000000
_cell_angle_gamma   119.99999847
_symmetry_Int_Tables_number   1
_chemical_formula_structural   Sm3Ho2Sn3Br
_chemical_formula_sum   'Sm6 Ho4 Sn6 Br2'
_cell_volume   497.11650345
_cell_formula_units_Z   2
loop_
 _symmetry_equiv_pos_site_id
 _symmetry_equiv_pos_as_xyz
  1  'x, y, z'
loop_
 _atom_site_type_symbol
 _atom_site_label
 _atom_site_symmetry_multiplicity
 _atom_site_fract_x
 _atom_site_fract_y
 _atom_site_fract_z
 _atom_site_occupancy
  Sm  Sm0  1  0.732899  0.000000  0.750000  1
  Sm  Sm1  1  0.732899  0.732899  0.250000  1
  Sm  Sm2  1  0.000000  0.267101  0.250000  1
  Sm  Sm3  1  0.000000  0.732899  0.750000  1
  Sm  Sm4  1  0.267101  0.267101  0.750000  1
  Sm  Sm5  1  0.267101  0.000000  0.250000  1
  Ho  Ho6  1  0.666667  0.333333  0.000000  1
  Ho  Ho7  1  0.333333  0.666667  0.500000  1
  Ho  Ho8  1  0.666667  0.333333  0.500000  1
  Ho  Ho9  1  0.333333  0.666667  0.000000  1
  Sn  Sn10  1  0.609258  0.609258  0.750000  1
  Sn  Sn11  1  0.000000  0.609258  0.250000  1
  Sn  Sn12  1  0.609258  0.000000  0.250000  1
  Sn  Sn13  1  0.390742  0.000000  0.750000  1
  Sn  Sn14  1  0.000000  0.390742  0.750000  1
  Sn  Sn15  1  0.390742  0.390742  0.250000  1
  Br  Br16  1  0.000000  0.000000  0.500000  1
  Br  Br17  1  0.000000  0.000000  0.000000  1
