# generated using pymatgen
data_Nd2Mn3Re14C3
_symmetry_space_group_name_H-M   'P 1'
_cell_length_a   6.97496719
_cell_length_b   6.97496802
_cell_length_c   6.97496802
_cell_angle_alpha   82.62923922
_cell_angle_beta   82.62922931
_cell_angle_gamma   82.62923088
_symmetry_Int_Tables_number   1
_chemical_formula_structural   Nd2Mn3Re14C3
_chemical_formula_sum   'Nd2 Mn3 Re14 C3'
_cell_volume   331.58415444
_cell_formula_units_Z   1
loop_
 _symmetry_equiv_pos_site_id
 _symmetry_equiv_pos_as_xyz
  1  'x, y, z'
loop_
 _atom_site_type_symbol
 _atom_site_label
 _atom_site_symmetry_multiplicity
 _atom_site_fract_x
 _atom_site_fract_y
 _atom_site_fract_z
 _atom_site_occupancy
  Nd  Nd0  1  0.647867  0.647867  0.647867  1
  Nd  Nd1  1  0.352133  0.352133  0.352133  1
  Mn  Mn2  1  0.000000  0.000000  0.500000  1
  Mn  Mn3  1  0.500000  0.000000  0.000000  1
  Mn  Mn4  1  0.000000  0.500000  0.000000  1
  Re  Re5  1  0.721524  0.278476  0.000000  1
  Re  Re6  1  0.000000  0.721524  0.278476  1
  Re  Re7  1  0.278476  0.000000  0.721524  1
  Re  Re8  1  0.000000  0.278476  0.721524  1
  Re  Re9  1  0.721524  0.000000  0.278476  1
  Re  Re10  1  0.278476  0.721524  0.000000  1
  Re  Re11  1  0.344849  0.344849  0.862415  1
  Re  Re12  1  0.862415  0.344849  0.344849  1
  Re  Re13  1  0.344849  0.862415  0.344849  1
  Re  Re14  1  0.655151  0.655151  0.137585  1
  Re  Re15  1  0.137585  0.655151  0.655151  1
  Re  Re16  1  0.655151  0.137585  0.655151  1
  Re  Re17  1  0.900669  0.900669  0.900669  1
  Re  Re18  1  0.099331  0.099331  0.099331  1
  C  C19  1  0.500000  0.500000  0.000000  1
  C  C20  1  0.000000  0.500000  0.500000  1
  C  C21  1  0.500000  0.000000  0.500000  1
