# generated using pymatgen
data_Lu12Ir(RhI8)2
_symmetry_space_group_name_H-M   'P 1'
_cell_length_a   9.46451279
_cell_length_b   12.10835427
_cell_length_c   12.79810104
_cell_angle_alpha   116.99334613
_cell_angle_beta   101.35984151
_cell_angle_gamma   100.93766910
_symmetry_Int_Tables_number   1
_chemical_formula_structural   Lu12Ir(RhI8)2
_chemical_formula_sum   'Lu12 Ir1 Rh2 I16'
_cell_volume   1214.10700094
_cell_formula_units_Z   1
loop_
 _symmetry_equiv_pos_site_id
 _symmetry_equiv_pos_as_xyz
  1  'x, y, z'
loop_
 _atom_site_type_symbol
 _atom_site_label
 _atom_site_symmetry_multiplicity
 _atom_site_fract_x
 _atom_site_fract_y
 _atom_site_fract_z
 _atom_site_occupancy
  Lu  Lu0  1  0.085527  0.267375  0.356175  1
  Lu  Lu1  1  0.913830  0.732299  0.643547  1
  Lu  Lu2  1  0.781626  0.534358  0.328537  1
  Lu  Lu3  1  0.218027  0.465733  0.671648  1
  Lu  Lu4  1  0.275874  0.733349  0.643360  1
  Lu  Lu5  1  0.723782  0.266968  0.356918  1
  Lu  Lu6  1  0.142468  0.534681  0.328190  1
  Lu  Lu7  1  0.857105  0.465252  0.671641  1
  Lu  Lu8  1  0.405617  0.357275  0.272159  1
  Lu  Lu9  1  0.595566  0.642725  0.727841  1
  Lu  Lu10  1  0.459483  0.311243  0.520427  1
  Lu  Lu11  1  0.541368  0.688707  0.479544  1
  Ir  Ir12  1  0.659417  0.499786  0.500358  1
  Rh  Rh13  1  0.000498  0.499990  0.499994  1
  Rh  Rh14  1  0.339705  0.500222  0.499673  1
  I  I15  1  0.396106  0.747338  0.894480  1
  I  I16  1  0.603819  0.252638  0.105488  1
  I  I17  1  0.192349  0.975502  0.788447  1
  I  I18  1  0.807887  0.024501  0.211550  1
  I  I19  1  0.333775  0.085436  0.246167  1
  I  I20  1  0.666169  0.914563  0.753837  1
  I  I21  1  0.559398  0.435824  0.805680  1
  I  I22  1  0.440507  0.564182  0.194308  1
  I  I23  1  0.306480  0.834864  0.461308  1
  I  I24  1  0.693434  0.165077  0.538694  1
  I  I25  1  0.161446  0.165222  0.535855  1
  I  I26  1  0.838504  0.834848  0.464134  1
  I  I27  1  0.925291  0.578961  0.154121  1
  I  I28  1  0.074983  0.421045  0.845876  1
  I  I29  1  0.932052  0.746094  0.895064  1
  I  I30  1  0.067907  0.253942  0.104980  1
