# generated using pymatgen
data_Cu3NiMo12(PtN)4
_symmetry_space_group_name_H-M   'P 1'
_cell_length_a   6.79772784
_cell_length_b   6.79772784
_cell_length_c   6.79772784
_cell_angle_alpha   90.07401348
_cell_angle_beta   89.92598652
_cell_angle_gamma   89.92598652
_symmetry_Int_Tables_number   1
_chemical_formula_structural   Cu3NiMo12(PtN)4
_chemical_formula_sum   'Cu3 Ni1 Mo12 Pt4 N4'
_cell_volume   314.11612402
_cell_formula_units_Z   1
loop_
 _symmetry_equiv_pos_site_id
 _symmetry_equiv_pos_as_xyz
  1  'x, y, z'
loop_
 _atom_site_type_symbol
 _atom_site_label
 _atom_site_symmetry_multiplicity
 _atom_site_fract_x
 _atom_site_fract_y
 _atom_site_fract_z
 _atom_site_occupancy
  Cu  Cu0  1  0.315178  0.185128  0.815043  1
  Cu  Cu1  1  0.814872  0.315043  0.184822  1
  Cu  Cu2  1  0.684957  0.684822  0.685128  1
  Ni  Ni3  1  0.185127  0.814873  0.314873  1
  Mo  Mo4  1  0.805448  0.959503  0.372280  1
  Mo  Mo5  1  0.696644  0.039420  0.872910  1
  Mo  Mo6  1  0.196595  0.463565  0.127087  1
  Mo  Mo7  1  0.300975  0.541731  0.624772  1
  Mo  Mo8  1  0.960580  0.372910  0.803356  1
  Mo  Mo9  1  0.040497  0.872280  0.694552  1
  Mo  Mo10  1  0.458269  0.124772  0.199025  1
  Mo  Mo11  1  0.536435  0.627087  0.303405  1
  Mo  Mo12  1  0.372913  0.803405  0.963565  1
  Mo  Mo13  1  0.875228  0.699025  0.041731  1
  Mo  Mo14  1  0.127720  0.194552  0.459503  1
  Mo  Mo15  1  0.627090  0.303356  0.539420  1
  Pt  Pt16  1  0.566445  0.433555  0.933555  1
  Pt  Pt17  1  0.434430  0.934140  0.565006  1
  Pt  Pt18  1  0.934994  0.565570  0.434140  1
  Pt  Pt19  1  0.065860  0.065006  0.065570  1
  N  N20  1  0.874164  0.125836  0.625836  1
  N  N21  1  0.626273  0.873965  0.126728  1
  N  N22  1  0.126035  0.626728  0.873727  1
  N  N23  1  0.373272  0.373727  0.373965  1
