# generated using pymatgen
data_Ta2NbCrF20
_symmetry_space_group_name_H-M   'P 1'
_cell_length_a   5.71012000
_cell_length_b   7.60268786
_cell_length_c   10.00399732
_cell_angle_alpha   88.40437577
_cell_angle_beta   105.93761554
_cell_angle_gamma   98.88096102
_symmetry_Int_Tables_number   1
_chemical_formula_structural   Ta2NbCrF20
_chemical_formula_sum   'Ta2 Nb1 Cr1 F20'
_cell_volume   412.54741895
_cell_formula_units_Z   1
loop_
 _symmetry_equiv_pos_site_id
 _symmetry_equiv_pos_as_xyz
  1  'x, y, z'
loop_
 _atom_site_type_symbol
 _atom_site_label
 _atom_site_symmetry_multiplicity
 _atom_site_fract_x
 _atom_site_fract_y
 _atom_site_fract_z
 _atom_site_occupancy
  Ta  Ta0  1  0.963175  0.762828  0.313563  1
  Ta  Ta1  1  0.033733  0.228143  0.684020  1
  Nb  Nb2  1  0.660527  0.617700  0.780410  1
  Cr  Cr3  1  0.344183  0.396869  0.224818  1
  F  F4  1  0.057844  0.264754  0.174350  1
  F  F5  1  0.975494  0.749395  0.831489  1
  F  F6  1  0.489480  0.244451  0.165202  1
  F  F7  1  0.499089  0.777814  0.843907  1
  F  F8  1  0.114292  0.229820  0.880503  1
  F  F9  1  0.883576  0.762538  0.116364  1
  F  F10  1  0.961337  0.291219  0.494600  1
  F  F11  1  0.034551  0.700047  0.503151  1
  F  F12  1  0.762554  0.048982  0.661489  1
  F  F13  1  0.234314  0.942167  0.337912  1
  F  F14  1  0.255846  0.078062  0.671472  1
  F  F15  1  0.746456  0.918255  0.324687  1
  F  F16  1  0.316889  0.440905  0.712923  1
  F  F17  1  0.673780  0.556912  0.285644  1
  F  F18  1  0.819878  0.416946  0.700952  1
  F  F19  1  0.182024  0.578498  0.296745  1
  F  F20  1  0.695202  0.455738  0.928482  1
  F  F21  1  0.303936  0.532075  0.080549  1
  F  F22  1  0.572492  0.670780  0.589895  1
  F  F23  1  0.419345  0.335101  0.396873  1
