# generated using pymatgen
data_Mn3CrCl7O
_symmetry_space_group_name_H-M   'P 1'
_cell_length_a   7.35250980
_cell_length_b   7.09250296
_cell_length_c   7.09250329
_cell_angle_alpha   61.16645441
_cell_angle_beta   63.24944091
_cell_angle_gamma   63.24943043
_symmetry_Int_Tables_number   1
_chemical_formula_structural   Mn3CrCl7O
_chemical_formula_sum   'Mn3 Cr1 Cl7 O1'
_cell_volume   276.19158614
_cell_formula_units_Z   1
loop_
 _symmetry_equiv_pos_site_id
 _symmetry_equiv_pos_as_xyz
  1  'x, y, z'
loop_
 _atom_site_type_symbol
 _atom_site_label
 _atom_site_symmetry_multiplicity
 _atom_site_fract_x
 _atom_site_fract_y
 _atom_site_fract_z
 _atom_site_occupancy
  Mn  Mn0  1  0.995650  0.505081  0.505081  1
  Mn  Mn1  1  0.473458  0.522601  0.980242  1
  Mn  Mn2  1  0.473458  0.980242  0.522601  1
  Cr  Cr3  1  0.497489  0.513017  0.513017  1
  Cl  Cl4  1  0.236129  0.260286  0.260286  1
  Cl  Cl5  1  0.691279  0.272507  0.272507  1
  Cl  Cl6  1  0.260756  0.270374  0.741753  1
  Cl  Cl7  1  0.260756  0.741753  0.270374  1
  Cl  Cl8  1  0.741752  0.257800  0.734983  1
  Cl  Cl9  1  0.741752  0.734983  0.257800  1
  Cl  Cl10  1  0.753548  0.746591  0.746591  1
  O  O11  1  0.373972  0.694766  0.694766  1
