# generated using pymatgen
data_Tb3ErAl17GaRh6
_symmetry_space_group_name_H-M   'P 1'
_cell_length_a   7.54280411
_cell_length_b   7.54434820
_cell_length_c   9.48906800
_cell_angle_alpha   90.00000000
_cell_angle_beta   90.00000000
_cell_angle_gamma   119.14972032
_symmetry_Int_Tables_number   1
_chemical_formula_structural   Tb3ErAl17GaRh6
_chemical_formula_sum   'Tb3 Er1 Al17 Ga1 Rh6'
_cell_volume   471.59193248
_cell_formula_units_Z   1
loop_
 _symmetry_equiv_pos_site_id
 _symmetry_equiv_pos_as_xyz
  1  'x, y, z'
loop_
 _atom_site_type_symbol
 _atom_site_label
 _atom_site_symmetry_multiplicity
 _atom_site_fract_x
 _atom_site_fract_y
 _atom_site_fract_z
 _atom_site_occupancy
  Tb  Tb0  1  0.993628  0.675634  0.750000  1
  Tb  Tb1  1  0.004837  0.326652  0.250000  1
  Tb  Tb2  1  0.675652  0.993604  0.750000  1
  Er  Er3  1  0.326479  0.004685  0.250000  1
  Al  Al4  1  0.870150  0.869720  0.250000  1
  Al  Al5  1  0.002224  0.337161  0.575023  1
  Al  Al6  1  0.998928  0.664164  0.424653  1
  Al  Al7  1  0.998928  0.664164  0.075347  1
  Al  Al8  1  0.337052  0.002097  0.925648  1
  Al  Al9  1  0.002224  0.337161  0.924977  1
  Al  Al10  1  0.662981  0.998340  0.075438  1
  Al  Al11  1  0.662981  0.998340  0.424562  1
  Al  Al12  1  0.337052  0.002097  0.574352  1
  Al  Al13  1  0.332677  0.332130  0.052477  1
  Al  Al14  1  0.665593  0.665604  0.952690  1
  Al  Al15  1  0.665593  0.665604  0.547310  1
  Al  Al16  1  0.332677  0.332130  0.447523  1
  Al  Al17  1  0.339346  0.551897  0.750000  1
  Al  Al18  1  0.659797  0.448353  0.250000  1
  Al  Al19  1  0.551748  0.339246  0.750000  1
  Al  Al20  1  0.448947  0.660859  0.250000  1
  Ga  Ga21  1  0.133751  0.133684  0.750000  1
  Rh  Rh22  1  0.671546  0.327364  0.499916  1
  Rh  Rh23  1  0.327405  0.671709  0.499899  1
  Rh  Rh24  1  0.327405  0.671709  0.000101  1
  Rh  Rh25  1  0.671546  0.327364  0.000084  1
  Rh  Rh26  1  0.999426  0.999264  0.497521  1
  Rh  Rh27  1  0.999426  0.999264  0.002479  1
