# generated using pymatgen
data_Pr4Hg5Pb3O4
_symmetry_space_group_name_H-M   'P 1'
_cell_length_a   5.79644574
_cell_length_b   5.73755745
_cell_length_c   13.07283043
_cell_angle_alpha   89.82429814
_cell_angle_beta   116.12802582
_cell_angle_gamma   90.19595778
_symmetry_Int_Tables_number   1
_chemical_formula_structural   Pr4Hg5Pb3O4
_chemical_formula_sum   'Pr4 Hg5 Pb3 O4'
_cell_volume   390.33796423
_cell_formula_units_Z   1
loop_
 _symmetry_equiv_pos_site_id
 _symmetry_equiv_pos_as_xyz
  1  'x, y, z'
loop_
 _atom_site_type_symbol
 _atom_site_label
 _atom_site_symmetry_multiplicity
 _atom_site_fract_x
 _atom_site_fract_y
 _atom_site_fract_z
 _atom_site_occupancy
  Pr  Pr0  1  0.646982  0.000421  0.399795  1
  Pr  Pr1  1  0.150907  0.499839  0.399753  1
  Pr  Pr2  1  0.350359  0.999269  0.602710  1
  Pr  Pr3  1  0.852237  0.499817  0.602291  1
  Hg  Hg4  1  0.663104  0.003987  0.902181  1
  Hg  Hg5  1  0.453753  0.495410  0.225833  1
  Hg  Hg6  1  0.004959  0.006743  0.224499  1
  Hg  Hg7  1  0.030354  0.994886  0.778684  1
  Hg  Hg8  1  0.510802  0.501200  0.777454  1
  Pb  Pb9  1  0.393409  0.994434  0.076384  1
  Pb  Pb10  1  0.796045  0.512201  0.076472  1
  Pb  Pb11  1  0.145293  0.492468  0.927807  1
  O  O12  1  0.000365  0.249549  0.500945  1
  O  O13  1  0.501151  0.249629  0.502729  1
  O  O14  1  0.999155  0.750121  0.499975  1
  O  O15  1  0.501131  0.750040  0.502488  1
