# generated using pymatgen
data_Ho12Fe4SnPt
_symmetry_space_group_name_H-M   'P 1'
_cell_length_a   8.29073497
_cell_length_b   8.29073485
_cell_length_c   8.29073566
_cell_angle_alpha   106.80772700
_cell_angle_beta   110.73535721
_cell_angle_gamma   110.90300262
_symmetry_Int_Tables_number   1
_chemical_formula_structural   Ho12Fe4SnPt
_chemical_formula_sum   'Ho12 Fe4 Sn1 Pt1'
_cell_volume   437.98170119
_cell_formula_units_Z   1
loop_
 _symmetry_equiv_pos_site_id
 _symmetry_equiv_pos_as_xyz
  1  'x, y, z'
loop_
 _atom_site_type_symbol
 _atom_site_label
 _atom_site_symmetry_multiplicity
 _atom_site_fract_x
 _atom_site_fract_y
 _atom_site_fract_z
 _atom_site_occupancy
  Ho  Ho0  1  0.475215  0.289093  0.186123  1
  Ho  Ho1  1  0.102970  0.289093  0.813877  1
  Ho  Ho2  1  0.897030  0.710907  0.186123  1
  Ho  Ho3  1  0.524785  0.710907  0.813877  1
  Ho  Ho4  1  0.302300  0.615130  0.312829  1
  Ho  Ho5  1  0.302300  0.989472  0.687171  1
  Ho  Ho6  1  0.697700  0.384870  0.687171  1
  Ho  Ho7  1  0.697700  0.010528  0.312829  1
  Ho  Ho8  1  0.199576  0.215526  0.415102  1
  Ho  Ho9  1  0.800424  0.784474  0.584898  1
  Ho  Ho10  1  0.199576  0.784474  0.984049  1
  Ho  Ho11  1  0.800424  0.215526  0.015951  1
  Fe  Fe12  1  0.500000  0.607929  0.107929  1
  Fe  Fe13  1  0.500000  0.392071  0.892071  1
  Fe  Fe14  1  0.384963  0.000000  0.384963  1
  Fe  Fe15  1  0.615037  0.000000  0.615037  1
  Sn  Sn16  1  0.000000  0.500000  0.500000  1
  Pt  Pt17  1  0.000000  0.000000  0.000000  1
