# generated using pymatgen
data_Ta4ReB4W
_symmetry_space_group_name_H-M   'P 1'
_cell_length_a   6.08782700
_cell_length_b   6.08782700
_cell_length_c   3.29954000
_cell_angle_alpha   90.00000000
_cell_angle_beta   90.00000000
_cell_angle_gamma   90.00000000
_symmetry_Int_Tables_number   1
_chemical_formula_structural   Ta4ReB4W
_chemical_formula_sum   'Ta4 Re1 B4 W1'
_cell_volume   122.28635567
_cell_formula_units_Z   1
loop_
 _symmetry_equiv_pos_site_id
 _symmetry_equiv_pos_as_xyz
  1  'x, y, z'
loop_
 _atom_site_type_symbol
 _atom_site_label
 _atom_site_symmetry_multiplicity
 _atom_site_fract_x
 _atom_site_fract_y
 _atom_site_fract_z
 _atom_site_occupancy
  Ta  Ta0  1  0.676188  0.175645  0.500000  1
  Ta  Ta1  1  0.323812  0.824355  0.500000  1
  Ta  Ta2  1  0.175645  0.323812  0.500000  1
  Ta  Ta3  1  0.824355  0.676188  0.500000  1
  Re  Re4  1  0.500000  0.500000  0.000000  1
  B  B5  1  0.111637  0.611611  0.000000  1
  B  B6  1  0.888363  0.388389  0.000000  1
  B  B7  1  0.611611  0.888363  0.000000  1
  B  B8  1  0.388389  0.111637  0.000000  1
  W  W9  1  0.000000  0.000000  0.000000  1
