# generated using pymatgen
data_Ce3Si4(PdRh)2
_symmetry_space_group_name_H-M   'P 1'
_cell_length_a   4.01800865
_cell_length_b   4.17427912
_cell_length_c   12.80006765
_cell_angle_alpha   80.61561201
_cell_angle_beta   80.96993456
_cell_angle_gamma   89.99999192
_symmetry_Int_Tables_number   1
_chemical_formula_structural   Ce3Si4(PdRh)2
_chemical_formula_sum   'Ce3 Si4 Pd2 Rh2'
_cell_volume   209.11585946
_cell_formula_units_Z   1
loop_
 _symmetry_equiv_pos_site_id
 _symmetry_equiv_pos_as_xyz
  1  'x, y, z'
loop_
 _atom_site_type_symbol
 _atom_site_label
 _atom_site_symmetry_multiplicity
 _atom_site_fract_x
 _atom_site_fract_y
 _atom_site_fract_z
 _atom_site_occupancy
  Ce  Ce0  1  0.000000  0.000000  0.000000  1
  Ce  Ce1  1  0.852467  0.352467  0.295066  1
  Ce  Ce2  1  0.147533  0.647533  0.704934  1
  Si  Si3  1  0.698051  0.198051  0.603898  1
  Si  Si4  1  0.301949  0.801949  0.396102  1
  Si  Si5  1  0.452494  0.452494  0.095012  1
  Si  Si6  1  0.547506  0.547506  0.904988  1
  Pd  Pd7  1  0.598416  0.098416  0.803169  1
  Pd  Pd8  1  0.401584  0.901584  0.196831  1
  Rh  Rh9  1  0.250210  0.250210  0.499579  1
  Rh  Rh10  1  0.749790  0.749790  0.500421  1
