# generated using pymatgen
data_Ti2Cr2GaC3
_symmetry_space_group_name_H-M   'P 1'
_cell_length_a   3.00944300
_cell_length_b   3.00944267
_cell_length_c   22.50709500
_cell_angle_alpha   90.00000000
_cell_angle_beta   90.00000000
_cell_angle_gamma   119.99999261
_symmetry_Int_Tables_number   1
_chemical_formula_structural   Ti2Cr2GaC3
_chemical_formula_sum   'Ti4 Cr4 Ga2 C6'
_cell_volume   176.53153800
_cell_formula_units_Z   2
loop_
 _symmetry_equiv_pos_site_id
 _symmetry_equiv_pos_as_xyz
  1  'x, y, z'
loop_
 _atom_site_type_symbol
 _atom_site_label
 _atom_site_symmetry_multiplicity
 _atom_site_fract_x
 _atom_site_fract_y
 _atom_site_fract_z
 _atom_site_occupancy
  Ti  Ti0  1  0.333333  0.666667  0.445552  1
  Ti  Ti1  1  0.666667  0.333333  0.554448  1
  Ti  Ti2  1  0.666667  0.333333  0.945552  1
  Ti  Ti3  1  0.333333  0.666667  0.054448  1
  Cr  Cr4  1  0.000000  0.000000  0.343122  1
  Cr  Cr5  1  0.000000  0.000000  0.656878  1
  Cr  Cr6  1  0.000000  0.000000  0.843122  1
  Cr  Cr7  1  0.000000  0.000000  0.156878  1
  Ga  Ga8  1  0.333333  0.666667  0.250000  1
  Ga  Ga9  1  0.666667  0.333333  0.750000  1
  C  C10  1  0.000000  0.000000  0.500000  1
  C  C11  1  0.000000  0.000000  0.000000  1
  C  C12  1  0.666667  0.333333  0.384931  1
  C  C13  1  0.333333  0.666667  0.615069  1
  C  C14  1  0.333333  0.666667  0.884931  1
  C  C15  1  0.666667  0.333333  0.115069  1
