# generated using pymatgen
data_Ho4AlZn5Pt8
_symmetry_space_group_name_H-M   'P 1'
_cell_length_a   8.02067873
_cell_length_b   8.02067862
_cell_length_c   7.67148024
_cell_angle_alpha   89.96574177
_cell_angle_beta   90.03425870
_cell_angle_gamma   139.29947337
_symmetry_Int_Tables_number   1
_chemical_formula_structural   Ho4AlZn5Pt8
_chemical_formula_sum   'Ho4 Al1 Zn5 Pt8'
_cell_volume   321.82449526
_cell_formula_units_Z   1
loop_
 _symmetry_equiv_pos_site_id
 _symmetry_equiv_pos_as_xyz
  1  'x, y, z'
loop_
 _atom_site_type_symbol
 _atom_site_label
 _atom_site_symmetry_multiplicity
 _atom_site_fract_x
 _atom_site_fract_y
 _atom_site_fract_z
 _atom_site_occupancy
  Ho  Ho0  1  0.111201  0.888799  0.408663  1
  Ho  Ho1  1  0.888799  0.111201  0.591337  1
  Ho  Ho2  1  0.388934  0.611066  0.911771  1
  Ho  Ho3  1  0.611066  0.388934  0.088229  1
  Al  Al4  1  0.500000  0.500000  0.500000  1
  Zn  Zn5  1  0.000000  0.000000  0.000000  1
  Zn  Zn6  1  0.021769  0.477252  0.250705  1
  Zn  Zn7  1  0.477252  0.021769  0.749295  1
  Zn  Zn8  1  0.978231  0.522748  0.749295  1
  Zn  Zn9  1  0.522748  0.978231  0.250705  1
  Pt  Pt10  1  0.194082  0.304970  0.254570  1
  Pt  Pt11  1  0.304970  0.194082  0.745430  1
  Pt  Pt12  1  0.805918  0.695030  0.745430  1
  Pt  Pt13  1  0.695030  0.805918  0.254570  1
  Pt  Pt14  1  0.178377  0.821623  0.026877  1
  Pt  Pt15  1  0.821623  0.178377  0.973123  1
  Pt  Pt16  1  0.324755  0.675245  0.527620  1
  Pt  Pt17  1  0.675245  0.324755  0.472380  1
