# generated using pymatgen
data_La2AlGaIrPt
_symmetry_space_group_name_H-M   'P 1'
_cell_length_a   4.49691100
_cell_length_b   7.15965348
_cell_length_c   8.01674536
_cell_angle_alpha   89.52059439
_cell_angle_beta   90.00000000
_cell_angle_gamma   90.00000000
_symmetry_Int_Tables_number   1
_chemical_formula_structural   La2AlGaIrPt
_chemical_formula_sum   'La4 Al2 Ga2 Ir2 Pt2'
_cell_volume   258.10069967
_cell_formula_units_Z   2
loop_
 _symmetry_equiv_pos_site_id
 _symmetry_equiv_pos_as_xyz
  1  'x, y, z'
loop_
 _atom_site_type_symbol
 _atom_site_label
 _atom_site_symmetry_multiplicity
 _atom_site_fract_x
 _atom_site_fract_y
 _atom_site_fract_z
 _atom_site_occupancy
  La  La0  1  0.250000  0.036836  0.681755  1
  La  La1  1  0.250000  0.536795  0.824428  1
  La  La2  1  0.750000  0.969782  0.309938  1
  La  La3  1  0.750000  0.471180  0.183440  1
  Al  Al4  1  0.250000  0.636695  0.432829  1
  Al  Al5  1  0.750000  0.358883  0.562146  1
  Ga  Ga6  1  0.250000  0.143629  0.069353  1
  Ga  Ga7  1  0.750000  0.851705  0.935730  1
  Ir  Ir8  1  0.250000  0.277976  0.390014  1
  Ir  Ir9  1  0.250000  0.774025  0.120306  1
  Pt  Pt10  1  0.750000  0.718571  0.611216  1
  Pt  Pt11  1  0.750000  0.223923  0.878845  1
