# generated using pymatgen
data_YHo6Co6Sn22Pd
_symmetry_space_group_name_H-M   'P 1'
_cell_length_a   9.65871100
_cell_length_b   9.65871117
_cell_length_c   9.91038800
_cell_angle_alpha   90.00000000
_cell_angle_beta   90.00000000
_cell_angle_gamma   120.00000285
_symmetry_Int_Tables_number   1
_chemical_formula_structural   YHo6Co6Sn22Pd
_chemical_formula_sum   'Y1 Ho6 Co6 Sn22 Pd1'
_cell_volume   800.68119367
_cell_formula_units_Z   1
loop_
 _symmetry_equiv_pos_site_id
 _symmetry_equiv_pos_as_xyz
  1  'x, y, z'
loop_
 _atom_site_type_symbol
 _atom_site_label
 _atom_site_symmetry_multiplicity
 _atom_site_fract_x
 _atom_site_fract_y
 _atom_site_fract_z
 _atom_site_occupancy
  Y  Y0  1  0.000000  0.000000  0.000000  1
  Ho  Ho1  1  0.042780  0.521390  0.307382  1
  Ho  Ho2  1  0.478610  0.957220  0.307382  1
  Ho  Ho3  1  0.478610  0.521390  0.307382  1
  Ho  Ho4  1  0.957220  0.478610  0.692618  1
  Ho  Ho5  1  0.521390  0.042780  0.692618  1
  Ho  Ho6  1  0.521390  0.478610  0.692618  1
  Co  Co7  1  0.168159  0.831841  0.803649  1
  Co  Co8  1  0.663681  0.831841  0.803649  1
  Co  Co9  1  0.168159  0.336319  0.803649  1
  Co  Co10  1  0.831841  0.168159  0.196351  1
  Co  Co11  1  0.336319  0.168159  0.196351  1
  Co  Co12  1  0.831841  0.663681  0.196351  1
  Sn  Sn13  1  0.111348  0.888652  0.283062  1
  Sn  Sn14  1  0.777303  0.888652  0.283062  1
  Sn  Sn15  1  0.111348  0.222697  0.283062  1
  Sn  Sn16  1  0.888652  0.111348  0.716938  1
  Sn  Sn17  1  0.222697  0.111348  0.716938  1
  Sn  Sn18  1  0.888652  0.777303  0.716938  1
  Sn  Sn19  1  0.346203  0.000000  0.000000  1
  Sn  Sn20  1  0.653797  0.653797  0.000000  1
  Sn  Sn21  1  0.000000  0.346203  0.000000  1
  Sn  Sn22  1  0.346203  0.346203  0.000000  1
  Sn  Sn23  1  0.000000  0.653797  0.000000  1
  Sn  Sn24  1  0.653797  0.000000  0.000000  1
  Sn  Sn25  1  0.784867  0.569734  0.452495  1
  Sn  Sn26  1  0.784867  0.215133  0.452495  1
  Sn  Sn27  1  0.430266  0.215133  0.452495  1
  Sn  Sn28  1  0.215133  0.430266  0.547505  1
  Sn  Sn29  1  0.215133  0.784867  0.547505  1
  Sn  Sn30  1  0.569734  0.784867  0.547505  1
  Sn  Sn31  1  0.666667  0.333333  0.184590  1
  Sn  Sn32  1  0.333333  0.666667  0.815410  1
  Sn  Sn33  1  0.666667  0.333333  0.881295  1
  Sn  Sn34  1  0.333333  0.666667  0.118705  1
  Pd  Pd35  1  0.000000  0.000000  0.500000  1
