# generated using pymatgen
data_ErPuF7
_symmetry_space_group_name_H-M   'P 1'
_cell_length_a   5.88251900
_cell_length_b   6.20113490
_cell_length_c   8.46977164
_cell_angle_alpha   103.22811006
_cell_angle_beta   90.00000000
_cell_angle_gamma   90.00000000
_symmetry_Int_Tables_number   1
_chemical_formula_structural   ErPuF7
_chemical_formula_sum   'Er2 Pu2 F14'
_cell_volume   300.76503237
_cell_formula_units_Z   2
loop_
 _symmetry_equiv_pos_site_id
 _symmetry_equiv_pos_as_xyz
  1  'x, y, z'
loop_
 _atom_site_type_symbol
 _atom_site_label
 _atom_site_symmetry_multiplicity
 _atom_site_fract_x
 _atom_site_fract_y
 _atom_site_fract_z
 _atom_site_occupancy
  Er  Er0  1  0.699327  0.650084  0.682310  1
  Er  Er1  1  0.199327  0.349916  0.317690  1
  Pu  Pu2  1  0.706554  0.813374  0.226780  1
  Pu  Pu3  1  0.206554  0.186626  0.773220  1
  F  F4  1  0.911239  0.474970  0.483338  1
  F  F5  1  0.411239  0.525030  0.516662  1
  F  F6  1  0.434249  0.910435  0.763007  1
  F  F7  1  0.934249  0.089565  0.236993  1
  F  F8  1  0.940061  0.938630  0.756577  1
  F  F9  1  0.440061  0.061370  0.243423  1
  F  F10  1  0.979640  0.464584  0.788307  1
  F  F11  1  0.479640  0.535416  0.211693  1
  F  F12  1  0.697125  0.758772  0.968672  1
  F  F13  1  0.197125  0.241228  0.031328  1
  F  F14  1  0.697935  0.866624  0.486277  1
  F  F15  1  0.197935  0.133376  0.513723  1
  F  F16  1  0.510231  0.390200  0.780550  1
  F  F17  1  0.010231  0.609800  0.219450  1
