# generated using pymatgen
data_Ho8Mg2Co4BiPt
_symmetry_space_group_name_H-M   'P 1'
_cell_length_a   8.68743852
_cell_length_b   8.68743925
_cell_length_c   8.68760214
_cell_angle_alpha   130.73448280
_cell_angle_beta   130.73448603
_cell_angle_gamma   72.23252787
_symmetry_Int_Tables_number   1
_chemical_formula_structural   Ho8Mg2Co4BiPt
_chemical_formula_sum   'Ho8 Mg2 Co4 Bi1 Pt1'
_cell_volume   368.05780586
_cell_formula_units_Z   1
loop_
 _symmetry_equiv_pos_site_id
 _symmetry_equiv_pos_as_xyz
  1  'x, y, z'
loop_
 _atom_site_type_symbol
 _atom_site_label
 _atom_site_symmetry_multiplicity
 _atom_site_fract_x
 _atom_site_fract_y
 _atom_site_fract_z
 _atom_site_occupancy
  Ho  Ho0  1  0.679059  0.537672  0.475197  1
  Ho  Ho1  1  0.437555  0.962355  0.141426  1
  Ho  Ho2  1  0.820952  0.296131  0.858612  1
  Ho  Ho3  1  0.537645  0.062445  0.858574  1
  Ho  Ho4  1  0.062387  0.203888  0.524794  1
  Ho  Ho5  1  0.296112  0.437613  0.475206  1
  Ho  Ho6  1  0.203869  0.679048  0.141388  1
  Ho  Ho7  1  0.962328  0.820941  0.524803  1
  Mg  Mg8  1  0.992408  0.992407  0.000001  1
  Mg  Mg9  1  0.507593  0.507592  0.999999  1
  Co  Co10  1  0.111943  0.611953  0.723895  1
  Co  Co11  1  0.888047  0.388057  0.276105  1
  Co  Co12  1  0.612009  0.887991  0.500000  1
  Co  Co13  1  0.388101  0.111899  0.500000  1
  Bi  Bi14  1  0.750011  0.749989  0.000000  1
  Pt  Pt15  1  0.249980  0.250020  0.000000  1
