# generated using pymatgen
data_TbSm7Hf11Si16Hg
_symmetry_space_group_name_H-M   'P 1'
_cell_length_a   7.35952001
_cell_length_b   7.35963477
_cell_length_c   13.40361749
_cell_angle_alpha   89.75012384
_cell_angle_beta   90.29553059
_cell_angle_gamma   89.66573247
_symmetry_Int_Tables_number   1
_chemical_formula_structural   TbSm7Hf11Si16Hg
_chemical_formula_sum   'Tb1 Sm7 Hf11 Si16 Hg1'
_cell_volume   725.95620695
_cell_formula_units_Z   1
loop_
 _symmetry_equiv_pos_site_id
 _symmetry_equiv_pos_as_xyz
  1  'x, y, z'
loop_
 _atom_site_type_symbol
 _atom_site_label
 _atom_site_symmetry_multiplicity
 _atom_site_fract_x
 _atom_site_fract_y
 _atom_site_fract_z
 _atom_site_occupancy
  Tb  Tb0  1  0.655660  0.003767  0.284276  1
  Sm  Sm1  1  0.996828  0.345666  0.211643  1
  Sm  Sm2  1  0.004923  0.656309  0.715768  1
  Sm  Sm3  1  0.155126  0.495030  0.464974  1
  Sm  Sm4  1  0.499084  0.847560  0.032967  1
  Sm  Sm5  1  0.847201  0.498884  0.967561  1
  Sm  Sm6  1  0.495097  0.155276  0.534466  1
  Sm  Sm7  1  0.345820  0.997005  0.788568  1
  Hf  Hf8  1  0.824030  0.824517  0.499691  1
  Hf  Hf9  1  0.323267  0.677138  0.249959  1
  Hf  Hf10  1  0.676825  0.323027  0.750033  1
  Hf  Hf11  1  0.145546  0.996108  0.374781  1
  Hf  Hf12  1  0.855551  0.003188  0.878315  1
  Hf  Hf13  1  0.505824  0.648327  0.626014  1
  Hf  Hf14  1  0.355213  0.490118  0.877919  1
  Hf  Hf15  1  0.490758  0.355200  0.122562  1
  Hf  Hf16  1  0.648233  0.505508  0.373458  1
  Hf  Hf17  1  0.995740  0.146163  0.624650  1
  Hf  Hf18  1  0.003169  0.856244  0.122234  1
  Si  Si19  1  0.362976  0.295683  0.315934  1
  Si  Si20  1  0.638294  0.703058  0.818277  1
  Si  Si21  1  0.207093  0.862975  0.567323  1
  Si  Si22  1  0.129922  0.772518  0.927930  1
  Si  Si23  1  0.771800  0.129809  0.073158  1
  Si  Si24  1  0.861538  0.205893  0.431387  1
  Si  Si25  1  0.296864  0.361905  0.684177  1
  Si  Si26  1  0.702721  0.639865  0.182079  1
  Si  Si27  1  0.297568  0.048093  0.193435  1
  Si  Si28  1  0.707769  0.950425  0.686475  1
  Si  Si29  1  0.450634  0.793482  0.435570  1
  Si  Si30  1  0.212819  0.570930  0.065245  1
  Si  Si31  1  0.570983  0.212636  0.934966  1
  Si  Si32  1  0.792544  0.449448  0.563715  1
  Si  Si33  1  0.048616  0.295419  0.807005  1
  Si  Si34  1  0.949397  0.708518  0.313432  1
  Hg  Hg35  1  0.174567  0.174305  0.000057  1
