# generated using pymatgen
data_Ta3NbC2
_symmetry_space_group_name_H-M   'P 1'
_cell_length_a   10.96456300
_cell_length_b   4.97196300
_cell_length_c   3.09544600
_cell_angle_alpha   90.00000000
_cell_angle_beta   90.00000000
_cell_angle_gamma   90.00000000
_symmetry_Int_Tables_number   1
_chemical_formula_structural   Ta3NbC2
_chemical_formula_sum   'Ta6 Nb2 C4'
_cell_volume   168.74948166
_cell_formula_units_Z   2
loop_
 _symmetry_equiv_pos_site_id
 _symmetry_equiv_pos_as_xyz
  1  'x, y, z'
loop_
 _atom_site_type_symbol
 _atom_site_label
 _atom_site_symmetry_multiplicity
 _atom_site_fract_x
 _atom_site_fract_y
 _atom_site_fract_z
 _atom_site_occupancy
  Ta  Ta0  1  0.204098  0.236134  0.000000  1
  Ta  Ta1  1  0.704099  0.263865  0.000000  1
  Ta  Ta2  1  0.045122  0.747770  0.000000  1
  Ta  Ta3  1  0.545123  0.752229  0.000000  1
  Ta  Ta4  1  0.454821  0.249863  0.500000  1
  Ta  Ta5  1  0.954821  0.250135  0.500000  1
  Nb  Nb6  1  0.295958  0.736513  0.500000  1
  Nb  Nb7  1  0.795957  0.763486  0.500000  1
  C  C8  1  0.376928  0.993769  0.000000  1
  C  C9  1  0.876927  0.506232  0.000000  1
  C  C10  1  0.623073  0.009831  0.500000  1
  C  C11  1  0.123073  0.490167  0.500000  1
