# generated using pymatgen
data_Rb2Al2Sb3
_symmetry_space_group_name_H-M   'P 1'
_cell_length_a   7.32496900
_cell_length_b   15.05668389
_cell_length_c   16.86958700
_cell_angle_alpha   90.49234456
_cell_angle_beta   90.00000000
_cell_angle_gamma   90.00000000
_symmetry_Int_Tables_number   1
_chemical_formula_structural   Rb2Al2Sb3
_chemical_formula_sum   'Rb16 Al16 Sb24'
_cell_volume   1860.47371943
_cell_formula_units_Z   8
loop_
 _symmetry_equiv_pos_site_id
 _symmetry_equiv_pos_as_xyz
  1  'x, y, z'
loop_
 _atom_site_type_symbol
 _atom_site_label
 _atom_site_symmetry_multiplicity
 _atom_site_fract_x
 _atom_site_fract_y
 _atom_site_fract_z
 _atom_site_occupancy
  Rb  Rb0  1  0.975751  0.140356  0.990228  1
  Rb  Rb1  1  0.475751  0.859644  0.509772  1
  Rb  Rb2  1  0.024249  0.859644  0.009772  1
  Rb  Rb3  1  0.524249  0.140356  0.490228  1
  Rb  Rb4  1  0.539235  0.650510  0.020817  1
  Rb  Rb5  1  0.039235  0.349490  0.479183  1
  Rb  Rb6  1  0.460765  0.349490  0.979183  1
  Rb  Rb7  1  0.960765  0.650510  0.520817  1
  Rb  Rb8  1  0.527454  0.925218  0.105982  1
  Rb  Rb9  1  0.027454  0.074782  0.394018  1
  Rb  Rb10  1  0.472546  0.074782  0.894018  1
  Rb  Rb11  1  0.972546  0.925218  0.605982  1
  Rb  Rb12  1  0.953496  0.442059  0.901240  1
  Rb  Rb13  1  0.453496  0.557941  0.598760  1
  Rb  Rb14  1  0.046504  0.557941  0.098760  1
  Rb  Rb15  1  0.546504  0.442059  0.401240  1
  Al  Al16  1  0.287747  0.687515  0.828124  1
  Al  Al17  1  0.787747  0.312485  0.671876  1
  Al  Al18  1  0.712253  0.312485  0.171876  1
  Al  Al19  1  0.212253  0.687515  0.328124  1
  Al  Al20  1  0.792585  0.093973  0.730344  1
  Al  Al21  1  0.292585  0.906027  0.769656  1
  Al  Al22  1  0.207415  0.906027  0.269656  1
  Al  Al23  1  0.707415  0.093973  0.230344  1
  Al  Al24  1  0.770163  0.817162  0.822486  1
  Al  Al25  1  0.270163  0.182838  0.677514  1
  Al  Al26  1  0.229837  0.182838  0.177514  1
  Al  Al27  1  0.729837  0.817162  0.322486  1
  Al  Al28  1  0.764794  0.594921  0.761733  1
  Al  Al29  1  0.264794  0.405079  0.738267  1
  Al  Al30  1  0.235206  0.405079  0.238267  1
  Al  Al31  1  0.735206  0.594921  0.261733  1
  Sb  Sb32  1  0.966438  0.971655  0.822837  1
  Sb  Sb33  1  0.466438  0.028345  0.677163  1
  Sb  Sb34  1  0.033562  0.028345  0.177163  1
  Sb  Sb35  1  0.533562  0.971655  0.322837  1
  Sb  Sb36  1  0.451708  0.834970  0.900622  1
  Sb  Sb37  1  0.951708  0.165030  0.599378  1
  Sb  Sb38  1  0.548292  0.165030  0.099378  1
  Sb  Sb39  1  0.048292  0.834970  0.400622  1
  Sb  Sb40  1  0.945886  0.673168  0.885724  1
  Sb  Sb41  1  0.445886  0.326832  0.614276  1
  Sb  Sb42  1  0.054114  0.326832  0.114276  1
  Sb  Sb43  1  0.554114  0.673168  0.385724  1
  Sb  Sb44  1  0.822909  0.747753  0.178837  1
  Sb  Sb45  1  0.322909  0.252247  0.321163  1
  Sb  Sb46  1  0.177091  0.252247  0.821163  1
  Sb  Sb47  1  0.677091  0.747753  0.678837  1
  Sb  Sb48  1  0.459165  0.526037  0.831221  1
  Sb  Sb49  1  0.959165  0.473963  0.668779  1
  Sb  Sb50  1  0.540835  0.473963  0.168779  1
  Sb  Sb51  1  0.040835  0.526037  0.331221  1
  Sb  Sb52  1  0.219816  0.753699  0.181364  1
  Sb  Sb53  1  0.719816  0.246301  0.318636  1
  Sb  Sb54  1  0.780184  0.246301  0.818636  1
  Sb  Sb55  1  0.280184  0.753699  0.681364  1
