# generated using pymatgen
data_La2Tb3HoOsI10
_symmetry_space_group_name_H-M   'P 1'
_cell_length_a   7.89033953
_cell_length_b   9.95955110
_cell_length_c   9.87712301
_cell_angle_alpha   106.99009756
_cell_angle_beta   95.80928747
_cell_angle_gamma   105.81780546
_symmetry_Int_Tables_number   1
_chemical_formula_structural   La2Tb3HoOsI10
_chemical_formula_sum   'La2 Tb3 Ho1 Os1 I10'
_cell_volume   700.26757030
_cell_formula_units_Z   1
loop_
 _symmetry_equiv_pos_site_id
 _symmetry_equiv_pos_as_xyz
  1  'x, y, z'
loop_
 _atom_site_type_symbol
 _atom_site_label
 _atom_site_symmetry_multiplicity
 _atom_site_fract_x
 _atom_site_fract_y
 _atom_site_fract_z
 _atom_site_occupancy
  La  La0  1  0.383870  0.957080  0.729844  1
  La  La1  1  0.614450  0.042393  0.269428  1
  Tb  Tb2  1  0.472101  0.290457  0.588568  1
  Tb  Tb3  1  0.527513  0.709731  0.411324  1
  Tb  Tb4  1  0.853890  0.129865  0.668507  1
  Ho  Ho5  1  0.148514  0.870126  0.331941  1
  Os  Os6  1  0.499572  0.000022  0.499653  1
  I  I7  1  0.418165  0.623408  0.675069  1
  I  I8  1  0.583004  0.377699  0.325933  1
  I  I9  1  0.281060  0.265548  0.844306  1
  I  I10  1  0.720689  0.735119  0.156469  1
  I  I11  1  0.852048  0.450357  0.769795  1
  I  I12  1  0.146997  0.550624  0.230846  1
  I  I13  1  0.052607  0.178782  0.412623  1
  I  I14  1  0.228427  0.909926  0.045610  1
  I  I15  1  0.769878  0.089638  0.955218  1
  I  I16  1  0.947217  0.819227  0.584866  1
