# generated using pymatgen
data_Ca2Mn9CrP6
_symmetry_space_group_name_H-M   'P 1'
_cell_length_a   3.57935200
_cell_length_b   10.67900200
_cell_length_c   12.20810500
_cell_angle_alpha   90.00000000
_cell_angle_beta   90.00000000
_cell_angle_gamma   90.00000000
_symmetry_Int_Tables_number   1
_chemical_formula_structural   Ca2Mn9CrP6
_chemical_formula_sum   'Ca4 Mn18 Cr2 P12'
_cell_volume   466.64147220
_cell_formula_units_Z   2
loop_
 _symmetry_equiv_pos_site_id
 _symmetry_equiv_pos_as_xyz
  1  'x, y, z'
loop_
 _atom_site_type_symbol
 _atom_site_label
 _atom_site_symmetry_multiplicity
 _atom_site_fract_x
 _atom_site_fract_y
 _atom_site_fract_z
 _atom_site_occupancy
  Ca  Ca0  1  0.250000  0.590113  0.706889  1
  Ca  Ca1  1  0.250000  0.909887  0.206889  1
  Ca  Ca2  1  0.750000  0.411458  0.293390  1
  Ca  Ca3  1  0.750000  0.088542  0.793390  1
  Mn  Mn4  1  0.750000  0.282480  0.017457  1
  Mn  Mn5  1  0.750000  0.217520  0.517457  1
  Mn  Mn6  1  0.250000  0.406732  0.494606  1
  Mn  Mn7  1  0.250000  0.093268  0.994606  1
  Mn  Mn8  1  0.750000  0.592304  0.505743  1
  Mn  Mn9  1  0.750000  0.907696  0.005743  1
  Mn  Mn10  1  0.250000  0.210262  0.179087  1
  Mn  Mn11  1  0.250000  0.289738  0.679087  1
  Mn  Mn12  1  0.750000  0.789606  0.819943  1
  Mn  Mn13  1  0.750000  0.710394  0.319943  1
  Mn  Mn14  1  0.250000  0.885252  0.693043  1
  Mn  Mn15  1  0.250000  0.614748  0.193043  1
  Mn  Mn16  1  0.750000  0.115795  0.307263  1
  Mn  Mn17  1  0.750000  0.384205  0.807263  1
  Mn  Mn18  1  0.250000  0.465576  0.935262  1
  Mn  Mn19  1  0.250000  0.034424  0.435262  1
  Mn  Mn20  1  0.750000  0.532405  0.064360  1
  Mn  Mn21  1  0.750000  0.967595  0.564360  1
  Cr  Cr22  1  0.250000  0.713082  0.982499  1
  Cr  Cr23  1  0.250000  0.786918  0.482499  1
  P  P24  1  0.250000  0.409857  0.115762  1
  P  P25  1  0.250000  0.090143  0.615762  1
  P  P26  1  0.750000  0.589927  0.884674  1
  P  P27  1  0.750000  0.910073  0.384674  1
  P  P28  1  0.250000  0.265179  0.873138  1
  P  P29  1  0.250000  0.234821  0.373138  1
  P  P30  1  0.750000  0.733151  0.125621  1
  P  P31  1  0.750000  0.766849  0.625621  1
  P  P32  1  0.250000  0.590321  0.384170  1
  P  P33  1  0.250000  0.909679  0.884170  1
  P  P34  1  0.750000  0.412263  0.617092  1
  P  P35  1  0.750000  0.087737  0.117092  1
