# generated using pymatgen
data_Na8SrCa3(SnAs4)2
_symmetry_space_group_name_H-M   'P 1'
_cell_length_a   9.76164988
_cell_length_b   9.76671188
_cell_length_c   7.36167644
_cell_angle_alpha   88.76039194
_cell_angle_beta   89.24665456
_cell_angle_gamma   120.04884199
_symmetry_Int_Tables_number   1
_chemical_formula_structural   Na8SrCa3(SnAs4)2
_chemical_formula_sum   'Na8 Sr1 Ca3 Sn2 As8'
_cell_volume   607.15076527
_cell_formula_units_Z   1
loop_
 _symmetry_equiv_pos_site_id
 _symmetry_equiv_pos_as_xyz
  1  'x, y, z'
loop_
 _atom_site_type_symbol
 _atom_site_label
 _atom_site_symmetry_multiplicity
 _atom_site_fract_x
 _atom_site_fract_y
 _atom_site_fract_z
 _atom_site_occupancy
  Na  Na0  1  0.473956  0.934572  0.378586  1
  Na  Na1  1  0.931886  0.470887  0.877244  1
  Na  Na2  1  0.860468  0.713557  0.179292  1
  Na  Na3  1  0.301130  0.142208  0.232403  1
  Na  Na4  1  0.848509  0.140377  0.206381  1
  Na  Na5  1  0.140497  0.296631  0.731497  1
  Na  Na6  1  0.707404  0.857830  0.684801  1
  Na  Na7  1  0.142478  0.849964  0.707015  1
  Sr  Sr8  1  0.050338  0.526781  0.382776  1
  Ca  Ca9  1  0.483069  0.533955  0.378612  1
  Ca  Ca10  1  0.527349  0.055511  0.887194  1
  Ca  Ca11  1  0.530433  0.479777  0.878873  1
  Sn  Sn12  1  0.657114  0.325175  0.502652  1
  Sn  Sn13  1  0.329363  0.662100  0.999842  1
  As  As14  1  0.199067  0.369813  0.133518  1
  As  As15  1  0.628863  0.810445  0.096046  1
  As  As16  1  0.197593  0.824792  0.103746  1
  As  As17  1  0.805806  0.627640  0.593878  1
  As  As18  1  0.369474  0.193045  0.641589  1
  As  As19  1  0.813267  0.189188  0.618718  1
  As  As20  1  0.662042  0.335763  0.140465  1
  As  As21  1  0.339910  0.660002  0.641130  1
