# generated using pymatgen
data_Pr8Er11Si16Ag
_symmetry_space_group_name_H-M   'P 1'
_cell_length_a   7.43239212
_cell_length_b   7.78501008
_cell_length_c   14.79173100
_cell_angle_alpha   90.00000000
_cell_angle_beta   90.00000000
_cell_angle_gamma   90.06289804
_symmetry_Int_Tables_number   1
_chemical_formula_structural   Pr8Er11Si16Ag
_chemical_formula_sum   'Pr8 Er11 Si16 Ag1'
_cell_volume   855.86749350
_cell_formula_units_Z   1
loop_
 _symmetry_equiv_pos_site_id
 _symmetry_equiv_pos_as_xyz
  1  'x, y, z'
loop_
 _atom_site_type_symbol
 _atom_site_label
 _atom_site_symmetry_multiplicity
 _atom_site_fract_x
 _atom_site_fract_y
 _atom_site_fract_z
 _atom_site_occupancy
  Pr  Pr0  1  0.018984  0.177118  0.402830  1
  Pr  Pr1  1  0.517557  0.323914  0.402616  1
  Pr  Pr2  1  0.483373  0.689668  0.897606  1
  Pr  Pr3  1  0.483373  0.689668  0.602394  1
  Pr  Pr4  1  0.971399  0.825017  0.602788  1
  Pr  Pr5  1  0.971399  0.825017  0.897212  1
  Pr  Pr6  1  0.517557  0.323914  0.097384  1
  Pr  Pr7  1  0.018984  0.177118  0.097170  1
  Er  Er8  1  0.333782  0.173170  0.625388  1
  Er  Er9  1  0.676781  0.818447  0.375497  1
  Er  Er10  1  0.177794  0.677474  0.377792  1
  Er  Er11  1  0.819359  0.312668  0.874337  1
  Er  Er12  1  0.819359  0.312668  0.625663  1
  Er  Er13  1  0.845972  0.490561  0.250000  1
  Er  Er14  1  0.343398  0.008340  0.250000  1
  Er  Er15  1  0.333782  0.173170  0.874612  1
  Er  Er16  1  0.177794  0.677474  0.122208  1
  Er  Er17  1  0.676781  0.818447  0.124503  1
  Er  Er18  1  0.152016  0.505915  0.750000  1
  Si  Si19  1  0.266527  0.879090  0.750000  1
  Si  Si20  1  0.471341  0.611760  0.250000  1
  Si  Si21  1  0.036440  0.112152  0.750000  1
  Si  Si22  1  0.525185  0.402445  0.750000  1
  Si  Si23  1  0.149155  0.468807  0.541385  1
  Si  Si24  1  0.970848  0.881843  0.250000  1
  Si  Si25  1  0.722897  0.120983  0.250000  1
  Si  Si26  1  0.853619  0.531789  0.036288  1
  Si  Si27  1  0.353946  0.968248  0.039838  1
  Si  Si28  1  0.149155  0.468807  0.958615  1
  Si  Si29  1  0.651991  0.037553  0.530687  1
  Si  Si30  1  0.353946  0.968248  0.460162  1
  Si  Si31  1  0.853619  0.531789  0.463712  1
  Si  Si32  1  0.776462  0.608956  0.750000  1
  Si  Si33  1  0.223511  0.378844  0.250000  1
  Si  Si34  1  0.651991  0.037553  0.969313  1
  Ag  Ag35  1  0.649923  0.991369  0.750000  1
