# generated using pymatgen
data_Ho12Fe2I17
_symmetry_space_group_name_H-M   'P 1'
_cell_length_a   9.67694528
_cell_length_b   11.60260185
_cell_length_c   11.63294984
_cell_angle_alpha   93.52050793
_cell_angle_beta   104.75862288
_cell_angle_gamma   114.15535069
_symmetry_Int_Tables_number   1
_chemical_formula_structural   Ho12Fe2I17
_chemical_formula_sum   'Ho12 Fe2 I17'
_cell_volume   1131.94531178
_cell_formula_units_Z   1
loop_
 _symmetry_equiv_pos_site_id
 _symmetry_equiv_pos_as_xyz
  1  'x, y, z'
loop_
 _atom_site_type_symbol
 _atom_site_label
 _atom_site_symmetry_multiplicity
 _atom_site_fract_x
 _atom_site_fract_y
 _atom_site_fract_z
 _atom_site_occupancy
  Ho  Ho0  1  0.052351  0.502090  0.319696  1
  Ho  Ho1  1  0.993570  0.809381  0.589208  1
  Ho  Ho2  1  0.656331  0.241489  0.280344  1
  Ho  Ho3  1  0.006430  0.190619  0.410792  1
  Ho  Ho4  1  0.218336  0.671379  0.981945  1
  Ho  Ho5  1  0.254930  0.977451  0.888639  1
  Ho  Ho6  1  0.343669  0.758511  0.719656  1
  Ho  Ho7  1  0.947649  0.497910  0.680304  1
  Ho  Ho8  1  0.745070  0.022549  0.111361  1
  Ho  Ho9  1  0.140458  0.286837  0.154749  1
  Ho  Ho10  1  0.781664  0.328621  0.018055  1
  Ho  Ho11  1  0.859542  0.713163  0.845251  1
  Fe  Fe12  1  0.103870  0.738010  0.785873  1
  Fe  Fe13  1  0.896130  0.261990  0.214127  1
  I  I14  1  0.783734  0.528736  0.416984  1
  I  I15  1  0.642447  0.418449  0.760739  1
  I  I16  1  0.843581  0.894376  0.326436  1
  I  I17  1  0.327408  0.212966  0.369136  1
  I  I18  1  0.156419  0.105624  0.673564  1
  I  I19  1  0.586932  0.053214  0.842086  1
  I  I20  1  0.756221  0.185936  0.538404  1
  I  I21  1  0.551118  0.709413  0.953704  1
  I  I22  1  0.357553  0.581551  0.239261  1
  I  I23  1  0.216266  0.471264  0.583016  1
  I  I24  1  0.056318  0.366734  0.896495  1
  I  I25  1  0.448882  0.290587  0.046296  1
  I  I26  1  0.000000  0.000000  0.000000  1
  I  I27  1  0.243779  0.814064  0.461596  1
  I  I28  1  0.413068  0.946786  0.157914  1
  I  I29  1  0.672592  0.787034  0.630864  1
  I  I30  1  0.943682  0.633266  0.103505  1
