# generated using pymatgen
data_Ho8Ta8Ti2NbSi16Mo
_symmetry_space_group_name_H-M   'P 1'
_cell_length_a   7.03174691
_cell_length_b   7.02788268
_cell_length_c   12.92497400
_cell_angle_alpha   89.96187826
_cell_angle_beta   90.09119421
_cell_angle_gamma   89.94607397
_symmetry_Int_Tables_number   1
_chemical_formula_structural   Ho8Ta8Ti2NbSi16Mo
_chemical_formula_sum   'Ho8 Ta8 Ti2 Nb1 Si16 Mo1'
_cell_volume   638.72890866
_cell_formula_units_Z   1
loop_
 _symmetry_equiv_pos_site_id
 _symmetry_equiv_pos_as_xyz
  1  'x, y, z'
loop_
 _atom_site_type_symbol
 _atom_site_label
 _atom_site_symmetry_multiplicity
 _atom_site_fract_x
 _atom_site_fract_y
 _atom_site_fract_z
 _atom_site_occupancy
  Ho  Ho0  1  0.342652  0.000539  0.468255  1
  Ho  Ho1  1  0.499439  0.841296  0.717126  1
  Ho  Ho2  1  0.501835  0.157924  0.218453  1
  Ho  Ho3  1  0.841380  0.499583  0.283398  1
  Ho  Ho4  1  0.158037  0.501868  0.781714  1
  Ho  Ho5  1  0.658311  0.998400  0.968113  1
  Ho  Ho6  1  0.000788  0.341277  0.531316  1
  Ho  Ho7  1  0.997842  0.659897  0.031674  1
  Ta  Ta8  1  0.328925  0.329311  0.999506  1
  Ta  Ta9  1  0.173616  0.825848  0.250820  1
  Ta  Ta10  1  0.826223  0.173238  0.749114  1
  Ta  Ta11  1  0.152865  0.008143  0.873828  1
  Ta  Ta12  1  0.493278  0.652634  0.124729  1
  Ta  Ta13  1  0.506754  0.346871  0.623287  1
  Ta  Ta14  1  0.652434  0.492489  0.875649  1
  Ta  Ta15  1  0.347530  0.507842  0.377277  1
  Ti  Ti16  1  0.008326  0.153089  0.126182  1
  Ti  Ti17  1  0.992109  0.847379  0.626236  1
  Nb  Nb18  1  0.848375  0.993845  0.373755  1
  Si  Si19  1  0.202593  0.131762  0.681157  1
  Si  Si20  1  0.366173  0.705835  0.931549  1
  Si  Si21  1  0.632706  0.294781  0.431295  1
  Si  Si22  1  0.705438  0.365073  0.068944  1
  Si  Si23  1  0.294907  0.634042  0.569229  1
  Si  Si24  1  0.797979  0.867515  0.181886  1
  Si  Si25  1  0.134586  0.203367  0.317601  1
  Si  Si26  1  0.865490  0.797565  0.817383  1
  Si  Si27  1  0.292391  0.955071  0.064510  1
  Si  Si28  1  0.547882  0.793167  0.315173  1
  Si  Si29  1  0.454136  0.205068  0.813225  1
  Si  Si30  1  0.794496  0.548600  0.683913  1
  Si  Si31  1  0.204240  0.452568  0.185506  1
  Si  Si32  1  0.708225  0.043199  0.563713  1
  Si  Si33  1  0.954308  0.294486  0.936764  1
  Si  Si34  1  0.044033  0.707414  0.437767  1
  Mo  Mo35  1  0.669697  0.669018  0.499951  1
