# generated using pymatgen
data_Tb4TcOsRu6
_symmetry_space_group_name_H-M   'P 1'
_cell_length_a   5.16834703
_cell_length_b   5.38164697
_cell_length_c   9.04308700
_cell_angle_alpha   90.00000000
_cell_angle_beta   90.00000000
_cell_angle_gamma   119.39331550
_symmetry_Int_Tables_number   1
_chemical_formula_structural   Tb4TcOsRu6
_chemical_formula_sum   'Tb4 Tc1 Os1 Ru6'
_cell_volume   219.14768041
_cell_formula_units_Z   1
loop_
 _symmetry_equiv_pos_site_id
 _symmetry_equiv_pos_as_xyz
  1  'x, y, z'
loop_
 _atom_site_type_symbol
 _atom_site_label
 _atom_site_symmetry_multiplicity
 _atom_site_fract_x
 _atom_site_fract_y
 _atom_site_fract_z
 _atom_site_occupancy
  Tb  Tb0  1  0.328922  0.668633  0.433163  1
  Tb  Tb1  1  0.656948  0.328045  0.565510  1
  Tb  Tb2  1  0.656948  0.328045  0.934490  1
  Tb  Tb3  1  0.328922  0.668633  0.066837  1
  Tc  Tc4  1  0.684962  0.841537  0.750000  1
  Os  Os5  1  0.841424  0.161588  0.250000  1
  Ru  Ru6  1  0.980014  0.999788  0.499397  1
  Ru  Ru7  1  0.980014  0.999788  0.000603  1
  Ru  Ru8  1  0.830419  0.653308  0.250000  1
  Ru  Ru9  1  0.353307  0.172496  0.250000  1
  Ru  Ru10  1  0.181113  0.828072  0.750000  1
  Ru  Ru11  1  0.177009  0.350070  0.750000  1
