# generated using pymatgen
data_LiMg3(SiRh)4
_symmetry_space_group_name_H-M   'P 1'
_cell_length_a   6.60425601
_cell_length_b   4.01734200
_cell_length_c   6.96209673
_cell_angle_alpha   90.00000000
_cell_angle_beta   89.23324681
_cell_angle_gamma   90.00000000
_symmetry_Int_Tables_number   1
_chemical_formula_structural   LiMg3(SiRh)4
_chemical_formula_sum   'Li1 Mg3 Si4 Rh4'
_cell_volume   184.69871283
_cell_formula_units_Z   1
loop_
 _symmetry_equiv_pos_site_id
 _symmetry_equiv_pos_as_xyz
  1  'x, y, z'
loop_
 _atom_site_type_symbol
 _atom_site_label
 _atom_site_symmetry_multiplicity
 _atom_site_fract_x
 _atom_site_fract_y
 _atom_site_fract_z
 _atom_site_occupancy
  Li  Li0  1  0.988514  0.750000  0.173272  1
  Mg  Mg1  1  0.492606  0.750000  0.325121  1
  Mg  Mg2  1  0.512042  0.249999  0.670722  1
  Mg  Mg3  1  0.008696  0.249999  0.835787  1
  Si  Si4  1  0.287715  0.249999  0.125080  1
  Si  Si5  1  0.804539  0.249999  0.364511  1
  Si  Si6  1  0.203123  0.750000  0.626519  1
  Si  Si7  1  0.707743  0.750000  0.878903  1
  Rh  Rh8  1  0.650238  0.249999  0.053289  1
  Rh  Rh9  1  0.157986  0.249999  0.448585  1
  Rh  Rh10  1  0.842450  0.750000  0.552993  1
  Rh  Rh11  1  0.344349  0.750000  0.945222  1
