# generated using pymatgen
data_Ac3Cd2HgPt2Au
_symmetry_space_group_name_H-M   'P 1'
_cell_length_a   8.21853900
_cell_length_b   8.14489453
_cell_length_c   4.12248500
_cell_angle_alpha   90.00000000
_cell_angle_beta   90.00000000
_cell_angle_gamma   120.29954958
_symmetry_Int_Tables_number   1
_chemical_formula_structural   Ac3Cd2HgPt2Au
_chemical_formula_sum   'Ac3 Cd2 Hg1 Pt2 Au1'
_cell_volume   238.25990845
_cell_formula_units_Z   1
loop_
 _symmetry_equiv_pos_site_id
 _symmetry_equiv_pos_as_xyz
  1  'x, y, z'
loop_
 _atom_site_type_symbol
 _atom_site_label
 _atom_site_symmetry_multiplicity
 _atom_site_fract_x
 _atom_site_fract_y
 _atom_site_fract_z
 _atom_site_occupancy
  Ac  Ac0  1  0.416003  0.000000  0.000000  1
  Ac  Ac1  1  0.589942  0.592746  0.000000  1
  Ac  Ac2  1  0.997197  0.407254  0.000000  1
  Cd  Cd3  1  0.254876  0.253807  0.500000  1
  Cd  Cd4  1  0.001070  0.746193  0.500000  1
  Hg  Hg5  1  0.743308  0.000000  0.500000  1
  Pt  Pt6  1  0.664710  0.340707  0.500000  1
  Pt  Pt7  1  0.324002  0.659293  0.500000  1
  Au  Au8  1  0.008892  0.000000  0.000000  1
