# generated using pymatgen
data_Tb15Y(ErIr3)4
_symmetry_space_group_name_H-M   'P 1'
_cell_length_a   10.91318809
_cell_length_b   10.91311610
_cell_length_c   6.37501305
_cell_angle_alpha   89.98884349
_cell_angle_beta   89.99033509
_cell_angle_gamma   90.01069935
_symmetry_Int_Tables_number   1
_chemical_formula_structural   Tb15Y(ErIr3)4
_chemical_formula_sum   'Tb15 Y1 Er4 Ir12'
_cell_volume   759.24418095
_cell_formula_units_Z   1
loop_
 _symmetry_equiv_pos_site_id
 _symmetry_equiv_pos_as_xyz
  1  'x, y, z'
loop_
 _atom_site_type_symbol
 _atom_site_label
 _atom_site_symmetry_multiplicity
 _atom_site_fract_x
 _atom_site_fract_y
 _atom_site_fract_z
 _atom_site_occupancy
  Tb  Tb0  1  0.290605  0.087837  0.377759  1
  Tb  Tb1  1  0.290576  0.912258  0.877877  1
  Tb  Tb2  1  0.709467  0.087816  0.877856  1
  Tb  Tb3  1  0.709411  0.912208  0.377921  1
  Tb  Tb4  1  0.587797  0.790565  0.877858  1
  Tb  Tb5  1  0.587775  0.209421  0.377944  1
  Tb  Tb6  1  0.412198  0.790578  0.377870  1
  Tb  Tb7  1  0.412167  0.209440  0.877946  1
  Tb  Tb8  1  0.209376  0.412156  0.622036  1
  Tb  Tb9  1  0.209357  0.587661  0.122074  1
  Tb  Tb10  1  0.790640  0.412180  0.122158  1
  Tb  Tb11  1  0.790548  0.587766  0.622126  1
  Tb  Tb12  1  0.912236  0.709379  0.122143  1
  Tb  Tb13  1  0.912284  0.290563  0.622016  1
  Tb  Tb14  1  0.087813  0.709478  0.622179  1
  Y  Y15  1  0.087764  0.290552  0.122135  1
  Er  Er16  1  0.999974  0.999995  0.499930  1
  Er  Er17  1  0.000056  0.000097  0.000139  1
  Er  Er18  1  0.500036  0.499955  0.000034  1
  Er  Er19  1  0.500028  0.500008  0.500064  1
  Ir  Ir20  1  0.847568  0.152306  0.249995  1
  Ir  Ir21  1  0.847594  0.847583  0.749998  1
  Ir  Ir22  1  0.152375  0.152286  0.749822  1
  Ir  Ir23  1  0.152371  0.847599  0.250043  1
  Ir  Ir24  1  0.652359  0.347622  0.749977  1
  Ir  Ir25  1  0.652361  0.652423  0.249999  1
  Ir  Ir26  1  0.347733  0.347619  0.250062  1
  Ir  Ir27  1  0.347629  0.652406  0.749996  1
  Ir  Ir28  1  0.500006  0.000002  0.121246  1
  Ir  Ir29  1  0.499998  0.000011  0.621264  1
  Ir  Ir30  1  0.999930  0.500115  0.878598  1
  Ir  Ir31  1  0.999968  0.500113  0.378933  1
