# generated using pymatgen
data_Pr2Ga9TcPd2
_symmetry_space_group_name_H-M   'P 1'
_cell_length_a   7.73805303
_cell_length_b   7.73804616
_cell_length_c   9.76620228
_cell_angle_alpha   90.16550244
_cell_angle_beta   90.16570673
_cell_angle_gamma   120.11649786
_symmetry_Int_Tables_number   1
_chemical_formula_structural   Pr2Ga9TcPd2
_chemical_formula_sum   'Pr4 Ga18 Tc2 Pd4'
_cell_volume   505.82589943
_cell_formula_units_Z   2
loop_
 _symmetry_equiv_pos_site_id
 _symmetry_equiv_pos_as_xyz
  1  'x, y, z'
loop_
 _atom_site_type_symbol
 _atom_site_label
 _atom_site_symmetry_multiplicity
 _atom_site_fract_x
 _atom_site_fract_y
 _atom_site_fract_z
 _atom_site_occupancy
  Pr  Pr0  1  0.995436  0.665588  0.248540  1
  Pr  Pr1  1  0.004564  0.334412  0.751460  1
  Pr  Pr2  1  0.665588  0.995436  0.248540  1
  Pr  Pr3  1  0.334412  0.004564  0.751460  1
  Ga  Ga4  1  0.130985  0.130985  0.251264  1
  Ga  Ga5  1  0.869015  0.869015  0.748736  1
  Ga  Ga6  1  0.005568  0.336251  0.076708  1
  Ga  Ga7  1  0.994432  0.663749  0.923292  1
  Ga  Ga8  1  0.997592  0.667583  0.579090  1
  Ga  Ga9  1  0.332416  0.002408  0.420910  1
  Ga  Ga10  1  0.002408  0.332417  0.420910  1
  Ga  Ga11  1  0.667584  0.997592  0.579090  1
  Ga  Ga12  1  0.663748  0.994432  0.923291  1
  Ga  Ga13  1  0.336252  0.005568  0.076709  1
  Ga  Ga14  1  0.336887  0.336886  0.567870  1
  Ga  Ga15  1  0.663113  0.663114  0.432130  1
  Ga  Ga16  1  0.657697  0.657697  0.058064  1
  Ga  Ga17  1  0.342303  0.342303  0.941936  1
  Ga  Ga18  1  0.335665  0.541964  0.245752  1
  Ga  Ga19  1  0.664335  0.458036  0.754248  1
  Ga  Ga20  1  0.541964  0.335665  0.245752  1
  Ga  Ga21  1  0.458036  0.664335  0.754248  1
  Tc  Tc22  1  0.674589  0.325411  0.000000  1
  Tc  Tc23  1  0.325411  0.674589  0.000000  1
  Pd  Pd24  1  0.330773  0.669227  0.500000  1
  Pd  Pd25  1  0.669227  0.330773  0.500000  1
  Pd  Pd26  1  0.000000  0.000000  0.000000  1
  Pd  Pd27  1  0.000000  0.000000  0.500000  1
