# generated using pymatgen
data_Ho4Er(CoO6)2
_symmetry_space_group_name_H-M   'P 1'
_cell_length_a   6.72276484
_cell_length_b   6.72276504
_cell_length_c   7.16161099
_cell_angle_alpha   74.54809656
_cell_angle_beta   74.54809784
_cell_angle_gamma   50.59581805
_symmetry_Int_Tables_number   1
_chemical_formula_structural   Ho4Er(CoO6)2
_chemical_formula_sum   'Ho4 Er1 Co2 O12'
_cell_volume   238.99187415
_cell_formula_units_Z   1
loop_
 _symmetry_equiv_pos_site_id
 _symmetry_equiv_pos_as_xyz
  1  'x, y, z'
loop_
 _atom_site_type_symbol
 _atom_site_label
 _atom_site_symmetry_multiplicity
 _atom_site_fract_x
 _atom_site_fract_y
 _atom_site_fract_z
 _atom_site_occupancy
  Ho  Ho0  1  0.305386  0.305386  0.355693  1
  Ho  Ho1  1  0.694422  0.694422  0.643682  1
  Ho  Ho2  1  0.307998  0.307998  0.835286  1
  Ho  Ho3  1  0.000043  0.000043  0.499703  1
  Er  Er4  1  0.692012  0.692012  0.164783  1
  Co  Co5  1  0.755751  0.244278  0.000162  1
  Co  Co6  1  0.244278  0.755751  0.000162  1
  O  O7  1  0.900762  0.418838  0.921926  1
  O  O8  1  0.418838  0.900762  0.921926  1
  O  O9  1  0.097777  0.582448  0.079186  1
  O  O10  1  0.582448  0.097777  0.079186  1
  O  O11  1  0.096654  0.598357  0.575890  1
  O  O12  1  0.598357  0.096654  0.575890  1
  O  O13  1  0.902550  0.402077  0.423022  1
  O  O14  1  0.402077  0.902550  0.423022  1
  O  O15  1  0.001189  0.001189  0.827504  1
  O  O16  1  0.999234  0.999234  0.172352  1
  O  O17  1  0.500249  0.500249  0.824433  1
  O  O18  1  0.499976  0.499976  0.176191  1
