# generated using pymatgen
data_YbTm3(MgPt)4
_symmetry_space_group_name_H-M   'P 1'
_cell_length_a   4.15481700
_cell_length_b   7.06216924
_cell_length_c   8.60978268
_cell_angle_alpha   89.53751451
_cell_angle_beta   90.00000000
_cell_angle_gamma   90.00000000
_symmetry_Int_Tables_number   1
_chemical_formula_structural   YbTm3(MgPt)4
_chemical_formula_sum   'Yb1 Tm3 Mg4 Pt4'
_cell_volume   252.62019273
_cell_formula_units_Z   1
loop_
 _symmetry_equiv_pos_site_id
 _symmetry_equiv_pos_as_xyz
  1  'x, y, z'
loop_
 _atom_site_type_symbol
 _atom_site_label
 _atom_site_symmetry_multiplicity
 _atom_site_fract_x
 _atom_site_fract_y
 _atom_site_fract_z
 _atom_site_occupancy
  Yb  Yb0  1  0.750000  0.464089  0.824720  1
  Tm  Tm1  1  0.250000  0.036425  0.325674  1
  Tm  Tm2  1  0.250000  0.536158  0.172875  1
  Tm  Tm3  1  0.750000  0.960229  0.672970  1
  Mg  Mg4  1  0.250000  0.634945  0.562614  1
  Mg  Mg5  1  0.250000  0.139704  0.938880  1
  Mg  Mg6  1  0.750000  0.364194  0.438124  1
  Mg  Mg7  1  0.750000  0.864854  0.062105  1
  Pt  Pt8  1  0.250000  0.238597  0.619222  1
  Pt  Pt9  1  0.250000  0.759117  0.875187  1
  Pt  Pt10  1  0.750000  0.752027  0.374793  1
  Pt  Pt11  1  0.750000  0.249661  0.132836  1
