# generated using pymatgen
data_Zr2TiIr4Rh
_symmetry_space_group_name_H-M   'P 1'
_cell_length_a   4.19698600
_cell_length_b   5.61690200
_cell_length_c   11.05843000
_cell_angle_alpha   90.00000000
_cell_angle_beta   90.00000000
_cell_angle_gamma   90.00000000
_symmetry_Int_Tables_number   1
_chemical_formula_structural   Zr2TiIr4Rh
_chemical_formula_sum   'Zr4 Ti2 Ir8 Rh2'
_cell_volume   260.69208190
_cell_formula_units_Z   2
loop_
 _symmetry_equiv_pos_site_id
 _symmetry_equiv_pos_as_xyz
  1  'x, y, z'
loop_
 _atom_site_type_symbol
 _atom_site_label
 _atom_site_symmetry_multiplicity
 _atom_site_fract_x
 _atom_site_fract_y
 _atom_site_fract_z
 _atom_site_occupancy
  Zr  Zr0  1  0.500000  0.324563  0.141972  1
  Zr  Zr1  1  0.500000  0.675437  0.858028  1
  Zr  Zr2  1  0.500000  0.824563  0.358028  1
  Zr  Zr3  1  0.500000  0.175437  0.641972  1
  Ti  Ti4  1  0.000000  0.000000  0.000000  1
  Ti  Ti5  1  0.000000  0.500000  0.500000  1
  Ir  Ir6  1  0.000000  0.070935  0.242331  1
  Ir  Ir7  1  0.000000  0.929065  0.757669  1
  Ir  Ir8  1  0.000000  0.570935  0.257669  1
  Ir  Ir9  1  0.000000  0.429065  0.742331  1
  Ir  Ir10  1  0.500000  0.313097  0.393756  1
  Ir  Ir11  1  0.500000  0.686903  0.606244  1
  Ir  Ir12  1  0.500000  0.813097  0.106244  1
  Ir  Ir13  1  0.500000  0.186903  0.893756  1
  Rh  Rh14  1  0.000000  0.000000  0.500000  1
  Rh  Rh15  1  0.000000  0.500000  0.000000  1
