# generated using pymatgen
data_Ho6Tm4AlSb5
_symmetry_space_group_name_H-M   'P 1'
_cell_length_a   8.85327400
_cell_length_b   8.86043510
_cell_length_c   6.31382400
_cell_angle_alpha   90.00000000
_cell_angle_beta   90.00000000
_cell_angle_gamma   119.97326821
_symmetry_Int_Tables_number   1
_chemical_formula_structural   Ho6Tm4AlSb5
_chemical_formula_sum   'Ho6 Tm4 Al1 Sb5'
_cell_volume   429.04118072
_cell_formula_units_Z   1
loop_
 _symmetry_equiv_pos_site_id
 _symmetry_equiv_pos_as_xyz
  1  'x, y, z'
loop_
 _atom_site_type_symbol
 _atom_site_label
 _atom_site_symmetry_multiplicity
 _atom_site_fract_x
 _atom_site_fract_y
 _atom_site_fract_z
 _atom_site_occupancy
  Ho  Ho0  1  0.752614  0.000000  0.750000  1
  Ho  Ho1  1  0.755140  0.755866  0.250000  1
  Ho  Ho2  1  0.999275  0.244134  0.250000  1
  Ho  Ho3  1  0.009501  0.763549  0.750000  1
  Ho  Ho4  1  0.245951  0.236451  0.750000  1
  Ho  Ho5  1  0.241785  0.000000  0.250000  1
  Tm  Tm6  1  0.334930  0.673756  0.998510  1
  Tm  Tm7  1  0.661175  0.326244  0.501490  1
  Tm  Tm8  1  0.661175  0.326244  0.998510  1
  Tm  Tm9  1  0.334930  0.673756  0.501490  1
  Al  Al10  1  0.397465  0.000000  0.750000  1
  Sb  Sb11  1  0.390107  0.393327  0.250000  1
  Sb  Sb12  1  0.996780  0.606673  0.250000  1
  Sb  Sb13  1  0.002147  0.391362  0.750000  1
  Sb  Sb14  1  0.610785  0.608638  0.750000  1
  Sb  Sb15  1  0.606238  0.000000  0.250000  1
