# generated using pymatgen
data_Yb2Cu3Ir
_symmetry_space_group_name_H-M   'P 1'
_cell_length_a   5.06065800
_cell_length_b   5.06065766
_cell_length_c   8.84695700
_cell_angle_alpha   90.00000000
_cell_angle_beta   90.00000000
_cell_angle_gamma   120.00000220
_symmetry_Int_Tables_number   1
_chemical_formula_structural   Yb2Cu3Ir
_chemical_formula_sum   'Yb4 Cu6 Ir2'
_cell_volume   196.21783833
_cell_formula_units_Z   2
loop_
 _symmetry_equiv_pos_site_id
 _symmetry_equiv_pos_as_xyz
  1  'x, y, z'
loop_
 _atom_site_type_symbol
 _atom_site_label
 _atom_site_symmetry_multiplicity
 _atom_site_fract_x
 _atom_site_fract_y
 _atom_site_fract_z
 _atom_site_occupancy
  Yb  Yb0  1  0.333333  0.666667  0.440541  1
  Yb  Yb1  1  0.666667  0.333333  0.559459  1
  Yb  Yb2  1  0.666667  0.333333  0.940541  1
  Yb  Yb3  1  0.333333  0.666667  0.059459  1
  Cu  Cu4  1  0.832555  0.167445  0.250000  1
  Cu  Cu5  1  0.832555  0.665111  0.250000  1
  Cu  Cu6  1  0.334889  0.167445  0.250000  1
  Cu  Cu7  1  0.167445  0.832555  0.750000  1
  Cu  Cu8  1  0.167445  0.334889  0.750000  1
  Cu  Cu9  1  0.665111  0.832555  0.750000  1
  Ir  Ir10  1  0.000000  0.000000  0.500000  1
  Ir  Ir11  1  0.000000  0.000000  0.000000  1
