# generated using pymatgen
data_Ho4ScTa3B24IrRu3
_symmetry_space_group_name_H-M   'P 1'
_cell_length_a   3.55205200
_cell_length_b   8.96730407
_cell_length_c   11.33871700
_cell_angle_alpha   90.00723920
_cell_angle_beta   90.00000000
_cell_angle_gamma   90.00000000
_symmetry_Int_Tables_number   1
_chemical_formula_structural   Ho4ScTa3B24IrRu3
_chemical_formula_sum   'Ho4 Sc1 Ta3 B24 Ir1 Ru3'
_cell_volume   361.16455688
_cell_formula_units_Z   1
loop_
 _symmetry_equiv_pos_site_id
 _symmetry_equiv_pos_as_xyz
  1  'x, y, z'
loop_
 _atom_site_type_symbol
 _atom_site_label
 _atom_site_symmetry_multiplicity
 _atom_site_fract_x
 _atom_site_fract_y
 _atom_site_fract_z
 _atom_site_occupancy
  Ho  Ho0  1  0.500000  0.321702  0.413373  1
  Ho  Ho1  1  0.500000  0.677649  0.588476  1
  Ho  Ho2  1  0.500000  0.177023  0.912148  1
  Ho  Ho3  1  0.500000  0.823510  0.084417  1
  Sc  Sc4  1  0.500000  0.947691  0.373620  1
  Ta  Ta5  1  0.500000  0.444457  0.121548  1
  Ta  Ta6  1  0.500000  0.552919  0.875316  1
  Ta  Ta7  1  0.500000  0.054432  0.625267  1
  B  B8  1  0.000000  0.100847  0.475438  1
  B  B9  1  0.000000  0.901422  0.528619  1
  B  B10  1  0.000000  0.400298  0.973450  1
  B  B11  1  0.000000  0.599145  0.026511  1
  B  B12  1  0.000000  0.130370  0.317481  1
  B  B13  1  0.000000  0.871219  0.681898  1
  B  B14  1  0.000000  0.370578  0.819048  1
  B  B15  1  0.000000  0.629832  0.180214  1
  B  B16  1  0.000000  0.055341  0.065601  1
  B  B17  1  0.000000  0.945373  0.934083  1
  B  B18  1  0.000000  0.444266  0.566087  1
  B  B19  1  0.000000  0.554283  0.434864  1
  B  B20  1  0.000000  0.480257  0.285280  1
  B  B21  1  0.000000  0.519069  0.714264  1
  B  B22  1  0.000000  0.018252  0.786579  1
  B  B23  1  0.000000  0.982907  0.213775  1
  B  B24  1  0.000000  0.254228  0.081046  1
  B  B25  1  0.000000  0.745277  0.918636  1
  B  B26  1  0.000000  0.245186  0.581808  1
  B  B27  1  0.000000  0.753918  0.419309  1
  B  B28  1  0.000000  0.297897  0.236330  1
  B  B29  1  0.000000  0.701889  0.763090  1
  B  B30  1  0.000000  0.202180  0.737596  1
  B  B31  1  0.000000  0.797031  0.261877  1
  Ir  Ir32  1  0.500000  0.644607  0.319240  1
  Ru  Ru33  1  0.500000  0.142854  0.181420  1
  Ru  Ru34  1  0.500000  0.854160  0.819234  1
  Ru  Ru35  1  0.500000  0.357935  0.683056  1
