# generated using pymatgen
data_TaNb23As12
_symmetry_space_group_name_H-M   'P 1'
_cell_length_a   3.52600000
_cell_length_b   12.02547963
_cell_length_c   14.88634478
_cell_angle_alpha   89.96284435
_cell_angle_beta   90.00000000
_cell_angle_gamma   90.00000000
_symmetry_Int_Tables_number   1
_chemical_formula_structural   TaNb23As12
_chemical_formula_sum   'Ta1 Nb23 As12'
_cell_volume   631.20829454
_cell_formula_units_Z   1
loop_
 _symmetry_equiv_pos_site_id
 _symmetry_equiv_pos_as_xyz
  1  'x, y, z'
loop_
 _atom_site_type_symbol
 _atom_site_label
 _atom_site_symmetry_multiplicity
 _atom_site_fract_x
 _atom_site_fract_y
 _atom_site_fract_z
 _atom_site_occupancy
  Ta  Ta0  1  0.500000  0.028101  0.391256  1
  Nb  Nb1  1  0.000000  0.189588  0.297046  1
  Nb  Nb2  1  0.000000  0.528201  0.109168  1
  Nb  Nb3  1  0.500000  0.913904  0.078836  1
  Nb  Nb4  1  0.000000  0.884405  0.926723  1
  Nb  Nb5  1  0.000000  0.857115  0.476946  1
  Nb  Nb6  1  0.500000  0.690319  0.203289  1
  Nb  Nb7  1  0.500000  0.384639  0.573249  1
  Nb  Nb8  1  0.000000  0.586194  0.578587  1
  Nb  Nb9  1  0.500000  0.615524  0.426727  1
  Nb  Nb10  1  0.000000  0.082870  0.757752  1
  Nb  Nb11  1  0.500000  0.643158  0.977384  1
  Nb  Nb12  1  0.000000  0.143467  0.522240  1
  Nb  Nb13  1  0.000000  0.413682  0.421343  1
  Nb  Nb14  1  0.500000  0.417143  0.257749  1
  Nb  Nb15  1  0.500000  0.582811  0.742271  1
  Nb  Nb16  1  0.500000  0.971881  0.608648  1
  Nb  Nb17  1  0.500000  0.356752  0.022632  1
  Nb  Nb18  1  0.000000  0.115480  0.073405  1
  Nb  Nb19  1  0.500000  0.086009  0.921295  1
  Nb  Nb20  1  0.000000  0.471716  0.890995  1
  Nb  Nb21  1  0.000000  0.809891  0.703174  1
  Nb  Nb22  1  0.500000  0.309507  0.796529  1
  Nb  Nb23  1  0.000000  0.918009  0.243245  1
  As  As24  1  0.000000  0.423473  0.703885  1
  As  As25  1  0.000000  0.245434  0.917249  1
  As  As26  1  0.000000  0.312640  0.152023  1
  As  As27  1  0.500000  0.745626  0.582688  1
  As  As28  1  0.500000  0.254534  0.417076  1
  As  As29  1  0.000000  0.576478  0.296188  1
  As  As30  1  0.500000  0.187176  0.651785  1
  As  As31  1  0.000000  0.754436  0.082695  1
  As  As32  1  0.500000  0.812476  0.348026  1
  As  As33  1  0.000000  0.687283  0.848017  1
  As  As34  1  0.500000  0.076581  0.203842  1
  As  As35  1  0.500000  0.923496  0.796035  1
