# generated using pymatgen
data_SrLaTb2Sm3OsBr12
_symmetry_space_group_name_H-M   'P 1'
_cell_length_a   9.54066525
_cell_length_b   9.34120205
_cell_length_c   9.56550487
_cell_angle_alpha   105.62895286
_cell_angle_beta   106.08954794
_cell_angle_gamma   106.77531618
_symmetry_Int_Tables_number   1
_chemical_formula_structural   SrLaTb2Sm3OsBr12
_chemical_formula_sum   'Sr1 La1 Tb2 Sm3 Os1 Br12'
_cell_volume   725.47570874
_cell_formula_units_Z   1
loop_
 _symmetry_equiv_pos_site_id
 _symmetry_equiv_pos_as_xyz
  1  'x, y, z'
loop_
 _atom_site_type_symbol
 _atom_site_label
 _atom_site_symmetry_multiplicity
 _atom_site_fract_x
 _atom_site_fract_y
 _atom_site_fract_z
 _atom_site_occupancy
  Sr  Sr0  1  0.499627  0.502274  0.496963  1
  La  La1  1  0.899439  0.698289  0.981871  1
  Tb  Tb2  1  0.981488  0.898167  0.690430  1
  Tb  Tb3  1  0.685997  0.977795  0.894113  1
  Sm  Sm4  1  0.098257  0.293386  0.017683  1
  Sm  Sm5  1  0.316808  0.017325  0.105638  1
  Sm  Sm6  1  0.017898  0.106151  0.315542  1
  Os  Os7  1  0.995865  0.988347  0.000785  1
  Br  Br8  1  0.228181  0.680580  0.075481  1
  Br  Br9  1  0.444971  0.363663  0.145793  1
  Br  Br10  1  0.678420  0.073384  0.210725  1
  Br  Br11  1  0.929947  0.789575  0.335033  1
  Br  Br12  1  0.146473  0.447999  0.358991  1
  Br  Br13  1  0.362634  0.145438  0.447123  1
  Br  Br14  1  0.641242  0.862585  0.558435  1
  Br  Br15  1  0.852251  0.555514  0.625194  1
  Br  Br16  1  0.073911  0.217074  0.684350  1
  Br  Br17  1  0.321767  0.931233  0.784678  1
  Br  Br18  1  0.541396  0.637835  0.843920  1
  Br  Br19  1  0.783429  0.313389  0.927254  1
