# generated using pymatgen
data_Nd2Ni3P4Ru3
_symmetry_space_group_name_H-M   'P 1'
_cell_length_a   3.93457200
_cell_length_b   10.81345342
_cell_length_c   12.75550505
_cell_angle_alpha   89.53675208
_cell_angle_beta   90.00000000
_cell_angle_gamma   90.00000000
_symmetry_Int_Tables_number   1
_chemical_formula_structural   Nd2Ni3P4Ru3
_chemical_formula_sum   'Nd6 Ni9 P12 Ru9'
_cell_volume   542.68194695
_cell_formula_units_Z   3
loop_
 _symmetry_equiv_pos_site_id
 _symmetry_equiv_pos_as_xyz
  1  'x, y, z'
loop_
 _atom_site_type_symbol
 _atom_site_label
 _atom_site_symmetry_multiplicity
 _atom_site_fract_x
 _atom_site_fract_y
 _atom_site_fract_z
 _atom_site_occupancy
  Nd  Nd0  1  0.000000  0.501001  0.522817  1
  Nd  Nd1  1  0.500000  0.001325  0.477203  1
  Nd  Nd2  1  0.500000  0.814236  0.199693  1
  Nd  Nd3  1  0.500000  0.185043  0.200578  1
  Nd  Nd4  1  0.000000  0.685052  0.801633  1
  Nd  Nd5  1  0.000000  0.316523  0.799469  1
  Ni  Ni6  1  0.000000  0.496317  0.982611  1
  Ni  Ni7  1  0.500000  0.999300  0.016983  1
  Ni  Ni8  1  0.000000  0.374496  0.281540  1
  Ni  Ni9  1  0.500000  0.331332  0.992208  1
  Ni  Ni10  1  0.500000  0.667465  0.990334  1
  Ni  Ni11  1  0.000000  0.169072  0.009936  1
  Ni  Ni12  1  0.000000  0.829163  0.011296  1
  Ni  Ni13  1  0.500000  0.501671  0.700707  1
  Ni  Ni14  1  0.000000  0.000143  0.298198  1
  P  P15  1  0.500000  0.312169  0.614114  1
  P  P16  1  0.500000  0.691458  0.616557  1
  P  P17  1  0.000000  0.190156  0.382726  1
  P  P18  1  0.000000  0.808838  0.383812  1
  P  P19  1  0.500000  0.499483  0.880925  1
  P  P20  1  0.000000  0.998637  0.118347  1
  P  P21  1  0.500000  0.850618  0.899433  1
  P  P22  1  0.500000  0.149129  0.898700  1
  P  P23  1  0.000000  0.643624  0.102143  1
  P  P24  1  0.000000  0.348693  0.102096  1
  P  P25  1  0.500000  0.502796  0.338220  1
  P  P26  1  0.000000  0.001155  0.663424  1
  Ru  Ru27  1  0.500000  0.301247  0.423079  1
  Ru  Ru28  1  0.500000  0.704349  0.428241  1
  Ru  Ru29  1  0.000000  0.206068  0.568780  1
  Ru  Ru30  1  0.000000  0.798279  0.571905  1
  Ru  Ru31  1  0.500000  0.878441  0.717819  1
  Ru  Ru32  1  0.500000  0.124388  0.716490  1
  Ru  Ru33  1  0.000000  0.616481  0.284653  1
  Ru  Ru34  1  0.500000  0.501511  0.152606  1
  Ru  Ru35  1  0.000000  0.000341  0.850721  1
