# generated using pymatgen
data_Ta2BeSiNi2
_symmetry_space_group_name_H-M   'P 1'
_cell_length_a   3.55507200
_cell_length_b   6.13042910
_cell_length_c   7.06116960
_cell_angle_alpha   90.09663174
_cell_angle_beta   90.00000000
_cell_angle_gamma   90.00000000
_symmetry_Int_Tables_number   1
_chemical_formula_structural   Ta2BeSiNi2
_chemical_formula_sum   'Ta4 Be2 Si2 Ni4'
_cell_volume   153.89173652
_cell_formula_units_Z   2
loop_
 _symmetry_equiv_pos_site_id
 _symmetry_equiv_pos_as_xyz
  1  'x, y, z'
loop_
 _atom_site_type_symbol
 _atom_site_label
 _atom_site_symmetry_multiplicity
 _atom_site_fract_x
 _atom_site_fract_y
 _atom_site_fract_z
 _atom_site_occupancy
  Ta  Ta0  1  0.250000  0.518225  0.168686  1
  Ta  Ta1  1  0.750000  0.481775  0.831314  1
  Ta  Ta2  1  0.750000  0.969129  0.687873  1
  Ta  Ta3  1  0.250000  0.030871  0.312127  1
  Be  Be4  1  0.250000  0.772092  0.882463  1
  Be  Be5  1  0.750000  0.227908  0.117537  1
  Si  Si6  1  0.750000  0.730697  0.374883  1
  Si  Si7  1  0.250000  0.269303  0.625117  1
  Ni  Ni8  1  0.250000  0.644747  0.567090  1
  Ni  Ni9  1  0.750000  0.355253  0.432910  1
  Ni  Ni10  1  0.750000  0.859804  0.055955  1
  Ni  Ni11  1  0.250000  0.140196  0.944045  1
