# generated using pymatgen
data_NaDy6Co6Sn23
_symmetry_space_group_name_H-M   'P 1'
_cell_length_a   9.71671700
_cell_length_b   9.71671695
_cell_length_c   9.96245600
_cell_angle_alpha   90.00000000
_cell_angle_beta   90.00000000
_cell_angle_gamma   119.99999675
_symmetry_Int_Tables_number   1
_chemical_formula_structural   NaDy6Co6Sn23
_chemical_formula_sum   'Na1 Dy6 Co6 Sn23'
_cell_volume   814.58454935
_cell_formula_units_Z   1
loop_
 _symmetry_equiv_pos_site_id
 _symmetry_equiv_pos_as_xyz
  1  'x, y, z'
loop_
 _atom_site_type_symbol
 _atom_site_label
 _atom_site_symmetry_multiplicity
 _atom_site_fract_x
 _atom_site_fract_y
 _atom_site_fract_z
 _atom_site_occupancy
  Na  Na0  1  0.000000  0.000000  0.000000  1
  Dy  Dy1  1  0.479735  0.520265  0.305340  1
  Dy  Dy2  1  0.520265  0.479735  0.694660  1
  Dy  Dy3  1  0.479735  0.959470  0.305340  1
  Dy  Dy4  1  0.520265  0.040530  0.694660  1
  Dy  Dy5  1  0.040530  0.520265  0.305340  1
  Dy  Dy6  1  0.959470  0.479735  0.694660  1
  Co  Co7  1  0.829595  0.170405  0.200920  1
  Co  Co8  1  0.170405  0.829595  0.799080  1
  Co  Co9  1  0.829595  0.659188  0.200920  1
  Co  Co10  1  0.170405  0.340812  0.799080  1
  Co  Co11  1  0.340812  0.170405  0.200920  1
  Co  Co12  1  0.659188  0.829595  0.799080  1
  Sn  Sn13  1  0.343834  0.000000  0.000000  1
  Sn  Sn14  1  0.656166  0.000000  0.000000  1
  Sn  Sn15  1  0.000000  0.343834  0.000000  1
  Sn  Sn16  1  0.000000  0.656166  0.000000  1
  Sn  Sn17  1  0.656166  0.656166  0.000000  1
  Sn  Sn18  1  0.343834  0.343834  0.000000  1
  Sn  Sn19  1  0.333333  0.666667  0.815286  1
  Sn  Sn20  1  0.666667  0.333333  0.184714  1
  Sn  Sn21  1  0.000000  0.000000  0.500000  1
  Sn  Sn22  1  0.781359  0.218641  0.453518  1
  Sn  Sn23  1  0.218641  0.781359  0.546482  1
  Sn  Sn24  1  0.781359  0.562718  0.453518  1
  Sn  Sn25  1  0.218641  0.437282  0.546482  1
  Sn  Sn26  1  0.437282  0.218641  0.453518  1
  Sn  Sn27  1  0.562718  0.781359  0.546482  1
  Sn  Sn28  1  0.333333  0.666667  0.116506  1
  Sn  Sn29  1  0.666667  0.333333  0.883494  1
  Sn  Sn30  1  0.116155  0.883845  0.272234  1
  Sn  Sn31  1  0.883845  0.116155  0.727766  1
  Sn  Sn32  1  0.116155  0.232310  0.272234  1
  Sn  Sn33  1  0.883845  0.767690  0.727766  1
  Sn  Sn34  1  0.767690  0.883845  0.272234  1
  Sn  Sn35  1  0.232310  0.116155  0.727766  1
