# generated using pymatgen
data_Lu3UGe2Ru3
_symmetry_space_group_name_H-M   'P 1'
_cell_length_a   6.99600800
_cell_length_b   6.99600880
_cell_length_c   4.06375300
_cell_angle_alpha   90.00000000
_cell_angle_beta   90.00000000
_cell_angle_gamma   120.00000567
_symmetry_Int_Tables_number   1
_chemical_formula_structural   Lu3UGe2Ru3
_chemical_formula_sum   'Lu3 U1 Ge2 Ru3'
_cell_volume   172.24973187
_cell_formula_units_Z   1
loop_
 _symmetry_equiv_pos_site_id
 _symmetry_equiv_pos_as_xyz
  1  'x, y, z'
loop_
 _atom_site_type_symbol
 _atom_site_label
 _atom_site_symmetry_multiplicity
 _atom_site_fract_x
 _atom_site_fract_y
 _atom_site_fract_z
 _atom_site_occupancy
  Lu  Lu0  1  0.459864  0.459864  0.000000  1
  Lu  Lu1  1  0.540136  0.000000  0.000000  1
  Lu  Lu2  1  0.000000  0.540136  0.000000  1
  U  U3  1  0.000000  0.000000  0.000000  1
  Ge  Ge4  1  0.666667  0.333333  0.500000  1
  Ge  Ge5  1  0.333333  0.666667  0.500000  1
  Ru  Ru6  1  0.000000  0.236774  0.500000  1
  Ru  Ru7  1  0.763226  0.763226  0.500000  1
  Ru  Ru8  1  0.236774  0.000000  0.500000  1
