# generated using pymatgen
data_Tb8GaPI12
_symmetry_space_group_name_H-M   'P 1'
_cell_length_a   4.23947400
_cell_length_b   14.07776462
_cell_length_c   14.76632054
_cell_angle_alpha   89.84568917
_cell_angle_beta   90.00000000
_cell_angle_gamma   90.00000000
_symmetry_Int_Tables_number   1
_chemical_formula_structural   Tb8GaPI12
_chemical_formula_sum   'Tb8 Ga1 P1 I12'
_cell_volume   881.28502846
_cell_formula_units_Z   1
loop_
 _symmetry_equiv_pos_site_id
 _symmetry_equiv_pos_as_xyz
  1  'x, y, z'
loop_
 _atom_site_type_symbol
 _atom_site_label
 _atom_site_symmetry_multiplicity
 _atom_site_fract_x
 _atom_site_fract_y
 _atom_site_fract_z
 _atom_site_occupancy
  Tb  Tb0  1  0.500000  0.118374  0.345841  1
  Tb  Tb1  1  0.500000  0.881626  0.654159  1
  Tb  Tb2  1  0.500000  0.613011  0.148468  1
  Tb  Tb3  1  0.500000  0.386989  0.851532  1
  Tb  Tb4  1  0.000000  0.111309  0.578193  1
  Tb  Tb5  1  0.000000  0.888691  0.421807  1
  Tb  Tb6  1  0.000000  0.604485  0.927729  1
  Tb  Tb7  1  0.000000  0.395515  0.072271  1
  Ga  Ga8  1  0.500000  0.000000  0.500000  1
  P  P9  1  0.500000  0.500000  0.000000  1
  I  I10  1  0.500000  0.255593  0.165648  1
  I  I11  1  0.500000  0.744407  0.834352  1
  I  I12  1  0.500000  0.750344  0.328251  1
  I  I13  1  0.500000  0.249656  0.671749  1
  I  I14  1  0.000000  0.261612  0.418849  1
  I  I15  1  0.000000  0.738388  0.581151  1
  I  I16  1  0.000000  0.756204  0.080683  1
  I  I17  1  0.000000  0.243796  0.919317  1
  I  I18  1  0.000000  0.003726  0.236106  1
  I  I19  1  0.000000  0.996274  0.763894  1
  I  I20  1  0.000000  0.501521  0.257785  1
  I  I21  1  0.000000  0.498479  0.742215  1
