# generated using pymatgen
data_Y2ErAl12Os3Rh
_symmetry_space_group_name_H-M   'P 1'
_cell_length_a   8.78712591
_cell_length_b   8.86647566
_cell_length_c   9.55451700
_cell_angle_alpha   90.00000000
_cell_angle_beta   90.00000000
_cell_angle_gamma   120.25694470
_symmetry_Int_Tables_number   1
_chemical_formula_structural   Y2ErAl12Os3Rh
_chemical_formula_sum   'Y4 Er2 Al24 Os6 Rh2'
_cell_volume   642.99405899
_cell_formula_units_Z   2
loop_
 _symmetry_equiv_pos_site_id
 _symmetry_equiv_pos_as_xyz
  1  'x, y, z'
loop_
 _atom_site_type_symbol
 _atom_site_label
 _atom_site_symmetry_multiplicity
 _atom_site_fract_x
 _atom_site_fract_y
 _atom_site_fract_z
 _atom_site_occupancy
  Y  Y0  1  0.611127  0.805260  0.250000  1
  Y  Y1  1  0.388873  0.194740  0.750000  1
  Y  Y2  1  0.198345  0.813318  0.250000  1
  Y  Y3  1  0.801655  0.186682  0.750000  1
  Er  Er4  1  0.199708  0.386450  0.250000  1
  Er  Er5  1  0.800292  0.613550  0.750000  1
  Al  Al6  1  0.333829  0.666744  0.021482  1
  Al  Al7  1  0.666171  0.333256  0.978518  1
  Al  Al8  1  0.666171  0.333256  0.521482  1
  Al  Al9  1  0.333829  0.666744  0.478518  1
  Al  Al10  1  0.163226  0.326279  0.576405  1
  Al  Al11  1  0.836774  0.673721  0.423595  1
  Al  Al12  1  0.671659  0.835478  0.575619  1
  Al  Al13  1  0.836774  0.673721  0.076405  1
  Al  Al14  1  0.328341  0.164522  0.424381  1
  Al  Al15  1  0.163226  0.326279  0.923595  1
  Al  Al16  1  0.162873  0.837286  0.577022  1
  Al  Al17  1  0.328341  0.164522  0.075619  1
  Al  Al18  1  0.837127  0.162714  0.422978  1
  Al  Al19  1  0.671659  0.835478  0.924381  1
  Al  Al20  1  0.837127  0.162714  0.077022  1
  Al  Al21  1  0.162873  0.837286  0.922978  1
  Al  Al22  1  0.564657  0.125760  0.250000  1
  Al  Al23  1  0.435343  0.874240  0.750000  1
  Al  Al24  1  0.880374  0.439941  0.250000  1
  Al  Al25  1  0.119626  0.560059  0.750000  1
  Al  Al26  1  0.563922  0.438845  0.250000  1
  Al  Al27  1  0.436078  0.561155  0.750000  1
  Al  Al28  1  0.002731  0.002729  0.250000  1
  Al  Al29  1  0.997269  0.997271  0.750000  1
  Os  Os30  1  0.500000  0.000000  0.000000  1
  Os  Os31  1  0.500000  0.000000  0.500000  1
  Os  Os32  1  0.500000  0.500000  0.000000  1
  Os  Os33  1  0.500000  0.500000  0.500000  1
  Os  Os34  1  0.000000  0.000000  0.000000  1
  Os  Os35  1  0.000000  0.000000  0.500000  1
  Rh  Rh36  1  0.000000  0.500000  0.000000  1
  Rh  Rh37  1  0.000000  0.500000  0.500000  1
