# generated using pymatgen
data_HfTh3Sn2Ir3
_symmetry_space_group_name_H-M   'P 1'
_cell_length_a   7.61011928
_cell_length_b   7.43392024
_cell_length_c   4.25655400
_cell_angle_alpha   90.00000000
_cell_angle_beta   90.00000000
_cell_angle_gamma   119.23700126
_symmetry_Int_Tables_number   1
_chemical_formula_structural   HfTh3Sn2Ir3
_chemical_formula_sum   'Hf1 Th3 Sn2 Ir3'
_cell_volume   210.12906139
_cell_formula_units_Z   1
loop_
 _symmetry_equiv_pos_site_id
 _symmetry_equiv_pos_as_xyz
  1  'x, y, z'
loop_
 _atom_site_type_symbol
 _atom_site_label
 _atom_site_symmetry_multiplicity
 _atom_site_fract_x
 _atom_site_fract_y
 _atom_site_fract_z
 _atom_site_occupancy
  Hf  Hf0  1  0.000000  0.245519  0.500000  1
  Th  Th1  1  0.414125  0.417568  0.000000  1
  Th  Th2  1  0.585875  0.003442  0.000000  1
  Th  Th3  1  0.000000  0.592535  0.000000  1
  Sn  Sn4  1  0.748576  0.753587  0.500000  1
  Sn  Sn5  1  0.251424  0.005011  0.500000  1
  Ir  Ir6  1  0.000000  0.027538  0.000000  1
  Ir  Ir7  1  0.687534  0.321167  0.500000  1
  Ir  Ir8  1  0.312466  0.633634  0.500000  1
