# generated using pymatgen
data_Na4Yb2(IrO4)3
_symmetry_space_group_name_H-M   'P 1'
_cell_length_a   9.48704094
_cell_length_b   9.47653644
_cell_length_c   3.18609700
_cell_angle_alpha   90.00000000
_cell_angle_beta   90.00000000
_cell_angle_gamma   119.96337477
_symmetry_Int_Tables_number   1
_chemical_formula_structural   Na4Yb2(IrO4)3
_chemical_formula_sum   'Na4 Yb2 Ir3 O12'
_cell_volume   248.15909654
_cell_formula_units_Z   1
loop_
 _symmetry_equiv_pos_site_id
 _symmetry_equiv_pos_as_xyz
  1  'x, y, z'
loop_
 _atom_site_type_symbol
 _atom_site_label
 _atom_site_symmetry_multiplicity
 _atom_site_fract_x
 _atom_site_fract_y
 _atom_site_fract_z
 _atom_site_occupancy
  Na  Na0  1  0.000000  0.000005  0.000000  1
  Na  Na1  1  0.697543  0.999857  0.500000  1
  Na  Na2  1  0.000000  0.697764  0.500000  1
  Na  Na3  1  0.302457  0.302314  0.500000  1
  Yb  Yb4  1  0.333519  0.666779  0.500000  1
  Yb  Yb5  1  0.666481  0.333259  0.500000  1
  Ir  Ir6  1  0.330731  0.999942  0.000000  1
  Ir  Ir7  1  0.000000  0.330804  0.000000  1
  Ir  Ir8  1  0.669269  0.669211  0.000000  1
  O  O9  1  0.194588  0.000105  0.500000  1
  O  O10  1  0.000000  0.194595  0.500000  1
  O  O11  1  0.805412  0.805517  0.500000  1
  O  O12  1  0.460414  0.999900  0.500000  1
  O  O13  1  0.000000  0.460534  0.500000  1
  O  O14  1  0.539586  0.539486  0.500000  1
  O  O15  1  0.232181  0.452208  0.000000  1
  O  O16  1  0.547592  0.780035  0.000000  1
  O  O17  1  0.452408  0.232443  0.000000  1
  O  O18  1  0.219913  0.767564  0.000000  1
  O  O19  1  0.780087  0.547651  0.000000  1
  O  O20  1  0.767819  0.220027  0.000000  1
