# generated using pymatgen
data_Eu(AlI4)2
_symmetry_space_group_name_H-M   'P 1'
_cell_length_a   8.56650600
_cell_length_b   8.37690722
_cell_length_c   15.50766347
_cell_angle_alpha   88.45085141
_cell_angle_beta   90.00000000
_cell_angle_gamma   90.00000000
_symmetry_Int_Tables_number   1
_chemical_formula_structural   Eu(AlI4)2
_chemical_formula_sum   'Eu2 Al4 I16'
_cell_volume   1112.43599732
_cell_formula_units_Z   2
loop_
 _symmetry_equiv_pos_site_id
 _symmetry_equiv_pos_as_xyz
  1  'x, y, z'
loop_
 _atom_site_type_symbol
 _atom_site_label
 _atom_site_symmetry_multiplicity
 _atom_site_fract_x
 _atom_site_fract_y
 _atom_site_fract_z
 _atom_site_occupancy
  Eu  Eu0  1  0.762060  0.087864  0.813068  1
  Eu  Eu1  1  0.237940  0.087864  0.313068  1
  Al  Al2  1  0.940270  0.214186  0.578442  1
  Al  Al3  1  0.059730  0.214186  0.078442  1
  Al  Al4  1  0.575823  0.645849  0.780032  1
  Al  Al5  1  0.424177  0.645849  0.280032  1
  I  I6  1  0.437167  0.616808  0.639234  1
  I  I7  1  0.562833  0.616808  0.139234  1
  I  I8  1  0.866823  0.723537  0.760230  1
  I  I9  1  0.133177  0.723537  0.260230  1
  I  I10  1  0.943966  0.474098  0.495111  1
  I  I11  1  0.056034  0.474098  0.995111  1
  I  I12  1  0.927961  0.982114  0.997720  1
  I  I13  1  0.072039  0.982114  0.497720  1
  I  I14  1  0.655208  0.125268  0.611427  1
  I  I15  1  0.344792  0.125268  0.111427  1
  I  I16  1  0.559097  0.392064  0.880939  1
  I  I17  1  0.440903  0.392064  0.380939  1
  I  I18  1  0.454135  0.873700  0.869001  1
  I  I19  1  0.545865  0.873700  0.369001  1
  I  I20  1  0.919842  0.231910  0.226998  1
  I  I21  1  0.080158  0.231910  0.726998  1
