# generated using pymatgen
data_SrLi3AgP2
_symmetry_space_group_name_H-M   'P 1'
_cell_length_a   8.22766312
_cell_length_b   8.22766354
_cell_length_c   8.22766247
_cell_angle_alpha   30.60872291
_cell_angle_beta   30.60871437
_cell_angle_gamma   30.60872788
_symmetry_Int_Tables_number   1
_chemical_formula_structural   SrLi3AgP2
_chemical_formula_sum   'Sr1 Li3 Ag1 P2'
_cell_volume   128.02114580
_cell_formula_units_Z   1
loop_
 _symmetry_equiv_pos_site_id
 _symmetry_equiv_pos_as_xyz
  1  'x, y, z'
loop_
 _atom_site_type_symbol
 _atom_site_label
 _atom_site_symmetry_multiplicity
 _atom_site_fract_x
 _atom_site_fract_y
 _atom_site_fract_z
 _atom_site_occupancy
  Sr  Sr0  1  0.999317  0.999317  0.999317  1
  Li  Li1  1  0.140807  0.140807  0.140807  1
  Li  Li2  1  0.567111  0.567111  0.567111  1
  Li  Li3  1  0.861620  0.861620  0.861620  1
  Ag  Ag4  1  0.431971  0.431971  0.431971  1
  P  P5  1  0.752307  0.752307  0.752307  1
  P  P6  1  0.246867  0.246867  0.246867  1
