# generated using pymatgen
data_SrEuSc4O8
_symmetry_space_group_name_H-M   'P 1'
_cell_length_a   3.21323700
_cell_length_b   9.75084961
_cell_length_c   11.38343875
_cell_angle_alpha   90.11379856
_cell_angle_beta   90.00000000
_cell_angle_gamma   90.00000000
_symmetry_Int_Tables_number   1
_chemical_formula_structural   SrEuSc4O8
_chemical_formula_sum   'Sr2 Eu2 Sc8 O16'
_cell_volume   356.66281740
_cell_formula_units_Z   2
loop_
 _symmetry_equiv_pos_site_id
 _symmetry_equiv_pos_as_xyz
  1  'x, y, z'
loop_
 _atom_site_type_symbol
 _atom_site_label
 _atom_site_symmetry_multiplicity
 _atom_site_fract_x
 _atom_site_fract_y
 _atom_site_fract_z
 _atom_site_occupancy
  Sr  Sr0  1  0.750000  0.755668  0.653505  1
  Sr  Sr1  1  0.250000  0.244332  0.346495  1
  Eu  Eu2  1  0.750000  0.255268  0.846194  1
  Eu  Eu3  1  0.250000  0.744732  0.153806  1
  Sc  Sc4  1  0.750000  0.920768  0.393276  1
  Sc  Sc5  1  0.250000  0.079232  0.606724  1
  Sc  Sc6  1  0.750000  0.421451  0.106051  1
  Sc  Sc7  1  0.250000  0.578549  0.893949  1
  Sc  Sc8  1  0.750000  0.930904  0.889767  1
  Sc  Sc9  1  0.250000  0.069096  0.110233  1
  Sc  Sc10  1  0.750000  0.430103  0.610503  1
  Sc  Sc11  1  0.250000  0.569897  0.389497  1
  O  O12  1  0.750000  0.707336  0.337321  1
  O  O13  1  0.250000  0.292664  0.662679  1
  O  O14  1  0.750000  0.207009  0.160563  1
  O  O15  1  0.250000  0.792991  0.839437  1
  O  O16  1  0.750000  0.618284  0.022469  1
  O  O17  1  0.250000  0.381716  0.977531  1
  O  O18  1  0.750000  0.116938  0.479540  1
  O  O19  1  0.250000  0.883062  0.520460  1
  O  O20  1  0.750000  0.023675  0.717398  1
  O  O21  1  0.250000  0.976325  0.282602  1
  O  O22  1  0.750000  0.521171  0.784430  1
  O  O23  1  0.250000  0.478829  0.215570  1
  O  O24  1  0.750000  0.922536  0.073784  1
  O  O25  1  0.250000  0.077464  0.926216  1
  O  O26  1  0.750000  0.425286  0.426132  1
  O  O27  1  0.250000  0.574714  0.573868  1
