# generated using pymatgen
data_HoErMgB2Rh5
_symmetry_space_group_name_H-M   'P 1'
_cell_length_a   9.61347290
_cell_length_b   9.61347290
_cell_length_c   3.17940000
_cell_angle_alpha   90.00000000
_cell_angle_beta   90.00000000
_cell_angle_gamma   89.95034173
_symmetry_Int_Tables_number   1
_chemical_formula_structural   HoErMgB2Rh5
_chemical_formula_sum   'Ho2 Er2 Mg2 B4 Rh10'
_cell_volume   293.83641710
_cell_formula_units_Z   2
loop_
 _symmetry_equiv_pos_site_id
 _symmetry_equiv_pos_as_xyz
  1  'x, y, z'
loop_
 _atom_site_type_symbol
 _atom_site_label
 _atom_site_symmetry_multiplicity
 _atom_site_fract_x
 _atom_site_fract_y
 _atom_site_fract_z
 _atom_site_occupancy
  Ho  Ho0  1  0.675403  0.175403  0.000000  1
  Ho  Ho1  1  0.324597  0.824597  0.000000  1
  Er  Er2  1  0.175382  0.324618  0.000000  1
  Er  Er3  1  0.824618  0.675382  0.000000  1
  Mg  Mg4  1  0.000000  0.000000  0.000000  1
  Mg  Mg5  1  0.500000  0.500000  0.000000  1
  B  B6  1  0.122972  0.622972  0.000000  1
  B  B7  1  0.877028  0.377028  0.000000  1
  B  B8  1  0.623089  0.876911  0.000000  1
  B  B9  1  0.376911  0.123089  0.000000  1
  Rh  Rh10  1  0.500000  0.000000  0.500000  1
  Rh  Rh11  1  0.000000  0.500000  0.500000  1
  Rh  Rh12  1  0.223610  0.070965  0.500000  1
  Rh  Rh13  1  0.776390  0.929035  0.500000  1
  Rh  Rh14  1  0.070354  0.776126  0.500000  1
  Rh  Rh15  1  0.723874  0.429646  0.500000  1
  Rh  Rh16  1  0.929646  0.223874  0.500000  1
  Rh  Rh17  1  0.276126  0.570354  0.500000  1
  Rh  Rh18  1  0.570965  0.723610  0.500000  1
  Rh  Rh19  1  0.429035  0.276390  0.500000  1
