# generated using pymatgen
data_Tb2Fe7
_symmetry_space_group_name_H-M   'P 1'
_cell_length_a   5.08132140
_cell_length_b   5.08132130
_cell_length_c   12.35071763
_cell_angle_alpha   78.12895087
_cell_angle_beta   78.12895256
_cell_angle_gamma   59.99998459
_symmetry_Int_Tables_number   1
_chemical_formula_structural   Tb2Fe7
_chemical_formula_sum   'Tb4 Fe14'
_cell_volume   268.26560159
_cell_formula_units_Z   2
loop_
 _symmetry_equiv_pos_site_id
 _symmetry_equiv_pos_as_xyz
  1  'x, y, z'
loop_
 _atom_site_type_symbol
 _atom_site_label
 _atom_site_symmetry_multiplicity
 _atom_site_fract_x
 _atom_site_fract_y
 _atom_site_fract_z
 _atom_site_occupancy
  Tb  Tb0  1  0.051845  0.051845  0.844464  1
  Tb  Tb1  1  0.948155  0.948155  0.155536  1
  Tb  Tb2  1  0.149168  0.149168  0.552498  1
  Tb  Tb3  1  0.850832  0.850832  0.447502  1
  Fe  Fe4  1  0.500000  0.500000  0.500000  1
  Fe  Fe5  1  0.278735  0.278735  0.163794  1
  Fe  Fe6  1  0.721265  0.721265  0.836206  1
  Fe  Fe7  1  0.387465  0.387465  0.837605  1
  Fe  Fe8  1  0.612535  0.612535  0.162395  1
  Fe  Fe9  1  0.500000  0.500000  0.000000  1
  Fe  Fe10  1  0.500000  0.000000  0.000000  1
  Fe  Fe11  1  0.000000  0.500000  0.000000  1
  Fe  Fe12  1  0.109125  0.608972  0.672932  1
  Fe  Fe13  1  0.608972  0.608972  0.672932  1
  Fe  Fe14  1  0.608972  0.109125  0.672932  1
  Fe  Fe15  1  0.890875  0.391028  0.327068  1
  Fe  Fe16  1  0.391028  0.391028  0.327068  1
  Fe  Fe17  1  0.391028  0.890875  0.327068  1
