# generated using pymatgen
data_Nb5Si6Tc6W
_symmetry_space_group_name_H-M   'P 1'
_cell_length_a   7.51685218
_cell_length_b   7.56000802
_cell_length_c   7.51685155
_cell_angle_alpha   127.44162848
_cell_angle_beta   124.04234971
_cell_angle_gamma   80.19640951
_symmetry_Int_Tables_number   1
_chemical_formula_structural   Nb5Si6Tc6W
_chemical_formula_sum   'Nb5 Si6 Tc6 W1'
_cell_volume   271.48169130
_cell_formula_units_Z   1
loop_
 _symmetry_equiv_pos_site_id
 _symmetry_equiv_pos_as_xyz
  1  'x, y, z'
loop_
 _atom_site_type_symbol
 _atom_site_label
 _atom_site_symmetry_multiplicity
 _atom_site_fract_x
 _atom_site_fract_y
 _atom_site_fract_z
 _atom_site_occupancy
  Nb  Nb0  1  0.442869  0.479564  0.536694  1
  Nb  Nb1  1  0.966906  0.499763  0.032858  1
  Nb  Nb2  1  0.037736  0.069977  0.532241  1
  Nb  Nb3  1  0.753694  0.912385  0.658691  1
  Nb  Nb4  1  0.246419  0.911040  0.164620  1
  Si  Si5  1  0.780901  0.550994  0.270092  1
  Si  Si6  1  0.226193  0.469946  0.743754  1
  Si  Si7  1  0.339542  0.827370  0.503345  1
  Si  Si8  1  0.664064  0.160345  0.489860  1
  Si  Si9  1  0.824024  0.827370  0.987826  1
  Si  Si10  1  0.170485  0.160345  0.996279  1
  Tc  Tc11  1  0.524025  0.246244  0.773946  1
  Tc  Tc12  1  0.972299  0.246244  0.222218  1
  Tc  Tc13  1  0.165012  0.749915  0.662327  1
  Tc  Tc14  1  0.838695  0.491936  0.584668  1
  Tc  Tc15  1  0.587588  0.749915  0.084903  1
  Tc  Tc16  1  0.407268  0.491936  0.153241  1
  W  W17  1  0.552279  0.096914  0.044634  1
