# generated using pymatgen
data_MnFe2NiP2
_symmetry_space_group_name_H-M   'P 1'
_cell_length_a   3.49156900
_cell_length_b   5.79851599
_cell_length_c   6.65916094
_cell_angle_alpha   90.06385812
_cell_angle_beta   90.00000000
_cell_angle_gamma   90.00000000
_symmetry_Int_Tables_number   1
_chemical_formula_structural   MnFe2NiP2
_chemical_formula_sum   'Mn2 Fe4 Ni2 P4'
_cell_volume   134.82074703
_cell_formula_units_Z   2
loop_
 _symmetry_equiv_pos_site_id
 _symmetry_equiv_pos_as_xyz
  1  'x, y, z'
loop_
 _atom_site_type_symbol
 _atom_site_label
 _atom_site_symmetry_multiplicity
 _atom_site_fract_x
 _atom_site_fract_y
 _atom_site_fract_z
 _atom_site_occupancy
  Mn  Mn0  1  0.750000  0.969499  0.829098  1
  Mn  Mn1  1  0.250000  0.036116  0.166372  1
  Fe  Fe2  1  0.250000  0.637832  0.939779  1
  Fe  Fe3  1  0.250000  0.136186  0.561491  1
  Fe  Fe4  1  0.750000  0.472243  0.663862  1
  Fe  Fe5  1  0.250000  0.531799  0.338855  1
  Ni  Ni6  1  0.750000  0.354204  0.069832  1
  Ni  Ni7  1  0.750000  0.854702  0.431047  1
  P  P8  1  0.750000  0.737376  0.121260  1
  P  P9  1  0.750000  0.248129  0.387417  1
  P  P10  1  0.250000  0.267844  0.863859  1
  P  P11  1  0.250000  0.754068  0.627128  1
