# generated using pymatgen
data_Tb4Al6TcIr
_symmetry_space_group_name_H-M   'P 1'
_cell_length_a   5.52944000
_cell_length_b   5.52943906
_cell_length_c   8.87533500
_cell_angle_alpha   90.00000000
_cell_angle_beta   90.00000000
_cell_angle_gamma   119.99999366
_symmetry_Int_Tables_number   1
_chemical_formula_structural   Tb4Al6TcIr
_chemical_formula_sum   'Tb4 Al6 Tc1 Ir1'
_cell_volume   235.00529078
_cell_formula_units_Z   1
loop_
 _symmetry_equiv_pos_site_id
 _symmetry_equiv_pos_as_xyz
  1  'x, y, z'
loop_
 _atom_site_type_symbol
 _atom_site_label
 _atom_site_symmetry_multiplicity
 _atom_site_fract_x
 _atom_site_fract_y
 _atom_site_fract_z
 _atom_site_occupancy
  Tb  Tb0  1  0.666667  0.333334  0.054073  1
  Tb  Tb1  1  0.666667  0.333334  0.448220  1
  Tb  Tb2  1  0.333333  0.666667  0.551779  1
  Tb  Tb3  1  0.333333  0.666667  0.945928  1
  Al  Al4  1  0.162250  0.324500  0.251737  1
  Al  Al5  1  0.162251  0.837750  0.251737  1
  Al  Al6  1  0.675501  0.837750  0.251737  1
  Al  Al7  1  0.324499  0.162250  0.748263  1
  Al  Al8  1  0.837749  0.162250  0.748263  1
  Al  Al9  1  0.837750  0.675501  0.748263  1
  Tc  Tc10  1  0.000000  0.000000  0.000000  1
  Ir  Ir11  1  0.000000  0.000000  0.500000  1
