# generated using pymatgen
data_TaTi2Fe5B2
_symmetry_space_group_name_H-M   'P 1'
_cell_length_a   8.68238400
_cell_length_b   8.69501900
_cell_length_c   2.91816200
_cell_angle_alpha   90.00000000
_cell_angle_beta   90.00000000
_cell_angle_gamma   90.00000000
_symmetry_Int_Tables_number   1
_chemical_formula_structural   TaTi2Fe5B2
_chemical_formula_sum   'Ta2 Ti4 Fe10 B4'
_cell_volume   220.30224499
_cell_formula_units_Z   2
loop_
 _symmetry_equiv_pos_site_id
 _symmetry_equiv_pos_as_xyz
  1  'x, y, z'
loop_
 _atom_site_type_symbol
 _atom_site_label
 _atom_site_symmetry_multiplicity
 _atom_site_fract_x
 _atom_site_fract_y
 _atom_site_fract_z
 _atom_site_occupancy
  Ta  Ta0  1  0.824435  0.325459  0.000000  1
  Ta  Ta1  1  0.324435  0.174541  0.000000  1
  Ti  Ti2  1  0.998894  0.997250  0.000000  1
  Ti  Ti3  1  0.498894  0.502750  0.000000  1
  Ti  Ti4  1  0.676012  0.823024  0.000000  1
  Ti  Ti5  1  0.176012  0.676976  0.000000  1
  Fe  Fe6  1  0.501849  0.998323  0.500000  1
  Fe  Fe7  1  0.001849  0.501677  0.500000  1
  Fe  Fe8  1  0.068629  0.219236  0.500000  1
  Fe  Fe9  1  0.219528  0.931541  0.500000  1
  Fe  Fe10  1  0.780581  0.070058  0.500000  1
  Fe  Fe11  1  0.930354  0.780466  0.500000  1
  Fe  Fe12  1  0.430354  0.719534  0.500000  1
  Fe  Fe13  1  0.568629  0.280764  0.500000  1
  Fe  Fe14  1  0.719528  0.568459  0.500000  1
  Fe  Fe15  1  0.280581  0.429942  0.500000  1
  B  B16  1  0.621616  0.120130  0.000000  1
  B  B17  1  0.121616  0.379870  0.000000  1
  B  B18  1  0.878104  0.623593  0.000000  1
  B  B19  1  0.378104  0.876407  0.000000  1
