# generated using pymatgen
data_SrEu(BH4)4
_symmetry_space_group_name_H-M   'P 1'
_cell_length_a   6.96232428
_cell_length_b   6.95959392
_cell_length_c   4.61323900
_cell_angle_alpha   90.00000000
_cell_angle_beta   90.00000000
_cell_angle_gamma   89.93849564
_symmetry_Int_Tables_number   1
_chemical_formula_structural   SrEu(BH4)4
_chemical_formula_sum   'Sr1 Eu1 B4 H16'
_cell_volume   223.53413492
_cell_formula_units_Z   1
loop_
 _symmetry_equiv_pos_site_id
 _symmetry_equiv_pos_as_xyz
  1  'x, y, z'
loop_
 _atom_site_type_symbol
 _atom_site_label
 _atom_site_symmetry_multiplicity
 _atom_site_fract_x
 _atom_site_fract_y
 _atom_site_fract_z
 _atom_site_occupancy
  Sr  Sr0  1  0.000000  0.500000  0.752541  1
  Eu  Eu1  1  0.500000  0.000000  0.248328  1
  B  B2  1  0.233742  0.309988  0.249884  1
  B  B3  1  0.766258  0.690012  0.249884  1
  B  B4  1  0.314775  0.773871  0.750047  1
  B  B5  1  0.685225  0.226129  0.750047  1
  H  H6  1  0.406679  0.339010  0.238739  1
  H  H7  1  0.593321  0.660990  0.238739  1
  H  H8  1  0.340185  0.600501  0.760073  1
  H  H9  1  0.659815  0.399499  0.760073  1
  H  H10  1  0.191667  0.218708  0.469540  1
  H  H11  1  0.808333  0.781292  0.469540  1
  H  H12  1  0.225233  0.819915  0.530283  1
  H  H13  1  0.774767  0.180085  0.530283  1
  H  H14  1  0.160287  0.469995  0.253927  1
  H  H15  1  0.839713  0.530005  0.253927  1
  H  H16  1  0.476689  0.843304  0.747404  1
  H  H17  1  0.523311  0.156696  0.747404  1
  H  H18  1  0.179586  0.217896  0.037160  1
  H  H19  1  0.820414  0.782104  0.037160  1
  H  H20  1  0.223592  0.830519  0.962509  1
  H  H21  1  0.776408  0.169481  0.962509  1
