# generated using pymatgen
data_DyTm5Al24(Os3Rh)2
_symmetry_space_group_name_H-M   'P 1'
_cell_length_a   8.76358549
_cell_length_b   8.75937393
_cell_length_c   9.57452100
_cell_angle_alpha   90.00000000
_cell_angle_beta   90.00000000
_cell_angle_gamma   119.63017707
_symmetry_Int_Tables_number   1
_chemical_formula_structural   DyTm5Al24(Os3Rh)2
_chemical_formula_sum   'Dy1 Tm5 Al24 Os6 Rh2'
_cell_volume   638.86483287
_cell_formula_units_Z   1
loop_
 _symmetry_equiv_pos_site_id
 _symmetry_equiv_pos_as_xyz
  1  'x, y, z'
loop_
 _atom_site_type_symbol
 _atom_site_label
 _atom_site_symmetry_multiplicity
 _atom_site_fract_x
 _atom_site_fract_y
 _atom_site_fract_z
 _atom_site_occupancy
  Dy  Dy0  1  0.185691  0.385371  0.250000  1
  Tm  Tm1  1  0.813984  0.612468  0.750000  1
  Tm  Tm2  1  0.612238  0.813869  0.250000  1
  Tm  Tm3  1  0.387697  0.186194  0.750000  1
  Tm  Tm4  1  0.194631  0.805626  0.250000  1
  Tm  Tm5  1  0.805488  0.194721  0.750000  1
  Al  Al6  1  0.333307  0.667119  0.023791  1
  Al  Al7  1  0.666800  0.333389  0.975655  1
  Al  Al8  1  0.666800  0.333389  0.524345  1
  Al  Al9  1  0.333307  0.667119  0.476209  1
  Al  Al10  1  0.162667  0.326056  0.577709  1
  Al  Al11  1  0.837371  0.674106  0.423052  1
  Al  Al12  1  0.674088  0.837304  0.577259  1
  Al  Al13  1  0.837371  0.674106  0.076948  1
  Al  Al14  1  0.326226  0.162496  0.423158  1
  Al  Al15  1  0.162667  0.326056  0.922291  1
  Al  Al16  1  0.164169  0.835931  0.576096  1
  Al  Al17  1  0.326226  0.162496  0.076842  1
  Al  Al18  1  0.835390  0.164072  0.424375  1
  Al  Al19  1  0.674088  0.837304  0.922741  1
  Al  Al20  1  0.835390  0.164072  0.075625  1
  Al  Al21  1  0.164169  0.835931  0.923904  1
  Al  Al22  1  0.560952  0.126338  0.250000  1
  Al  Al23  1  0.439125  0.873732  0.750000  1
  Al  Al24  1  0.873246  0.439275  0.250000  1
  Al  Al25  1  0.126388  0.561082  0.750000  1
  Al  Al26  1  0.559989  0.440952  0.250000  1
  Al  Al27  1  0.441022  0.559269  0.750000  1
  Al  Al28  1  0.997514  0.999890  0.250000  1
  Al  Al29  1  0.001685  0.998602  0.750000  1
  Os  Os30  1  0.500166  0.000269  0.999859  1
  Os  Os31  1  0.999675  0.500357  0.999530  1
  Os  Os32  1  0.500166  0.000269  0.500141  1
  Os  Os33  1  0.999675  0.500357  0.500470  1
  Os  Os34  1  0.000021  0.000121  0.999972  1
  Os  Os35  1  0.000021  0.000121  0.500028  1
  Rh  Rh36  1  0.500295  0.500085  0.999889  1
  Rh  Rh37  1  0.500295  0.500085  0.500111  1
