# generated using pymatgen
data_NdHf(NiAs)2
_symmetry_space_group_name_H-M   'P 1'
_cell_length_a   4.05051300
_cell_length_b   4.05051311
_cell_length_c   14.99789200
_cell_angle_alpha   90.00000000
_cell_angle_beta   90.00000000
_cell_angle_gamma   120.00000723
_symmetry_Int_Tables_number   1
_chemical_formula_structural   NdHf(NiAs)2
_chemical_formula_sum   'Nd2 Hf2 Ni4 As4'
_cell_volume   213.09874645
_cell_formula_units_Z   2
loop_
 _symmetry_equiv_pos_site_id
 _symmetry_equiv_pos_as_xyz
  1  'x, y, z'
loop_
 _atom_site_type_symbol
 _atom_site_label
 _atom_site_symmetry_multiplicity
 _atom_site_fract_x
 _atom_site_fract_y
 _atom_site_fract_z
 _atom_site_occupancy
  Nd  Nd0  1  0.000000  0.000000  0.757214  1
  Nd  Nd1  1  0.000000  0.000000  0.488048  1
  Hf  Hf2  1  0.000000  0.000000  0.239763  1
  Hf  Hf3  1  0.000000  0.000000  0.007205  1
  Ni  Ni4  1  0.333333  0.666667  0.146775  1
  Ni  Ni5  1  0.666667  0.333333  0.925763  1
  Ni  Ni6  1  0.666667  0.333333  0.628388  1
  Ni  Ni7  1  0.333333  0.666667  0.322670  1
  As  As8  1  0.333333  0.666667  0.622540  1
  As  As9  1  0.666667  0.333333  0.362485  1
  As  As10  1  0.666667  0.333333  0.110210  1
  As  As11  1  0.333333  0.666667  0.888939  1
