# generated using pymatgen
data_ScGaB2Ru5W
_symmetry_space_group_name_H-M   'P 1'
_cell_length_a   9.38528229
_cell_length_b   9.38528229
_cell_length_c   2.96733200
_cell_angle_alpha   90.00000000
_cell_angle_beta   90.00000000
_cell_angle_gamma   90.02846083
_symmetry_Int_Tables_number   1
_chemical_formula_structural   ScGaB2Ru5W
_chemical_formula_sum   'Sc2 Ga2 B4 Ru10 W2'
_cell_volume   261.37302616
_cell_formula_units_Z   2
loop_
 _symmetry_equiv_pos_site_id
 _symmetry_equiv_pos_as_xyz
  1  'x, y, z'
loop_
 _atom_site_type_symbol
 _atom_site_label
 _atom_site_symmetry_multiplicity
 _atom_site_fract_x
 _atom_site_fract_y
 _atom_site_fract_z
 _atom_site_occupancy
  Sc  Sc0  1  0.174137  0.325863  0.000000  1
  Sc  Sc1  1  0.825863  0.674137  0.000000  1
  Ga  Ga2  1  0.000000  0.000000  0.000000  1
  Ga  Ga3  1  0.500000  0.500000  0.000000  1
  B  B4  1  0.123804  0.623804  0.000000  1
  B  B5  1  0.876196  0.376196  0.000000  1
  B  B6  1  0.626345  0.873655  0.000000  1
  B  B7  1  0.373655  0.126345  0.000000  1
  Ru  Ru8  1  0.218633  0.059353  0.500000  1
  Ru  Ru9  1  0.781367  0.940647  0.500000  1
  Ru  Ru10  1  0.079461  0.787751  0.500000  1
  Ru  Ru11  1  0.712249  0.420539  0.500000  1
  Ru  Ru12  1  0.920539  0.212249  0.500000  1
  Ru  Ru13  1  0.287751  0.579461  0.500000  1
  Ru  Ru14  1  0.559353  0.718633  0.500000  1
  Ru  Ru15  1  0.440647  0.281367  0.500000  1
  Ru  Ru16  1  0.500000  0.000000  0.500000  1
  Ru  Ru17  1  0.000000  0.500000  0.500000  1
  W  W18  1  0.675595  0.175595  0.000000  1
  W  W19  1  0.324405  0.824405  0.000000  1
