# generated using pymatgen
data_Tb6Er4In8AgIr2Pd
_symmetry_space_group_name_H-M   'P 1'
_cell_length_a   3.63500500
_cell_length_b   8.14238982
_cell_length_c   18.24761100
_cell_angle_alpha   90.07413195
_cell_angle_beta   90.00000000
_cell_angle_gamma   90.00000000
_symmetry_Int_Tables_number   1
_chemical_formula_structural   Tb6Er4In8AgIr2Pd
_chemical_formula_sum   'Tb6 Er4 In8 Ag1 Ir2 Pd1'
_cell_volume   540.08554456
_cell_formula_units_Z   1
loop_
 _symmetry_equiv_pos_site_id
 _symmetry_equiv_pos_as_xyz
  1  'x, y, z'
loop_
 _atom_site_type_symbol
 _atom_site_label
 _atom_site_symmetry_multiplicity
 _atom_site_fract_x
 _atom_site_fract_y
 _atom_site_fract_z
 _atom_site_occupancy
  Tb  Tb0  1  0.000000  0.499087  0.499545  1
  Tb  Tb1  1  0.000000  0.999453  0.000694  1
  Tb  Tb2  1  0.000000  0.728190  0.278218  1
  Tb  Tb3  1  0.000000  0.284432  0.720763  1
  Tb  Tb4  1  0.000000  0.740022  0.784073  1
  Tb  Tb5  1  0.000000  0.252419  0.219372  1
  Er  Er6  1  0.000000  0.614663  0.087511  1
  Er  Er7  1  0.000000  0.384808  0.914101  1
  Er  Er8  1  0.000000  0.878465  0.578428  1
  Er  Er9  1  0.000000  0.116599  0.414792  1
  In  In10  1  0.500000  0.705271  0.934598  1
  In  In11  1  0.500000  0.293939  0.066768  1
  In  In12  1  0.500000  0.792959  0.432076  1
  In  In13  1  0.500000  0.204235  0.565654  1
  In  In14  1  0.500000  0.583188  0.647982  1
  In  In15  1  0.500000  0.421056  0.351519  1
  In  In16  1  0.500000  0.922030  0.150318  1
  In  In17  1  0.500000  0.081287  0.850920  1
  Ag  Ag18  1  0.500000  0.979601  0.697289  1
  Ir  Ir19  1  0.500000  0.520034  0.194941  1
  Ir  Ir20  1  0.500000  0.478375  0.805845  1
  Pd  Pd21  1  0.500000  0.019887  0.304593  1
