# generated using pymatgen
data_Y2ErAl12IrOs3
_symmetry_space_group_name_H-M   'P 1'
_cell_length_a   8.83448631
_cell_length_b   8.83448588
_cell_length_c   9.55766800
_cell_angle_alpha   90.00000000
_cell_angle_beta   90.00000000
_cell_angle_gamma   119.71908938
_symmetry_Int_Tables_number   1
_chemical_formula_structural   Y2ErAl12IrOs3
_chemical_formula_sum   'Y4 Er2 Al24 Ir2 Os6'
_cell_volume   647.83967373
_cell_formula_units_Z   2
loop_
 _symmetry_equiv_pos_site_id
 _symmetry_equiv_pos_as_xyz
  1  'x, y, z'
loop_
 _atom_site_type_symbol
 _atom_site_label
 _atom_site_symmetry_multiplicity
 _atom_site_fract_x
 _atom_site_fract_y
 _atom_site_fract_z
 _atom_site_occupancy
  Y  Y0  1  0.189533  0.386750  0.250000  1
  Y  Y1  1  0.810467  0.613250  0.750000  1
  Y  Y2  1  0.613250  0.810467  0.250000  1
  Y  Y3  1  0.386750  0.189533  0.750000  1
  Er  Er4  1  0.195518  0.804482  0.250000  1
  Er  Er5  1  0.804482  0.195518  0.750000  1
  Al  Al6  1  0.332668  0.667332  0.019467  1
  Al  Al7  1  0.667332  0.332668  0.980533  1
  Al  Al8  1  0.667332  0.332668  0.519467  1
  Al  Al9  1  0.332668  0.667332  0.480533  1
  Al  Al10  1  0.162015  0.325264  0.576867  1
  Al  Al11  1  0.837985  0.674736  0.423133  1
  Al  Al12  1  0.674736  0.837985  0.576867  1
  Al  Al13  1  0.837985  0.674736  0.076867  1
  Al  Al14  1  0.325264  0.162015  0.423133  1
  Al  Al15  1  0.162015  0.325264  0.923133  1
  Al  Al16  1  0.163734  0.836266  0.574612  1
  Al  Al17  1  0.325264  0.162015  0.076867  1
  Al  Al18  1  0.836266  0.163734  0.425388  1
  Al  Al19  1  0.674736  0.837985  0.923133  1
  Al  Al20  1  0.836266  0.163734  0.074612  1
  Al  Al21  1  0.163734  0.836266  0.925388  1
  Al  Al22  1  0.559656  0.122521  0.250000  1
  Al  Al23  1  0.440344  0.877479  0.750000  1
  Al  Al24  1  0.877479  0.440344  0.250000  1
  Al  Al25  1  0.122521  0.559656  0.750000  1
  Al  Al26  1  0.560757  0.439243  0.250000  1
  Al  Al27  1  0.439243  0.560757  0.750000  1
  Al  Al28  1  0.000259  0.999741  0.250000  1
  Al  Al29  1  0.999741  0.000259  0.750000  1
  Ir  Ir30  1  0.500000  0.500000  0.000000  1
  Ir  Ir31  1  0.500000  0.500000  0.500000  1
  Os  Os32  1  0.500000  0.000000  0.000000  1
  Os  Os33  1  0.000000  0.500000  0.000000  1
  Os  Os34  1  0.500000  0.000000  0.500000  1
  Os  Os35  1  0.000000  0.500000  0.500000  1
  Os  Os36  1  0.000000  0.000000  0.000000  1
  Os  Os37  1  0.000000  0.000000  0.500000  1
