# generated using pymatgen
data_Ca4YbCd3
_symmetry_space_group_name_H-M   'P 1'
_cell_length_a   8.26595900
_cell_length_b   8.26595900
_cell_length_c   15.21098400
_cell_angle_alpha   90.00000000
_cell_angle_beta   90.00000000
_cell_angle_gamma   90.00000000
_symmetry_Int_Tables_number   1
_chemical_formula_structural   Ca4YbCd3
_chemical_formula_sum   'Ca16 Yb4 Cd12'
_cell_volume   1039.30688213
_cell_formula_units_Z   4
loop_
 _symmetry_equiv_pos_site_id
 _symmetry_equiv_pos_as_xyz
  1  'x, y, z'
loop_
 _atom_site_type_symbol
 _atom_site_label
 _atom_site_symmetry_multiplicity
 _atom_site_fract_x
 _atom_site_fract_y
 _atom_site_fract_z
 _atom_site_occupancy
  Ca  Ca0  1  0.667481  0.165195  0.100158  1
  Ca  Ca1  1  0.167107  0.666631  0.601451  1
  Ca  Ca2  1  0.332519  0.834805  0.100158  1
  Ca  Ca3  1  0.832893  0.333369  0.601451  1
  Ca  Ca4  1  0.834805  0.667481  0.100158  1
  Ca  Ca5  1  0.333369  0.167107  0.601451  1
  Ca  Ca6  1  0.165195  0.332519  0.100158  1
  Ca  Ca7  1  0.666631  0.832893  0.601451  1
  Ca  Ca8  1  0.834805  0.332519  0.899842  1
  Ca  Ca9  1  0.333369  0.832893  0.398549  1
  Ca  Ca10  1  0.165195  0.667481  0.899842  1
  Ca  Ca11  1  0.666631  0.167107  0.398549  1
  Ca  Ca12  1  0.667481  0.834805  0.899842  1
  Ca  Ca13  1  0.167107  0.333369  0.398549  1
  Ca  Ca14  1  0.332519  0.165195  0.899842  1
  Ca  Ca15  1  0.832893  0.666631  0.398549  1
  Yb  Yb16  1  0.500000  0.500000  0.753461  1
  Yb  Yb17  1  0.000000  0.000000  0.250128  1
  Yb  Yb18  1  0.000000  0.000000  0.749872  1
  Yb  Yb19  1  0.500000  0.500000  0.246539  1
  Cd  Cd20  1  0.500000  0.500000  0.500000  1
  Cd  Cd21  1  0.500000  0.500000  0.000000  1
  Cd  Cd22  1  0.000000  0.000000  0.500000  1
  Cd  Cd23  1  0.628613  0.129211  0.750972  1
  Cd  Cd24  1  0.129211  0.628613  0.249028  1
  Cd  Cd25  1  0.870789  0.371387  0.249028  1
  Cd  Cd26  1  0.371387  0.870789  0.750972  1
  Cd  Cd27  1  0.870789  0.628613  0.750972  1
  Cd  Cd28  1  0.371387  0.129211  0.249028  1
  Cd  Cd29  1  0.129211  0.371387  0.750972  1
  Cd  Cd30  1  0.628613  0.870789  0.249028  1
  Cd  Cd31  1  0.000000  0.000000  0.000000  1
