# generated using pymatgen
data_Dy16CdIn(Ni2Ag)2
_symmetry_space_group_name_H-M   'P 1'
_cell_length_a   9.46585965
_cell_length_b   9.47460171
_cell_length_c   9.44528500
_cell_angle_alpha   60.10230751
_cell_angle_beta   60.07187839
_cell_angle_gamma   60.06722824
_symmetry_Int_Tables_number   1
_chemical_formula_structural   Dy16CdIn(Ni2Ag)2
_chemical_formula_sum   'Dy16 Cd1 In1 Ni4 Ag2'
_cell_volume   600.08426174
_cell_formula_units_Z   1
loop_
 _symmetry_equiv_pos_site_id
 _symmetry_equiv_pos_as_xyz
  1  'x, y, z'
loop_
 _atom_site_type_symbol
 _atom_site_label
 _atom_site_symmetry_multiplicity
 _atom_site_fract_x
 _atom_site_fract_y
 _atom_site_fract_z
 _atom_site_occupancy
  Dy  Dy0  1  0.599362  0.598606  0.598590  1
  Dy  Dy1  1  0.599362  0.598606  0.203444  1
  Dy  Dy2  1  0.600682  0.198580  0.600370  1
  Dy  Dy3  1  0.198219  0.601093  0.600344  1
  Dy  Dy4  1  0.060088  0.440094  0.441109  1
  Dy  Dy5  1  0.438824  0.062371  0.059783  1
  Dy  Dy6  1  0.438824  0.062371  0.439023  1
  Dy  Dy7  1  0.060088  0.440094  0.058708  1
  Dy  Dy8  1  0.441273  0.440584  0.059072  1
  Dy  Dy9  1  0.061775  0.061555  0.438335  1
  Dy  Dy10  1  0.184414  0.812072  0.814261  1
  Dy  Dy11  1  0.813026  0.181920  0.190286  1
  Dy  Dy12  1  0.813026  0.181920  0.814767  1
  Dy  Dy13  1  0.184414  0.812072  0.189255  1
  Dy  Dy14  1  0.811984  0.812213  0.187902  1
  Dy  Dy15  1  0.187795  0.184695  0.813756  1
  Cd  Cd16  1  0.508945  0.833191  0.828932  1
  In  In17  1  0.831960  0.508912  0.829565  1
  Ni  Ni18  1  0.392842  0.393162  0.393250  1
  Ni  Ni19  1  0.392842  0.393162  0.820746  1
  Ni  Ni20  1  0.392079  0.821651  0.393135  1
  Ni  Ni21  1  0.822273  0.392144  0.392792  1
  Ag  Ag22  1  0.832953  0.834468  0.831543  1
  Ag  Ag23  1  0.832953  0.834468  0.501037  1
