# generated using pymatgen
data_Dy2SnPtF14
_symmetry_space_group_name_H-M   'P 1'
_cell_length_a   5.63132459
_cell_length_b   8.97689700
_cell_length_c   12.07223100
_cell_angle_alpha   62.33554896
_cell_angle_beta   90.16583402
_cell_angle_gamma   90.13868932
_symmetry_Int_Tables_number   1
_chemical_formula_structural   Dy2SnPtF14
_chemical_formula_sum   'Dy4 Sn2 Pt2 F28'
_cell_volume   540.50529390
_cell_formula_units_Z   2
loop_
 _symmetry_equiv_pos_site_id
 _symmetry_equiv_pos_as_xyz
  1  'x, y, z'
loop_
 _atom_site_type_symbol
 _atom_site_label
 _atom_site_symmetry_multiplicity
 _atom_site_fract_x
 _atom_site_fract_y
 _atom_site_fract_z
 _atom_site_occupancy
  Dy  Dy0  1  0.258039  0.813090  0.268660  1
  Dy  Dy1  1  0.741961  0.186910  0.731340  1
  Dy  Dy2  1  0.760535  0.183561  0.238986  1
  Dy  Dy3  1  0.239465  0.816439  0.761014  1
  Sn  Sn4  1  0.756101  0.727094  0.043114  1
  Sn  Sn5  1  0.243899  0.272906  0.956886  1
  Pt  Pt6  1  0.259434  0.273541  0.455720  1
  Pt  Pt7  1  0.740566  0.726459  0.544280  1
  F  F8  1  0.935331  0.704030  0.417636  1
  F  F9  1  0.064669  0.295970  0.582364  1
  F  F10  1  0.461263  0.292497  0.080641  1
  F  F11  1  0.538737  0.707503  0.919359  1
  F  F12  1  0.481028  0.730635  0.146330  1
  F  F13  1  0.518972  0.269365  0.853670  1
  F  F14  1  0.969534  0.271488  0.364770  1
  F  F15  1  0.030466  0.728512  0.635230  1
  F  F16  1  0.961669  0.747914  0.171380  1
  F  F17  1  0.038331  0.252086  0.828620  1
  F  F18  1  0.450142  0.257923  0.324210  1
  F  F19  1  0.549858  0.742077  0.675790  1
  F  F20  1  0.777341  0.477851  0.141733  1
  F  F21  1  0.222659  0.522149  0.858267  1
  F  F22  1  0.266372  0.520911  0.358827  1
  F  F23  1  0.733628  0.479089  0.641173  1
  F  F24  1  0.951069  0.276599  0.050513  1
  F  F25  1  0.048931  0.723401  0.949487  1
  F  F26  1  0.444175  0.716330  0.460051  1
  F  F27  1  0.555825  0.283670  0.539949  1
  F  F28  1  0.739947  0.973690  0.452003  1
  F  F29  1  0.260053  0.026310  0.547997  1
  F  F30  1  0.242486  0.022996  0.058231  1
  F  F31  1  0.757514  0.977004  0.941769  1
  F  F32  1  0.579230  0.969522  0.238258  1
  F  F33  1  0.420770  0.030478  0.761742  1
  F  F34  1  0.080253  0.026488  0.272843  1
  F  F35  1  0.919747  0.973512  0.727157  1
