# generated using pymatgen
data_Tb16Dy4Ir7Ru5
_symmetry_space_group_name_H-M   'P 1'
_cell_length_a   10.88584265
_cell_length_b   10.88584350
_cell_length_c   6.41720901
_cell_angle_alpha   89.96785122
_cell_angle_beta   89.96785146
_cell_angle_gamma   90.01693272
_symmetry_Int_Tables_number   1
_chemical_formula_structural   Tb16Dy4Ir7Ru5
_chemical_formula_sum   'Tb16 Dy4 Ir7 Ru5'
_cell_volume   760.44913090
_cell_formula_units_Z   1
loop_
 _symmetry_equiv_pos_site_id
 _symmetry_equiv_pos_as_xyz
  1  'x, y, z'
loop_
 _atom_site_type_symbol
 _atom_site_label
 _atom_site_symmetry_multiplicity
 _atom_site_fract_x
 _atom_site_fract_y
 _atom_site_fract_z
 _atom_site_occupancy
  Tb  Tb0  1  0.293313  0.086598  0.379408  1
  Tb  Tb1  1  0.292654  0.913321  0.879553  1
  Tb  Tb2  1  0.707534  0.087043  0.879829  1
  Tb  Tb3  1  0.707189  0.913669  0.378590  1
  Tb  Tb4  1  0.586667  0.793464  0.879511  1
  Tb  Tb5  1  0.587577  0.206827  0.379743  1
  Tb  Tb6  1  0.413293  0.793305  0.379577  1
  Tb  Tb7  1  0.413174  0.206489  0.878851  1
  Tb  Tb8  1  0.206536  0.413333  0.620489  1
  Tb  Tb9  1  0.206695  0.586707  0.120423  1
  Tb  Tb10  1  0.793173  0.412423  0.120257  1
  Tb  Tb11  1  0.793511  0.586826  0.621149  1
  Tb  Tb12  1  0.913402  0.706687  0.120592  1
  Tb  Tb13  1  0.912957  0.292466  0.620171  1
  Tb  Tb14  1  0.086679  0.707346  0.620447  1
  Tb  Tb15  1  0.086331  0.292811  0.121410  1
  Dy  Dy16  1  0.999584  0.001054  0.499516  1
  Dy  Dy17  1  0.998946  0.000416  0.000484  1
  Dy  Dy18  1  0.500160  0.500086  0.000184  1
  Dy  Dy19  1  0.499914  0.499840  0.499816  1
  Ir  Ir20  1  0.847327  0.847044  0.749748  1
  Ir  Ir21  1  0.152956  0.152673  0.750252  1
  Ir  Ir22  1  0.152598  0.847402  0.250000  1
  Ir  Ir23  1  0.651523  0.348477  0.750000  1
  Ir  Ir24  1  0.652587  0.652219  0.249748  1
  Ir  Ir25  1  0.347781  0.347413  0.250252  1
  Ir  Ir26  1  0.347926  0.652074  0.750000  1
  Ru  Ru27  1  0.848172  0.151828  0.250000  1
  Ru  Ru28  1  0.500243  0.000212  0.123188  1
  Ru  Ru29  1  0.499894  0.000086  0.623258  1
  Ru  Ru30  1  0.999914  0.500106  0.876742  1
  Ru  Ru31  1  0.999788  0.499757  0.376812  1
