# generated using pymatgen
data_Dy5TmNi12(B2Ru)2
_symmetry_space_group_name_H-M   'P 1'
_cell_length_a   5.02281600
_cell_length_b   5.16831695
_cell_length_c   14.40694114
_cell_angle_alpha   89.84121536
_cell_angle_beta   90.00000000
_cell_angle_gamma   119.07302503
_symmetry_Int_Tables_number   1
_chemical_formula_structural   Dy5TmNi12(B2Ru)2
_chemical_formula_sum   'Dy5 Tm1 Ni12 B4 Ru2'
_cell_volume   326.87219758
_cell_formula_units_Z   1
loop_
 _symmetry_equiv_pos_site_id
 _symmetry_equiv_pos_as_xyz
  1  'x, y, z'
loop_
 _atom_site_type_symbol
 _atom_site_label
 _atom_site_symmetry_multiplicity
 _atom_site_fract_x
 _atom_site_fract_y
 _atom_site_fract_z
 _atom_site_occupancy
  Dy  Dy0  1  0.332197  0.664396  0.533651  1
  Dy  Dy1  1  0.667403  0.334804  0.034257  1
  Dy  Dy2  1  0.662334  0.324665  0.466390  1
  Dy  Dy3  1  0.337591  0.675184  0.967371  1
  Dy  Dy4  1  0.332126  0.664253  0.750779  1
  Tm  Tm5  1  0.667846  0.335693  0.250529  1
  Ni  Ni6  1  0.996034  0.992066  0.998051  1
  Ni  Ni7  1  0.003554  0.007109  0.497808  1
  Ni  Ni8  1  0.667725  0.833372  0.149547  1
  Ni  Ni9  1  0.165647  0.833372  0.149547  1
  Ni  Ni10  1  0.834230  0.166913  0.648547  1
  Ni  Ni11  1  0.332683  0.166913  0.648547  1
  Ni  Ni12  1  0.833431  0.666861  0.850071  1
  Ni  Ni13  1  0.832543  0.163215  0.851527  1
  Ni  Ni14  1  0.330672  0.163215  0.851527  1
  Ni  Ni15  1  0.669092  0.836753  0.351114  1
  Ni  Ni16  1  0.167661  0.836753  0.351114  1
  Ni  Ni17  1  0.166662  0.333325  0.349683  1
  B  B18  1  0.335733  0.671467  0.251397  1
  B  B19  1  0.663812  0.327622  0.751256  1
  B  B20  1  0.000438  0.000875  0.251284  1
  B  B21  1  0.000030  0.000060  0.750881  1
  Ru  Ru22  1  0.164803  0.329605  0.147807  1
  Ru  Ru23  1  0.835753  0.671507  0.647316  1
