# generated using pymatgen
data_Y2Ho5Er3(In2Pd)4
_symmetry_space_group_name_H-M   'P 1'
_cell_length_a   3.61448400
_cell_length_b   8.14104100
_cell_length_c   18.21582301
_cell_angle_alpha   89.99727973
_cell_angle_beta   90.00000000
_cell_angle_gamma   90.00000000
_symmetry_Int_Tables_number   1
_chemical_formula_structural   Y2Ho5Er3(In2Pd)4
_chemical_formula_sum   'Y2 Ho5 Er3 In8 Pd4'
_cell_volume   536.01265832
_cell_formula_units_Z   1
loop_
 _symmetry_equiv_pos_site_id
 _symmetry_equiv_pos_as_xyz
  1  'x, y, z'
loop_
 _atom_site_type_symbol
 _atom_site_label
 _atom_site_symmetry_multiplicity
 _atom_site_fract_x
 _atom_site_fract_y
 _atom_site_fract_z
 _atom_site_occupancy
  Y  Y0  1  0.000000  0.499994  0.500002  1
  Y  Y1  1  0.000000  0.000038  0.999998  1
  Ho  Ho2  1  0.000000  0.739108  0.281125  1
  Ho  Ho3  1  0.000000  0.260914  0.718904  1
  Ho  Ho4  1  0.000000  0.760914  0.781111  1
  Ho  Ho5  1  0.000000  0.239037  0.218916  1
  Ho  Ho6  1  0.000000  0.617118  0.083696  1
  Er  Er7  1  0.000000  0.383036  0.916158  1
  Er  Er8  1  0.000000  0.882994  0.583841  1
  Er  Er9  1  0.000000  0.116987  0.416126  1
  In  In10  1  0.500000  0.707346  0.932594  1
  In  In11  1  0.500000  0.292460  0.067327  1
  In  In12  1  0.500000  0.792692  0.432675  1
  In  In13  1  0.500000  0.207306  0.567321  1
  In  In14  1  0.500000  0.581915  0.650484  1
  In  In15  1  0.500000  0.418072  0.349524  1
  In  In16  1  0.500000  0.918305  0.150537  1
  In  In17  1  0.500000  0.081903  0.849510  1
  Pd  Pd18  1  0.500000  0.523355  0.196056  1
  Pd  Pd19  1  0.500000  0.476496  0.804098  1
  Pd  Pd20  1  0.500000  0.976513  0.695886  1
  Pd  Pd21  1  0.500000  0.023499  0.304113  1
