# generated using pymatgen
data_Be24CrFe4
_symmetry_space_group_name_H-M   'P 1'
_cell_length_a   6.76440753
_cell_length_b   6.76243244
_cell_length_c   6.76618203
_cell_angle_alpha   109.47053413
_cell_angle_beta   109.48223492
_cell_angle_gamma   109.45948989
_symmetry_Int_Tables_number   1
_chemical_formula_structural   Be24CrFe4
_chemical_formula_sum   'Be24 Cr1 Fe4'
_cell_volume   238.26595789
_cell_formula_units_Z   1
loop_
 _symmetry_equiv_pos_site_id
 _symmetry_equiv_pos_as_xyz
  1  'x, y, z'
loop_
 _atom_site_type_symbol
 _atom_site_label
 _atom_site_symmetry_multiplicity
 _atom_site_fract_x
 _atom_site_fract_y
 _atom_site_fract_z
 _atom_site_occupancy
  Be  Be0  1  0.372940  0.188429  0.000074  1
  Be  Be1  1  0.188265  0.372889  0.000079  1
  Be  Be2  1  0.686277  0.392893  0.000019  1
  Be  Be3  1  0.392744  0.686179  0.000017  1
  Be  Be4  1  0.811642  0.811519  0.184305  1
  Be  Be5  1  0.372605  0.999879  0.188198  1
  Be  Be6  1  0.000005  0.372744  0.188164  1
  Be  Be7  1  0.607278  0.607278  0.293552  1
  Be  Be8  1  0.706601  0.313841  0.313825  1
  Be  Be9  1  0.313727  0.706587  0.313714  1
  Be  Be10  1  0.188358  0.999879  0.372679  1
  Be  Be11  1  0.000003  0.188479  0.372865  1
  Be  Be12  1  0.686206  0.000027  0.392658  1
  Be  Be13  1  0.000024  0.686226  0.392620  1
  Be  Be14  1  0.607277  0.293436  0.607258  1
  Be  Be15  1  0.293372  0.607234  0.607222  1
  Be  Be16  1  0.815566  0.627099  0.627298  1
  Be  Be17  1  0.627041  0.815492  0.627111  1
  Be  Be18  1  0.392738  0.000030  0.686289  1
  Be  Be19  1  0.000027  0.392833  0.686400  1
  Be  Be20  1  0.313790  0.313789  0.706427  1
  Be  Be21  1  0.811736  0.184595  0.811802  1
  Be  Be22  1  0.184417  0.811560  0.811760  1
  Be  Be23  1  0.627375  0.627246  0.815608  1
  Cr  Cr24  1  0.999947  0.000131  0.999933  1
  Fe  Fe25  1  0.632228  0.999957  0.000043  1
  Fe  Fe26  1  0.000022  0.632071  0.000049  1
  Fe  Fe27  1  0.367771  0.367715  0.367801  1
  Fe  Fe28  1  0.000019  0.999962  0.632228  1
