# generated using pymatgen
data_GdHf4Bi3F28
_symmetry_space_group_name_H-M   'P 1'
_cell_length_a   5.83128128
_cell_length_b   9.30579747
_cell_length_c   12.42010400
_cell_angle_alpha   61.89909385
_cell_angle_beta   89.96205357
_cell_angle_gamma   90.01406875
_symmetry_Int_Tables_number   1
_chemical_formula_structural   GdHf4Bi3F28
_chemical_formula_sum   'Gd1 Hf4 Bi3 F28'
_cell_volume   594.52485993
_cell_formula_units_Z   1
loop_
 _symmetry_equiv_pos_site_id
 _symmetry_equiv_pos_as_xyz
  1  'x, y, z'
loop_
 _atom_site_type_symbol
 _atom_site_label
 _atom_site_symmetry_multiplicity
 _atom_site_fract_x
 _atom_site_fract_y
 _atom_site_fract_z
 _atom_site_occupancy
  Gd  Gd0  1  0.756503  0.812105  0.765404  1
  Hf  Hf1  1  0.744059  0.272766  0.456161  1
  Hf  Hf2  1  0.244136  0.725259  0.043101  1
  Hf  Hf3  1  0.256022  0.725797  0.546011  1
  Hf  Hf4  1  0.756119  0.276183  0.954914  1
  Bi  Bi5  1  0.741766  0.815347  0.264205  1
  Bi  Bi6  1  0.242444  0.183496  0.236276  1
  Bi  Bi7  1  0.258419  0.180710  0.736013  1
  F  F8  1  0.461523  0.713540  0.921898  1
  F  F9  1  0.957023  0.288096  0.576348  1
  F  F10  1  0.543399  0.289027  0.076490  1
  F  F11  1  0.042862  0.712453  0.425068  1
  F  F12  1  0.459235  0.280546  0.546029  1
  F  F13  1  0.962827  0.719679  0.949507  1
  F  F14  1  0.539288  0.720273  0.454131  1
  F  F15  1  0.039401  0.282712  0.045862  1
  F  F16  1  0.765443  0.520583  0.859491  1
  F  F17  1  0.267821  0.484718  0.640535  1
  F  F18  1  0.232152  0.483790  0.138818  1
  F  F19  1  0.732123  0.515376  0.360542  1
  F  F20  1  0.759960  0.031057  0.056618  1
  F  F21  1  0.259952  0.971344  0.443646  1
  F  F22  1  0.239569  0.970821  0.943273  1
  F  F23  1  0.740378  0.028539  0.558623  1
  F  F24  1  0.991527  0.736000  0.646753  1
  F  F25  1  0.489833  0.265890  0.856694  1
  F  F26  1  0.010922  0.265097  0.356415  1
  F  F27  1  0.510686  0.734746  0.141922  1
  F  F28  1  0.040583  0.746712  0.166535  1
  F  F29  1  0.541661  0.252383  0.331461  1
  F  F30  1  0.958575  0.254450  0.831519  1
  F  F31  1  0.463951  0.747671  0.668911  1
  F  F32  1  0.417220  0.969547  0.231867  1
  F  F33  1  0.917235  0.028994  0.268248  1
  F  F34  1  0.577872  0.024743  0.767384  1
  F  F35  1  0.077511  0.969552  0.733327  1
