# generated using pymatgen
data_Tm10CuGePb6
_symmetry_space_group_name_H-M   'P 1'
_cell_length_a   9.07707800
_cell_length_b   9.07707701
_cell_length_c   6.67356700
_cell_angle_alpha   90.00000000
_cell_angle_beta   90.00000000
_cell_angle_gamma   120.00000360
_symmetry_Int_Tables_number   1
_chemical_formula_structural   Tm10CuGePb6
_chemical_formula_sum   'Tm10 Cu1 Ge1 Pb6'
_cell_volume   476.19050161
_cell_formula_units_Z   1
loop_
 _symmetry_equiv_pos_site_id
 _symmetry_equiv_pos_as_xyz
  1  'x, y, z'
loop_
 _atom_site_type_symbol
 _atom_site_label
 _atom_site_symmetry_multiplicity
 _atom_site_fract_x
 _atom_site_fract_y
 _atom_site_fract_z
 _atom_site_occupancy
  Tm  Tm0  1  0.249820  0.000000  0.742262  1
  Tm  Tm1  1  0.750180  0.000000  0.257738  1
  Tm  Tm2  1  0.000000  0.249820  0.742262  1
  Tm  Tm3  1  0.000000  0.750180  0.257738  1
  Tm  Tm4  1  0.750180  0.750180  0.742262  1
  Tm  Tm5  1  0.249820  0.249820  0.257738  1
  Tm  Tm6  1  0.333333  0.666667  0.500000  1
  Tm  Tm7  1  0.666667  0.333333  0.500000  1
  Tm  Tm8  1  0.666667  0.333333  0.000000  1
  Tm  Tm9  1  0.333333  0.666667  0.000000  1
  Cu  Cu10  1  0.000000  0.000000  0.000000  1
  Ge  Ge11  1  0.000000  0.000000  0.500000  1
  Pb  Pb12  1  0.606073  0.000000  0.749314  1
  Pb  Pb13  1  0.393927  0.000000  0.250686  1
  Pb  Pb14  1  0.000000  0.606073  0.749314  1
  Pb  Pb15  1  0.000000  0.393927  0.250686  1
  Pb  Pb16  1  0.393927  0.393927  0.749314  1
  Pb  Pb17  1  0.606073  0.606073  0.250686  1
