# generated using pymatgen
data_YbPr4InGa2
_symmetry_space_group_name_H-M   'P 1'
_cell_length_a   8.01604600
_cell_length_b   8.01604600
_cell_length_c   14.94591000
_cell_angle_alpha   90.00000000
_cell_angle_beta   90.00000000
_cell_angle_gamma   90.00000000
_symmetry_Int_Tables_number   1
_chemical_formula_structural   YbPr4InGa2
_chemical_formula_sum   'Yb4 Pr16 In4 Ga8'
_cell_volume   960.37924133
_cell_formula_units_Z   4
loop_
 _symmetry_equiv_pos_site_id
 _symmetry_equiv_pos_as_xyz
  1  'x, y, z'
loop_
 _atom_site_type_symbol
 _atom_site_label
 _atom_site_symmetry_multiplicity
 _atom_site_fract_x
 _atom_site_fract_y
 _atom_site_fract_z
 _atom_site_occupancy
  Yb  Yb0  1  0.000000  0.500000  0.743856  1
  Yb  Yb1  1  0.000000  0.500000  0.243856  1
  Yb  Yb2  1  0.500000  0.000000  0.256144  1
  Yb  Yb3  1  0.500000  0.000000  0.756144  1
  Pr  Pr4  1  0.825795  0.831410  0.606333  1
  Pr  Pr5  1  0.174205  0.831410  0.106333  1
  Pr  Pr6  1  0.168590  0.825795  0.393667  1
  Pr  Pr7  1  0.831410  0.174205  0.393667  1
  Pr  Pr8  1  0.674205  0.668590  0.393667  1
  Pr  Pr9  1  0.668590  0.325795  0.606333  1
  Pr  Pr10  1  0.331410  0.674205  0.606333  1
  Pr  Pr11  1  0.668590  0.674205  0.106333  1
  Pr  Pr12  1  0.674205  0.331410  0.893667  1
  Pr  Pr13  1  0.831410  0.825795  0.893667  1
  Pr  Pr14  1  0.325795  0.331410  0.393667  1
  Pr  Pr15  1  0.174205  0.168590  0.606333  1
  Pr  Pr16  1  0.825795  0.168590  0.106333  1
  Pr  Pr17  1  0.325795  0.668590  0.893667  1
  Pr  Pr18  1  0.331410  0.325795  0.106333  1
  Pr  Pr19  1  0.168590  0.174205  0.893667  1
  In  In20  1  0.000000  0.500000  0.503100  1
  In  In21  1  0.500000  0.000000  0.496900  1
  In  In22  1  0.500000  0.000000  0.996900  1
  In  In23  1  0.000000  0.500000  0.003100  1
  Ga  Ga24  1  0.617576  0.382424  0.250000  1
  Ga  Ga25  1  0.117576  0.882424  0.750000  1
  Ga  Ga26  1  0.382424  0.382424  0.750000  1
  Ga  Ga27  1  0.382424  0.617576  0.250000  1
  Ga  Ga28  1  0.882424  0.882424  0.250000  1
  Ga  Ga29  1  0.617576  0.617576  0.750000  1
  Ga  Ga30  1  0.882424  0.117576  0.750000  1
  Ga  Ga31  1  0.117576  0.117576  0.250000  1
