# generated using pymatgen
data_BaNaCo3TcP4
_symmetry_space_group_name_H-M   'P 1'
_cell_length_a   6.76427641
_cell_length_b   6.77051995
_cell_length_c   5.40457500
_cell_angle_alpha   90.00000000
_cell_angle_beta   90.00000000
_cell_angle_gamma   132.90484331
_symmetry_Int_Tables_number   1
_chemical_formula_structural   BaNaCo3TcP4
_chemical_formula_sum   'Ba1 Na1 Co3 Tc1 P4'
_cell_volume   181.30252869
_cell_formula_units_Z   1
loop_
 _symmetry_equiv_pos_site_id
 _symmetry_equiv_pos_as_xyz
  1  'x, y, z'
loop_
 _atom_site_type_symbol
 _atom_site_label
 _atom_site_symmetry_multiplicity
 _atom_site_fract_x
 _atom_site_fract_y
 _atom_site_fract_z
 _atom_site_occupancy
  Ba  Ba0  1  0.500000  0.500000  0.501574  1
  Na  Na1  1  0.000000  0.000000  0.998853  1
  Co  Co2  1  0.500000  0.000000  0.750569  1
  Co  Co3  1  0.000000  0.500000  0.750488  1
  Co  Co4  1  0.500000  0.000000  0.249851  1
  Tc  Tc5  1  0.000000  0.500000  0.248263  1
  P  P6  1  0.353043  0.661538  0.994109  1
  P  P7  1  0.840723  0.149995  0.506092  1
  P  P8  1  0.159277  0.850005  0.506092  1
  P  P9  1  0.646957  0.338462  0.994109  1
