# generated using pymatgen
data_Zr10AlCuBiPb5
_symmetry_space_group_name_H-M   'P 1'
_cell_length_a   8.83783159
_cell_length_b   8.83783214
_cell_length_c   5.94020148
_cell_angle_alpha   89.97684597
_cell_angle_beta   89.97684375
_cell_angle_gamma   119.96515798
_symmetry_Int_Tables_number   1
_chemical_formula_structural   Zr10AlCuBiPb5
_chemical_formula_sum   'Zr10 Al1 Cu1 Bi1 Pb5'
_cell_volume   401.95321424
_cell_formula_units_Z   1
loop_
 _symmetry_equiv_pos_site_id
 _symmetry_equiv_pos_as_xyz
  1  'x, y, z'
loop_
 _atom_site_type_symbol
 _atom_site_label
 _atom_site_symmetry_multiplicity
 _atom_site_fract_x
 _atom_site_fract_y
 _atom_site_fract_z
 _atom_site_occupancy
  Zr  Zr0  1  0.736378  0.000179  0.247482  1
  Zr  Zr1  1  0.000179  0.736378  0.247482  1
  Zr  Zr2  1  0.263792  0.263792  0.247872  1
  Zr  Zr3  1  0.262865  0.998763  0.752370  1
  Zr  Zr4  1  0.998763  0.262865  0.752370  1
  Zr  Zr5  1  0.736631  0.736631  0.752867  1
  Zr  Zr6  1  0.333341  0.666983  0.499445  1
  Zr  Zr7  1  0.666983  0.333341  0.499445  1
  Zr  Zr8  1  0.667231  0.333378  0.000638  1
  Zr  Zr9  1  0.333378  0.667231  0.000638  1
  Al  Al10  1  0.999392  0.999392  0.499363  1
  Cu  Cu11  1  0.999401  0.999401  0.000734  1
  Bi  Bi12  1  0.386217  0.386217  0.748852  1
  Pb  Pb13  1  0.385848  0.999956  0.250533  1
  Pb  Pb14  1  0.999956  0.385848  0.250533  1
  Pb  Pb15  1  0.615344  0.615344  0.250836  1
  Pb  Pb16  1  0.614316  0.999986  0.749271  1
  Pb  Pb17  1  0.999986  0.614316  0.749271  1
