# generated using pymatgen
data_Y3Tm2P12Ru19
_symmetry_space_group_name_H-M   'P 1'
_cell_length_a   12.52239100
_cell_length_b   12.52239199
_cell_length_c   3.97660300
_cell_angle_alpha   90.00000000
_cell_angle_beta   90.00000000
_cell_angle_gamma   120.00000531
_symmetry_Int_Tables_number   1
_chemical_formula_structural   Y3Tm2P12Ru19
_chemical_formula_sum   'Y3 Tm2 P12 Ru19'
_cell_volume   540.02939346
_cell_formula_units_Z   1
loop_
 _symmetry_equiv_pos_site_id
 _symmetry_equiv_pos_as_xyz
  1  'x, y, z'
loop_
 _atom_site_type_symbol
 _atom_site_label
 _atom_site_symmetry_multiplicity
 _atom_site_fract_x
 _atom_site_fract_y
 _atom_site_fract_z
 _atom_site_occupancy
  Y  Y0  1  0.183481  0.183481  0.500000  1
  Y  Y1  1  0.816519  0.000000  0.500000  1
  Y  Y2  1  0.000000  0.816519  0.500000  1
  Tm  Tm3  1  0.333333  0.666667  0.000000  1
  Tm  Tm4  1  0.666667  0.333333  0.000000  1
  P  P5  1  0.815022  0.815022  0.000000  1
  P  P6  1  0.184978  0.000000  0.000000  1
  P  P7  1  0.000000  0.184978  0.000000  1
  P  P8  1  0.172264  0.478611  0.500000  1
  P  P9  1  0.521389  0.693653  0.500000  1
  P  P10  1  0.306347  0.827736  0.500000  1
  P  P11  1  0.693653  0.521389  0.500000  1
  P  P12  1  0.827736  0.306347  0.500000  1
  P  P13  1  0.478611  0.172264  0.500000  1
  P  P14  1  0.372564  0.372564  0.000000  1
  P  P15  1  0.627436  0.000000  0.000000  1
  P  P16  1  0.000000  0.627436  0.000000  1
  Ru  Ru17  1  0.554227  0.554227  0.000000  1
  Ru  Ru18  1  0.445773  0.000000  0.000000  1
  Ru  Ru19  1  0.000000  0.445773  0.000000  1
  Ru  Ru20  1  0.716142  0.716142  0.500000  1
  Ru  Ru21  1  0.283858  0.000000  0.500000  1
  Ru  Ru22  1  0.000000  0.283858  0.500000  1
  Ru  Ru23  1  0.185169  0.378404  0.000000  1
  Ru  Ru24  1  0.621596  0.806766  0.000000  1
  Ru  Ru25  1  0.193234  0.814831  0.000000  1
  Ru  Ru26  1  0.806766  0.621596  0.000000  1
  Ru  Ru27  1  0.814831  0.193234  0.000000  1
  Ru  Ru28  1  0.378404  0.185169  0.000000  1
  Ru  Ru29  1  0.366167  0.492678  0.500000  1
  Ru  Ru30  1  0.507322  0.873487  0.500000  1
  Ru  Ru31  1  0.126513  0.633833  0.500000  1
  Ru  Ru32  1  0.873487  0.507322  0.500000  1
  Ru  Ru33  1  0.633833  0.126513  0.500000  1
  Ru  Ru34  1  0.492678  0.366167  0.500000  1
  Ru  Ru35  1  0.000000  0.000000  0.000000  1
