# generated using pymatgen
data_TbAg4HgO8
_symmetry_space_group_name_H-M   'P 1'
_cell_length_a   6.65719358
_cell_length_b   6.65719322
_cell_length_c   6.65719248
_cell_angle_alpha   126.07298017
_cell_angle_beta   126.07298400
_cell_angle_gamma   79.76822463
_symmetry_Int_Tables_number   1
_chemical_formula_structural   TbAg4HgO8
_chemical_formula_sum   'Tb1 Ag4 Hg1 O8'
_cell_volume   186.17868257
_cell_formula_units_Z   1
loop_
 _symmetry_equiv_pos_site_id
 _symmetry_equiv_pos_as_xyz
  1  'x, y, z'
loop_
 _atom_site_type_symbol
 _atom_site_label
 _atom_site_symmetry_multiplicity
 _atom_site_fract_x
 _atom_site_fract_y
 _atom_site_fract_z
 _atom_site_occupancy
  Tb  Tb0  1  0.750000  0.250000  0.500000  1
  Ag  Ag1  1  0.370706  0.126563  0.745441  1
  Ag  Ag2  1  0.381122  0.625265  0.254559  1
  Ag  Ag3  1  0.873437  0.618878  0.244144  1
  Ag  Ag4  1  0.374735  0.629294  0.755856  1
  Hg  Hg5  1  0.000000  0.000000  0.000000  1
  O  O6  1  0.034842  0.999167  0.636421  1
  O  O7  1  0.601579  0.965158  0.964325  1
  O  O8  1  0.000833  0.637254  0.035675  1
  O  O9  1  0.411562  0.864106  0.163940  1
  O  O10  1  0.752378  0.588438  0.452544  1
  O  O11  1  0.135894  0.299834  0.547456  1
  O  O12  1  0.362746  0.398421  0.363579  1
  O  O13  1  0.700166  0.247622  0.836060  1
