# generated using pymatgen
data_DyBeRe2C
_symmetry_space_group_name_H-M   'P 1'
_cell_length_a   5.64317828
_cell_length_b   5.64317710
_cell_length_c   7.29369500
_cell_angle_alpha   90.00000000
_cell_angle_beta   90.00000000
_cell_angle_gamma   140.82656308
_symmetry_Int_Tables_number   1
_chemical_formula_structural   DyBeRe2C
_chemical_formula_sum   'Dy2 Be2 Re4 C2'
_cell_volume   146.71863346
_cell_formula_units_Z   2
loop_
 _symmetry_equiv_pos_site_id
 _symmetry_equiv_pos_as_xyz
  1  'x, y, z'
loop_
 _atom_site_type_symbol
 _atom_site_label
 _atom_site_symmetry_multiplicity
 _atom_site_fract_x
 _atom_site_fract_y
 _atom_site_fract_z
 _atom_site_occupancy
  Dy  Dy0  1  0.535179  0.464821  0.250000  1
  Dy  Dy1  1  0.464821  0.535179  0.750000  1
  Be  Be2  1  0.257755  0.742245  0.250000  1
  Be  Be3  1  0.742245  0.257755  0.750000  1
  Re  Re4  1  0.820237  0.179763  0.062727  1
  Re  Re5  1  0.179763  0.820237  0.937273  1
  Re  Re6  1  0.179763  0.820237  0.562727  1
  Re  Re7  1  0.820237  0.179763  0.437273  1
  C  C8  1  0.000000  0.000000  0.000000  1
  C  C9  1  0.000000  0.000000  0.500000  1
