# generated using pymatgen
data_NdCo2SiP
_symmetry_space_group_name_H-M   'P 1'
_cell_length_a   5.60013838
_cell_length_b   5.60013849
_cell_length_c   5.60013865
_cell_angle_alpha   138.66791740
_cell_angle_beta   138.66791173
_cell_angle_gamma   59.88157777
_symmetry_Int_Tables_number   1
_chemical_formula_structural   NdCo2SiP
_chemical_formula_sum   'Nd1 Co2 Si1 P1'
_cell_volume   75.82269320
_cell_formula_units_Z   1
loop_
 _symmetry_equiv_pos_site_id
 _symmetry_equiv_pos_as_xyz
  1  'x, y, z'
loop_
 _atom_site_type_symbol
 _atom_site_label
 _atom_site_symmetry_multiplicity
 _atom_site_fract_x
 _atom_site_fract_y
 _atom_site_fract_z
 _atom_site_occupancy
  Nd  Nd0  1  0.997266  0.997266  0.000000  1
  Co  Co1  1  0.752119  0.252119  0.500000  1
  Co  Co2  1  0.252119  0.752119  0.500000  1
  Si  Si3  1  0.632201  0.632201  0.000000  1
  P  P4  1  0.366295  0.366295  0.000000  1
