# generated using pymatgen
data_Sc4TiRe5Si8
_symmetry_space_group_name_H-M   'P 1'
_cell_length_a   6.60925420
_cell_length_b   6.60925420
_cell_length_c   12.68292500
_cell_angle_alpha   90.00000000
_cell_angle_beta   90.00000000
_cell_angle_gamma   91.30136976
_symmetry_Int_Tables_number   1
_chemical_formula_structural   Sc4TiRe5Si8
_chemical_formula_sum   'Sc8 Ti2 Re10 Si16'
_cell_volume   553.87568767
_cell_formula_units_Z   2
loop_
 _symmetry_equiv_pos_site_id
 _symmetry_equiv_pos_as_xyz
  1  'x, y, z'
loop_
 _atom_site_type_symbol
 _atom_site_label
 _atom_site_symmetry_multiplicity
 _atom_site_fract_x
 _atom_site_fract_y
 _atom_site_fract_z
 _atom_site_occupancy
  Sc  Sc0  1  0.320190  0.985434  0.465072  1
  Sc  Sc1  1  0.679812  0.014565  0.965072  1
  Sc  Sc2  1  0.840786  0.500094  0.276173  1
  Sc  Sc3  1  0.159214  0.499905  0.776173  1
  Sc  Sc4  1  0.014565  0.679812  0.034928  1
  Sc  Sc5  1  0.985434  0.320190  0.534928  1
  Sc  Sc6  1  0.499905  0.159214  0.223826  1
  Sc  Sc7  1  0.500094  0.840786  0.723826  1
  Ti  Ti8  1  0.347032  0.347032  0.000000  1
  Ti  Ti9  1  0.652968  0.652968  0.500000  1
  Re  Re10  1  0.831851  0.168149  0.749999  1
  Re  Re11  1  0.168149  0.831851  0.250000  1
  Re  Re12  1  0.191203  0.028823  0.883304  1
  Re  Re13  1  0.808797  0.971177  0.383303  1
  Re  Re14  1  0.683643  0.526883  0.887434  1
  Re  Re15  1  0.316358  0.473117  0.387434  1
  Re  Re16  1  0.971177  0.808797  0.616697  1
  Re  Re17  1  0.028823  0.191203  0.116697  1
  Re  Re18  1  0.473117  0.316358  0.612566  1
  Re  Re19  1  0.526883  0.683643  0.112566  1
  Si  Si20  1  0.313386  0.972076  0.066938  1
  Si  Si21  1  0.686614  0.027926  0.566938  1
  Si  Si22  1  0.761349  0.520501  0.693970  1
  Si  Si23  1  0.238651  0.479501  0.193971  1
  Si  Si24  1  0.027926  0.686614  0.433061  1
  Si  Si25  1  0.972076  0.313386  0.933061  1
  Si  Si26  1  0.479501  0.238651  0.806029  1
  Si  Si27  1  0.520501  0.761349  0.306029  1
  Si  Si28  1  0.184946  0.104472  0.686413  1
  Si  Si29  1  0.815054  0.895529  0.186413  1
  Si  Si30  1  0.715499  0.374693  0.073426  1
  Si  Si31  1  0.284501  0.625309  0.573426  1
  Si  Si32  1  0.895529  0.815054  0.813588  1
  Si  Si33  1  0.104472  0.184946  0.313588  1
  Si  Si34  1  0.625309  0.284501  0.426573  1
  Si  Si35  1  0.374693  0.715499  0.926573  1
