# generated using pymatgen
data_NaCa5(TbSn2)4
_symmetry_space_group_name_H-M   'P 1'
_cell_length_a   7.89985900
_cell_length_b   8.46846700
_cell_length_c   16.15179700
_cell_angle_alpha   90.00000000
_cell_angle_beta   90.00000000
_cell_angle_gamma   90.00000000
_symmetry_Int_Tables_number   1
_chemical_formula_structural   NaCa5(TbSn2)4
_chemical_formula_sum   'Na2 Ca10 Tb8 Sn16'
_cell_volume   1080.55029698
_cell_formula_units_Z   2
loop_
 _symmetry_equiv_pos_site_id
 _symmetry_equiv_pos_as_xyz
  1  'x, y, z'
loop_
 _atom_site_type_symbol
 _atom_site_label
 _atom_site_symmetry_multiplicity
 _atom_site_fract_x
 _atom_site_fract_y
 _atom_site_fract_z
 _atom_site_occupancy
  Na  Na0  1  0.165382  0.490095  0.250000  1
  Na  Na1  1  0.665382  0.009905  0.250000  1
  Ca  Ca2  1  0.502706  0.683689  0.592925  1
  Ca  Ca3  1  0.002706  0.816311  0.907075  1
  Ca  Ca4  1  0.496808  0.315124  0.096460  1
  Ca  Ca5  1  0.996808  0.184876  0.403540  1
  Ca  Ca6  1  0.496808  0.315124  0.403540  1
  Ca  Ca7  1  0.996808  0.184876  0.096460  1
  Ca  Ca8  1  0.502706  0.683689  0.907075  1
  Ca  Ca9  1  0.002706  0.816311  0.592925  1
  Ca  Ca10  1  0.833959  0.509634  0.750000  1
  Ca  Ca11  1  0.333959  0.990366  0.750000  1
  Tb  Tb12  1  0.671433  0.167125  0.622270  1
  Tb  Tb13  1  0.171433  0.332875  0.877730  1
  Tb  Tb14  1  0.328785  0.834388  0.124360  1
  Tb  Tb15  1  0.828785  0.665612  0.375640  1
  Tb  Tb16  1  0.328785  0.834388  0.375640  1
  Tb  Tb17  1  0.828785  0.665612  0.124360  1
  Tb  Tb18  1  0.671433  0.167125  0.877730  1
  Tb  Tb19  1  0.171433  0.332875  0.622270  1
  Sn  Sn20  1  0.669433  0.960798  0.461429  1
  Sn  Sn21  1  0.169433  0.539202  0.038571  1
  Sn  Sn22  1  0.331440  0.037273  0.960932  1
  Sn  Sn23  1  0.831440  0.462727  0.539068  1
  Sn  Sn24  1  0.331440  0.037273  0.539068  1
  Sn  Sn25  1  0.831440  0.462727  0.960932  1
  Sn  Sn26  1  0.669433  0.960798  0.038571  1
  Sn  Sn27  1  0.169433  0.539202  0.461429  1
  Sn  Sn28  1  0.467705  0.374746  0.750000  1
  Sn  Sn29  1  0.967705  0.125254  0.750000  1
  Sn  Sn30  1  0.529257  0.619185  0.250000  1
  Sn  Sn31  1  0.029257  0.880815  0.250000  1
  Sn  Sn32  1  0.715303  0.872057  0.750000  1
  Sn  Sn33  1  0.215303  0.627943  0.750000  1
  Sn  Sn34  1  0.287184  0.127817  0.250000  1
  Sn  Sn35  1  0.787184  0.372183  0.250000  1
