# generated using pymatgen
data_Tb8NdHo11Pt16
_symmetry_space_group_name_H-M   'P 1'
_cell_length_a   7.48589310
_cell_length_b   7.56365330
_cell_length_c   14.75890500
_cell_angle_alpha   89.98775856
_cell_angle_beta   90.00932237
_cell_angle_gamma   90.01066022
_symmetry_Int_Tables_number   1
_chemical_formula_structural   Tb8NdHo11Pt16
_chemical_formula_sum   'Tb8 Nd1 Ho11 Pt16'
_cell_volume   835.65948875
_cell_formula_units_Z   1
loop_
 _symmetry_equiv_pos_site_id
 _symmetry_equiv_pos_as_xyz
  1  'x, y, z'
loop_
 _atom_site_type_symbol
 _atom_site_label
 _atom_site_symmetry_multiplicity
 _atom_site_fract_x
 _atom_site_fract_y
 _atom_site_fract_z
 _atom_site_occupancy
  Tb  Tb0  1  0.656037  0.831982  0.877652  1
  Tb  Tb1  1  0.997864  0.820495  0.406806  1
  Tb  Tb2  1  0.497706  0.678741  0.093756  1
  Tb  Tb3  1  0.502080  0.320543  0.592987  1
  Tb  Tb4  1  0.002543  0.180730  0.906425  1
  Tb  Tb5  1  0.002018  0.179395  0.593159  1
  Tb  Tb6  1  0.501843  0.320593  0.906781  1
  Tb  Tb7  1  0.497854  0.679517  0.406802  1
  Nd  Nd8  1  0.999655  0.821384  0.092895  1
  Ho  Ho9  1  0.680210  0.988963  0.250660  1
  Ho  Ho10  1  0.181272  0.510814  0.250467  1
  Ho  Ho11  1  0.819347  0.488493  0.749583  1
  Ho  Ho12  1  0.318858  0.011633  0.749655  1
  Ho  Ho13  1  0.656378  0.832296  0.622168  1
  Ho  Ho14  1  0.157272  0.667237  0.877041  1
  Ho  Ho15  1  0.843516  0.332416  0.377814  1
  Ho  Ho16  1  0.344404  0.168696  0.122719  1
  Ho  Ho17  1  0.343621  0.167755  0.377832  1
  Ho  Ho18  1  0.843416  0.332357  0.122777  1
  Ho  Ho19  1  0.156390  0.667835  0.622100  1
  Pt  Pt20  1  0.815211  0.640716  0.251334  1
  Pt  Pt21  1  0.317454  0.858027  0.250618  1
  Pt  Pt22  1  0.683439  0.142650  0.749390  1
  Pt  Pt23  1  0.182999  0.357710  0.749937  1
  Pt  Pt24  1  0.546681  0.384965  0.250086  1
  Pt  Pt25  1  0.047270  0.115904  0.250747  1
  Pt  Pt26  1  0.953856  0.885744  0.749415  1
  Pt  Pt27  1  0.452546  0.613878  0.749466  1
  Pt  Pt28  1  0.817260  0.532625  0.542200  1
  Pt  Pt29  1  0.316682  0.968461  0.957431  1
  Pt  Pt30  1  0.682778  0.032545  0.457753  1
  Pt  Pt31  1  0.184027  0.464916  0.041709  1
  Pt  Pt32  1  0.182987  0.467299  0.457708  1
  Pt  Pt33  1  0.679679  0.035476  0.042529  1
  Pt  Pt34  1  0.317211  0.967377  0.542138  1
  Pt  Pt35  1  0.817635  0.529836  0.957463  1
