# generated using pymatgen
data_K2RbAg3As2
_symmetry_space_group_name_H-M   'P 1'
_cell_length_a   8.03503723
_cell_length_b   8.03503672
_cell_length_c   8.03503662
_cell_angle_alpha   45.02272401
_cell_angle_beta   45.02272587
_cell_angle_gamma   45.02272187
_symmetry_Int_Tables_number   1
_chemical_formula_structural   K2RbAg3As2
_chemical_formula_sum   'K2 Rb1 Ag3 As2'
_cell_volume   236.27949415
_cell_formula_units_Z   1
loop_
 _symmetry_equiv_pos_site_id
 _symmetry_equiv_pos_as_xyz
  1  'x, y, z'
loop_
 _atom_site_type_symbol
 _atom_site_label
 _atom_site_symmetry_multiplicity
 _atom_site_fract_x
 _atom_site_fract_y
 _atom_site_fract_z
 _atom_site_occupancy
  K  K0  1  0.090798  0.090798  0.090798  1
  K  K1  1  0.909202  0.909202  0.909202  1
  Rb  Rb2  1  0.500000  0.500000  0.500000  1
  Ag  Ag3  1  0.000000  0.500000  0.500000  1
  Ag  Ag4  1  0.500000  0.500000  0.000000  1
  Ag  Ag5  1  0.500000  0.000000  0.500000  1
  As  As6  1  0.753289  0.753289  0.753289  1
  As  As7  1  0.246711  0.246711  0.246711  1
