# generated using pymatgen
data_Eu(HfSe2)8
_symmetry_space_group_name_H-M   'P 1'
_cell_length_a   7.51034900
_cell_length_b   7.51034686
_cell_length_c   14.77253100
_cell_angle_alpha   90.00000000
_cell_angle_beta   90.00000000
_cell_angle_gamma   119.99998739
_symmetry_Int_Tables_number   1
_chemical_formula_structural   Eu(HfSe2)8
_chemical_formula_sum   'Eu1 Hf8 Se16'
_cell_volume   721.61526363
_cell_formula_units_Z   1
loop_
 _symmetry_equiv_pos_site_id
 _symmetry_equiv_pos_as_xyz
  1  'x, y, z'
loop_
 _atom_site_type_symbol
 _atom_site_label
 _atom_site_symmetry_multiplicity
 _atom_site_fract_x
 _atom_site_fract_y
 _atom_site_fract_z
 _atom_site_occupancy
  Eu  Eu0  1  0.000000  0.000000  0.000000  1
  Hf  Hf1  1  0.502396  0.497604  0.743798  1
  Hf  Hf2  1  0.497604  0.502396  0.256202  1
  Hf  Hf3  1  0.502396  0.004791  0.743798  1
  Hf  Hf4  1  0.497604  0.995209  0.256202  1
  Hf  Hf5  1  0.995209  0.497604  0.743798  1
  Hf  Hf6  1  0.004791  0.502396  0.256202  1
  Hf  Hf7  1  0.000000  0.000000  0.739324  1
  Hf  Hf8  1  0.000000  0.000000  0.260676  1
  Se  Se9  1  0.833385  0.666772  0.147020  1
  Se  Se10  1  0.832550  0.665101  0.636204  1
  Se  Se11  1  0.833385  0.166615  0.147020  1
  Se  Se12  1  0.832550  0.167450  0.636204  1
  Se  Se13  1  0.333333  0.666667  0.146527  1
  Se  Se14  1  0.333333  0.666667  0.640686  1
  Se  Se15  1  0.333228  0.166615  0.147020  1
  Se  Se16  1  0.334899  0.167450  0.636204  1
  Se  Se17  1  0.666772  0.833385  0.852980  1
  Se  Se18  1  0.665101  0.832550  0.363796  1
  Se  Se19  1  0.666667  0.333333  0.853473  1
  Se  Se20  1  0.666667  0.333333  0.359314  1
  Se  Se21  1  0.166615  0.833385  0.852980  1
  Se  Se22  1  0.167450  0.832550  0.363796  1
  Se  Se23  1  0.166615  0.333228  0.852980  1
  Se  Se24  1  0.167450  0.334899  0.363796  1
