# generated using pymatgen
data_Tb2Sm2SiI5
_symmetry_space_group_name_H-M   'P 1'
_cell_length_a   9.87405821
_cell_length_b   9.87405795
_cell_length_c   8.84283381
_cell_angle_alpha   102.52869666
_cell_angle_beta   102.52869523
_cell_angle_gamma   24.94537078
_symmetry_Int_Tables_number   1
_chemical_formula_structural   Tb2Sm2SiI5
_chemical_formula_sum   'Tb2 Sm2 Si1 I5'
_cell_volume   354.52749151
_cell_formula_units_Z   1
loop_
 _symmetry_equiv_pos_site_id
 _symmetry_equiv_pos_as_xyz
  1  'x, y, z'
loop_
 _atom_site_type_symbol
 _atom_site_label
 _atom_site_symmetry_multiplicity
 _atom_site_fract_x
 _atom_site_fract_y
 _atom_site_fract_z
 _atom_site_occupancy
  Tb  Tb0  1  0.999724  0.999724  0.788879  1
  Tb  Tb1  1  0.354694  0.354694  0.925706  1
  Sm  Sm2  1  0.645610  0.645610  0.073556  1
  Sm  Sm3  1  0.000116  0.000116  0.212322  1
  Si  Si4  1  0.498984  0.498984  0.996338  1
  I  I5  1  0.828585  0.828585  0.168125  1
  I  I6  1  0.167812  0.167812  0.340116  1
  I  I7  1  0.499888  0.499888  0.503776  1
  I  I8  1  0.833534  0.833534  0.665642  1
  I  I9  1  0.171053  0.171053  0.825541  1
