# generated using pymatgen
data_Er8Si12IrPtRh2
_symmetry_space_group_name_H-M   'P 1'
_cell_length_a   8.14419300
_cell_length_b   8.14419272
_cell_length_c   7.82555600
_cell_angle_alpha   90.00000000
_cell_angle_beta   90.00000000
_cell_angle_gamma   119.99999706
_symmetry_Int_Tables_number   1
_chemical_formula_structural   Er8Si12IrPtRh2
_chemical_formula_sum   'Er8 Si12 Ir1 Pt1 Rh2'
_cell_volume   449.51268037
_cell_formula_units_Z   1
loop_
 _symmetry_equiv_pos_site_id
 _symmetry_equiv_pos_as_xyz
  1  'x, y, z'
loop_
 _atom_site_type_symbol
 _atom_site_label
 _atom_site_symmetry_multiplicity
 _atom_site_fract_x
 _atom_site_fract_y
 _atom_site_fract_z
 _atom_site_occupancy
  Er  Er0  1  0.978875  0.489438  0.252108  1
  Er  Er1  1  0.510562  0.489438  0.252108  1
  Er  Er2  1  0.491416  0.982831  0.748213  1
  Er  Er3  1  0.017169  0.508584  0.748213  1
  Er  Er4  1  0.491416  0.508584  0.748213  1
  Er  Er5  1  0.510562  0.021125  0.252108  1
  Er  Er6  1  0.000000  0.000000  0.748316  1
  Er  Er7  1  0.000000  0.000000  0.250794  1
  Si  Si8  1  0.166834  0.833166  0.499505  1
  Si  Si9  1  0.166834  0.333667  0.499505  1
  Si  Si10  1  0.666333  0.833166  0.499505  1
  Si  Si11  1  0.334546  0.167273  0.999907  1
  Si  Si12  1  0.833335  0.666670  0.500292  1
  Si  Si13  1  0.832727  0.167273  0.999907  1
  Si  Si14  1  0.832727  0.665454  0.999907  1
  Si  Si15  1  0.164385  0.328770  0.999858  1
  Si  Si16  1  0.671230  0.835615  0.999858  1
  Si  Si17  1  0.333330  0.166665  0.500292  1
  Si  Si18  1  0.833335  0.166665  0.500292  1
  Si  Si19  1  0.164385  0.835615  0.999858  1
  Ir  Ir20  1  0.666667  0.333333  0.964673  1
  Pt  Pt21  1  0.333333  0.666667  0.034171  1
  Rh  Rh22  1  0.666667  0.333333  0.537134  1
  Rh  Rh23  1  0.333333  0.666667  0.465260  1
