# generated using pymatgen
data_Dy16Tm4(Bi3Sb)3
_symmetry_space_group_name_H-M   'P 1'
_cell_length_a   8.19655822
_cell_length_b   9.45699701
_cell_length_c   12.00902045
_cell_angle_alpha   89.99910246
_cell_angle_beta   90.04674573
_cell_angle_gamma   90.00533627
_symmetry_Int_Tables_number   1
_chemical_formula_structural   Dy16Tm4(Bi3Sb)3
_chemical_formula_sum   'Dy16 Tm4 Bi9 Sb3'
_cell_volume   930.87682318
_cell_formula_units_Z   1
loop_
 _symmetry_equiv_pos_site_id
 _symmetry_equiv_pos_as_xyz
  1  'x, y, z'
loop_
 _atom_site_type_symbol
 _atom_site_label
 _atom_site_symmetry_multiplicity
 _atom_site_fract_x
 _atom_site_fract_y
 _atom_site_fract_z
 _atom_site_occupancy
  Dy  Dy0  1  0.352509  0.750035  0.213111  1
  Dy  Dy1  1  0.852956  0.749978  0.286360  1
  Dy  Dy2  1  0.647348  0.250019  0.786596  1
  Dy  Dy3  1  0.148247  0.249951  0.716513  1
  Dy  Dy4  1  0.311077  0.437496  0.942695  1
  Dy  Dy5  1  0.808406  0.060236  0.559050  1
  Dy  Dy6  1  0.689114  0.937078  0.057481  1
  Dy  Dy7  1  0.190507  0.566148  0.442459  1
  Dy  Dy8  1  0.475745  0.250036  0.488018  1
  Dy  Dy9  1  0.973092  0.249937  0.011785  1
  Dy  Dy10  1  0.528345  0.750034  0.512630  1
  Dy  Dy11  1  0.027483  0.749974  0.988021  1
  Dy  Dy12  1  0.318090  0.249779  0.216221  1
  Dy  Dy13  1  0.811508  0.250213  0.278937  1
  Dy  Dy14  1  0.683240  0.749764  0.782171  1
  Dy  Dy15  1  0.183782  0.750215  0.717908  1
  Tm  Tm16  1  0.688733  0.563617  0.057319  1
  Tm  Tm17  1  0.190092  0.932989  0.442599  1
  Tm  Tm18  1  0.311489  0.063198  0.942859  1
  Tm  Tm19  1  0.808632  0.439250  0.558996  1
  Bi  Bi20  1  0.092099  0.249088  0.456571  1
  Bi  Bi21  1  0.565376  0.995130  0.325540  1
  Bi  Bi22  1  0.065776  0.504053  0.174438  1
  Bi  Bi23  1  0.433994  0.495546  0.674643  1
  Bi  Bi24  1  0.934096  0.003988  0.825792  1
  Bi  Bi25  1  0.433653  0.004509  0.674671  1
  Bi  Bi26  1  0.933761  0.495976  0.825765  1
  Bi  Bi27  1  0.565737  0.504923  0.325550  1
  Bi  Bi28  1  0.066108  0.995909  0.174427  1
  Sb  Sb29  1  0.407407  0.750921  0.958067  1
  Sb  Sb30  1  0.908246  0.749116  0.541575  1
  Sb  Sb31  1  0.593357  0.250897  0.041232  1
