# generated using pymatgen
data_Tb2Dy3Nb2P12Ir17
_symmetry_space_group_name_H-M   'P 1'
_cell_length_a   12.59272600
_cell_length_b   12.79633428
_cell_length_c   4.00538200
_cell_angle_alpha   90.00000000
_cell_angle_beta   90.00000000
_cell_angle_gamma   119.47503450
_symmetry_Int_Tables_number   1
_chemical_formula_structural   Tb2Dy3Nb2P12Ir17
_chemical_formula_sum   'Tb2 Dy3 Nb2 P12 Ir17'
_cell_volume   561.89227043
_cell_formula_units_Z   1
loop_
 _symmetry_equiv_pos_site_id
 _symmetry_equiv_pos_as_xyz
  1  'x, y, z'
loop_
 _atom_site_type_symbol
 _atom_site_label
 _atom_site_symmetry_multiplicity
 _atom_site_fract_x
 _atom_site_fract_y
 _atom_site_fract_z
 _atom_site_occupancy
  Tb  Tb0  1  0.999604  0.813402  0.000000  1
  Tb  Tb1  1  0.186201  0.186598  0.000000  1
  Dy  Dy2  1  0.330167  0.661378  0.500000  1
  Dy  Dy3  1  0.668790  0.338622  0.500000  1
  Dy  Dy4  1  0.814978  0.000000  0.000000  1
  Nb  Nb5  1  0.997074  0.450492  0.500000  1
  Nb  Nb6  1  0.546582  0.549508  0.500000  1
  P  P7  1  0.002715  0.641762  0.500000  1
  P  P8  1  0.360953  0.358238  0.500000  1
  P  P9  1  0.645668  0.000000  0.500000  1
  P  P10  1  0.514365  0.683155  0.000000  1
  P  P11  1  0.308633  0.823360  0.000000  1
  P  P12  1  0.163094  0.480554  0.000000  1
  P  P13  1  0.485273  0.176640  0.000000  1
  P  P14  1  0.682540  0.519446  0.000000  1
  P  P15  1  0.831210  0.316845  0.000000  1
  P  P16  1  0.999985  0.175633  0.500000  1
  P  P17  1  0.824351  0.824367  0.500000  1
  P  P18  1  0.181350  0.000000  0.500000  1
  Ir  Ir19  1  0.505547  0.863932  0.000000  1
  Ir  Ir20  1  0.127346  0.640730  0.000000  1
  Ir  Ir21  1  0.354464  0.493486  0.000000  1
  Ir  Ir22  1  0.486618  0.359270  0.000000  1
  Ir  Ir23  1  0.860980  0.506514  0.000000  1
  Ir  Ir24  1  0.641615  0.136068  0.000000  1
  Ir  Ir25  1  0.464575  0.000000  0.500000  1
  Ir  Ir26  1  0.997089  0.282053  0.000000  1
  Ir  Ir27  1  0.715035  0.717947  0.000000  1
  Ir  Ir28  1  0.292534  0.000000  0.000000  1
  Ir  Ir29  1  0.624500  0.807328  0.500000  1
  Ir  Ir30  1  0.202228  0.823888  0.500000  1
  Ir  Ir31  1  0.177260  0.368831  0.500000  1
  Ir  Ir32  1  0.378340  0.176112  0.500000  1
  Ir  Ir33  1  0.808428  0.631169  0.500000  1
  Ir  Ir34  1  0.817172  0.192672  0.500000  1
  Ir  Ir35  1  0.002739  0.000000  0.500000  1
