# generated using pymatgen
data_Pr8ErLuSn6
_symmetry_space_group_name_H-M   'P 1'
_cell_length_a   9.27615300
_cell_length_b   9.27615226
_cell_length_c   6.81215300
_cell_angle_alpha   90.00000000
_cell_angle_beta   90.00000000
_cell_angle_gamma   120.00000622
_symmetry_Int_Tables_number   1
_chemical_formula_structural   Pr8ErLuSn6
_chemical_formula_sum   'Pr8 Er1 Lu1 Sn6'
_cell_volume   507.63407881
_cell_formula_units_Z   1
loop_
 _symmetry_equiv_pos_site_id
 _symmetry_equiv_pos_as_xyz
  1  'x, y, z'
loop_
 _atom_site_type_symbol
 _atom_site_label
 _atom_site_symmetry_multiplicity
 _atom_site_fract_x
 _atom_site_fract_y
 _atom_site_fract_z
 _atom_site_occupancy
  Pr  Pr0  1  0.666667  0.333333  0.000000  1
  Pr  Pr1  1  0.333333  0.666667  0.000000  1
  Pr  Pr2  1  0.757375  0.757327  0.747375  1
  Pr  Pr3  1  0.242673  0.000047  0.747375  1
  Pr  Pr4  1  0.999953  0.242625  0.747375  1
  Pr  Pr5  1  0.242673  0.242625  0.252625  1
  Pr  Pr6  1  0.757375  0.000047  0.252625  1
  Pr  Pr7  1  0.999953  0.757327  0.252625  1
  Er  Er8  1  0.333333  0.666667  0.500000  1
  Lu  Lu9  1  0.666667  0.333333  0.500000  1
  Sn  Sn10  1  0.397627  0.397052  0.738328  1
  Sn  Sn11  1  0.602948  0.000574  0.738328  1
  Sn  Sn12  1  0.999426  0.602373  0.738328  1
  Sn  Sn13  1  0.602948  0.602373  0.261672  1
  Sn  Sn14  1  0.397627  0.000574  0.261672  1
  Sn  Sn15  1  0.999426  0.397052  0.261672  1
