# generated using pymatgen
data_TmLuMnIr3
_symmetry_space_group_name_H-M   'P 1'
_cell_length_a   5.13879671
_cell_length_b   5.13879796
_cell_length_c   5.13879700
_cell_angle_alpha   63.89003913
_cell_angle_beta   63.89003266
_cell_angle_gamma   63.89003811
_symmetry_Int_Tables_number   1
_chemical_formula_structural   TmLuMnIr3
_chemical_formula_sum   'Tm1 Lu1 Mn1 Ir3'
_cell_volume   104.18362872
_cell_formula_units_Z   1
loop_
 _symmetry_equiv_pos_site_id
 _symmetry_equiv_pos_as_xyz
  1  'x, y, z'
loop_
 _atom_site_type_symbol
 _atom_site_label
 _atom_site_symmetry_multiplicity
 _atom_site_fract_x
 _atom_site_fract_y
 _atom_site_fract_z
 _atom_site_occupancy
  Tm  Tm0  1  0.251396  0.251396  0.251396  1
  Lu  Lu1  1  0.998309  0.998309  0.998309  1
  Mn  Mn2  1  0.625038  0.625038  0.625038  1
  Ir  Ir3  1  0.625226  0.625226  0.124800  1
  Ir  Ir4  1  0.625226  0.124800  0.625226  1
  Ir  Ir5  1  0.124800  0.625226  0.625226  1
