# generated using pymatgen
data_Ba3NdZrSe6
_symmetry_space_group_name_H-M   'P 1'
_cell_length_a   8.82070911
_cell_length_b   8.82070894
_cell_length_c   8.82070914
_cell_angle_alpha   92.64395514
_cell_angle_beta   92.64396212
_cell_angle_gamma   92.64395484
_symmetry_Int_Tables_number   1
_chemical_formula_structural   Ba3NdZrSe6
_chemical_formula_sum   'Ba6 Nd2 Zr2 Se12'
_cell_volume   684.03279721
_cell_formula_units_Z   2
loop_
 _symmetry_equiv_pos_site_id
 _symmetry_equiv_pos_as_xyz
  1  'x, y, z'
loop_
 _atom_site_type_symbol
 _atom_site_label
 _atom_site_symmetry_multiplicity
 _atom_site_fract_x
 _atom_site_fract_y
 _atom_site_fract_z
 _atom_site_occupancy
  Ba  Ba0  1  0.875189  0.624811  0.250000  1
  Ba  Ba1  1  0.250000  0.875189  0.624811  1
  Ba  Ba2  1  0.624811  0.250000  0.875189  1
  Ba  Ba3  1  0.750000  0.124811  0.375189  1
  Ba  Ba4  1  0.375189  0.750000  0.124811  1
  Ba  Ba5  1  0.124811  0.375189  0.750000  1
  Nd  Nd6  1  0.250000  0.250000  0.250000  1
  Nd  Nd7  1  0.750000  0.750000  0.750000  1
  Zr  Zr8  1  0.500000  0.500000  0.500000  1
  Zr  Zr9  1  0.000000  0.000000  0.000000  1
  Se  Se10  1  0.202872  0.546771  0.414890  1
  Se  Se11  1  0.414890  0.202872  0.546771  1
  Se  Se12  1  0.546771  0.414890  0.202872  1
  Se  Se13  1  0.914890  0.046771  0.702872  1
  Se  Se14  1  0.702872  0.914890  0.046771  1
  Se  Se15  1  0.046771  0.702872  0.914890  1
  Se  Se16  1  0.797128  0.453229  0.585110  1
  Se  Se17  1  0.585110  0.797128  0.453229  1
  Se  Se18  1  0.453229  0.585110  0.797128  1
  Se  Se19  1  0.085110  0.953229  0.297128  1
  Se  Se20  1  0.297128  0.085110  0.953229  1
  Se  Se21  1  0.953229  0.297128  0.085110  1
