# generated using pymatgen
data_Yb5Dy3(Si4W3)4
_symmetry_space_group_name_H-M   'P 1'
_cell_length_a   6.71633565
_cell_length_b   6.91915413
_cell_length_c   12.98875241
_cell_angle_alpha   90.06666960
_cell_angle_beta   89.95937476
_cell_angle_gamma   90.06702336
_symmetry_Int_Tables_number   1
_chemical_formula_structural   Yb5Dy3(Si4W3)4
_chemical_formula_sum   'Yb5 Dy3 Si16 W12'
_cell_volume   603.60403694
_cell_formula_units_Z   1
loop_
 _symmetry_equiv_pos_site_id
 _symmetry_equiv_pos_as_xyz
  1  'x, y, z'
loop_
 _atom_site_type_symbol
 _atom_site_label
 _atom_site_symmetry_multiplicity
 _atom_site_fract_x
 _atom_site_fract_y
 _atom_site_fract_z
 _atom_site_occupancy
  Yb  Yb0  1  0.497930  0.665428  0.590132  1
  Yb  Yb1  1  0.998032  0.832449  0.908643  1
  Yb  Yb2  1  0.501503  0.331887  0.091209  1
  Yb  Yb3  1  0.001751  0.168837  0.408414  1
  Yb  Yb4  1  0.501242  0.332906  0.410306  1
  Dy  Dy5  1  0.000558  0.170423  0.093069  1
  Dy  Dy6  1  0.498922  0.668348  0.907653  1
  Dy  Dy7  1  0.998512  0.830616  0.592405  1
  Si  Si8  1  0.661551  0.957905  0.454940  1
  Si  Si9  1  0.162356  0.543756  0.044492  1
  Si  Si10  1  0.337712  0.043270  0.954934  1
  Si  Si11  1  0.838419  0.455559  0.545075  1
  Si  Si12  1  0.338600  0.042179  0.545266  1
  Si  Si13  1  0.838443  0.458009  0.954847  1
  Si  Si14  1  0.661980  0.957999  0.044465  1
  Si  Si15  1  0.161635  0.542724  0.454906  1
  Si  Si16  1  0.465266  0.373448  0.749114  1
  Si  Si17  1  0.965640  0.124595  0.750457  1
  Si  Si18  1  0.534263  0.622605  0.249782  1
  Si  Si19  1  0.035349  0.877394  0.249592  1
  Si  Si20  1  0.698487  0.864908  0.750173  1
  Si  Si21  1  0.199370  0.633638  0.749991  1
  Si  Si22  1  0.302964  0.135790  0.251259  1
  Si  Si23  1  0.798089  0.366764  0.251202  1
  W  W24  1  0.666802  0.163097  0.627283  1
  W  W25  1  0.166151  0.335013  0.873436  1
  W  W26  1  0.334327  0.834532  0.126074  1
  W  W27  1  0.835904  0.667799  0.372619  1
  W  W28  1  0.334514  0.833615  0.372749  1
  W  W29  1  0.833779  0.665905  0.125928  1
  W  W30  1  0.666738  0.164967  0.874212  1
  W  W31  1  0.165555  0.335030  0.626435  1
  W  W32  1  0.838249  0.492260  0.749770  1
  W  W33  1  0.337683  0.005786  0.750771  1
  W  W34  1  0.160418  0.509576  0.248946  1
  W  W35  1  0.661306  0.990984  0.249448  1
