# generated using pymatgen
data_Cs12K6TlGaBi8
_symmetry_space_group_name_H-M   'P 1'
_cell_length_a   11.45992500
_cell_length_b   11.45992633
_cell_length_c   11.96242900
_cell_angle_alpha   90.00000000
_cell_angle_beta   90.00000000
_cell_angle_gamma   119.99999327
_symmetry_Int_Tables_number   1
_chemical_formula_structural   Cs12K6TlGaBi8
_chemical_formula_sum   'Cs12 K6 Tl1 Ga1 Bi8'
_cell_volume   1360.54727066
_cell_formula_units_Z   1
loop_
 _symmetry_equiv_pos_site_id
 _symmetry_equiv_pos_as_xyz
  1  'x, y, z'
loop_
 _atom_site_type_symbol
 _atom_site_label
 _atom_site_symmetry_multiplicity
 _atom_site_fract_x
 _atom_site_fract_y
 _atom_site_fract_z
 _atom_site_occupancy
  Cs  Cs0  1  0.208087  0.416172  0.543116  1
  Cs  Cs1  1  0.790771  0.209229  0.040368  1
  Cs  Cs2  1  0.418455  0.209229  0.040368  1
  Cs  Cs3  1  0.583828  0.791913  0.543116  1
  Cs  Cs4  1  0.208087  0.791913  0.543116  1
  Cs  Cs5  1  0.790771  0.581545  0.459632  1
  Cs  Cs6  1  0.790771  0.209229  0.459632  1
  Cs  Cs7  1  0.790771  0.581545  0.040368  1
  Cs  Cs8  1  0.418455  0.209229  0.459632  1
  Cs  Cs9  1  0.583828  0.791913  0.956884  1
  Cs  Cs10  1  0.208087  0.416172  0.956884  1
  Cs  Cs11  1  0.208087  0.791913  0.956884  1
  K  K12  1  0.119112  0.238225  0.250000  1
  K  K13  1  0.880743  0.119257  0.750000  1
  K  K14  1  0.238513  0.119257  0.750000  1
  K  K15  1  0.761775  0.880888  0.250000  1
  K  K16  1  0.119112  0.880888  0.250000  1
  K  K17  1  0.880743  0.761487  0.750000  1
  Tl  Tl18  1  0.333333  0.666667  0.250000  1
  Ga  Ga19  1  0.666667  0.333333  0.750000  1
  Bi  Bi20  1  0.483206  0.516794  0.250000  1
  Bi  Bi21  1  0.947397  0.473699  0.750000  1
  Bi  Bi22  1  0.526301  0.052603  0.750000  1
  Bi  Bi23  1  0.483206  0.966410  0.250000  1
  Bi  Bi24  1  0.033590  0.516794  0.250000  1
  Bi  Bi25  1  0.526301  0.473699  0.750000  1
  Bi  Bi26  1  0.000000  0.000000  0.999805  1
  Bi  Bi27  1  0.000000  0.000000  0.500195  1
