# generated using pymatgen
data_NiRu3F12
_symmetry_space_group_name_H-M   'P 1'
_cell_length_a   7.57893876
_cell_length_b   5.21031296
_cell_length_c   5.44329966
_cell_angle_alpha   90.25136324
_cell_angle_beta   89.96407817
_cell_angle_gamma   89.93379107
_symmetry_Int_Tables_number   1
_chemical_formula_structural   NiRu3F12
_chemical_formula_sum   'Ni1 Ru3 F12'
_cell_volume   214.94626080
_cell_formula_units_Z   1
loop_
 _symmetry_equiv_pos_site_id
 _symmetry_equiv_pos_as_xyz
  1  'x, y, z'
loop_
 _atom_site_type_symbol
 _atom_site_label
 _atom_site_symmetry_multiplicity
 _atom_site_fract_x
 _atom_site_fract_y
 _atom_site_fract_z
 _atom_site_occupancy
  Ni  Ni0  1  0.500000  0.000000  0.000000  1
  Ru  Ru1  1  0.000000  0.000000  0.000000  1
  Ru  Ru2  1  0.000000  0.500000  0.500000  1
  Ru  Ru3  1  0.500000  0.500000  0.500000  1
  F  F4  1  0.245562  0.114762  0.966226  1
  F  F5  1  0.560361  0.321795  0.193238  1
  F  F6  1  0.939216  0.324521  0.179516  1
  F  F7  1  0.057494  0.826645  0.319741  1
  F  F8  1  0.440312  0.807791  0.312020  1
  F  F9  1  0.749902  0.625613  0.537735  1
  F  F10  1  0.250098  0.374387  0.462265  1
  F  F11  1  0.559688  0.192209  0.687980  1
  F  F12  1  0.942506  0.173355  0.680259  1
  F  F13  1  0.060784  0.675479  0.820484  1
  F  F14  1  0.439639  0.678205  0.806762  1
  F  F15  1  0.754438  0.885238  0.033774  1
