# generated using pymatgen
data_Y4Be4VIr9
_symmetry_space_group_name_H-M   'P 1'
_cell_length_a   5.48368300
_cell_length_b   5.48368294
_cell_length_c   21.81636900
_cell_angle_alpha   90.00000000
_cell_angle_beta   90.00000000
_cell_angle_gamma   119.99999435
_symmetry_Int_Tables_number   1
_chemical_formula_structural   Y4Be4VIr9
_chemical_formula_sum   'Y8 Be8 V2 Ir18'
_cell_volume   568.14318874
_cell_formula_units_Z   2
loop_
 _symmetry_equiv_pos_site_id
 _symmetry_equiv_pos_as_xyz
  1  'x, y, z'
loop_
 _atom_site_type_symbol
 _atom_site_label
 _atom_site_symmetry_multiplicity
 _atom_site_fract_x
 _atom_site_fract_y
 _atom_site_fract_z
 _atom_site_occupancy
  Y  Y0  1  0.333333  0.666667  0.527308  1
  Y  Y1  1  0.666667  0.333333  0.472692  1
  Y  Y2  1  0.666667  0.333333  0.027308  1
  Y  Y3  1  0.333333  0.666667  0.972692  1
  Y  Y4  1  0.333333  0.666667  0.674498  1
  Y  Y5  1  0.666667  0.333333  0.325502  1
  Y  Y6  1  0.666667  0.333333  0.174498  1
  Y  Y7  1  0.333333  0.666667  0.825502  1
  Be  Be8  1  0.333333  0.666667  0.171939  1
  Be  Be9  1  0.666667  0.333333  0.828061  1
  Be  Be10  1  0.666667  0.333333  0.671939  1
  Be  Be11  1  0.333333  0.666667  0.328061  1
  Be  Be12  1  0.000000  0.000000  0.169895  1
  Be  Be13  1  0.000000  0.000000  0.830105  1
  Be  Be14  1  0.000000  0.000000  0.669895  1
  Be  Be15  1  0.000000  0.000000  0.330105  1
  V  V16  1  0.000000  0.000000  0.000000  1
  V  V17  1  0.000000  0.000000  0.500000  1
  Ir  Ir18  1  0.167953  0.335905  0.091493  1
  Ir  Ir19  1  0.832047  0.664095  0.908507  1
  Ir  Ir20  1  0.664095  0.832047  0.091493  1
  Ir  Ir21  1  0.832047  0.664095  0.591493  1
  Ir  Ir22  1  0.335905  0.167953  0.908507  1
  Ir  Ir23  1  0.167953  0.335905  0.408507  1
  Ir  Ir24  1  0.167953  0.832047  0.091493  1
  Ir  Ir25  1  0.335905  0.167953  0.591493  1
  Ir  Ir26  1  0.832047  0.167953  0.908507  1
  Ir  Ir27  1  0.664095  0.832047  0.408507  1
  Ir  Ir28  1  0.832047  0.167953  0.591493  1
  Ir  Ir29  1  0.167953  0.832047  0.408507  1
  Ir  Ir30  1  0.166183  0.332365  0.250000  1
  Ir  Ir31  1  0.833817  0.667635  0.750000  1
  Ir  Ir32  1  0.667635  0.833817  0.250000  1
  Ir  Ir33  1  0.332365  0.166183  0.750000  1
  Ir  Ir34  1  0.166183  0.833817  0.250000  1
  Ir  Ir35  1  0.833817  0.166183  0.750000  1
