# generated using pymatgen
data_Nd9Tm(Si2Pb)2
_symmetry_space_group_name_H-M   'P 1'
_cell_length_a   9.21482612
_cell_length_b   9.21482591
_cell_length_c   9.21482600
_cell_angle_alpha   129.16011041
_cell_angle_beta   129.16011737
_cell_angle_gamma   74.75307757
_symmetry_Int_Tables_number   1
_chemical_formula_structural   Nd9Tm(Si2Pb)2
_chemical_formula_sum   'Nd9 Tm1 Si4 Pb2'
_cell_volume   458.27293259
_cell_formula_units_Z   1
loop_
 _symmetry_equiv_pos_site_id
 _symmetry_equiv_pos_as_xyz
  1  'x, y, z'
loop_
 _atom_site_type_symbol
 _atom_site_label
 _atom_site_symmetry_multiplicity
 _atom_site_fract_x
 _atom_site_fract_y
 _atom_site_fract_z
 _atom_site_occupancy
  Nd  Nd0  1  0.535044  0.036756  0.847197  1
  Nd  Nd1  1  0.189559  0.687845  0.152803  1
  Nd  Nd2  1  0.036756  0.189559  0.501712  1
  Nd  Nd3  1  0.687845  0.535044  0.498288  1
  Nd  Nd4  1  0.464956  0.963244  0.152803  1
  Nd  Nd5  1  0.810441  0.312155  0.847197  1
  Nd  Nd6  1  0.963244  0.810441  0.498288  1
  Nd  Nd7  1  0.312155  0.464956  0.501712  1
  Nd  Nd8  1  0.000000  0.000000  0.000000  1
  Tm  Tm9  1  0.500000  0.500000  0.000000  1
  Si  Si10  1  0.877392  0.381583  0.258975  1
  Si  Si11  1  0.122608  0.618417  0.741025  1
  Si  Si12  1  0.381583  0.122608  0.504192  1
  Si  Si13  1  0.618417  0.877392  0.495808  1
  Pb  Pb14  1  0.250307  0.250307  0.000000  1
  Pb  Pb15  1  0.749693  0.749693  0.000000  1
