# generated using pymatgen
data_Ho9Tm7(CdPt)4
_symmetry_space_group_name_H-M   'P 1'
_cell_length_a   9.59745168
_cell_length_b   9.58226362
_cell_length_c   9.60845220
_cell_angle_alpha   60.01474503
_cell_angle_beta   60.12912346
_cell_angle_gamma   60.12895815
_symmetry_Int_Tables_number   1
_chemical_formula_structural   Ho9Tm7(CdPt)4
_chemical_formula_sum   'Ho9 Tm7 Cd4 Pt4'
_cell_volume   626.11681539
_cell_formula_units_Z   1
loop_
 _symmetry_equiv_pos_site_id
 _symmetry_equiv_pos_as_xyz
  1  'x, y, z'
loop_
 _atom_site_type_symbol
 _atom_site_label
 _atom_site_symmetry_multiplicity
 _atom_site_fract_x
 _atom_site_fract_y
 _atom_site_fract_z
 _atom_site_occupancy
  Ho  Ho0  1  0.060958  0.439049  0.060948  1
  Ho  Ho1  1  0.439560  0.439229  0.061373  1
  Ho  Ho2  1  0.061367  0.059845  0.439558  1
  Ho  Ho3  1  0.186209  0.814633  0.813766  1
  Ho  Ho4  1  0.813767  0.185397  0.186209  1
  Ho  Ho5  1  0.815543  0.184456  0.815543  1
  Ho  Ho6  1  0.187101  0.812898  0.187106  1
  Ho  Ho7  1  0.813450  0.814480  0.186365  1
  Ho  Ho8  1  0.186373  0.185700  0.813444  1
  Tm  Tm9  1  0.602183  0.600122  0.602034  1
  Tm  Tm10  1  0.604731  0.602746  0.189541  1
  Tm  Tm11  1  0.602045  0.195655  0.602183  1
  Tm  Tm12  1  0.189540  0.602970  0.604746  1
  Tm  Tm13  1  0.060564  0.439860  0.440317  1
  Tm  Tm14  1  0.440318  0.059261  0.060567  1
  Tm  Tm15  1  0.440590  0.059407  0.440589  1
  Cd  Cd16  1  0.830982  0.832551  0.831210  1
  Cd  Cd17  1  0.830691  0.832473  0.504306  1
  Cd  Cd18  1  0.831221  0.505272  0.830982  1
  Cd  Cd19  1  0.504313  0.832525  0.830696  1
  Pt  Pt20  1  0.392168  0.395313  0.394719  1
  Pt  Pt21  1  0.392170  0.393121  0.819475  1
  Pt  Pt22  1  0.394686  0.817794  0.392173  1
  Pt  Pt23  1  0.819470  0.395242  0.392149  1
