# generated using pymatgen
data_UTaO5
_symmetry_space_group_name_H-M   'P 1'
_cell_length_a   5.51082881
_cell_length_b   5.51082914
_cell_length_c   7.63885606
_cell_angle_alpha   69.81872089
_cell_angle_beta   69.81871720
_cell_angle_gamma   72.81899130
_symmetry_Int_Tables_number   1
_chemical_formula_structural   UTaO5
_chemical_formula_sum   'U2 Ta2 O10'
_cell_volume   200.23784912
_cell_formula_units_Z   2
loop_
 _symmetry_equiv_pos_site_id
 _symmetry_equiv_pos_as_xyz
  1  'x, y, z'
loop_
 _atom_site_type_symbol
 _atom_site_label
 _atom_site_symmetry_multiplicity
 _atom_site_fract_x
 _atom_site_fract_y
 _atom_site_fract_z
 _atom_site_occupancy
  U  U0  1  0.464578  0.535422  0.750000  1
  U  U1  1  0.535422  0.464578  0.250000  1
  Ta  Ta2  1  0.000000  0.000000  0.000000  1
  Ta  Ta3  1  0.000000  0.000000  0.500000  1
  O  O4  1  0.229329  0.271915  0.871286  1
  O  O5  1  0.770671  0.728085  0.128714  1
  O  O6  1  0.728085  0.770671  0.628714  1
  O  O7  1  0.271915  0.229329  0.371286  1
  O  O8  1  0.077569  0.922431  0.750000  1
  O  O9  1  0.922431  0.077569  0.250000  1
  O  O10  1  0.691974  0.291092  0.964769  1
  O  O11  1  0.308026  0.708908  0.035231  1
  O  O12  1  0.291092  0.691974  0.464769  1
  O  O13  1  0.708908  0.308026  0.535231  1
