# generated using pymatgen
data_Sc4FeCo3P4
_symmetry_space_group_name_H-M   'P 1'
_cell_length_a   3.76578800
_cell_length_b   6.26520604
_cell_length_c   7.00366604
_cell_angle_alpha   89.98686942
_cell_angle_beta   90.00000000
_cell_angle_gamma   90.00000000
_symmetry_Int_Tables_number   1
_chemical_formula_structural   Sc4FeCo3P4
_chemical_formula_sum   'Sc4 Fe1 Co3 P4'
_cell_volume   165.24055438
_cell_formula_units_Z   1
loop_
 _symmetry_equiv_pos_site_id
 _symmetry_equiv_pos_as_xyz
  1  'x, y, z'
loop_
 _atom_site_type_symbol
 _atom_site_label
 _atom_site_symmetry_multiplicity
 _atom_site_fract_x
 _atom_site_fract_y
 _atom_site_fract_z
 _atom_site_occupancy
  Sc  Sc0  1  0.250000  0.017614  0.816964  1
  Sc  Sc1  1  0.250000  0.515343  0.686570  1
  Sc  Sc2  1  0.750000  0.984144  0.183822  1
  Sc  Sc3  1  0.750000  0.482662  0.312797  1
  Fe  Fe4  1  0.250000  0.149064  0.440087  1
  Co  Co5  1  0.250000  0.647345  0.061757  1
  Co  Co6  1  0.750000  0.850716  0.561056  1
  Co  Co7  1  0.750000  0.352498  0.936097  1
  P  P8  1  0.250000  0.280168  0.117656  1
  P  P9  1  0.250000  0.783649  0.385011  1
  P  P10  1  0.750000  0.720420  0.885156  1
  P  P11  1  0.750000  0.216377  0.613025  1
