# generated using pymatgen
data_LaDyZn2(Co3B)2
_symmetry_space_group_name_H-M   'P 1'
_cell_length_a   5.17592100
_cell_length_b   5.17473737
_cell_length_c   6.83759000
_cell_angle_alpha   90.00000000
_cell_angle_beta   90.00000000
_cell_angle_gamma   120.00757306
_symmetry_Int_Tables_number   1
_chemical_formula_structural   LaDyZn2(Co3B)2
_chemical_formula_sum   'La1 Dy1 Zn2 Co6 B2'
_cell_volume   158.59025360
_cell_formula_units_Z   1
loop_
 _symmetry_equiv_pos_site_id
 _symmetry_equiv_pos_as_xyz
  1  'x, y, z'
loop_
 _atom_site_type_symbol
 _atom_site_label
 _atom_site_symmetry_multiplicity
 _atom_site_fract_x
 _atom_site_fract_y
 _atom_site_fract_z
 _atom_site_occupancy
  La  La0  1  0.999978  0.000000  0.000000  1
  Dy  Dy1  1  0.999993  0.000000  0.500000  1
  Zn  Zn2  1  0.333289  0.666620  0.000000  1
  Zn  Zn3  1  0.666670  0.333380  0.000000  1
  Co  Co4  1  0.499989  0.000000  0.300689  1
  Co  Co5  1  0.499985  0.500003  0.300677  1
  Co  Co6  1  0.999982  0.499997  0.300677  1
  Co  Co7  1  0.499989  0.000000  0.699311  1
  Co  Co8  1  0.499985  0.500003  0.699323  1
  Co  Co9  1  0.999982  0.499997  0.699323  1
  B  B10  1  0.333348  0.666736  0.500000  1
  B  B11  1  0.666612  0.333264  0.500000  1
