# generated using pymatgen
data_Dy3TmV4F28
_symmetry_space_group_name_H-M   'P 1'
_cell_length_a   5.49409803
_cell_length_b   8.79393656
_cell_length_c   11.76416166
_cell_angle_alpha   63.43850781
_cell_angle_beta   90.01150342
_cell_angle_gamma   90.00346967
_symmetry_Int_Tables_number   1
_chemical_formula_structural   Dy3TmV4F28
_chemical_formula_sum   'Dy3 Tm1 V4 F28'
_cell_volume   508.39256172
_cell_formula_units_Z   1
loop_
 _symmetry_equiv_pos_site_id
 _symmetry_equiv_pos_as_xyz
  1  'x, y, z'
loop_
 _atom_site_type_symbol
 _atom_site_label
 _atom_site_symmetry_multiplicity
 _atom_site_fract_x
 _atom_site_fract_y
 _atom_site_fract_z
 _atom_site_occupancy
  Dy  Dy0  1  0.258141  0.189432  0.730237  1
  Dy  Dy1  1  0.241811  0.192075  0.229636  1
  Dy  Dy2  1  0.741783  0.806951  0.270729  1
  Tm  Tm3  1  0.758602  0.806600  0.770839  1
  V  V4  1  0.754304  0.275076  0.953858  1
  V  V5  1  0.254730  0.726691  0.547294  1
  V  V6  1  0.245849  0.726772  0.043668  1
  V  V7  1  0.746259  0.272278  0.455388  1
  F  F8  1  0.451875  0.706513  0.922320  1
  F  F9  1  0.950014  0.293846  0.576861  1
  F  F10  1  0.550665  0.295106  0.075970  1
  F  F11  1  0.050293  0.706047  0.425304  1
  F  F12  1  0.460989  0.283391  0.545094  1
  F  F13  1  0.960429  0.717266  0.952734  1
  F  F14  1  0.538477  0.716162  0.456405  1
  F  F15  1  0.039413  0.284911  0.043898  1
  F  F16  1  0.766892  0.508789  0.861591  1
  F  F17  1  0.267544  0.493705  0.638996  1
  F  F18  1  0.231351  0.493935  0.136426  1
  F  F19  1  0.732206  0.506182  0.362633  1
  F  F20  1  0.757110  0.044071  0.044843  1
  F  F21  1  0.257129  0.957486  0.455555  1
  F  F22  1  0.242906  0.958035  0.953329  1
  F  F23  1  0.743011  0.042044  0.545884  1
  F  F24  1  0.978708  0.732230  0.643132  1
  F  F25  1  0.478671  0.268932  0.858824  1
  F  F26  1  0.022475  0.269045  0.359791  1
  F  F27  1  0.521183  0.731210  0.139507  1
  F  F28  1  0.043194  0.747544  0.168516  1
  F  F29  1  0.544107  0.252500  0.330183  1
  F  F30  1  0.956430  0.253497  0.829506  1
  F  F31  1  0.460312  0.748937  0.670917  1
  F  F32  1  0.419918  0.971865  0.231031  1
  F  F33  1  0.919718  0.027516  0.269046  1
  F  F34  1  0.580009  0.022795  0.768353  1
  F  F35  1  0.073490  0.970564  0.731701  1
