# generated using pymatgen
data_Ac6IO12
_symmetry_space_group_name_H-M   'P 1'
_cell_length_a   7.08569937
_cell_length_b   7.08569932
_cell_length_c   7.08569900
_cell_angle_alpha   98.57738439
_cell_angle_beta   98.57739250
_cell_angle_gamma   98.57738706
_symmetry_Int_Tables_number   1
_chemical_formula_structural   Ac6IO12
_chemical_formula_sum   'Ac6 I1 O12'
_cell_volume   342.45363313
_cell_formula_units_Z   1
loop_
 _symmetry_equiv_pos_site_id
 _symmetry_equiv_pos_as_xyz
  1  'x, y, z'
loop_
 _atom_site_type_symbol
 _atom_site_label
 _atom_site_symmetry_multiplicity
 _atom_site_fract_x
 _atom_site_fract_y
 _atom_site_fract_z
 _atom_site_occupancy
  Ac  Ac0  1  0.856017  0.396676  0.696210  1
  Ac  Ac1  1  0.143983  0.603324  0.303790  1
  Ac  Ac2  1  0.603324  0.303790  0.143983  1
  Ac  Ac3  1  0.396676  0.696210  0.856017  1
  Ac  Ac4  1  0.696210  0.856017  0.396676  1
  Ac  Ac5  1  0.303790  0.143983  0.603324  1
  I  I6  1  0.000000  0.000000  0.000000  1
  O  O7  1  0.285182  0.066431  0.969912  1
  O  O8  1  0.030088  0.714818  0.933569  1
  O  O9  1  0.066431  0.969912  0.285182  1
  O  O10  1  0.822480  0.555799  0.404123  1
  O  O11  1  0.595877  0.177520  0.444201  1
  O  O12  1  0.555799  0.404123  0.822480  1
  O  O13  1  0.404123  0.822480  0.555799  1
  O  O14  1  0.969912  0.285182  0.066431  1
  O  O15  1  0.933569  0.030088  0.714818  1
  O  O16  1  0.444201  0.595877  0.177520  1
  O  O17  1  0.714818  0.933569  0.030088  1
  O  O18  1  0.177520  0.444201  0.595877  1
