# generated using pymatgen
data_Lu3Hg5
_symmetry_space_group_name_H-M   'P 1'
_cell_length_a   6.31634205
_cell_length_b   6.31634257
_cell_length_c   9.96609300
_cell_angle_alpha   90.00000000
_cell_angle_beta   90.00000000
_cell_angle_gamma   105.19563457
_symmetry_Int_Tables_number   1
_chemical_formula_structural   Lu3Hg5
_chemical_formula_sum   'Lu6 Hg10'
_cell_volume   383.70722588
_cell_formula_units_Z   2
loop_
 _symmetry_equiv_pos_site_id
 _symmetry_equiv_pos_as_xyz
  1  'x, y, z'
loop_
 _atom_site_type_symbol
 _atom_site_label
 _atom_site_symmetry_multiplicity
 _atom_site_fract_x
 _atom_site_fract_y
 _atom_site_fract_z
 _atom_site_occupancy
  Lu  Lu0  1  0.553996  0.553996  0.250000  1
  Lu  Lu1  1  0.446004  0.446004  0.750000  1
  Lu  Lu2  1  0.220022  0.779978  0.500000  1
  Lu  Lu3  1  0.220022  0.779978  0.000000  1
  Lu  Lu4  1  0.779978  0.220022  0.500000  1
  Lu  Lu5  1  0.779978  0.220022  0.000000  1
  Hg  Hg6  1  0.961163  0.961163  0.250000  1
  Hg  Hg7  1  0.038837  0.038837  0.750000  1
  Hg  Hg8  1  0.285490  0.285490  0.025906  1
  Hg  Hg9  1  0.714510  0.714510  0.974094  1
  Hg  Hg10  1  0.285490  0.285490  0.474094  1
  Hg  Hg11  1  0.714510  0.714510  0.525906  1
  Hg  Hg12  1  0.476659  0.028251  0.250000  1
  Hg  Hg13  1  0.971749  0.523341  0.750000  1
  Hg  Hg14  1  0.523341  0.971749  0.750000  1
  Hg  Hg15  1  0.028251  0.476659  0.250000  1
