# generated using pymatgen
data_Li3Tm4HfPt4
_symmetry_space_group_name_H-M   'P 1'
_cell_length_a   4.05502900
_cell_length_b   6.99497740
_cell_length_c   8.56932046
_cell_angle_alpha   87.53358125
_cell_angle_beta   90.00000000
_cell_angle_gamma   90.00000000
_symmetry_Int_Tables_number   1
_chemical_formula_structural   Li3Tm4HfPt4
_chemical_formula_sum   'Li3 Tm4 Hf1 Pt4'
_cell_volume   242.84219734
_cell_formula_units_Z   1
loop_
 _symmetry_equiv_pos_site_id
 _symmetry_equiv_pos_as_xyz
  1  'x, y, z'
loop_
 _atom_site_type_symbol
 _atom_site_label
 _atom_site_symmetry_multiplicity
 _atom_site_fract_x
 _atom_site_fract_y
 _atom_site_fract_z
 _atom_site_occupancy
  Li  Li0  1  0.250000  0.373482  0.558384  1
  Li  Li1  1  0.250000  0.858131  0.930036  1
  Li  Li2  1  0.750000  0.623883  0.446552  1
  Tm  Tm3  1  0.250000  0.946149  0.331898  1
  Tm  Tm4  1  0.250000  0.472576  0.188821  1
  Tm  Tm5  1  0.750000  0.038163  0.671480  1
  Tm  Tm6  1  0.750000  0.551618  0.822075  1
  Hf  Hf7  1  0.750000  0.127375  0.054459  1
  Pt  Pt8  1  0.250000  0.259954  0.884452  1
  Pt  Pt9  1  0.250000  0.752405  0.628803  1
  Pt  Pt10  1  0.750000  0.755270  0.125068  1
  Pt  Pt11  1  0.750000  0.240994  0.357972  1
