# generated using pymatgen
data_BaNdTi4N7
_symmetry_space_group_name_H-M   'P 1'
_cell_length_a   6.53586200
_cell_length_b   6.53586291
_cell_length_c   10.66562400
_cell_angle_alpha   90.00000000
_cell_angle_beta   90.00000000
_cell_angle_gamma   120.00000552
_symmetry_Int_Tables_number   1
_chemical_formula_structural   BaNdTi4N7
_chemical_formula_sum   'Ba2 Nd2 Ti8 N14'
_cell_volume   394.56874892
_cell_formula_units_Z   2
loop_
 _symmetry_equiv_pos_site_id
 _symmetry_equiv_pos_as_xyz
  1  'x, y, z'
loop_
 _atom_site_type_symbol
 _atom_site_label
 _atom_site_symmetry_multiplicity
 _atom_site_fract_x
 _atom_site_fract_y
 _atom_site_fract_z
 _atom_site_occupancy
  Ba  Ba0  1  0.333333  0.666667  0.372155  1
  Ba  Ba1  1  0.666667  0.333333  0.872155  1
  Nd  Nd2  1  0.333333  0.666667  0.735568  1
  Nd  Nd3  1  0.666667  0.333333  0.235568  1
  Ti  Ti4  1  0.831471  0.662941  0.549434  1
  Ti  Ti5  1  0.168529  0.831471  0.049434  1
  Ti  Ti6  1  0.662941  0.831471  0.049434  1
  Ti  Ti7  1  0.337059  0.168529  0.549434  1
  Ti  Ti8  1  0.831471  0.168529  0.549434  1
  Ti  Ti9  1  0.168529  0.337059  0.049434  1
  Ti  Ti10  1  0.000000  0.000000  0.810163  1
  Ti  Ti11  1  0.000000  0.000000  0.310163  1
  N  N12  1  0.000000  0.000000  0.619235  1
  N  N13  1  0.000000  0.000000  0.119235  1
  N  N14  1  0.156459  0.312919  0.872326  1
  N  N15  1  0.843541  0.156459  0.372326  1
  N  N16  1  0.312919  0.156459  0.372326  1
  N  N17  1  0.687081  0.843541  0.872326  1
  N  N18  1  0.156459  0.843541  0.872326  1
  N  N19  1  0.843541  0.687081  0.372326  1
  N  N20  1  0.984195  0.492097  0.597166  1
  N  N21  1  0.492097  0.984195  0.097166  1
  N  N22  1  0.492097  0.507903  0.097166  1
  N  N23  1  0.507903  0.492097  0.597166  1
  N  N24  1  0.015805  0.507903  0.097166  1
  N  N25  1  0.507903  0.015805  0.597166  1
