# generated using pymatgen
data_Tb2Fe8Co4P7
_symmetry_space_group_name_H-M   'P 1'
_cell_length_a   3.62006000
_cell_length_b   8.98914605
_cell_length_c   8.97666460
_cell_angle_alpha   120.03836426
_cell_angle_beta   90.00000000
_cell_angle_gamma   90.00000000
_symmetry_Int_Tables_number   1
_chemical_formula_structural   Tb2Fe8Co4P7
_chemical_formula_sum   'Tb2 Fe8 Co4 P7'
_cell_volume   252.87844631
_cell_formula_units_Z   1
loop_
 _symmetry_equiv_pos_site_id
 _symmetry_equiv_pos_as_xyz
  1  'x, y, z'
loop_
 _atom_site_type_symbol
 _atom_site_label
 _atom_site_symmetry_multiplicity
 _atom_site_fract_x
 _atom_site_fract_y
 _atom_site_fract_z
 _atom_site_occupancy
  Tb  Tb0  1  0.000000  0.666202  0.332359  1
  Tb  Tb1  1  0.500000  0.333880  0.667214  1
  Fe  Fe2  1  0.000000  0.568945  0.627867  1
  Fe  Fe3  1  0.000000  0.880545  0.726239  1
  Fe  Fe4  1  0.000000  0.272740  0.154097  1
  Fe  Fe5  1  0.000000  0.847679  0.119822  1
  Fe  Fe6  1  0.500000  0.614364  0.049136  1
  Fe  Fe7  1  0.500000  0.126433  0.898546  1
  Fe  Fe8  1  0.500000  0.101511  0.228578  1
  Fe  Fe9  1  0.500000  0.778134  0.877110  1
  Co  Co10  1  0.000000  0.370209  0.940053  1
  Co  Co11  1  0.000000  0.058930  0.431807  1
  Co  Co12  1  0.500000  0.949101  0.563821  1
  Co  Co13  1  0.500000  0.434565  0.384011  1
  P  P14  1  0.000000  0.110458  0.704449  1
  P  P15  1  0.000000  0.296834  0.407856  1
  P  P16  1  0.000000  0.593697  0.889442  1
  P  P17  1  0.500000  0.709800  0.601130  1
  P  P18  1  0.500000  0.400789  0.111556  1
  P  P19  1  0.500000  0.884995  0.285184  1
  P  P20  1  0.000000  0.000189  0.999723  1
