# generated using pymatgen
data_Tb3Pr6Ho(Sn5Rh2)4
_symmetry_space_group_name_H-M   'P 1'
_cell_length_a   14.20677338
_cell_length_b   14.20674238
_cell_length_c   4.59470600
_cell_angle_alpha   90.00000000
_cell_angle_beta   90.00000000
_cell_angle_gamma   90.02667423
_symmetry_Int_Tables_number   1
_chemical_formula_structural   Tb3Pr6Ho(Sn5Rh2)4
_chemical_formula_sum   'Tb3 Pr6 Ho1 Sn20 Rh8'
_cell_volume   927.35846121
_cell_formula_units_Z   1
loop_
 _symmetry_equiv_pos_site_id
 _symmetry_equiv_pos_as_xyz
  1  'x, y, z'
loop_
 _atom_site_type_symbol
 _atom_site_label
 _atom_site_symmetry_multiplicity
 _atom_site_fract_x
 _atom_site_fract_y
 _atom_site_fract_z
 _atom_site_occupancy
  Tb  Tb0  1  0.676890  0.176973  0.500000  1
  Tb  Tb1  1  0.323025  0.823109  0.500000  1
  Tb  Tb2  1  0.176882  0.323116  0.500000  1
  Pr  Pr3  1  0.499996  0.500025  0.000000  1
  Pr  Pr4  1  0.999975  0.000002  0.000000  1
  Pr  Pr5  1  0.888280  0.388310  0.500000  1
  Pr  Pr6  1  0.111692  0.611717  0.500000  1
  Pr  Pr7  1  0.388201  0.111796  0.500000  1
  Pr  Pr8  1  0.611808  0.888191  0.500000  1
  Ho  Ho9  1  0.823375  0.676619  0.500000  1
  Sn  Sn10  1  0.569887  0.069866  0.000000  1
  Sn  Sn11  1  0.430136  0.930112  0.000000  1
  Sn  Sn12  1  0.069809  0.430191  0.000000  1
  Sn  Sn13  1  0.929911  0.570089  0.000000  1
  Sn  Sn14  1  0.654103  0.698589  0.000000  1
  Sn  Sn15  1  0.346133  0.301376  0.000000  1
  Sn  Sn16  1  0.153806  0.801341  0.000000  1
  Sn  Sn17  1  0.846170  0.198636  0.000000  1
  Sn  Sn18  1  0.301364  0.653830  0.000000  1
  Sn  Sn19  1  0.698658  0.346193  0.000000  1
  Sn  Sn20  1  0.198624  0.153868  0.000000  1
  Sn  Sn21  1  0.801411  0.845896  0.000000  1
  Sn  Sn22  1  0.664354  0.506213  0.500000  1
  Sn  Sn23  1  0.335801  0.493962  0.500000  1
  Sn  Sn24  1  0.164252  0.993978  0.500000  1
  Sn  Sn25  1  0.835838  0.006123  0.500000  1
  Sn  Sn26  1  0.493877  0.664162  0.500000  1
  Sn  Sn27  1  0.506022  0.335747  0.500000  1
  Sn  Sn28  1  0.006042  0.164201  0.500000  1
  Sn  Sn29  1  0.993787  0.835644  0.500000  1
  Rh  Rh30  1  0.747356  0.530511  0.000000  1
  Rh  Rh31  1  0.252824  0.469927  0.000000  1
  Rh  Rh32  1  0.247203  0.969871  0.000000  1
  Rh  Rh33  1  0.752801  0.029991  0.000000  1
  Rh  Rh34  1  0.470009  0.747200  0.000000  1
  Rh  Rh35  1  0.530131  0.252800  0.000000  1
  Rh  Rh36  1  0.030076  0.247178  0.000000  1
  Rh  Rh37  1  0.969487  0.752648  0.000000  1
