# generated using pymatgen
data_NaNp5Te8
_symmetry_space_group_name_H-M   'P 1'
_cell_length_a   8.12464651
_cell_length_b   8.12464611
_cell_length_c   8.12464655
_cell_angle_alpha   109.07508768
_cell_angle_beta   109.66965037
_cell_angle_gamma   109.66964780
_symmetry_Int_Tables_number   1
_chemical_formula_structural   NaNp5Te8
_chemical_formula_sum   'Na1 Np5 Te8'
_cell_volume   412.83447837
_cell_formula_units_Z   1
loop_
 _symmetry_equiv_pos_site_id
 _symmetry_equiv_pos_as_xyz
  1  'x, y, z'
loop_
 _atom_site_type_symbol
 _atom_site_label
 _atom_site_symmetry_multiplicity
 _atom_site_fract_x
 _atom_site_fract_y
 _atom_site_fract_z
 _atom_site_occupancy
  Na  Na0  1  0.750000  0.875000  0.125000  1
  Np  Np1  1  0.373592  0.250673  0.629033  1
  Np  Np2  1  0.250000  0.625000  0.375000  1
  Np  Np3  1  0.878360  0.122919  0.749327  1
  Np  Np4  1  0.621640  0.370967  0.244559  1
  Np  Np5  1  0.126408  0.755441  0.877081  1
  Te  Te6  1  0.650366  0.646192  0.641073  1
  Te  Te7  1  0.849634  0.490707  0.995826  1
  Te  Te8  1  0.498848  0.999454  0.843647  1
  Te  Te9  1  0.344194  0.499395  0.000546  1
  Te  Te10  1  0.001152  0.844799  0.500605  1
  Te  Te11  1  0.005119  0.358927  0.509293  1
  Te  Te12  1  0.494881  0.004174  0.353808  1
  Te  Te13  1  0.155806  0.156353  0.155201  1
