# generated using pymatgen
data_TbYNiPt
_symmetry_space_group_name_H-M   'P 1'
_cell_length_a   4.35437300
_cell_length_b   5.50772500
_cell_length_c   7.18039300
_cell_angle_alpha   90.00000000
_cell_angle_beta   90.00000000
_cell_angle_gamma   90.00000000
_symmetry_Int_Tables_number   1
_chemical_formula_structural   TbYNiPt
_chemical_formula_sum   'Tb2 Y2 Ni2 Pt2'
_cell_volume   172.20513244
_cell_formula_units_Z   2
loop_
 _symmetry_equiv_pos_site_id
 _symmetry_equiv_pos_as_xyz
  1  'x, y, z'
loop_
 _atom_site_type_symbol
 _atom_site_label
 _atom_site_symmetry_multiplicity
 _atom_site_fract_x
 _atom_site_fract_y
 _atom_site_fract_z
 _atom_site_occupancy
  Tb  Tb0  1  0.000000  0.121338  0.678391  1
  Tb  Tb1  1  0.000000  0.878662  0.178391  1
  Y  Y2  1  0.500000  0.382741  0.319552  1
  Y  Y3  1  0.500000  0.617259  0.819552  1
  Ni  Ni4  1  0.000000  0.614425  0.541727  1
  Ni  Ni5  1  0.000000  0.385575  0.041727  1
  Pt  Pt6  1  0.500000  0.883656  0.460330  1
  Pt  Pt7  1  0.500000  0.116344  0.960330  1
