# generated using pymatgen
data_Y5Tm15(Cd3Co)2
_symmetry_space_group_name_H-M   'P 1'
_cell_length_a   9.54021900
_cell_length_b   9.54021870
_cell_length_c   9.61329700
_cell_angle_alpha   90.00000000
_cell_angle_beta   90.00000000
_cell_angle_gamma   119.99855566
_symmetry_Int_Tables_number   1
_chemical_formula_structural   Y5Tm15(Cd3Co)2
_chemical_formula_sum   'Y5 Tm15 Cd6 Co2'
_cell_volume   757.75007348
_cell_formula_units_Z   1
loop_
 _symmetry_equiv_pos_site_id
 _symmetry_equiv_pos_as_xyz
  1  'x, y, z'
loop_
 _atom_site_type_symbol
 _atom_site_label
 _atom_site_symmetry_multiplicity
 _atom_site_fract_x
 _atom_site_fract_y
 _atom_site_fract_z
 _atom_site_occupancy
  Y  Y0  1  0.541886  0.084459  0.250000  1
  Y  Y1  1  0.915541  0.458114  0.250000  1
  Y  Y2  1  0.458077  0.541923  0.750000  1
  Y  Y3  1  0.458132  0.916422  0.750000  1
  Y  Y4  1  0.083578  0.541868  0.750000  1
  Tm  Tm5  1  0.000036  0.999964  0.500059  1
  Tm  Tm6  1  0.000036  0.999964  0.999941  1
  Tm  Tm7  1  0.541712  0.458288  0.250000  1
  Tm  Tm8  1  0.211906  0.788094  0.435723  1
  Tm  Tm9  1  0.212597  0.423688  0.435461  1
  Tm  Tm10  1  0.576312  0.787403  0.435461  1
  Tm  Tm11  1  0.788060  0.211940  0.564198  1
  Tm  Tm12  1  0.787516  0.575933  0.563771  1
  Tm  Tm13  1  0.424067  0.212484  0.563771  1
  Tm  Tm14  1  0.788060  0.211940  0.935802  1
  Tm  Tm15  1  0.787516  0.575933  0.936229  1
  Tm  Tm16  1  0.424067  0.212484  0.936229  1
  Tm  Tm17  1  0.211906  0.788094  0.064277  1
  Tm  Tm18  1  0.212597  0.423688  0.064539  1
  Tm  Tm19  1  0.576312  0.787403  0.064539  1
  Cd  Cd20  1  0.885427  0.114573  0.250000  1
  Cd  Cd21  1  0.884356  0.770011  0.250000  1
  Cd  Cd22  1  0.229989  0.115644  0.250000  1
  Cd  Cd23  1  0.114537  0.885463  0.750000  1
  Cd  Cd24  1  0.114699  0.229180  0.750000  1
  Cd  Cd25  1  0.770820  0.885301  0.750000  1
  Co  Co26  1  0.333468  0.666532  0.250000  1
  Co  Co27  1  0.666788  0.333212  0.750000  1
