# generated using pymatgen
data_Pr13Nd3Cd2(HgPd2)2
_symmetry_space_group_name_H-M   'P 1'
_cell_length_a   10.08232997
_cell_length_b   10.08004962
_cell_length_c   10.09843200
_cell_angle_alpha   59.93965613
_cell_angle_beta   59.94715578
_cell_angle_gamma   59.92841254
_symmetry_Int_Tables_number   1
_chemical_formula_structural   Pr13Nd3Cd2(HgPd2)2
_chemical_formula_sum   'Pr13 Nd3 Cd2 Hg2 Pd4'
_cell_volume   724.69518420
_cell_formula_units_Z   1
loop_
 _symmetry_equiv_pos_site_id
 _symmetry_equiv_pos_as_xyz
  1  'x, y, z'
loop_
 _atom_site_type_symbol
 _atom_site_label
 _atom_site_symmetry_multiplicity
 _atom_site_fract_x
 _atom_site_fract_y
 _atom_site_fract_z
 _atom_site_occupancy
  Pr  Pr0  1  0.939908  0.354263  0.352916  1
  Pr  Pr1  1  0.807755  0.192134  0.193559  1
  Pr  Pr2  1  0.192218  0.807804  0.806334  1
  Pr  Pr3  1  0.192218  0.807804  0.193646  1
  Pr  Pr4  1  0.807755  0.192134  0.806553  1
  Pr  Pr5  1  0.191732  0.191717  0.808276  1
  Pr  Pr6  1  0.805530  0.805756  0.194357  1
  Pr  Pr7  1  0.937298  0.563121  0.565378  1
  Pr  Pr8  1  0.562972  0.937335  0.934314  1
  Pr  Pr9  1  0.562972  0.937335  0.565379  1
  Pr  Pr10  1  0.937298  0.563121  0.934203  1
  Pr  Pr11  1  0.563304  0.563462  0.936617  1
  Pr  Pr12  1  0.934940  0.934790  0.565135  1
  Nd  Nd13  1  0.351429  0.351194  0.350919  1
  Nd  Nd14  1  0.351429  0.351194  0.946460  1
  Nd  Nd15  1  0.354319  0.940217  0.352733  1
  Cd  Cd16  1  0.578136  0.261352  0.580256  1
  Cd  Cd17  1  0.261375  0.578434  0.580095  1
  Hg  Hg18  1  0.582932  0.583346  0.586359  1
  Hg  Hg19  1  0.582932  0.583346  0.247362  1
  Pd  Pd20  1  0.144784  0.144080  0.144893  1
  Pd  Pd21  1  0.144784  0.144080  0.566243  1
  Pd  Pd22  1  0.144108  0.568284  0.143804  1
  Pd  Pd23  1  0.567873  0.143698  0.144214  1
