# generated using pymatgen
data_MnCr(CoP)2
_symmetry_space_group_name_H-M   'P 1'
_cell_length_a   3.50383600
_cell_length_b   5.77062600
_cell_length_c   6.69000500
_cell_angle_alpha   90.00000000
_cell_angle_beta   90.00000000
_cell_angle_gamma   90.00000000
_symmetry_Int_Tables_number   1
_chemical_formula_structural   MnCr(CoP)2
_chemical_formula_sum   'Mn2 Cr2 Co4 P4'
_cell_volume   135.26739954
_cell_formula_units_Z   2
loop_
 _symmetry_equiv_pos_site_id
 _symmetry_equiv_pos_as_xyz
  1  'x, y, z'
loop_
 _atom_site_type_symbol
 _atom_site_label
 _atom_site_symmetry_multiplicity
 _atom_site_fract_x
 _atom_site_fract_y
 _atom_site_fract_z
 _atom_site_occupancy
  Mn  Mn0  1  0.750000  0.528427  0.170834  1
  Mn  Mn1  1  0.750000  0.028427  0.329166  1
  Cr  Cr2  1  0.250000  0.472282  0.825433  1
  Cr  Cr3  1  0.250000  0.972282  0.674567  1
  Co  Co4  1  0.750000  0.642733  0.563646  1
  Co  Co5  1  0.750000  0.142733  0.936354  1
  Co  Co6  1  0.250000  0.355768  0.435122  1
  Co  Co7  1  0.250000  0.855768  0.064878  1
  P  P8  1  0.750000  0.263022  0.624819  1
  P  P9  1  0.750000  0.763021  0.875181  1
  P  P10  1  0.250000  0.737769  0.377252  1
  P  P11  1  0.250000  0.237768  0.122748  1
