# generated using pymatgen
data_Yb4AlIr7
_symmetry_space_group_name_H-M   'P 1'
_cell_length_a   5.42176250
_cell_length_b   5.42144102
_cell_length_c   8.35676602
_cell_angle_alpha   89.99868651
_cell_angle_beta   90.00115366
_cell_angle_gamma   119.99931979
_symmetry_Int_Tables_number   1
_chemical_formula_structural   Yb4AlIr7
_chemical_formula_sum   'Yb4 Al1 Ir7'
_cell_volume   212.72918575
_cell_formula_units_Z   1
loop_
 _symmetry_equiv_pos_site_id
 _symmetry_equiv_pos_as_xyz
  1  'x, y, z'
loop_
 _atom_site_type_symbol
 _atom_site_label
 _atom_site_symmetry_multiplicity
 _atom_site_fract_x
 _atom_site_fract_y
 _atom_site_fract_z
 _atom_site_occupancy
  Yb  Yb0  1  0.666660  0.333347  0.573639  1
  Yb  Yb1  1  0.333340  0.666653  0.426361  1
  Yb  Yb2  1  0.333344  0.666649  0.066535  1
  Yb  Yb3  1  0.666656  0.333351  0.933465  1
  Al  Al4  1  0.000000  0.000000  0.500000  1
  Ir  Ir5  1  0.000000  0.000000  0.000000  1
  Ir  Ir6  1  0.171410  0.342853  0.746730  1
  Ir  Ir7  1  0.171441  0.828568  0.746744  1
  Ir  Ir8  1  0.657140  0.828592  0.746732  1
  Ir  Ir9  1  0.828590  0.657147  0.253270  1
  Ir  Ir10  1  0.828559  0.171432  0.253256  1
  Ir  Ir11  1  0.342860  0.171408  0.253268  1
