# generated using pymatgen
data_Bi3Pd6PbSe4
_symmetry_space_group_name_H-M   'P 1'
_cell_length_a   7.36944854
_cell_length_b   7.36944872
_cell_length_c   8.52004896
_cell_angle_alpha   55.94176403
_cell_angle_beta   55.94175913
_cell_angle_gamma   71.28987538
_symmetry_Int_Tables_number   1
_chemical_formula_structural   Bi3Pd6PbSe4
_chemical_formula_sum   'Bi3 Pd6 Pb1 Se4'
_cell_volume   317.57100314
_cell_formula_units_Z   1
loop_
 _symmetry_equiv_pos_site_id
 _symmetry_equiv_pos_as_xyz
  1  'x, y, z'
loop_
 _atom_site_type_symbol
 _atom_site_label
 _atom_site_symmetry_multiplicity
 _atom_site_fract_x
 _atom_site_fract_y
 _atom_site_fract_z
 _atom_site_occupancy
  Bi  Bi0  1  0.749084  0.749084  0.257908  1
  Bi  Bi1  1  0.213436  0.213436  0.303635  1
  Bi  Bi2  1  0.786903  0.786903  0.697644  1
  Pd  Pd3  1  0.998120  0.503241  0.497345  1
  Pd  Pd4  1  0.503241  0.998120  0.497345  1
  Pd  Pd5  1  0.019742  0.019742  0.209274  1
  Pd  Pd6  1  0.972725  0.972725  0.802615  1
  Pd  Pd7  1  0.728602  0.277418  0.495405  1
  Pd  Pd8  1  0.277418  0.728602  0.495405  1
  Pb  Pb9  1  0.249910  0.249910  0.747722  1
  Se  Se10  1  0.741318  0.319253  0.180595  1
  Se  Se11  1  0.319253  0.741318  0.180595  1
  Se  Se12  1  0.258163  0.682087  0.817257  1
  Se  Se13  1  0.682087  0.258163  0.817257  1
