# generated using pymatgen
data_Ce2Al9Os2Pt
_symmetry_space_group_name_H-M   'P 1'
_cell_length_a   7.62456761
_cell_length_b   7.62456585
_cell_length_c   9.50953215
_cell_angle_alpha   89.90161775
_cell_angle_beta   89.90162774
_cell_angle_gamma   119.36255374
_symmetry_Int_Tables_number   1
_chemical_formula_structural   Ce2Al9Os2Pt
_chemical_formula_sum   'Ce4 Al18 Os4 Pt2'
_cell_volume   481.80526581
_cell_formula_units_Z   2
loop_
 _symmetry_equiv_pos_site_id
 _symmetry_equiv_pos_as_xyz
  1  'x, y, z'
loop_
 _atom_site_type_symbol
 _atom_site_label
 _atom_site_symmetry_multiplicity
 _atom_site_fract_x
 _atom_site_fract_y
 _atom_site_fract_z
 _atom_site_occupancy
  Ce  Ce0  1  0.995807  0.672432  0.254108  1
  Ce  Ce1  1  0.004193  0.327568  0.745892  1
  Ce  Ce2  1  0.672432  0.995807  0.254108  1
  Ce  Ce3  1  0.327568  0.004193  0.745892  1
  Al  Al4  1  0.128571  0.128571  0.249652  1
  Al  Al5  1  0.871429  0.871429  0.750348  1
  Al  Al6  1  0.002964  0.331681  0.076162  1
  Al  Al7  1  0.997036  0.668319  0.923838  1
  Al  Al8  1  0.995358  0.663505  0.574976  1
  Al  Al9  1  0.336495  0.004642  0.425024  1
  Al  Al10  1  0.004642  0.336495  0.425024  1
  Al  Al11  1  0.663505  0.995358  0.574976  1
  Al  Al12  1  0.668319  0.997036  0.923838  1
  Al  Al13  1  0.331681  0.002964  0.076162  1
  Al  Al14  1  0.334726  0.334726  0.546040  1
  Al  Al15  1  0.665274  0.665274  0.453960  1
  Al  Al16  1  0.669501  0.669501  0.054841  1
  Al  Al17  1  0.330499  0.330499  0.945159  1
  Al  Al18  1  0.341547  0.547386  0.252869  1
  Al  Al19  1  0.658453  0.452614  0.747131  1
  Al  Al20  1  0.547386  0.341547  0.252869  1
  Al  Al21  1  0.452614  0.658453  0.747131  1
  Os  Os22  1  0.327372  0.672628  0.500000  1
  Os  Os23  1  0.672628  0.327372  0.500000  1
  Os  Os24  1  0.000000  0.000000  0.000000  1
  Os  Os25  1  0.000000  0.000000  0.500000  1
  Pt  Pt26  1  0.671760  0.328240  0.000000  1
  Pt  Pt27  1  0.328240  0.671760  0.000000  1
