# generated using pymatgen
data_Ac6WO12
_symmetry_space_group_name_H-M   'P 1'
_cell_length_a   7.06994674
_cell_length_b   7.06994585
_cell_length_c   7.06994588
_cell_angle_alpha   98.50217769
_cell_angle_beta   98.50218202
_cell_angle_gamma   98.50217766
_symmetry_Int_Tables_number   1
_chemical_formula_structural   Ac6WO12
_chemical_formula_sum   'Ac6 W1 O12'
_cell_volume   340.41838769
_cell_formula_units_Z   1
loop_
 _symmetry_equiv_pos_site_id
 _symmetry_equiv_pos_as_xyz
  1  'x, y, z'
loop_
 _atom_site_type_symbol
 _atom_site_label
 _atom_site_symmetry_multiplicity
 _atom_site_fract_x
 _atom_site_fract_y
 _atom_site_fract_z
 _atom_site_occupancy
  Ac  Ac0  1  0.142389  0.302058  0.605025  1
  Ac  Ac1  1  0.394975  0.857611  0.697942  1
  Ac  Ac2  1  0.697942  0.394975  0.857611  1
  Ac  Ac3  1  0.302058  0.605025  0.142389  1
  Ac  Ac4  1  0.605025  0.142389  0.302058  1
  Ac  Ac5  1  0.857611  0.697942  0.394975  1
  W  W6  1  0.000000  0.000000  0.000000  1
  O  O7  1  0.066811  0.276705  0.971229  1
  O  O8  1  0.028771  0.933189  0.723295  1
  O  O9  1  0.406029  0.557027  0.822600  1
  O  O10  1  0.177400  0.593971  0.442973  1
  O  O11  1  0.723295  0.028771  0.933189  1
  O  O12  1  0.442973  0.177400  0.593971  1
  O  O13  1  0.557027  0.822600  0.406029  1
  O  O14  1  0.276705  0.971229  0.066811  1
  O  O15  1  0.822600  0.406029  0.557027  1
  O  O16  1  0.593971  0.442973  0.177400  1
  O  O17  1  0.971229  0.066811  0.276705  1
  O  O18  1  0.933189  0.723295  0.028771  1
