# generated using pymatgen
data_Li2MgNb(B4Ru5)2
_symmetry_space_group_name_H-M   'P 1'
_cell_length_a   2.95046900
_cell_length_b   8.33454493
_cell_length_c   10.03512638
_cell_angle_alpha   90.36670821
_cell_angle_beta   90.00000000
_cell_angle_gamma   90.00000000
_symmetry_Int_Tables_number   1
_chemical_formula_structural   Li2MgNb(B4Ru5)2
_chemical_formula_sum   'Li2 Mg1 Nb1 B8 Ru10'
_cell_volume   246.76689635
_cell_formula_units_Z   1
loop_
 _symmetry_equiv_pos_site_id
 _symmetry_equiv_pos_as_xyz
  1  'x, y, z'
loop_
 _atom_site_type_symbol
 _atom_site_label
 _atom_site_symmetry_multiplicity
 _atom_site_fract_x
 _atom_site_fract_y
 _atom_site_fract_z
 _atom_site_occupancy
  Li  Li0  1  0.500000  0.353272  0.188403  1
  Li  Li1  1  0.500000  0.154774  0.678315  1
  Mg  Mg2  1  0.500000  0.853108  0.315129  1
  Nb  Nb3  1  0.500000  0.651173  0.819218  1
  B  B4  1  0.500000  0.853994  0.595801  1
  B  B5  1  0.500000  0.146313  0.392605  1
  B  B6  1  0.500000  0.343609  0.898673  1
  B  B7  1  0.500000  0.642955  0.107357  1
  B  B8  1  0.500000  0.964561  0.908868  1
  B  B9  1  0.500000  0.043034  0.089754  1
  B  B10  1  0.500000  0.453002  0.589542  1
  B  B11  1  0.500000  0.533160  0.409901  1
  Ru  Ru12  1  0.000000  0.394786  0.739980  1
  Ru  Ru13  1  0.000000  0.599933  0.263229  1
  Ru  Ru14  1  0.000000  0.904447  0.758606  1
  Ru  Ru15  1  0.000000  0.111228  0.236209  1
  Ru  Ru16  1  0.000000  0.007174  0.503328  1
  Ru  Ru17  1  0.000000  0.496992  0.000184  1
  Ru  Ru18  1  0.000000  0.656473  0.554960  1
  Ru  Ru19  1  0.000000  0.343327  0.455151  1
  Ru  Ru20  1  0.000000  0.154396  0.952398  1
  Ru  Ru21  1  0.000000  0.838290  0.042390  1
