# generated using pymatgen
data_Er5B5P7Ir19
_symmetry_space_group_name_H-M   'P 1'
_cell_length_a   12.30456827
_cell_length_b   12.32743542
_cell_length_c   3.95003000
_cell_angle_alpha   90.00000000
_cell_angle_beta   90.00000000
_cell_angle_gamma   119.57184525
_symmetry_Int_Tables_number   1
_chemical_formula_structural   Er5B5P7Ir19
_chemical_formula_sum   'Er5 B5 P7 Ir19'
_cell_volume   521.10798532
_cell_formula_units_Z   1
loop_
 _symmetry_equiv_pos_site_id
 _symmetry_equiv_pos_as_xyz
  1  'x, y, z'
loop_
 _atom_site_type_symbol
 _atom_site_label
 _atom_site_symmetry_multiplicity
 _atom_site_fract_x
 _atom_site_fract_y
 _atom_site_fract_z
 _atom_site_occupancy
  Er  Er0  1  0.665706  0.332215  0.000000  1
  Er  Er1  1  0.337260  0.676906  0.000000  1
  Er  Er2  1  0.813903  0.812798  0.500000  1
  Er  Er3  1  0.185020  0.996510  0.500000  1
  Er  Er4  1  0.995394  0.182572  0.500000  1
  B  B5  1  0.694999  0.181378  0.500000  1
  B  B6  1  0.820882  0.513819  0.500000  1
  B  B7  1  0.487762  0.304333  0.500000  1
  B  B8  1  0.184075  0.701012  0.500000  1
  B  B9  1  0.517602  0.824628  0.500000  1
  P  P10  1  0.310257  0.489609  0.500000  1
  P  P11  1  0.637718  0.637233  0.000000  1
  P  P12  1  0.363022  0.998726  0.000000  1
  P  P13  1  0.993556  0.360545  0.000000  1
  P  P14  1  0.181479  0.179764  0.000000  1
  P  P15  1  0.815555  0.999942  0.000000  1
  P  P16  1  0.997648  0.812958  0.000000  1
  Ir  Ir17  1  0.798996  0.181664  0.000000  1
  Ir  Ir18  1  0.815649  0.616602  0.000000  1
  Ir  Ir19  1  0.380041  0.195995  0.000000  1
  Ir  Ir20  1  0.181636  0.799483  0.000000  1
  Ir  Ir21  1  0.620462  0.819478  0.000000  1
  Ir  Ir22  1  0.192643  0.377932  0.000000  1
  Ir  Ir23  1  0.456189  0.452097  0.000000  1
  Ir  Ir24  1  0.546846  0.000947  0.000000  1
  Ir  Ir25  1  0.997225  0.545612  0.000000  1
  Ir  Ir26  1  0.296339  0.291964  0.500000  1
  Ir  Ir27  1  0.701641  0.001095  0.500000  1
  Ir  Ir28  1  0.998952  0.700836  0.500000  1
  Ir  Ir29  1  0.865380  0.363086  0.500000  1
  Ir  Ir30  1  0.637196  0.497510  0.500000  1
  Ir  Ir31  1  0.501151  0.136543  0.500000  1
  Ir  Ir32  1  0.365331  0.868242  0.500000  1
  Ir  Ir33  1  0.511563  0.642973  0.500000  1
  Ir  Ir34  1  0.132373  0.505553  0.500000  1
  Ir  Ir35  1  0.998551  0.997441  0.000000  1
