# generated using pymatgen
data_Y13Th3Mg3CdCo4
_symmetry_space_group_name_H-M   'P 1'
_cell_length_a   9.64456824
_cell_length_b   9.66919119
_cell_length_c   9.66919005
_cell_angle_alpha   59.94692188
_cell_angle_beta   59.89359190
_cell_angle_gamma   59.89358805
_symmetry_Int_Tables_number   1
_chemical_formula_structural   Y13Th3Mg3CdCo4
_chemical_formula_sum   'Y13 Th3 Mg3 Cd1 Co4'
_cell_volume   636.31724681
_cell_formula_units_Z   1
loop_
 _symmetry_equiv_pos_site_id
 _symmetry_equiv_pos_as_xyz
  1  'x, y, z'
loop_
 _atom_site_type_symbol
 _atom_site_label
 _atom_site_symmetry_multiplicity
 _atom_site_fract_x
 _atom_site_fract_y
 _atom_site_fract_z
 _atom_site_occupancy
  Y  Y0  1  0.958044  0.347929  0.347929  1
  Y  Y1  1  0.811939  0.187375  0.187375  1
  Y  Y2  1  0.187646  0.812735  0.812735  1
  Y  Y3  1  0.187826  0.812417  0.186549  1
  Y  Y4  1  0.812820  0.186902  0.812733  1
  Y  Y5  1  0.187826  0.186549  0.812417  1
  Y  Y6  1  0.812820  0.812733  0.186902  1
  Y  Y7  1  0.934883  0.564561  0.564561  1
  Y  Y8  1  0.562524  0.936912  0.936912  1
  Y  Y9  1  0.562985  0.935494  0.564001  1
  Y  Y10  1  0.936183  0.563765  0.935357  1
  Y  Y11  1  0.562985  0.564001  0.935494  1
  Y  Y12  1  0.936183  0.935357  0.563765  1
  Th  Th13  1  0.339728  0.344117  0.344117  1
  Th  Th14  1  0.340736  0.345309  0.969351  1
  Th  Th15  1  0.340736  0.969351  0.345309  1
  Mg  Mg16  1  0.579245  0.579535  0.263361  1
  Mg  Mg17  1  0.579245  0.263361  0.579535  1
  Mg  Mg18  1  0.260872  0.579987  0.579987  1
  Cd  Cd19  1  0.582324  0.579789  0.579789  1
  Co  Co20  1  0.152504  0.139877  0.139877  1
  Co  Co21  1  0.153467  0.139271  0.567212  1
  Co  Co22  1  0.153467  0.567212  0.139271  1
  Co  Co23  1  0.563005  0.145465  0.145465  1
