# generated using pymatgen
data_TbYNi12As6P
_symmetry_space_group_name_H-M   'P 1'
_cell_length_a   9.30729500
_cell_length_b   9.30729619
_cell_length_c   3.82003900
_cell_angle_alpha   90.00000000
_cell_angle_beta   90.00000000
_cell_angle_gamma   119.99999931
_symmetry_Int_Tables_number   1
_chemical_formula_structural   TbYNi12As6P
_chemical_formula_sum   'Tb1 Y1 Ni12 As6 P1'
_cell_volume   286.57971462
_cell_formula_units_Z   1
loop_
 _symmetry_equiv_pos_site_id
 _symmetry_equiv_pos_as_xyz
  1  'x, y, z'
loop_
 _atom_site_type_symbol
 _atom_site_label
 _atom_site_symmetry_multiplicity
 _atom_site_fract_x
 _atom_site_fract_y
 _atom_site_fract_z
 _atom_site_occupancy
  Tb  Tb0  1  0.666667  0.333333  0.000000  1
  Y  Y1  1  0.000000  0.000000  0.500000  1
  Ni  Ni2  1  0.708361  0.089833  0.500000  1
  Ni  Ni3  1  0.910167  0.618526  0.500000  1
  Ni  Ni4  1  0.381474  0.291639  0.500000  1
  Ni  Ni5  1  0.770608  0.722146  0.000000  1
  Ni  Ni6  1  0.277854  0.048460  0.000000  1
  Ni  Ni7  1  0.951540  0.229392  0.000000  1
  Ni  Ni8  1  0.526360  0.755212  0.500000  1
  Ni  Ni9  1  0.244788  0.771147  0.500000  1
  Ni  Ni10  1  0.228853  0.473640  0.500000  1
  Ni  Ni11  1  0.475556  0.933256  0.000000  1
  Ni  Ni12  1  0.066744  0.542299  0.000000  1
  Ni  Ni13  1  0.457701  0.524444  0.000000  1
  As  As14  1  0.440676  0.070963  0.500000  1
  As  As15  1  0.929037  0.369712  0.500000  1
  As  As16  1  0.630288  0.559324  0.500000  1
  As  As17  1  0.735341  0.952560  0.000000  1
  As  As18  1  0.047440  0.782783  0.000000  1
  As  As19  1  0.217217  0.264659  0.000000  1
  P  P20  1  0.333333  0.666667  0.000000  1
