# generated using pymatgen
data_Dy4Er8CdCo5
_symmetry_space_group_name_H-M   'P 1'
_cell_length_a   8.23181815
_cell_length_b   8.23181886
_cell_length_c   8.23181850
_cell_angle_alpha   107.40023971
_cell_angle_beta   110.23974615
_cell_angle_gamma   110.79382157
_symmetry_Int_Tables_number   1
_chemical_formula_structural   Dy4Er8CdCo5
_chemical_formula_sum   'Dy4 Er8 Cd1 Co5'
_cell_volume   428.97406441
_cell_formula_units_Z   1
loop_
 _symmetry_equiv_pos_site_id
 _symmetry_equiv_pos_as_xyz
  1  'x, y, z'
loop_
 _atom_site_type_symbol
 _atom_site_label
 _atom_site_symmetry_multiplicity
 _atom_site_fract_x
 _atom_site_fract_y
 _atom_site_fract_z
 _atom_site_occupancy
  Dy  Dy0  1  0.193678  0.210681  0.404361  1
  Dy  Dy1  1  0.806322  0.789319  0.595639  1
  Dy  Dy2  1  0.193678  0.789319  0.982996  1
  Dy  Dy3  1  0.806322  0.210681  0.017004  1
  Er  Er4  1  0.473245  0.289773  0.183472  1
  Er  Er5  1  0.106301  0.289773  0.816528  1
  Er  Er6  1  0.893699  0.710227  0.183472  1
  Er  Er7  1  0.526755  0.710227  0.816528  1
  Er  Er8  1  0.304386  0.619668  0.315283  1
  Er  Er9  1  0.304386  0.989104  0.684717  1
  Er  Er10  1  0.695614  0.380332  0.684717  1
  Er  Er11  1  0.695614  0.010896  0.315283  1
  Cd  Cd12  1  0.000000  0.500000  0.500000  1
  Co  Co13  1  0.500000  0.613210  0.113210  1
  Co  Co14  1  0.500000  0.386790  0.886790  1
  Co  Co15  1  0.377680  0.000000  0.377680  1
  Co  Co16  1  0.622320  0.000000  0.622320  1
  Co  Co17  1  0.000000  0.000000  0.000000  1
