# generated using pymatgen
data_Dy5YNi18P13Pt2
_symmetry_space_group_name_H-M   'P 1'
_cell_length_a   12.80080405
_cell_length_b   12.79860679
_cell_length_c   3.77550400
_cell_angle_alpha   90.00000000
_cell_angle_beta   90.00000000
_cell_angle_gamma   120.01577882
_symmetry_Int_Tables_number   1
_chemical_formula_structural   Dy5YNi18P13Pt2
_chemical_formula_sum   'Dy5 Y1 Ni18 P13 Pt2'
_cell_volume   535.59490691
_cell_formula_units_Z   1
loop_
 _symmetry_equiv_pos_site_id
 _symmetry_equiv_pos_as_xyz
  1  'x, y, z'
loop_
 _atom_site_type_symbol
 _atom_site_label
 _atom_site_symmetry_multiplicity
 _atom_site_fract_x
 _atom_site_fract_y
 _atom_site_fract_z
 _atom_site_occupancy
  Dy  Dy0  1  0.464563  0.183276  0.000000  1
  Dy  Dy1  1  0.718544  0.535362  0.000000  1
  Dy  Dy2  1  0.535855  0.815991  0.500000  1
  Dy  Dy3  1  0.280129  0.464053  0.500000  1
  Dy  Dy4  1  0.183946  0.719856  0.500000  1
  Y  Y5  1  0.816835  0.281411  0.000000  1
  Ni  Ni6  1  0.193823  0.090837  0.000000  1
  Ni  Ni7  1  0.896982  0.806087  0.000000  1
  Ni  Ni8  1  0.909162  0.102841  0.000000  1
  Ni  Ni9  1  0.850987  0.927841  0.500000  1
  Ni  Ni10  1  0.076989  0.149060  0.500000  1
  Ni  Ni11  1  0.072048  0.923141  0.500000  1
  Ni  Ni12  1  0.435889  0.413805  0.000000  1
  Ni  Ni13  1  0.977967  0.564251  0.000000  1
  Ni  Ni14  1  0.586140  0.021993  0.000000  1
  Ni  Ni15  1  0.567856  0.590388  0.500000  1
  Ni  Ni16  1  0.022725  0.432355  0.500000  1
  Ni  Ni17  1  0.409634  0.977490  0.500000  1
  Ni  Ni18  1  0.077151  0.317001  0.000000  1
  Ni  Ni19  1  0.240004  0.922991  0.000000  1
  Ni  Ni20  1  0.683041  0.760023  0.000000  1
  Ni  Ni21  1  0.930660  0.686623  0.500000  1
  Ni  Ni22  1  0.755854  0.069106  0.500000  1
  Ni  Ni23  1  0.313428  0.244081  0.500000  1
  P  P24  1  0.233503  0.281188  0.000000  1
  P  P25  1  0.047756  0.766576  0.000000  1
  P  P26  1  0.718793  0.952216  0.000000  1
  P  P27  1  0.769762  0.723590  0.500000  1
  P  P28  1  0.954069  0.230186  0.500000  1
  P  P29  1  0.276386  0.046158  0.500000  1
  P  P30  1  0.484328  0.612406  0.000000  1
  P  P31  1  0.128116  0.515719  0.000000  1
  P  P32  1  0.387566  0.871935  0.000000  1
  P  P33  1  0.516059  0.388614  0.500000  1
  P  P34  1  0.872397  0.484022  0.500000  1
  P  P35  1  0.611222  0.127484  0.500000  1
  P  P36  1  0.000030  0.999973  0.000000  1
  Pt  Pt37  1  0.333366  0.666649  0.000000  1
  Pt  Pt38  1  0.666437  0.333419  0.500000  1
