# generated using pymatgen
data_Y4Ga3Ge
_symmetry_space_group_name_H-M   'P 1'
_cell_length_a   4.01915800
_cell_length_b   4.36030900
_cell_length_c   10.88084000
_cell_angle_alpha   90.00000000
_cell_angle_beta   90.00000000
_cell_angle_gamma   90.00000000
_symmetry_Int_Tables_number   1
_chemical_formula_structural   Y4Ga3Ge
_chemical_formula_sum   'Y4 Ga3 Ge1'
_cell_volume   190.68422711
_cell_formula_units_Z   1
loop_
 _symmetry_equiv_pos_site_id
 _symmetry_equiv_pos_as_xyz
  1  'x, y, z'
loop_
 _atom_site_type_symbol
 _atom_site_label
 _atom_site_symmetry_multiplicity
 _atom_site_fract_x
 _atom_site_fract_y
 _atom_site_fract_z
 _atom_site_occupancy
  Y  Y0  1  0.000000  0.000000  0.139595  1
  Y  Y1  1  0.000000  0.500000  0.639758  1
  Y  Y2  1  0.500000  0.500000  0.360586  1
  Y  Y3  1  0.500000  0.000000  0.859519  1
  Ga  Ga4  1  0.000000  0.500000  0.922862  1
  Ga  Ga5  1  0.500000  0.500000  0.078307  1
  Ga  Ga6  1  0.500000  0.000000  0.578377  1
  Ge  Ge7  1  0.000000  0.000000  0.420996  1
