# generated using pymatgen
data_Nd4Ga17SiIr6
_symmetry_space_group_name_H-M   'P 1'
_cell_length_a   7.65252041
_cell_length_b   7.62497793
_cell_length_c   9.58780889
_cell_angle_alpha   90.07563556
_cell_angle_beta   89.72151278
_cell_angle_gamma   119.72254391
_symmetry_Int_Tables_number   1
_chemical_formula_structural   Nd4Ga17SiIr6
_chemical_formula_sum   'Nd4 Ga17 Si1 Ir6'
_cell_volume   485.84199741
_cell_formula_units_Z   1
loop_
 _symmetry_equiv_pos_site_id
 _symmetry_equiv_pos_as_xyz
  1  'x, y, z'
loop_
 _atom_site_type_symbol
 _atom_site_label
 _atom_site_symmetry_multiplicity
 _atom_site_fract_x
 _atom_site_fract_y
 _atom_site_fract_z
 _atom_site_occupancy
  Nd  Nd0  1  0.996903  0.665784  0.248380  1
  Nd  Nd1  1  0.003053  0.330563  0.750870  1
  Nd  Nd2  1  0.673875  0.001966  0.248427  1
  Nd  Nd3  1  0.329786  0.002868  0.750146  1
  Ga  Ga4  1  0.131590  0.131145  0.250731  1
  Ga  Ga5  1  0.870310  0.872084  0.750473  1
  Ga  Ga6  1  0.996478  0.669692  0.919602  1
  Ga  Ga7  1  0.998442  0.665345  0.578113  1
  Ga  Ga8  1  0.334515  0.999815  0.421234  1
  Ga  Ga9  1  0.001571  0.335124  0.423389  1
  Ga  Ga10  1  0.664683  0.998186  0.578155  1
  Ga  Ga11  1  0.658803  0.992698  0.919666  1
  Ga  Ga12  1  0.334135  0.999726  0.079845  1
  Ga  Ga13  1  0.333500  0.332666  0.557860  1
  Ga  Ga14  1  0.668186  0.668513  0.439668  1
  Ga  Ga15  1  0.667341  0.668419  0.063210  1
  Ga  Ga16  1  0.339303  0.333826  0.940877  1
  Ga  Ga17  1  0.342337  0.546175  0.251378  1
  Ga  Ga18  1  0.660204  0.453186  0.750905  1
  Ga  Ga19  1  0.546233  0.340690  0.250477  1
  Ga  Ga20  1  0.452256  0.657593  0.750363  1
  Si  Si21  1  0.001204  0.334642  0.071178  1
  Ir  Ir22  1  0.682298  0.329175  0.002473  1
  Ir  Ir23  1  0.314408  0.656719  0.001478  1
  Ir  Ir24  1  0.328600  0.670528  0.500240  1
  Ir  Ir25  1  0.670709  0.328914  0.500091  1
  Ir  Ir26  1  0.999346  0.013527  0.001081  1
  Ir  Ir27  1  0.999927  0.000430  0.499695  1
