# generated using pymatgen
data_U4Cr(AsRu)6
_symmetry_space_group_name_H-M   'P 1'
_cell_length_a   7.21499674
_cell_length_b   7.21499609
_cell_length_c   7.21499623
_cell_angle_alpha   109.54658000
_cell_angle_beta   109.32061457
_cell_angle_gamma   109.54656932
_symmetry_Int_Tables_number   1
_chemical_formula_structural   U4Cr(AsRu)6
_chemical_formula_sum   'U4 Cr1 As6 Ru6'
_cell_volume   289.12405281
_cell_formula_units_Z   1
loop_
 _symmetry_equiv_pos_site_id
 _symmetry_equiv_pos_as_xyz
  1  'x, y, z'
loop_
 _atom_site_type_symbol
 _atom_site_label
 _atom_site_symmetry_multiplicity
 _atom_site_fract_x
 _atom_site_fract_y
 _atom_site_fract_z
 _atom_site_occupancy
  U  U0  1  0.997629  0.995258  0.497629  1
  U  U1  1  0.502371  0.004742  0.002371  1
  U  U2  1  0.997629  0.500000  0.002371  1
  U  U3  1  0.502371  0.500000  0.497629  1
  Cr  Cr4  1  0.750000  0.500000  0.250000  1
  As  As5  1  0.309109  0.000000  0.309109  1
  As  As6  1  0.996518  0.310907  0.307425  1
  As  As7  1  0.996518  0.689093  0.685611  1
  As  As8  1  0.314389  0.310907  0.003482  1
  As  As9  1  0.692575  0.689093  0.003482  1
  As  As10  1  0.690891  0.000000  0.690891  1
  Ru  Ru11  1  0.501184  0.749652  0.250836  1
  Ru  Ru12  1  0.501184  0.250348  0.751532  1
  Ru  Ru13  1  0.749164  0.250348  0.498816  1
  Ru  Ru14  1  0.248468  0.749652  0.498816  1
  Ru  Ru15  1  0.250000  0.500000  0.750000  1
  Ru  Ru16  1  0.000000  0.000000  0.000000  1
