# generated using pymatgen
data_Dy6Y2Ta11TiSi16
_symmetry_space_group_name_H-M   'P 1'
_cell_length_a   7.04414510
_cell_length_b   7.04031898
_cell_length_c   12.98205700
_cell_angle_alpha   89.95752654
_cell_angle_beta   90.00976871
_cell_angle_gamma   90.00645272
_symmetry_Int_Tables_number   1
_chemical_formula_structural   Dy6Y2Ta11TiSi16
_chemical_formula_sum   'Dy6 Y2 Ta11 Ti1 Si16'
_cell_volume   643.81933188
_cell_formula_units_Z   1
loop_
 _symmetry_equiv_pos_site_id
 _symmetry_equiv_pos_as_xyz
  1  'x, y, z'
loop_
 _atom_site_type_symbol
 _atom_site_label
 _atom_site_symmetry_multiplicity
 _atom_site_fract_x
 _atom_site_fract_y
 _atom_site_fract_z
 _atom_site_occupancy
  Dy  Dy0  1  0.342406  0.001748  0.467857  1
  Dy  Dy1  1  0.498244  0.842065  0.717733  1
  Dy  Dy2  1  0.501943  0.158447  0.217964  1
  Dy  Dy3  1  0.841433  0.497820  0.282037  1
  Dy  Dy4  1  0.158041  0.501713  0.782336  1
  Dy  Dy5  1  0.658450  0.997699  0.968004  1
  Y  Y6  1  0.002451  0.341280  0.531922  1
  Y  Y7  1  0.997783  0.659331  0.031708  1
  Ta  Ta8  1  0.329030  0.328920  0.999783  1
  Ta  Ta9  1  0.171435  0.828320  0.250246  1
  Ta  Ta10  1  0.827272  0.172577  0.750225  1
  Ta  Ta11  1  0.670676  0.671220  0.499756  1
  Ta  Ta12  1  0.152247  0.007534  0.873669  1
  Ta  Ta13  1  0.492778  0.652870  0.123845  1
  Ta  Ta14  1  0.507444  0.346817  0.623643  1
  Ta  Ta15  1  0.653018  0.491882  0.876460  1
  Ta  Ta16  1  0.347741  0.507095  0.376156  1
  Ta  Ta17  1  0.846015  0.991258  0.373768  1
  Ta  Ta18  1  0.007988  0.153183  0.126030  1
  Ti  Ti19  1  0.992451  0.845990  0.626526  1
  Si  Si20  1  0.202396  0.131837  0.681804  1
  Si  Si21  1  0.366378  0.704619  0.931408  1
  Si  Si22  1  0.634084  0.295673  0.432124  1
  Si  Si23  1  0.704187  0.366330  0.068545  1
  Si  Si24  1  0.295085  0.634809  0.568378  1
  Si  Si25  1  0.796441  0.865993  0.181503  1
  Si  Si26  1  0.133789  0.203791  0.318663  1
  Si  Si27  1  0.865908  0.796967  0.817406  1
  Si  Si28  1  0.294073  0.954372  0.063555  1
  Si  Si29  1  0.545191  0.793979  0.313655  1
  Si  Si30  1  0.453914  0.206261  0.813399  1
  Si  Si31  1  0.795125  0.547011  0.685519  1
  Si  Si32  1  0.206019  0.454681  0.186499  1
  Si  Si33  1  0.708919  0.044611  0.564368  1
  Si  Si34  1  0.954208  0.294304  0.936161  1
  Si  Si35  1  0.045435  0.706993  0.437347  1
