# generated using pymatgen
data_V2SiMoRh4
_symmetry_space_group_name_H-M   'P 1'
_cell_length_a   4.03668600
_cell_length_b   5.37077300
_cell_length_c   10.20936800
_cell_angle_alpha   90.00000000
_cell_angle_beta   90.00000000
_cell_angle_gamma   90.00000000
_symmetry_Int_Tables_number   1
_chemical_formula_structural   V2SiMoRh4
_chemical_formula_sum   'V4 Si2 Mo2 Rh8'
_cell_volume   221.34036602
_cell_formula_units_Z   2
loop_
 _symmetry_equiv_pos_site_id
 _symmetry_equiv_pos_as_xyz
  1  'x, y, z'
loop_
 _atom_site_type_symbol
 _atom_site_label
 _atom_site_symmetry_multiplicity
 _atom_site_fract_x
 _atom_site_fract_y
 _atom_site_fract_z
 _atom_site_occupancy
  V  V0  1  0.500000  0.138714  0.637261  1
  V  V1  1  0.500000  0.861286  0.362739  1
  V  V2  1  0.500000  0.638714  0.862739  1
  V  V3  1  0.500000  0.361286  0.137261  1
  Si  Si4  1  0.000000  0.500000  0.500000  1
  Si  Si5  1  0.000000  0.000000  0.000000  1
  Mo  Mo6  1  0.000000  0.500000  0.000000  1
  Mo  Mo7  1  0.000000  0.000000  0.500000  1
  Rh  Rh8  1  0.500000  0.331350  0.392845  1
  Rh  Rh9  1  0.500000  0.668650  0.607155  1
  Rh  Rh10  1  0.500000  0.831350  0.107155  1
  Rh  Rh11  1  0.500000  0.168650  0.892845  1
  Rh  Rh12  1  0.000000  0.377270  0.732068  1
  Rh  Rh13  1  0.000000  0.622730  0.267932  1
  Rh  Rh14  1  0.000000  0.877270  0.767932  1
  Rh  Rh15  1  0.000000  0.122730  0.232068  1
