# generated using pymatgen
data_HoLu2Pa(ZnRh)4
_symmetry_space_group_name_H-M   'P 1'
_cell_length_a   3.84124400
_cell_length_b   7.04611559
_cell_length_c   8.27488838
_cell_angle_alpha   90.82326172
_cell_angle_beta   90.00000000
_cell_angle_gamma   90.00000000
_symmetry_Int_Tables_number   1
_chemical_formula_structural   HoLu2Pa(ZnRh)4
_chemical_formula_sum   'Ho1 Lu2 Pa1 Zn4 Rh4'
_cell_volume   223.94376193
_cell_formula_units_Z   1
loop_
 _symmetry_equiv_pos_site_id
 _symmetry_equiv_pos_as_xyz
  1  'x, y, z'
loop_
 _atom_site_type_symbol
 _atom_site_label
 _atom_site_symmetry_multiplicity
 _atom_site_fract_x
 _atom_site_fract_y
 _atom_site_fract_z
 _atom_site_occupancy
  Ho  Ho0  1  0.750000  0.943159  0.686276  1
  Lu  Lu1  1  0.750000  0.444307  0.808633  1
  Lu  Lu2  1  0.250000  0.051227  0.321006  1
  Pa  Pa3  1  0.250000  0.551759  0.178760  1
  Zn  Zn4  1  0.250000  0.129606  0.934875  1
  Zn  Zn5  1  0.750000  0.894018  0.063980  1
  Zn  Zn6  1  0.250000  0.622077  0.564450  1
  Zn  Zn7  1  0.750000  0.366190  0.442414  1
  Rh  Rh8  1  0.750000  0.743016  0.357174  1
  Rh  Rh9  1  0.250000  0.237668  0.625965  1
  Rh  Rh10  1  0.750000  0.279216  0.128077  1
  Rh  Rh11  1  0.250000  0.737760  0.888389  1
