# generated using pymatgen
data_SrPr(Cu9Si4)2
_symmetry_space_group_name_H-M   'P 1'
_cell_length_a   8.17224891
_cell_length_b   8.17224815
_cell_length_c   8.17224807
_cell_angle_alpha   120.44436604
_cell_angle_beta   120.44435878
_cell_angle_gamma   89.23204376
_symmetry_Int_Tables_number   1
_chemical_formula_structural   SrPr(Cu9Si4)2
_chemical_formula_sum   'Sr1 Pr1 Cu18 Si8'
_cell_volume   383.30158148
_cell_formula_units_Z   1
loop_
 _symmetry_equiv_pos_site_id
 _symmetry_equiv_pos_as_xyz
  1  'x, y, z'
loop_
 _atom_site_type_symbol
 _atom_site_label
 _atom_site_symmetry_multiplicity
 _atom_site_fract_x
 _atom_site_fract_y
 _atom_site_fract_z
 _atom_site_occupancy
  Sr  Sr0  1  0.750000  0.750000  0.000000  1
  Pr  Pr1  1  0.250000  0.250000  0.000000  1
  Cu  Cu2  1  0.936134  0.203338  0.138450  1
  Cu  Cu3  1  0.203338  0.064889  0.267204  1
  Cu  Cu4  1  0.797685  0.936134  0.732796  1
  Cu  Cu5  1  0.435111  0.296662  0.732796  1
  Cu  Cu6  1  0.064889  0.797685  0.861550  1
  Cu  Cu7  1  0.806511  0.058464  0.499688  1
  Cu  Cu8  1  0.558775  0.306823  0.500312  1
  Cu  Cu9  1  0.193177  0.941225  0.499688  1
  Cu  Cu10  1  0.441536  0.693489  0.500312  1
  Cu  Cu11  1  0.941225  0.441536  0.748046  1
  Cu  Cu12  1  0.693489  0.193177  0.251954  1
  Cu  Cu13  1  0.058464  0.558775  0.251954  1
  Cu  Cu14  1  0.702315  0.435111  0.138450  1
  Cu  Cu15  1  0.563866  0.702315  0.267204  1
  Cu  Cu16  1  0.500000  0.000000  0.500000  1
  Cu  Cu17  1  0.000000  0.500000  0.500000  1
  Cu  Cu18  1  0.306823  0.806511  0.748046  1
  Cu  Cu19  1  0.296662  0.563866  0.861550  1
  Si  Si20  1  0.794653  0.290921  0.850954  1
  Si  Si21  1  0.556300  0.060032  0.850954  1
  Si  Si22  1  0.060032  0.209079  0.503732  1
  Si  Si23  1  0.290921  0.439968  0.496268  1
  Si  Si24  1  0.943700  0.794653  0.503732  1
  Si  Si25  1  0.439968  0.943700  0.149046  1
  Si  Si26  1  0.209079  0.705347  0.149046  1
  Si  Si27  1  0.705347  0.556300  0.496268  1
