# generated using pymatgen
data_La16Lu4Ir11Rh
_symmetry_space_group_name_H-M   'P 1'
_cell_length_a   11.32689700
_cell_length_b   11.32689700
_cell_length_c   6.55278500
_cell_angle_alpha   90.00000000
_cell_angle_beta   90.00000000
_cell_angle_gamma   90.00000000
_symmetry_Int_Tables_number   1
_chemical_formula_structural   La16Lu4Ir11Rh
_chemical_formula_sum   'La16 Lu4 Ir11 Rh1'
_cell_volume   840.71311309
_cell_formula_units_Z   1
loop_
 _symmetry_equiv_pos_site_id
 _symmetry_equiv_pos_as_xyz
  1  'x, y, z'
loop_
 _atom_site_type_symbol
 _atom_site_label
 _atom_site_symmetry_multiplicity
 _atom_site_fract_x
 _atom_site_fract_y
 _atom_site_fract_z
 _atom_site_occupancy
  La  La0  1  0.287116  0.088773  0.391859  1
  La  La1  1  0.286656  0.911102  0.889415  1
  La  La2  1  0.713344  0.088898  0.889415  1
  La  La3  1  0.712884  0.911227  0.391859  1
  La  La4  1  0.588898  0.786656  0.889415  1
  La  La5  1  0.588773  0.212884  0.391859  1
  La  La6  1  0.411227  0.787116  0.391859  1
  La  La7  1  0.411102  0.213344  0.889415  1
  La  La8  1  0.212819  0.411433  0.609720  1
  La  La9  1  0.212918  0.588813  0.109873  1
  La  La10  1  0.787082  0.411187  0.109873  1
  La  La11  1  0.787181  0.588567  0.609720  1
  La  La12  1  0.911187  0.712918  0.109873  1
  La  La13  1  0.911433  0.287181  0.609720  1
  La  La14  1  0.088567  0.712819  0.609720  1
  La  La15  1  0.088813  0.287082  0.109873  1
  Lu  Lu16  1  0.000000  0.000000  0.500153  1
  Lu  Lu17  1  0.000000  0.000000  0.000011  1
  Lu  Lu18  1  0.500000  0.500000  0.000011  1
  Lu  Lu19  1  0.500000  0.500000  0.500153  1
  Ir  Ir20  1  0.852303  0.145884  0.250084  1
  Ir  Ir21  1  0.853206  0.853272  0.749561  1
  Ir  Ir22  1  0.146794  0.146728  0.749561  1
  Ir  Ir23  1  0.147697  0.854116  0.250084  1
  Ir  Ir24  1  0.646728  0.353206  0.749561  1
  Ir  Ir25  1  0.645884  0.647697  0.250084  1
  Ir  Ir26  1  0.354116  0.352303  0.250084  1
  Ir  Ir27  1  0.353272  0.646794  0.749561  1
  Ir  Ir28  1  0.500000  0.000000  0.623051  1
  Ir  Ir29  1  0.000000  0.500000  0.878989  1
  Ir  Ir30  1  0.000000  0.500000  0.379427  1
  Rh  Rh31  1  0.500000  0.000000  0.116156  1
