# generated using pymatgen
data_Tb4Nd2PtI10
_symmetry_space_group_name_H-M   'P 1'
_cell_length_a   7.82237315
_cell_length_b   9.84913572
_cell_length_c   9.97901013
_cell_angle_alpha   107.33174093
_cell_angle_beta   96.67001615
_cell_angle_gamma   105.15047387
_symmetry_Int_Tables_number   1
_chemical_formula_structural   Tb4Nd2PtI10
_chemical_formula_sum   'Tb4 Nd2 Pt1 I10'
_cell_volume   692.52167918
_cell_formula_units_Z   1
loop_
 _symmetry_equiv_pos_site_id
 _symmetry_equiv_pos_as_xyz
  1  'x, y, z'
loop_
 _atom_site_type_symbol
 _atom_site_label
 _atom_site_symmetry_multiplicity
 _atom_site_fract_x
 _atom_site_fract_y
 _atom_site_fract_z
 _atom_site_occupancy
  Tb  Tb0  1  0.348104  0.125666  0.164183  1
  Tb  Tb1  1  0.651896  0.874334  0.835817  1
  Tb  Tb2  1  0.971151  0.286212  0.086833  1
  Tb  Tb3  1  0.028849  0.713788  0.913167  1
  Nd  Nd4  1  0.880324  0.956820  0.245396  1
  Nd  Nd5  1  0.119676  0.043180  0.754604  1
  Pt  Pt6  1  0.000000  0.000000  0.000000  1
  I  I7  1  0.352663  0.450539  0.270299  1
  I  I8  1  0.647337  0.549461  0.729701  1
  I  I9  1  0.917038  0.622961  0.174181  1
  I  I10  1  0.082962  0.377039  0.825819  1
  I  I11  1  0.447370  0.816777  0.086893  1
  I  I12  1  0.552630  0.183223  0.913107  1
  I  I13  1  0.269484  0.090057  0.457507  1
  I  I14  1  0.730516  0.909943  0.542493  1
  I  I15  1  0.776804  0.263134  0.343057  1
  I  I16  1  0.223196  0.736866  0.656943  1
