# generated using pymatgen
data_Sc6TaTi3Al12Ru7
_symmetry_space_group_name_H-M   'P 1'
_cell_length_a   8.82731335
_cell_length_b   8.82731373
_cell_length_c   8.83783313
_cell_angle_alpha   60.03937797
_cell_angle_beta   60.03937382
_cell_angle_gamma   60.00000479
_symmetry_Int_Tables_number   1
_chemical_formula_structural   Sc6TaTi3Al12Ru7
_chemical_formula_sum   'Sc6 Ta1 Ti3 Al12 Ru7'
_cell_volume   487.24359828
_cell_formula_units_Z   1
loop_
 _symmetry_equiv_pos_site_id
 _symmetry_equiv_pos_as_xyz
  1  'x, y, z'
loop_
 _atom_site_type_symbol
 _atom_site_label
 _atom_site_symmetry_multiplicity
 _atom_site_fract_x
 _atom_site_fract_y
 _atom_site_fract_z
 _atom_site_occupancy
  Sc  Sc0  1  0.708653  0.708653  0.289337  1
  Sc  Sc1  1  0.293357  0.708653  0.289337  1
  Sc  Sc2  1  0.708653  0.293357  0.289337  1
  Sc  Sc3  1  0.290104  0.290104  0.709277  1
  Sc  Sc4  1  0.710515  0.290104  0.709277  1
  Sc  Sc5  1  0.290104  0.710515  0.709277  1
  Ta  Ta6  1  0.879622  0.879622  0.361133  1
  Ti  Ti7  1  0.880982  0.358492  0.879545  1
  Ti  Ti8  1  0.358492  0.880982  0.879545  1
  Ti  Ti9  1  0.880982  0.880982  0.879545  1
  Al  Al10  1  0.120002  0.120002  0.639994  1
  Al  Al11  1  0.120647  0.640611  0.118093  1
  Al  Al12  1  0.640611  0.120647  0.118093  1
  Al  Al13  1  0.120647  0.120647  0.118093  1
  Al  Al14  1  0.666613  0.666613  0.000162  1
  Al  Al15  1  0.664027  0.002519  0.669427  1
  Al  Al16  1  0.002519  0.664027  0.669427  1
  Al  Al17  1  0.664027  0.664027  0.669427  1
  Al  Al18  1  0.334204  0.334204  0.997387  1
  Al  Al19  1  0.333997  0.996837  0.335168  1
  Al  Al20  1  0.996837  0.333997  0.335168  1
  Al  Al21  1  0.333997  0.333997  0.335168  1
  Ru  Ru22  1  0.000255  0.000255  0.999234  1
  Ru  Ru23  1  0.997462  0.997462  0.500599  1
  Ru  Ru24  1  0.504478  0.997462  0.500599  1
  Ru  Ru25  1  0.997462  0.504478  0.500599  1
  Ru  Ru26  1  0.500852  0.500852  0.999249  1
  Ru  Ru27  1  0.999046  0.500852  0.999249  1
  Ru  Ru28  1  0.500852  0.999046  0.999249  1
