# generated using pymatgen
data_Ce2Dy7Lu7(CdRu)4
_symmetry_space_group_name_H-M   'P 1'
_cell_length_a   9.64002113
_cell_length_b   9.54539449
_cell_length_c   9.56172383
_cell_angle_alpha   59.54210580
_cell_angle_beta   59.45746678
_cell_angle_gamma   59.43574951
_symmetry_Int_Tables_number   1
_chemical_formula_structural   Ce2Dy7Lu7(CdRu)4
_chemical_formula_sum   'Ce2 Dy7 Lu7 Cd4 Ru4'
_cell_volume   614.76521528
_cell_formula_units_Z   1
loop_
 _symmetry_equiv_pos_site_id
 _symmetry_equiv_pos_as_xyz
  1  'x, y, z'
loop_
 _atom_site_type_symbol
 _atom_site_label
 _atom_site_symmetry_multiplicity
 _atom_site_fract_x
 _atom_site_fract_y
 _atom_site_fract_z
 _atom_site_occupancy
  Ce  Ce0  1  0.970572  0.341472  0.341413  1
  Ce  Ce1  1  0.349434  0.340809  0.338892  1
  Dy  Dy2  1  0.561977  0.561634  0.937762  1
  Dy  Dy3  1  0.937792  0.561325  0.939813  1
  Dy  Dy4  1  0.557782  0.941437  0.943117  1
  Dy  Dy5  1  0.938261  0.939325  0.560596  1
  Dy  Dy6  1  0.563016  0.937616  0.560490  1
  Dy  Dy7  1  0.938436  0.561226  0.559191  1
  Dy  Dy8  1  0.187599  0.187158  0.813862  1
  Lu  Lu9  1  0.809449  0.186272  0.814025  1
  Lu  Lu10  1  0.186275  0.811771  0.812365  1
  Lu  Lu11  1  0.810752  0.814235  0.186821  1
  Lu  Lu12  1  0.187310  0.813103  0.188372  1
  Lu  Lu13  1  0.812506  0.186025  0.187887  1
  Lu  Lu14  1  0.348412  0.352257  0.952859  1
  Lu  Lu15  1  0.348037  0.952419  0.352056  1
  Cd  Cd16  1  0.581390  0.579069  0.257404  1
  Cd  Cd17  1  0.582035  0.256901  0.579362  1
  Cd  Cd18  1  0.259169  0.580530  0.579909  1
  Cd  Cd19  1  0.579663  0.579315  0.579500  1
  Ru  Ru20  1  0.138998  0.149197  0.574107  1
  Ru  Ru21  1  0.140413  0.575347  0.148604  1
  Ru  Ru22  1  0.573108  0.146900  0.146056  1
  Ru  Ru23  1  0.137611  0.144656  0.145533  1
