# generated using pymatgen
data_Tm3Ni2Ir7
_symmetry_space_group_name_H-M   'P 1'
_cell_length_a   5.26476337
_cell_length_b   5.26476792
_cell_length_c   8.96997401
_cell_angle_alpha   72.89361007
_cell_angle_beta   72.89361406
_cell_angle_gamma   59.97387139
_symmetry_Int_Tables_number   1
_chemical_formula_structural   Tm3Ni2Ir7
_chemical_formula_sum   'Tm3 Ni2 Ir7'
_cell_volume   202.46756274
_cell_formula_units_Z   1
loop_
 _symmetry_equiv_pos_site_id
 _symmetry_equiv_pos_as_xyz
  1  'x, y, z'
loop_
 _atom_site_type_symbol
 _atom_site_label
 _atom_site_symmetry_multiplicity
 _atom_site_fract_x
 _atom_site_fract_y
 _atom_site_fract_z
 _atom_site_occupancy
  Tm  Tm0  1  0.140178  0.140178  0.579395  1
  Tm  Tm1  1  0.859822  0.859822  0.420605  1
  Tm  Tm2  1  0.000000  0.000000  0.000000  1
  Ni  Ni3  1  0.333453  0.333453  0.999404  1
  Ni  Ni4  1  0.666547  0.666547  0.000596  1
  Ir  Ir5  1  0.077449  0.581787  0.758609  1
  Ir  Ir6  1  0.581906  0.581906  0.758711  1
  Ir  Ir7  1  0.581787  0.077449  0.758609  1
  Ir  Ir8  1  0.922551  0.418213  0.241391  1
  Ir  Ir9  1  0.418094  0.418094  0.241289  1
  Ir  Ir10  1  0.418213  0.922551  0.241391  1
  Ir  Ir11  1  0.500000  0.500000  0.500000  1
