# generated using pymatgen
data_Na2NbNi9P7Ru2
_symmetry_space_group_name_H-M   'P 1'
_cell_length_a   3.65709400
_cell_length_b   9.20114863
_cell_length_c   9.16328094
_cell_angle_alpha   119.93996652
_cell_angle_beta   90.00000000
_cell_angle_gamma   90.00000000
_symmetry_Int_Tables_number   1
_chemical_formula_structural   Na2NbNi9P7Ru2
_chemical_formula_sum   'Na2 Nb1 Ni9 P7 Ru2'
_cell_volume   267.19123414
_cell_formula_units_Z   1
loop_
 _symmetry_equiv_pos_site_id
 _symmetry_equiv_pos_as_xyz
  1  'x, y, z'
loop_
 _atom_site_type_symbol
 _atom_site_label
 _atom_site_symmetry_multiplicity
 _atom_site_fract_x
 _atom_site_fract_y
 _atom_site_fract_z
 _atom_site_occupancy
  Na  Na0  1  0.000000  0.663980  0.330674  1
  Na  Na1  1  0.500000  0.334546  0.666959  1
  Nb  Nb2  1  0.500000  0.098945  0.880341  1
  Ni  Ni3  1  0.000000  0.567790  0.938975  1
  Ni  Ni4  1  0.000000  0.375112  0.438407  1
  Ni  Ni5  1  0.000000  0.058892  0.622619  1
  Ni  Ni6  1  0.500000  0.947578  0.385092  1
  Ni  Ni7  1  0.500000  0.445152  0.059094  1
  Ni  Ni8  1  0.500000  0.610791  0.558442  1
  Ni  Ni9  1  0.000000  0.876106  0.163419  1
  Ni  Ni10  1  0.000000  0.286069  0.129085  1
  Ni  Ni11  1  0.000000  0.834745  0.709200  1
  P  P12  1  0.500000  0.709932  0.116493  1
  P  P13  1  0.500000  0.407307  0.291750  1
  P  P14  1  0.500000  0.875509  0.582566  1
  P  P15  1  0.000000  0.993532  0.001635  1
  P  P16  1  0.000000  0.589724  0.706017  1
  P  P17  1  0.000000  0.116598  0.409774  1
  P  P18  1  0.000000  0.302144  0.886264  1
  Ru  Ru19  1  0.500000  0.781645  0.903579  1
  Ru  Ru20  1  0.500000  0.123902  0.219619  1
