# generated using pymatgen
data_Tb2SmY(B4W)4
_symmetry_space_group_name_H-M   'P 1'
_cell_length_a   6.06330401
_cell_length_b   11.71774187
_cell_length_c   3.64243700
_cell_angle_alpha   90.00000000
_cell_angle_beta   90.00000000
_cell_angle_gamma   89.93544638
_symmetry_Int_Tables_number   1
_chemical_formula_structural   Tb2SmY(B4W)4
_chemical_formula_sum   'Tb2 Sm1 Y1 B16 W4'
_cell_volume   258.78854191
_cell_formula_units_Z   1
loop_
 _symmetry_equiv_pos_site_id
 _symmetry_equiv_pos_as_xyz
  1  'x, y, z'
loop_
 _atom_site_type_symbol
 _atom_site_label
 _atom_site_symmetry_multiplicity
 _atom_site_fract_x
 _atom_site_fract_y
 _atom_site_fract_z
 _atom_site_occupancy
  Tb  Tb0  1  0.373318  0.649929  0.000000  1
  Tb  Tb1  1  0.126673  0.149323  0.000000  1
  Sm  Sm2  1  0.626613  0.349914  0.000000  1
  Y  Y3  1  0.873378  0.850362  0.000000  1
  B  B4  1  0.786871  0.185213  0.500000  1
  B  B5  1  0.213423  0.813744  0.500000  1
  B  B6  1  0.284723  0.313429  0.500000  1
  B  B7  1  0.713508  0.686754  0.500000  1
  B  B8  1  0.866251  0.031543  0.500000  1
  B  B9  1  0.133912  0.967699  0.500000  1
  B  B10  1  0.365408  0.468790  0.500000  1
  B  B11  1  0.634420  0.533120  0.500000  1
  B  B12  1  0.887805  0.453818  0.500000  1
  B  B13  1  0.114033  0.547943  0.500000  1
  B  B14  1  0.386015  0.046672  0.500000  1
  B  B15  1  0.613612  0.952399  0.500000  1
  B  B16  1  0.977095  0.307025  0.500000  1
  B  B17  1  0.023891  0.693552  0.500000  1
  B  B18  1  0.475008  0.191809  0.500000  1
  B  B19  1  0.523757  0.806871  0.500000  1
  W  W20  1  0.630416  0.083524  0.000000  1
  W  W21  1  0.369408  0.915338  0.000000  1
  W  W22  1  0.130534  0.416123  0.000000  1
  W  W23  1  0.869924  0.585107  0.000000  1
