# generated using pymatgen
data_Nd3TaTcC6
_symmetry_space_group_name_H-M   'P 1'
_cell_length_a   8.52820100
_cell_length_b   8.52819913
_cell_length_c   5.18960600
_cell_angle_alpha   90.00000000
_cell_angle_beta   90.00000000
_cell_angle_gamma   119.99998785
_symmetry_Int_Tables_number   1
_chemical_formula_structural   Nd3TaTcC6
_chemical_formula_sum   'Nd6 Ta2 Tc2 C12'
_cell_volume   326.87358934
_cell_formula_units_Z   2
loop_
 _symmetry_equiv_pos_site_id
 _symmetry_equiv_pos_as_xyz
  1  'x, y, z'
loop_
 _atom_site_type_symbol
 _atom_site_label
 _atom_site_symmetry_multiplicity
 _atom_site_fract_x
 _atom_site_fract_y
 _atom_site_fract_z
 _atom_site_occupancy
  Nd  Nd0  1  0.614042  0.681080  0.750000  1
  Nd  Nd1  1  0.932962  0.614042  0.250000  1
  Nd  Nd2  1  0.681080  0.067038  0.250000  1
  Nd  Nd3  1  0.318920  0.932962  0.750000  1
  Nd  Nd4  1  0.067038  0.385958  0.750000  1
  Nd  Nd5  1  0.385958  0.318920  0.250000  1
  Ta  Ta6  1  0.000000  0.000000  0.500000  1
  Ta  Ta7  1  0.000000  0.000000  0.000000  1
  Tc  Tc8  1  0.666667  0.333333  0.750000  1
  Tc  Tc9  1  0.333333  0.666667  0.250000  1
  C  C10  1  0.956715  0.765220  0.750000  1
  C  C11  1  0.191497  0.956715  0.250000  1
  C  C12  1  0.765220  0.808503  0.250000  1
  C  C13  1  0.234780  0.191497  0.750000  1
  C  C14  1  0.808503  0.043285  0.750000  1
  C  C15  1  0.043285  0.234780  0.250000  1
  C  C16  1  0.865669  0.579659  0.750000  1
  C  C17  1  0.286009  0.865669  0.250000  1
  C  C18  1  0.579659  0.713991  0.250000  1
  C  C19  1  0.420341  0.286009  0.750000  1
  C  C20  1  0.134331  0.420341  0.250000  1
  C  C21  1  0.713991  0.134331  0.750000  1
