# generated using pymatgen
data_Rb4Na2NbVSe8
_symmetry_space_group_name_H-M   'P 1'
_cell_length_a   7.64214841
_cell_length_b   7.64214974
_cell_length_c   19.78193645
_cell_angle_alpha   86.87192172
_cell_angle_beta   86.87192304
_cell_angle_gamma   77.42339385
_symmetry_Int_Tables_number   1
_chemical_formula_structural   Rb4Na2NbVSe8
_chemical_formula_sum   'Rb8 Na4 Nb2 V2 Se16'
_cell_volume   1124.83190887
_cell_formula_units_Z   2
loop_
 _symmetry_equiv_pos_site_id
 _symmetry_equiv_pos_as_xyz
  1  'x, y, z'
loop_
 _atom_site_type_symbol
 _atom_site_label
 _atom_site_symmetry_multiplicity
 _atom_site_fract_x
 _atom_site_fract_y
 _atom_site_fract_z
 _atom_site_occupancy
  Rb  Rb0  1  0.837910  0.895602  0.927465  1
  Rb  Rb1  1  0.895602  0.837910  0.427465  1
  Rb  Rb2  1  0.318905  0.680142  0.751398  1
  Rb  Rb3  1  0.501747  0.470565  0.498971  1
  Rb  Rb4  1  0.680142  0.318905  0.251398  1
  Rb  Rb5  1  0.470565  0.501747  0.998971  1
  Rb  Rb6  1  0.104704  0.153488  0.572674  1
  Rb  Rb7  1  0.153488  0.104704  0.072674  1
  Na  Na8  1  0.880557  0.397871  0.788606  1
  Na  Na9  1  0.397871  0.880557  0.288606  1
  Na  Na10  1  0.596000  0.116207  0.715421  1
  Na  Na11  1  0.116207  0.596000  0.215421  1
  Nb  Nb12  1  0.816215  0.701676  0.642577  1
  Nb  Nb13  1  0.701676  0.816215  0.142577  1
  V  V14  1  0.298984  0.185827  0.856581  1
  V  V15  1  0.185827  0.298984  0.356581  1
  Se  Se16  1  0.838468  0.785843  0.757997  1
  Se  Se17  1  0.599898  0.928302  0.583875  1
  Se  Se18  1  0.785843  0.838468  0.257997  1
  Se  Se19  1  0.928302  0.599898  0.083875  1
  Se  Se20  1  0.333279  0.911221  0.912651  1
  Se  Se21  1  0.911221  0.333279  0.412651  1
  Se  Se22  1  0.715402  0.420044  0.649581  1
  Se  Se23  1  0.420044  0.715402  0.149581  1
  Se  Se24  1  0.566919  0.281338  0.851513  1
  Se  Se25  1  0.281338  0.566919  0.351513  1
  Se  Se26  1  0.106135  0.664971  0.583632  1
  Se  Se27  1  0.664971  0.106135  0.083632  1
  Se  Se28  1  0.086711  0.390008  0.913344  1
  Se  Se29  1  0.215896  0.165269  0.747555  1
  Se  Se30  1  0.390008  0.086711  0.413344  1
  Se  Se31  1  0.165269  0.215896  0.247555  1
