# generated using pymatgen
data_Sc8TiNb11Si15As
_symmetry_space_group_name_H-M   'P 1'
_cell_length_a   6.72689775
_cell_length_b   6.90741091
_cell_length_c   13.16501640
_cell_angle_alpha   89.98964003
_cell_angle_beta   90.24673907
_cell_angle_gamma   90.06334414
_symmetry_Int_Tables_number   1
_chemical_formula_structural   Sc8TiNb11Si15As
_chemical_formula_sum   'Sc8 Ti1 Nb11 Si15 As1'
_cell_volume   611.71231543
_cell_formula_units_Z   1
loop_
 _symmetry_equiv_pos_site_id
 _symmetry_equiv_pos_as_xyz
  1  'x, y, z'
loop_
 _atom_site_type_symbol
 _atom_site_label
 _atom_site_symmetry_multiplicity
 _atom_site_fract_x
 _atom_site_fract_y
 _atom_site_fract_z
 _atom_site_occupancy
  Sc  Sc0  1  0.498268  0.674850  0.595196  1
  Sc  Sc1  1  0.001179  0.826242  0.904423  1
  Sc  Sc2  1  0.499669  0.324978  0.094320  1
  Sc  Sc3  1  0.004513  0.177392  0.403185  1
  Sc  Sc4  1  0.499106  0.325623  0.404265  1
  Sc  Sc5  1  0.999129  0.173640  0.094872  1
  Sc  Sc6  1  0.500745  0.674588  0.905364  1
  Sc  Sc7  1  0.001309  0.822493  0.596955  1
  Ti  Ti8  1  0.659362  0.174586  0.625818  1
  Nb  Nb9  1  0.162003  0.325803  0.875168  1
  Nb  Nb10  1  0.337816  0.825228  0.124661  1
  Nb  Nb11  1  0.839718  0.670861  0.374887  1
  Nb  Nb12  1  0.338928  0.826710  0.376199  1
  Nb  Nb13  1  0.836987  0.674147  0.124665  1
  Nb  Nb14  1  0.661928  0.175257  0.874548  1
  Nb  Nb15  1  0.161599  0.327065  0.625101  1
  Nb  Nb16  1  0.835446  0.493387  0.749908  1
  Nb  Nb17  1  0.335757  0.004095  0.749379  1
  Nb  Nb18  1  0.163803  0.506202  0.250286  1
  Nb  Nb19  1  0.664799  0.994126  0.249654  1
  Si  Si20  1  0.168926  0.532984  0.038862  1
  Si  Si21  1  0.331110  0.032498  0.960250  1
  Si  Si22  1  0.828726  0.464409  0.540265  1
  Si  Si23  1  0.320089  0.034968  0.541096  1
  Si  Si24  1  0.831306  0.467456  0.960440  1
  Si  Si25  1  0.668502  0.967774  0.038991  1
  Si  Si26  1  0.170109  0.534166  0.461416  1
  Si  Si27  1  0.458311  0.384096  0.749399  1
  Si  Si28  1  0.956787  0.113980  0.748654  1
  Si  Si29  1  0.541573  0.614242  0.250019  1
  Si  Si30  1  0.042420  0.885651  0.249878  1
  Si  Si31  1  0.704563  0.863796  0.749777  1
  Si  Si32  1  0.204639  0.636682  0.750878  1
  Si  Si33  1  0.296127  0.137678  0.249676  1
  Si  Si34  1  0.796275  0.362503  0.248840  1
  As  As35  1  0.678474  0.969841  0.462705  1
