# generated using pymatgen
data_K3(TaSe6)2
_symmetry_space_group_name_H-M   'P 1'
_cell_length_a   10.13408085
_cell_length_b   10.13408090
_cell_length_c   10.04666200
_cell_angle_alpha   97.00546964
_cell_angle_beta   97.00546967
_cell_angle_gamma   82.70176939
_symmetry_Int_Tables_number   1
_chemical_formula_structural   K3(TaSe6)2
_chemical_formula_sum   'K6 Ta4 Se24'
_cell_volume   1009.83081028
_cell_formula_units_Z   2
loop_
 _symmetry_equiv_pos_site_id
 _symmetry_equiv_pos_as_xyz
  1  'x, y, z'
loop_
 _atom_site_type_symbol
 _atom_site_label
 _atom_site_symmetry_multiplicity
 _atom_site_fract_x
 _atom_site_fract_y
 _atom_site_fract_z
 _atom_site_occupancy
  K  K0  1  0.731998  0.551197  0.173265  1
  K  K1  1  0.948854  0.097992  0.263775  1
  K  K2  1  0.340733  0.202131  0.415101  1
  K  K3  1  0.551196  0.731998  0.673265  1
  K  K4  1  0.097992  0.948853  0.763775  1
  K  K5  1  0.202131  0.340734  0.915101  1
  Ta  Ta6  1  0.290451  0.840417  0.149668  1
  Ta  Ta7  1  0.153896  0.592730  0.308901  1
  Ta  Ta8  1  0.840416  0.290450  0.649667  1
  Ta  Ta9  1  0.592729  0.153895  0.808902  1
  Se  Se10  1  0.642995  0.960776  0.156508  1
  Se  Se11  1  0.960776  0.642994  0.656509  1
  Se  Se12  1  0.592087  0.173392  0.071795  1
  Se  Se13  1  0.222147  0.063234  0.092691  1
  Se  Se14  1  0.054159  0.740119  0.109920  1
  Se  Se15  1  0.357631  0.564164  0.170284  1
  Se  Se16  1  0.053425  0.394039  0.238596  1
  Se  Se17  1  0.460862  0.871270  0.363408  1
  Se  Se18  1  0.402560  0.515859  0.404489  1
  Se  Se19  1  0.231815  0.859437  0.400171  1
  Se  Se20  1  0.950085  0.774426  0.335314  1
  Se  Se21  1  0.687526  0.239784  0.428308  1
  Se  Se22  1  0.807917  0.508360  0.519799  1
  Se  Se23  1  0.173392  0.592087  0.571794  1
  Se  Se24  1  0.063235  0.222147  0.592692  1
  Se  Se25  1  0.740119  0.054159  0.609919  1
  Se  Se26  1  0.564165  0.357631  0.670284  1
  Se  Se27  1  0.394038  0.053424  0.738597  1
  Se  Se28  1  0.871270  0.460862  0.863407  1
  Se  Se29  1  0.515859  0.402559  0.904489  1
  Se  Se30  1  0.859437  0.231815  0.900170  1
  Se  Se31  1  0.774425  0.950085  0.835312  1
  Se  Se32  1  0.239783  0.687526  0.928308  1
  Se  Se33  1  0.508360  0.807917  0.019799  1
