# generated using pymatgen
data_Yb2H6Pt
_symmetry_space_group_name_H-M   'P 1'
_cell_length_a   6.93509968
_cell_length_b   6.93509990
_cell_length_c   5.26198400
_cell_angle_alpha   90.00000000
_cell_angle_beta   90.00000000
_cell_angle_gamma   135.46083493
_symmetry_Int_Tables_number   1
_chemical_formula_structural   Yb2H6Pt
_chemical_formula_sum   'Yb4 H12 Pt2'
_cell_volume   177.50828944
_cell_formula_units_Z   2
loop_
 _symmetry_equiv_pos_site_id
 _symmetry_equiv_pos_as_xyz
  1  'x, y, z'
loop_
 _atom_site_type_symbol
 _atom_site_label
 _atom_site_symmetry_multiplicity
 _atom_site_fract_x
 _atom_site_fract_y
 _atom_site_fract_z
 _atom_site_occupancy
  Yb  Yb0  1  0.649175  0.350825  0.000000  1
  Yb  Yb1  1  0.350825  0.649175  0.000000  1
  Yb  Yb2  1  0.850825  0.149175  0.500000  1
  Yb  Yb3  1  0.149175  0.850825  0.500000  1
  H  H4  1  0.869507  0.130493  0.000000  1
  H  H5  1  0.130493  0.869507  0.000000  1
  H  H6  1  0.630493  0.369507  0.500000  1
  H  H7  1  0.369507  0.630493  0.500000  1
  H  H8  1  0.000729  0.500729  0.250000  1
  H  H9  1  0.999271  0.499271  0.750000  1
  H  H10  1  0.499271  0.999271  0.750000  1
  H  H11  1  0.500729  0.000729  0.250000  1
  H  H12  1  0.232156  0.232156  0.242713  1
  H  H13  1  0.767844  0.767844  0.757287  1
  H  H14  1  0.267844  0.267844  0.742713  1
  H  H15  1  0.732156  0.732156  0.257287  1
  Pt  Pt16  1  0.000000  0.000000  0.000000  1
  Pt  Pt17  1  0.500000  0.500000  0.500000  1
