# generated using pymatgen
data_Eu6MnFeN6
_symmetry_space_group_name_H-M   'P 1'
_cell_length_a   7.50688900
_cell_length_b   7.50688825
_cell_length_c   5.18415800
_cell_angle_alpha   90.00000000
_cell_angle_beta   90.00000000
_cell_angle_gamma   119.99999890
_symmetry_Int_Tables_number   1
_chemical_formula_structural   Eu6MnFeN6
_chemical_formula_sum   'Eu6 Mn1 Fe1 N6'
_cell_volume   253.00482925
_cell_formula_units_Z   1
loop_
 _symmetry_equiv_pos_site_id
 _symmetry_equiv_pos_as_xyz
  1  'x, y, z'
loop_
 _atom_site_type_symbol
 _atom_site_label
 _atom_site_symmetry_multiplicity
 _atom_site_fract_x
 _atom_site_fract_y
 _atom_site_fract_z
 _atom_site_occupancy
  Eu  Eu0  1  0.723406  0.083382  0.250000  1
  Eu  Eu1  1  0.635932  0.717302  0.750000  1
  Eu  Eu2  1  0.081369  0.364068  0.750000  1
  Eu  Eu3  1  0.916618  0.640024  0.250000  1
  Eu  Eu4  1  0.359976  0.276594  0.250000  1
  Eu  Eu5  1  0.282698  0.918631  0.750000  1
  Mn  Mn6  1  0.333333  0.666667  0.250000  1
  Fe  Fe7  1  0.666667  0.333333  0.750000  1
  N  N8  1  0.692069  0.107495  0.750000  1
  N  N9  1  0.582102  0.689905  0.250000  1
  N  N10  1  0.107804  0.417898  0.250000  1
  N  N11  1  0.892505  0.584575  0.750000  1
  N  N12  1  0.415425  0.307931  0.750000  1
  N  N13  1  0.310095  0.892196  0.250000  1
