# generated using pymatgen
data_Tl5InCl8
_symmetry_space_group_name_H-M   'P 1'
_cell_length_a   7.76188800
_cell_length_b   7.76188873
_cell_length_c   8.97646600
_cell_angle_alpha   90.00000000
_cell_angle_beta   90.00000000
_cell_angle_gamma   109.37539101
_symmetry_Int_Tables_number   1
_chemical_formula_structural   Tl5InCl8
_chemical_formula_sum   'Tl5 In1 Cl8'
_cell_volume   510.17602193
_cell_formula_units_Z   1
loop_
 _symmetry_equiv_pos_site_id
 _symmetry_equiv_pos_as_xyz
  1  'x, y, z'
loop_
 _atom_site_type_symbol
 _atom_site_label
 _atom_site_symmetry_multiplicity
 _atom_site_fract_x
 _atom_site_fract_y
 _atom_site_fract_z
 _atom_site_occupancy
  Tl  Tl0  1  0.500000  0.000000  0.243328  1
  Tl  Tl1  1  0.000000  0.500000  0.756672  1
  Tl  Tl2  1  0.500000  0.000000  0.756672  1
  Tl  Tl3  1  0.000000  0.500000  0.243328  1
  Tl  Tl4  1  0.500000  0.500000  0.000000  1
  In  In5  1  0.500000  0.500000  0.500000  1
  Cl  Cl6  1  0.297445  0.297445  0.300462  1
  Cl  Cl7  1  0.702555  0.702555  0.300462  1
  Cl  Cl8  1  0.296069  0.703931  0.500000  1
  Cl  Cl9  1  0.297445  0.297445  0.699538  1
  Cl  Cl10  1  0.702555  0.702555  0.699538  1
  Cl  Cl11  1  0.249942  0.750058  0.000000  1
  Cl  Cl12  1  0.703931  0.296069  0.500000  1
  Cl  Cl13  1  0.750058  0.249942  0.000000  1
