# generated using pymatgen
data_Ta12Al8ZnRe3C4
_symmetry_space_group_name_H-M   'P 1'
_cell_length_a   8.36574415
_cell_length_b   8.31109663
_cell_length_c   8.36574500
_cell_angle_alpha   59.78225373
_cell_angle_beta   60.00000060
_cell_angle_gamma   59.78225583
_symmetry_Int_Tables_number   1
_chemical_formula_structural   Ta12Al8ZnRe3C4
_chemical_formula_sum   'Ta12 Al8 Zn1 Re3 C4'
_cell_volume   409.93529360
_cell_formula_units_Z   1
loop_
 _symmetry_equiv_pos_site_id
 _symmetry_equiv_pos_as_xyz
  1  'x, y, z'
loop_
 _atom_site_type_symbol
 _atom_site_label
 _atom_site_symmetry_multiplicity
 _atom_site_fract_x
 _atom_site_fract_y
 _atom_site_fract_z
 _atom_site_occupancy
  Ta  Ta0  1  0.313690  0.929905  0.942716  1
  Ta  Ta1  1  0.933484  0.316726  0.316305  1
  Ta  Ta2  1  0.933484  0.316726  0.933484  1
  Ta  Ta3  1  0.942716  0.929905  0.313690  1
  Ta  Ta4  1  0.313690  0.929905  0.313690  1
  Ta  Ta5  1  0.316305  0.316726  0.933484  1
  Ta  Ta6  1  0.066516  0.683274  0.066516  1
  Ta  Ta7  1  0.686310  0.070095  0.686310  1
  Ta  Ta8  1  0.686310  0.070095  0.057284  1
  Ta  Ta9  1  0.057284  0.070095  0.686310  1
  Ta  Ta10  1  0.066516  0.683274  0.683695  1
  Ta  Ta11  1  0.683695  0.683274  0.066516  1
  Al  Al12  1  0.289587  0.290166  0.289587  1
  Al  Al13  1  0.289587  0.290166  0.630661  1
  Al  Al14  1  0.630661  0.290166  0.289587  1
  Al  Al15  1  0.292646  0.622062  0.292646  1
  Al  Al16  1  0.710413  0.709834  0.710413  1
  Al  Al17  1  0.710413  0.709834  0.369339  1
  Al  Al18  1  0.707354  0.377938  0.707354  1
  Al  Al19  1  0.369339  0.709834  0.710413  1
  Zn  Zn20  1  0.500000  0.000000  0.500000  1
  Re  Re21  1  0.500000  0.500000  0.500000  1
  Re  Re22  1  0.500000  0.500000  0.000000  1
  Re  Re23  1  0.000000  0.500000  0.500000  1
  C  C24  1  0.000000  0.000000  0.000000  1
  C  C25  1  0.000000  0.000000  0.500000  1
  C  C26  1  0.500000  0.000000  0.000000  1
  C  C27  1  0.000000  0.500000  0.000000  1
