# generated using pymatgen
data_Tb3Er3(ThSn2)4
_symmetry_space_group_name_H-M   'P 1'
_cell_length_a   8.12964700
_cell_length_b   8.23808402
_cell_length_c   15.57547703
_cell_angle_alpha   90.00723960
_cell_angle_beta   90.00000000
_cell_angle_gamma   90.00000000
_symmetry_Int_Tables_number   1
_chemical_formula_structural   Tb3Er3(ThSn2)4
_chemical_formula_sum   'Tb6 Er6 Th8 Sn16'
_cell_volume   1043.13197602
_cell_formula_units_Z   2
loop_
 _symmetry_equiv_pos_site_id
 _symmetry_equiv_pos_as_xyz
  1  'x, y, z'
loop_
 _atom_site_type_symbol
 _atom_site_label
 _atom_site_symmetry_multiplicity
 _atom_site_fract_x
 _atom_site_fract_y
 _atom_site_fract_z
 _atom_site_occupancy
  Tb  Tb0  1  0.635882  0.163797  0.376942  1
  Tb  Tb1  1  0.135882  0.336203  0.123058  1
  Tb  Tb2  1  0.635878  0.163870  0.123281  1
  Tb  Tb3  1  0.135878  0.336130  0.376719  1
  Tb  Tb4  1  0.364276  0.836200  0.623325  1
  Tb  Tb5  1  0.864276  0.663800  0.876675  1
  Er  Er6  1  0.363965  0.836274  0.876450  1
  Er  Er7  1  0.863965  0.663726  0.623550  1
  Er  Er8  1  0.192738  0.497714  0.749992  1
  Er  Er9  1  0.692738  0.002286  0.750008  1
  Er  Er10  1  0.807189  0.502665  0.250058  1
  Er  Er11  1  0.307189  0.997335  0.249942  1
  Th  Th12  1  0.519485  0.320434  0.903162  1
  Th  Th13  1  0.019485  0.179566  0.596838  1
  Th  Th14  1  0.480518  0.679623  0.403251  1
  Th  Th15  1  0.980518  0.820377  0.096749  1
  Th  Th16  1  0.480546  0.679732  0.096505  1
  Th  Th17  1  0.980546  0.820268  0.403495  1
  Th  Th18  1  0.519373  0.320506  0.596874  1
  Th  Th19  1  0.019373  0.179494  0.903126  1
  Sn  Sn20  1  0.296379  0.037290  0.041861  1
  Sn  Sn21  1  0.796379  0.462710  0.458139  1
  Sn  Sn22  1  0.704591  0.960982  0.542730  1
  Sn  Sn23  1  0.204591  0.539018  0.957270  1
  Sn  Sn24  1  0.702745  0.961692  0.957313  1
  Sn  Sn25  1  0.202745  0.538308  0.542687  1
  Sn  Sn26  1  0.296122  0.037861  0.457553  1
  Sn  Sn27  1  0.796122  0.462139  0.042447  1
  Sn  Sn28  1  0.559278  0.621522  0.750120  1
  Sn  Sn29  1  0.059278  0.878478  0.749880  1
  Sn  Sn30  1  0.440770  0.379397  0.250022  1
  Sn  Sn31  1  0.940770  0.120603  0.249978  1
  Sn  Sn32  1  0.326048  0.142147  0.750269  1
  Sn  Sn33  1  0.826048  0.357853  0.749731  1
  Sn  Sn34  1  0.674216  0.857369  0.249983  1
  Sn  Sn35  1  0.174216  0.642631  0.250017  1
