# generated using pymatgen
data_Tb5Er3MgCo2Hg
_symmetry_space_group_name_H-M   'P 1'
_cell_length_a   9.51238049
_cell_length_b   9.51238089
_cell_length_c   9.49689500
_cell_angle_alpha   60.05383482
_cell_angle_beta   60.05383342
_cell_angle_gamma   60.40248830
_symmetry_Int_Tables_number   1
_chemical_formula_structural   Tb5Er3MgCo2Hg
_chemical_formula_sum   'Tb10 Er6 Mg2 Co4 Hg2'
_cell_volume   609.96343520
_cell_formula_units_Z   2
loop_
 _symmetry_equiv_pos_site_id
 _symmetry_equiv_pos_as_xyz
  1  'x, y, z'
loop_
 _atom_site_type_symbol
 _atom_site_label
 _atom_site_symmetry_multiplicity
 _atom_site_fract_x
 _atom_site_fract_y
 _atom_site_fract_z
 _atom_site_occupancy
  Tb  Tb0  1  0.937237  0.560694  0.562291  1
  Tb  Tb1  1  0.560694  0.937237  0.939779  1
  Tb  Tb2  1  0.560695  0.937237  0.562291  1
  Tb  Tb3  1  0.937237  0.560694  0.939779  1
  Tb  Tb4  1  0.561539  0.561538  0.938462  1
  Tb  Tb5  1  0.938642  0.938642  0.561358  1
  Tb  Tb6  1  0.345982  0.345982  0.343639  1
  Tb  Tb7  1  0.345982  0.345982  0.964395  1
  Tb  Tb8  1  0.349058  0.958240  0.346350  1
  Tb  Tb9  1  0.958240  0.349058  0.346350  1
  Er  Er10  1  0.813253  0.183848  0.187180  1
  Er  Er11  1  0.183848  0.813253  0.815719  1
  Er  Er12  1  0.183848  0.813253  0.187180  1
  Er  Er13  1  0.813253  0.183848  0.815719  1
  Er  Er14  1  0.185073  0.185073  0.814927  1
  Er  Er15  1  0.810016  0.810016  0.189984  1
  Mg  Mg16  1  0.581287  0.273070  0.572822  1
  Mg  Mg17  1  0.273070  0.581287  0.572822  1
  Co  Co18  1  0.140311  0.140311  0.140390  1
  Co  Co19  1  0.140311  0.140311  0.578989  1
  Co  Co20  1  0.139038  0.578467  0.141248  1
  Co  Co21  1  0.578467  0.139038  0.141248  1
  Hg  Hg22  1  0.581459  0.581459  0.587725  1
  Hg  Hg23  1  0.581459  0.581459  0.249357  1
