# generated using pymatgen
data_Rb3Tb(TaSe4)2
_symmetry_space_group_name_H-M   'P 1'
_cell_length_a   10.10678824
_cell_length_b   11.06052706
_cell_length_c   11.80571800
_cell_angle_alpha   107.25445269
_cell_angle_beta   103.89964403
_cell_angle_gamma   113.66535702
_symmetry_Int_Tables_number   1
_chemical_formula_structural   Rb3Tb(TaSe4)2
_chemical_formula_sum   'Rb6 Tb2 Ta4 Se16'
_cell_volume   1052.46532351
_cell_formula_units_Z   2
loop_
 _symmetry_equiv_pos_site_id
 _symmetry_equiv_pos_as_xyz
  1  'x, y, z'
loop_
 _atom_site_type_symbol
 _atom_site_label
 _atom_site_symmetry_multiplicity
 _atom_site_fract_x
 _atom_site_fract_y
 _atom_site_fract_z
 _atom_site_occupancy
  Rb  Rb0  1  0.500000  0.499998  0.000002  1
  Rb  Rb1  1  0.999997  0.499997  0.999995  1
  Rb  Rb2  1  0.257465  0.007730  0.015045  1
  Rb  Rb3  1  0.492237  0.742254  0.484583  1
  Rb  Rb4  1  0.507762  0.257742  0.515415  1
  Rb  Rb5  1  0.742533  0.992266  0.984951  1
  Tb  Tb6  1  0.996025  0.245899  0.491550  1
  Tb  Tb7  1  0.003973  0.754099  0.508449  1
  Ta  Ta8  1  0.001558  0.907604  0.260416  1
  Ta  Ta9  1  0.758652  0.352541  0.260027  1
  Ta  Ta10  1  0.241350  0.647455  0.739973  1
  Ta  Ta11  1  0.998448  0.092407  0.739589  1
  Se  Se12  1  0.881945  0.759737  0.029748  1
  Se  Se13  1  0.647552  0.269203  0.029241  1
  Se  Se14  1  0.120489  0.166107  0.302432  1
  Se  Se15  1  0.682179  0.136385  0.302487  1
  Se  Se16  1  0.810203  0.856340  0.352716  1
  Se  Se17  1  0.042352  0.496356  0.352544  1
  Se  Se18  1  0.197592  0.857704  0.364401  1
  Se  Se19  1  0.666123  0.506214  0.363577  1
  Se  Se20  1  0.333866  0.493783  0.636418  1
  Se  Se21  1  0.802410  0.142310  0.635609  1
  Se  Se22  1  0.957637  0.503642  0.647452  1
  Se  Se23  1  0.189794  0.143662  0.647283  1
  Se  Se24  1  0.317820  0.863608  0.697506  1
  Se  Se25  1  0.879536  0.833904  0.697586  1
  Se  Se26  1  0.352449  0.730792  0.970755  1
  Se  Se27  1  0.118055  0.240264  0.970252  1
