# generated using pymatgen
data_Na3Si2(PPd5)4
_symmetry_space_group_name_H-M   'P 1'
_cell_length_a   8.63827672
_cell_length_b   8.62699579
_cell_length_c   8.62699600
_cell_angle_alpha   60.08653559
_cell_angle_beta   59.95672836
_cell_angle_gamma   59.95673288
_symmetry_Int_Tables_number   1
_chemical_formula_structural   Na3Si2(PPd5)4
_chemical_formula_sum   'Na3 Si2 P4 Pd20'
_cell_volume   454.60038557
_cell_formula_units_Z   1
loop_
 _symmetry_equiv_pos_site_id
 _symmetry_equiv_pos_as_xyz
  1  'x, y, z'
loop_
 _atom_site_type_symbol
 _atom_site_label
 _atom_site_symmetry_multiplicity
 _atom_site_fract_x
 _atom_site_fract_y
 _atom_site_fract_z
 _atom_site_occupancy
  Na  Na0  1  0.250000  0.250000  0.250000  1
  Na  Na1  1  0.750000  0.750000  0.750000  1
  Na  Na2  1  0.000000  0.000000  0.000000  1
  Si  Si3  1  0.733624  0.266376  0.266376  1
  Si  Si4  1  0.266376  0.733624  0.733624  1
  P  P5  1  0.266280  0.733720  0.266280  1
  P  P6  1  0.733720  0.266280  0.733720  1
  P  P7  1  0.266280  0.266280  0.733720  1
  P  P8  1  0.733720  0.733720  0.266280  1
  Pd  Pd9  1  0.383321  0.385191  0.385191  1
  Pd  Pd10  1  0.616679  0.614809  0.614809  1
  Pd  Pd11  1  0.385191  0.383321  0.846295  1
  Pd  Pd12  1  0.385191  0.846295  0.383321  1
  Pd  Pd13  1  0.614809  0.616679  0.153705  1
  Pd  Pd14  1  0.614809  0.153705  0.616679  1
  Pd  Pd15  1  0.846295  0.385191  0.385191  1
  Pd  Pd16  1  0.153705  0.614809  0.614809  1
  Pd  Pd17  1  0.342530  0.000000  0.000000  1
  Pd  Pd18  1  0.657470  0.000000  0.000000  1
  Pd  Pd19  1  0.000000  0.342530  0.657470  1
  Pd  Pd20  1  0.000000  0.657470  0.342530  1
  Pd  Pd21  1  0.001277  0.344289  0.998723  1
  Pd  Pd22  1  0.655711  0.998723  0.344289  1
  Pd  Pd23  1  0.998723  0.655711  0.001277  1
  Pd  Pd24  1  0.344289  0.001277  0.655711  1
  Pd  Pd25  1  0.001277  0.998723  0.344289  1
  Pd  Pd26  1  0.998723  0.001277  0.655711  1
  Pd  Pd27  1  0.655711  0.344289  0.998723  1
  Pd  Pd28  1  0.344289  0.655711  0.001277  1
