# generated using pymatgen
data_La2SmTh(ZnSn)4
_symmetry_space_group_name_H-M   'P 1'
_cell_length_a   4.62159500
_cell_length_b   4.62159590
_cell_length_c   16.53111000
_cell_angle_alpha   90.00000000
_cell_angle_beta   90.00000000
_cell_angle_gamma   119.99998642
_symmetry_Int_Tables_number   1
_chemical_formula_structural   La2SmTh(ZnSn)4
_chemical_formula_sum   'La2 Sm1 Th1 Zn4 Sn4'
_cell_volume   305.78526951
_cell_formula_units_Z   1
loop_
 _symmetry_equiv_pos_site_id
 _symmetry_equiv_pos_as_xyz
  1  'x, y, z'
loop_
 _atom_site_type_symbol
 _atom_site_label
 _atom_site_symmetry_multiplicity
 _atom_site_fract_x
 _atom_site_fract_y
 _atom_site_fract_z
 _atom_site_occupancy
  La  La0  1  0.000000  0.000000  0.498376  1
  La  La1  1  0.000000  0.000000  0.001624  1
  Sm  Sm2  1  0.000000  0.000000  0.250000  1
  Th  Th3  1  0.000000  0.000000  0.750000  1
  Zn  Zn4  1  0.666667  0.333333  0.845400  1
  Zn  Zn5  1  0.666667  0.333333  0.654600  1
  Zn  Zn6  1  0.333333  0.666667  0.160262  1
  Zn  Zn7  1  0.333333  0.666667  0.339738  1
  Sn  Sn8  1  0.666667  0.333333  0.118842  1
  Sn  Sn9  1  0.666667  0.333333  0.381158  1
  Sn  Sn10  1  0.333333  0.666667  0.880769  1
  Sn  Sn11  1  0.333333  0.666667  0.619231  1
