# generated using pymatgen
data_KBi3(PO5)2
_symmetry_space_group_name_H-M   'P 1'
_cell_length_a   5.86434468
_cell_length_b   7.06254423
_cell_length_c   7.07504605
_cell_angle_alpha   108.78806973
_cell_angle_beta   106.84569673
_cell_angle_gamma   101.54382527
_symmetry_Int_Tables_number   1
_chemical_formula_structural   KBi3(PO5)2
_chemical_formula_sum   'K1 Bi3 P2 O10'
_cell_volume   251.20052593
_cell_formula_units_Z   1
loop_
 _symmetry_equiv_pos_site_id
 _symmetry_equiv_pos_as_xyz
  1  'x, y, z'
loop_
 _atom_site_type_symbol
 _atom_site_label
 _atom_site_symmetry_multiplicity
 _atom_site_fract_x
 _atom_site_fract_y
 _atom_site_fract_z
 _atom_site_occupancy
  K  K0  1  0.673383  0.631840  0.849284  1
  Bi  Bi1  1  0.880578  0.229555  0.426696  1
  Bi  Bi2  1  0.127144  0.780638  0.566210  1
  Bi  Bi3  1  0.360883  0.397307  0.194129  1
  P  P4  1  0.693944  0.156121  0.861660  1
  P  P5  1  0.301416  0.839497  0.144113  1
  O  O6  1  0.742231  0.489303  0.434014  1
  O  O7  1  0.226268  0.495598  0.490134  1
  O  O8  1  0.870879  0.280805  0.784987  1
  O  O9  1  0.096973  0.767236  0.227269  1
  O  O10  1  0.432117  0.086567  0.265088  1
  O  O11  1  0.556230  0.924207  0.688112  1
  O  O12  1  0.864272  0.149075  0.074570  1
  O  O13  1  0.172552  0.777530  0.900566  1
  O  O14  1  0.508719  0.734143  0.193004  1
  O  O15  1  0.492412  0.260578  0.900166  1
