# generated using pymatgen
data_Li2La2GeSb
_symmetry_space_group_name_H-M   'P 1'
_cell_length_a   9.35823325
_cell_length_b   9.35826384
_cell_length_c   7.80936102
_cell_angle_alpha   90.05706792
_cell_angle_beta   89.94244382
_cell_angle_gamma   120.07032441
_symmetry_Int_Tables_number   1
_chemical_formula_structural   Li2La2GeSb
_chemical_formula_sum   'Li8 La8 Ge4 Sb4'
_cell_volume   591.87064477
_cell_formula_units_Z   4
loop_
 _symmetry_equiv_pos_site_id
 _symmetry_equiv_pos_as_xyz
  1  'x, y, z'
loop_
 _atom_site_type_symbol
 _atom_site_label
 _atom_site_symmetry_multiplicity
 _atom_site_fract_x
 _atom_site_fract_y
 _atom_site_fract_z
 _atom_site_occupancy
  Li  Li0  1  0.831713  0.168256  0.730302  1
  Li  Li1  1  0.824559  0.659625  0.724945  1
  Li  Li2  1  0.340380  0.175442  0.724926  1
  Li  Li3  1  0.171264  0.828750  0.224490  1
  Li  Li4  1  0.173189  0.343456  0.219846  1
  Li  Li5  1  0.656550  0.826835  0.219835  1
  Li  Li6  1  0.665527  0.334466  0.325195  1
  Li  Li7  1  0.336641  0.663365  0.817744  1
  La  La8  1  0.483855  0.516204  0.509546  1
  La  La9  1  0.494726  0.974757  0.507315  1
  La  La10  1  0.025221  0.505264  0.507317  1
  La  La11  1  0.507905  0.492171  0.994951  1
  La  La12  1  0.513540  0.016847  0.997772  1
  La  La13  1  0.983140  0.486434  0.997775  1
  La  La14  1  0.996387  0.003583  0.508194  1
  La  La15  1  0.995435  0.004538  0.992507  1
  Ge  Ge16  1  0.166024  0.332589  0.763736  1
  Ge  Ge17  1  0.667404  0.833975  0.763737  1
  Ge  Ge18  1  0.667159  0.332844  0.741165  1
  Ge  Ge19  1  0.333071  0.666918  0.240584  1
  Sb  Sb20  1  0.833266  0.166726  0.260947  1
  Sb  Sb21  1  0.834050  0.667322  0.261963  1
  Sb  Sb22  1  0.332681  0.165959  0.261961  1
  Sb  Sb23  1  0.166314  0.833674  0.761256  1
