# generated using pymatgen
data_Nd12OsRhAu2
_symmetry_space_group_name_H-M   'P 1'
_cell_length_a   6.64793991
_cell_length_b   7.42174024
_cell_length_c   10.00769800
_cell_angle_alpha   90.00000000
_cell_angle_beta   90.00000000
_cell_angle_gamma   90.17449442
_symmetry_Int_Tables_number   1
_chemical_formula_structural   Nd12OsRhAu2
_chemical_formula_sum   'Nd12 Os1 Rh1 Au2'
_cell_volume   493.77035480
_cell_formula_units_Z   1
loop_
 _symmetry_equiv_pos_site_id
 _symmetry_equiv_pos_as_xyz
  1  'x, y, z'
loop_
 _atom_site_type_symbol
 _atom_site_label
 _atom_site_symmetry_multiplicity
 _atom_site_fract_x
 _atom_site_fract_y
 _atom_site_fract_z
 _atom_site_occupancy
  Nd  Nd0  1  0.326615  0.686776  0.056198  1
  Nd  Nd1  1  0.160926  0.169204  0.436595  1
  Nd  Nd2  1  0.663282  0.331433  0.563847  1
  Nd  Nd3  1  0.820931  0.811442  0.939344  1
  Nd  Nd4  1  0.663282  0.331433  0.936153  1
  Nd  Nd5  1  0.820931  0.811442  0.560656  1
  Nd  Nd6  1  0.326615  0.686776  0.443802  1
  Nd  Nd7  1  0.160926  0.169204  0.063405  1
  Nd  Nd8  1  0.875453  0.541316  0.250000  1
  Nd  Nd9  1  0.650286  0.024375  0.250000  1
  Nd  Nd10  1  0.146102  0.478770  0.750000  1
  Nd  Nd11  1  0.376078  0.957323  0.750000  1
  Os  Os12  1  0.562009  0.615561  0.750000  1
  Rh  Rh13  1  0.067311  0.883498  0.250000  1
  Au  Au14  1  0.436992  0.389337  0.250000  1
  Au  Au15  1  0.942264  0.112112  0.750000  1
