# generated using pymatgen
data_Pr5Ho11MgCd3Rh4
_symmetry_space_group_name_H-M   'P 1'
_cell_length_a   9.74909278
_cell_length_b   9.72313129
_cell_length_c   9.72409000
_cell_angle_alpha   59.40964922
_cell_angle_beta   59.75981851
_cell_angle_gamma   59.76480786
_symmetry_Int_Tables_number   1
_chemical_formula_structural   Pr5Ho11MgCd3Rh4
_chemical_formula_sum   'Pr5 Ho11 Mg1 Cd3 Rh4'
_cell_volume   646.50725991
_cell_formula_units_Z   1
loop_
 _symmetry_equiv_pos_site_id
 _symmetry_equiv_pos_as_xyz
  1  'x, y, z'
loop_
 _atom_site_type_symbol
 _atom_site_label
 _atom_site_symmetry_multiplicity
 _atom_site_fract_x
 _atom_site_fract_y
 _atom_site_fract_z
 _atom_site_occupancy
  Pr  Pr0  1  0.549717  0.943997  0.944070  1
  Pr  Pr1  1  0.565329  0.936484  0.562534  1
  Pr  Pr2  1  0.942969  0.563205  0.928881  1
  Pr  Pr3  1  0.565332  0.562487  0.936517  1
  Pr  Pr4  1  0.942922  0.928947  0.563210  1
  Ho  Ho5  1  0.349470  0.347277  0.347324  1
  Ho  Ho6  1  0.347320  0.352545  0.961525  1
  Ho  Ho7  1  0.347286  0.961537  0.352560  1
  Ho  Ho8  1  0.944832  0.349786  0.349899  1
  Ho  Ho9  1  0.813594  0.185008  0.185016  1
  Ho  Ho10  1  0.181398  0.817587  0.817598  1
  Ho  Ho11  1  0.182569  0.811981  0.188761  1
  Ho  Ho12  1  0.810274  0.186644  0.811895  1
  Ho  Ho13  1  0.182602  0.188792  0.811918  1
  Ho  Ho14  1  0.810265  0.811875  0.186681  1
  Ho  Ho15  1  0.943615  0.553126  0.553062  1
  Mg  Mg16  1  0.283439  0.571570  0.571206  1
  Cd  Cd17  1  0.584259  0.580174  0.580215  1
  Cd  Cd18  1  0.582213  0.578806  0.256889  1
  Cd  Cd19  1  0.582163  0.256879  0.578863  1
  Rh  Rh20  1  0.143181  0.142241  0.142118  1
  Rh  Rh21  1  0.135343  0.153350  0.572700  1
  Rh  Rh22  1  0.135375  0.572653  0.153453  1
  Rh  Rh23  1  0.574535  0.143050  0.143103  1
