# generated using pymatgen
data_LaSmPa2(Al3Ir)6
_symmetry_space_group_name_H-M   'P 1'
_cell_length_a   7.63156333
_cell_length_b   7.62718524
_cell_length_c   9.42659300
_cell_angle_alpha   90.00000000
_cell_angle_beta   90.00000000
_cell_angle_gamma   119.60642418
_symmetry_Int_Tables_number   1
_chemical_formula_structural   LaSmPa2(Al3Ir)6
_chemical_formula_sum   'La1 Sm1 Pa2 Al18 Ir6'
_cell_volume   477.05884398
_cell_formula_units_Z   1
loop_
 _symmetry_equiv_pos_site_id
 _symmetry_equiv_pos_as_xyz
  1  'x, y, z'
loop_
 _atom_site_type_symbol
 _atom_site_label
 _atom_site_symmetry_multiplicity
 _atom_site_fract_x
 _atom_site_fract_y
 _atom_site_fract_z
 _atom_site_occupancy
  La  La0  1  0.669811  0.993874  0.250000  1
  Sm  Sm1  1  0.330202  0.006452  0.750000  1
  Pa  Pa2  1  0.998020  0.672010  0.250000  1
  Pa  Pa3  1  0.001935  0.327928  0.750000  1
  Al  Al4  1  0.134089  0.128811  0.250000  1
  Al  Al5  1  0.869162  0.872054  0.750000  1
  Al  Al6  1  0.002751  0.334542  0.075099  1
  Al  Al7  1  0.998880  0.667068  0.923426  1
  Al  Al8  1  0.998880  0.667068  0.576574  1
  Al  Al9  1  0.336133  0.003539  0.426337  1
  Al  Al10  1  0.002751  0.334542  0.424901  1
  Al  Al11  1  0.662327  0.996210  0.576335  1
  Al  Al12  1  0.662327  0.996210  0.923665  1
  Al  Al13  1  0.336133  0.003539  0.073663  1
  Al  Al14  1  0.334893  0.333805  0.552128  1
  Al  Al15  1  0.664876  0.664515  0.450152  1
  Al  Al16  1  0.664876  0.664515  0.049848  1
  Al  Al17  1  0.334893  0.333805  0.947872  1
  Al  Al18  1  0.336487  0.544417  0.250000  1
  Al  Al19  1  0.660898  0.453042  0.750000  1
  Al  Al20  1  0.550068  0.346787  0.250000  1
  Al  Al21  1  0.449478  0.655631  0.750000  1
  Ir  Ir22  1  0.675839  0.330480  0.999217  1
  Ir  Ir23  1  0.323622  0.669162  0.999919  1
  Ir  Ir24  1  0.323622  0.669162  0.500081  1
  Ir  Ir25  1  0.675839  0.330480  0.500783  1
  Ir  Ir26  1  0.000604  0.000178  0.999529  1
  Ir  Ir27  1  0.000604  0.000178  0.500471  1
