# generated using pymatgen
data_Eu10In2CuPt3
_symmetry_space_group_name_H-M   'P 1'
_cell_length_a   9.34894574
_cell_length_b   9.34894561
_cell_length_c   9.39379900
_cell_angle_alpha   127.93203747
_cell_angle_beta   127.93203682
_cell_angle_gamma   76.38766488
_symmetry_Int_Tables_number   1
_chemical_formula_structural   Eu10In2CuPt3
_chemical_formula_sum   'Eu10 In2 Cu1 Pt3'
_cell_volume   497.19358505
_cell_formula_units_Z   1
loop_
 _symmetry_equiv_pos_site_id
 _symmetry_equiv_pos_as_xyz
  1  'x, y, z'
loop_
 _atom_site_type_symbol
 _atom_site_label
 _atom_site_symmetry_multiplicity
 _atom_site_fract_x
 _atom_site_fract_y
 _atom_site_fract_z
 _atom_site_occupancy
  Eu  Eu0  1  0.501777  0.503696  0.005472  1
  Eu  Eu1  1  0.996304  0.998223  0.994528  1
  Eu  Eu2  1  0.535433  0.030758  0.837363  1
  Eu  Eu3  1  0.198071  0.693398  0.162637  1
  Eu  Eu4  1  0.028424  0.203265  0.500000  1
  Eu  Eu5  1  0.699660  0.534066  0.500000  1
  Eu  Eu6  1  0.469242  0.964567  0.162637  1
  Eu  Eu7  1  0.806602  0.301929  0.837363  1
  Eu  Eu8  1  0.965934  0.800340  0.500000  1
  Eu  Eu9  1  0.296735  0.471576  0.500000  1
  In  In10  1  0.251092  0.248908  0.000000  1
  In  In11  1  0.751092  0.748908  0.000000  1
  Cu  Cu12  1  0.379774  0.120226  0.500000  1
  Pt  Pt13  1  0.131931  0.631206  0.763140  1
  Pt  Pt14  1  0.868794  0.368069  0.236860  1
  Pt  Pt15  1  0.619135  0.880865  0.500000  1
