# generated using pymatgen
data_ErHf3Si4Mo
_symmetry_space_group_name_H-M   'P 1'
_cell_length_a   7.04984400
_cell_length_b   7.04984400
_cell_length_c   12.85513400
_cell_angle_alpha   90.00000000
_cell_angle_beta   90.00000000
_cell_angle_gamma   90.00000000
_symmetry_Int_Tables_number   1
_chemical_formula_structural   ErHf3Si4Mo
_chemical_formula_sum   'Er4 Hf12 Si16 Mo4'
_cell_volume   638.90402180
_cell_formula_units_Z   4
loop_
 _symmetry_equiv_pos_site_id
 _symmetry_equiv_pos_as_xyz
  1  'x, y, z'
loop_
 _atom_site_type_symbol
 _atom_site_label
 _atom_site_symmetry_multiplicity
 _atom_site_fract_x
 _atom_site_fract_y
 _atom_site_fract_z
 _atom_site_occupancy
  Er  Er0  1  0.495087  0.156794  0.532088  1
  Er  Er1  1  0.504913  0.843206  0.032088  1
  Er  Er2  1  0.656794  0.004913  0.282088  1
  Er  Er3  1  0.343206  0.995087  0.782088  1
  Hf  Hf4  1  0.846949  0.499666  0.968739  1
  Hf  Hf5  1  0.153051  0.500334  0.468739  1
  Hf  Hf6  1  0.999666  0.653051  0.718739  1
  Hf  Hf7  1  0.000334  0.346949  0.218739  1
  Hf  Hf8  1  0.493752  0.356544  0.125102  1
  Hf  Hf9  1  0.506248  0.643456  0.625102  1
  Hf  Hf10  1  0.856544  0.006248  0.875102  1
  Hf  Hf11  1  0.143456  0.993752  0.375102  1
  Hf  Hf12  1  0.645144  0.502998  0.374769  1
  Hf  Hf13  1  0.354856  0.497002  0.874769  1
  Hf  Hf14  1  0.002998  0.854856  0.124769  1
  Hf  Hf15  1  0.997002  0.145144  0.624769  1
  Si  Si16  1  0.802927  0.151014  0.070164  1
  Si  Si17  1  0.197073  0.848986  0.570164  1
  Si  Si18  1  0.651014  0.697073  0.820164  1
  Si  Si19  1  0.348986  0.302927  0.320164  1
  Si  Si20  1  0.862783  0.209848  0.429198  1
  Si  Si21  1  0.137217  0.790152  0.929198  1
  Si  Si22  1  0.709848  0.637217  0.179198  1
  Si  Si23  1  0.290152  0.362783  0.679198  1
  Si  Si24  1  0.553029  0.205256  0.933375  1
  Si  Si25  1  0.446971  0.794744  0.433375  1
  Si  Si26  1  0.705256  0.946971  0.683375  1
  Si  Si27  1  0.294744  0.053029  0.183375  1
  Si  Si28  1  0.805402  0.454503  0.566504  1
  Si  Si29  1  0.194598  0.545497  0.066504  1
  Si  Si30  1  0.954503  0.694598  0.316504  1
  Si  Si31  1  0.045497  0.305402  0.816504  1
  Mo  Mo32  1  0.680028  0.329446  0.750062  1
  Mo  Mo33  1  0.319972  0.670554  0.250062  1
  Mo  Mo34  1  0.829446  0.819972  0.500062  1
  Mo  Mo35  1  0.170554  0.180028  0.000062  1
