# generated using pymatgen
data_CeNd3(Pd2Pb)2
_symmetry_space_group_name_H-M   'P 1'
_cell_length_a   8.01699790
_cell_length_b   8.01672542
_cell_length_c   3.78972300
_cell_angle_alpha   90.00000000
_cell_angle_beta   90.00000000
_cell_angle_gamma   90.91873782
_symmetry_Int_Tables_number   1
_chemical_formula_structural   CeNd3(Pd2Pb)2
_chemical_formula_sum   'Ce1 Nd3 Pd4 Pb2'
_cell_volume   243.53445356
_cell_formula_units_Z   1
loop_
 _symmetry_equiv_pos_site_id
 _symmetry_equiv_pos_as_xyz
  1  'x, y, z'
loop_
 _atom_site_type_symbol
 _atom_site_label
 _atom_site_symmetry_multiplicity
 _atom_site_fract_x
 _atom_site_fract_y
 _atom_site_fract_z
 _atom_site_occupancy
  Ce  Ce0  1  0.325342  0.825302  0.500000  1
  Nd  Nd1  1  0.675301  0.175343  0.500000  1
  Nd  Nd2  1  0.174446  0.324025  0.500000  1
  Nd  Nd3  1  0.824027  0.674429  0.500000  1
  Pd  Pd4  1  0.371832  0.116867  0.000000  1
  Pd  Pd5  1  0.132256  0.632219  0.000000  1
  Pd  Pd6  1  0.616898  0.871871  0.000000  1
  Pd  Pd7  1  0.879591  0.379592  0.000000  1
  Pb  Pb8  1  0.999576  0.000743  0.000000  1
  Pb  Pb9  1  0.500730  0.499609  0.000000  1
