# generated using pymatgen
data_Tb2DySi2Ag3Ge
_symmetry_space_group_name_H-M   'P 1'
_cell_length_a   7.10490404
_cell_length_b   7.10961649
_cell_length_c   4.24163200
_cell_angle_alpha   90.00000000
_cell_angle_beta   90.00000000
_cell_angle_gamma   120.02193628
_symmetry_Int_Tables_number   1
_chemical_formula_structural   Tb2DySi2Ag3Ge
_chemical_formula_sum   'Tb2 Dy1 Si2 Ag3 Ge1'
_cell_volume   185.51198333
_cell_formula_units_Z   1
loop_
 _symmetry_equiv_pos_site_id
 _symmetry_equiv_pos_as_xyz
  1  'x, y, z'
loop_
 _atom_site_type_symbol
 _atom_site_label
 _atom_site_symmetry_multiplicity
 _atom_site_fract_x
 _atom_site_fract_y
 _atom_site_fract_z
 _atom_site_occupancy
  Tb  Tb0  1  0.418336  0.418433  0.500000  1
  Tb  Tb1  1  0.581664  0.000096  0.500000  1
  Dy  Dy2  1  0.000000  0.581925  0.500000  1
  Si  Si3  1  0.667476  0.333812  0.000000  1
  Si  Si4  1  0.332524  0.666337  0.000000  1
  Ag  Ag5  1  0.743724  0.743447  0.000000  1
  Ag  Ag6  1  0.256276  0.999724  0.000000  1
  Ag  Ag7  1  0.000000  0.256816  0.000000  1
  Ge  Ge8  1  0.000000  0.999409  0.500000  1
