# generated using pymatgen
data_Nd16CdNi4Ag3
_symmetry_space_group_name_H-M   'P 1'
_cell_length_a   9.75324435
_cell_length_b   9.81251153
_cell_length_c   9.81251200
_cell_angle_alpha   59.99999841
_cell_angle_beta   59.79877961
_cell_angle_gamma   59.79877813
_symmetry_Int_Tables_number   1
_chemical_formula_structural   Nd16CdNi4Ag3
_chemical_formula_sum   'Nd16 Cd1 Ni4 Ag3'
_cell_volume   662.01354856
_cell_formula_units_Z   1
loop_
 _symmetry_equiv_pos_site_id
 _symmetry_equiv_pos_as_xyz
  1  'x, y, z'
loop_
 _atom_site_type_symbol
 _atom_site_label
 _atom_site_symmetry_multiplicity
 _atom_site_fract_x
 _atom_site_fract_y
 _atom_site_fract_z
 _atom_site_occupancy
  Nd  Nd0  1  0.600236  0.599073  0.599073  1
  Nd  Nd1  1  0.600236  0.599073  0.201618  1
  Nd  Nd2  1  0.600236  0.201618  0.599073  1
  Nd  Nd3  1  0.197066  0.600978  0.600978  1
  Nd  Nd4  1  0.059630  0.440543  0.440543  1
  Nd  Nd5  1  0.440468  0.059007  0.059007  1
  Nd  Nd6  1  0.440468  0.059007  0.441517  1
  Nd  Nd7  1  0.059630  0.440543  0.059284  1
  Nd  Nd8  1  0.440468  0.441517  0.059007  1
  Nd  Nd9  1  0.059630  0.059284  0.440543  1
  Nd  Nd10  1  0.183638  0.813861  0.813861  1
  Nd  Nd11  1  0.812360  0.187006  0.187006  1
  Nd  Nd12  1  0.812360  0.187006  0.813629  1
  Nd  Nd13  1  0.183638  0.813861  0.188640  1
  Nd  Nd14  1  0.812360  0.813629  0.187006  1
  Nd  Nd15  1  0.183638  0.188640  0.813861  1
  Cd  Cd16  1  0.519179  0.826940  0.826940  1
  Ni  Ni17  1  0.392522  0.393340  0.393340  1
  Ni  Ni18  1  0.392522  0.393340  0.820799  1
  Ni  Ni19  1  0.392522  0.820799  0.393340  1
  Ni  Ni20  1  0.820943  0.393019  0.393019  1
  Ag  Ag21  1  0.832084  0.832083  0.832083  1
  Ag  Ag22  1  0.832084  0.832083  0.503750  1
  Ag  Ag23  1  0.832084  0.503750  0.832083  1
