# generated using pymatgen
data_Yb2HoEr(Ga3Ir)6
_symmetry_space_group_name_H-M   'P 1'
_cell_length_a   7.54688325
_cell_length_b   7.54827657
_cell_length_c   9.56085900
_cell_angle_alpha   90.00000000
_cell_angle_beta   90.00000000
_cell_angle_gamma   119.72270588
_symmetry_Int_Tables_number   1
_chemical_formula_structural   Yb2HoEr(Ga3Ir)6
_chemical_formula_sum   'Yb2 Ho1 Er1 Ga18 Ir6'
_cell_volume   472.98755852
_cell_formula_units_Z   1
loop_
 _symmetry_equiv_pos_site_id
 _symmetry_equiv_pos_as_xyz
  1  'x, y, z'
loop_
 _atom_site_type_symbol
 _atom_site_label
 _atom_site_symmetry_multiplicity
 _atom_site_fract_x
 _atom_site_fract_y
 _atom_site_fract_z
 _atom_site_occupancy
  Yb  Yb0  1  0.996646  0.669890  0.750000  1
  Yb  Yb1  1  0.003390  0.330177  0.250000  1
  Ho  Ho2  1  0.669528  0.998317  0.750000  1
  Er  Er3  1  0.330379  0.001515  0.250000  1
  Ga  Ga4  1  0.127621  0.129929  0.750000  1
  Ga  Ga5  1  0.872762  0.870225  0.250000  1
  Ga  Ga6  1  0.000513  0.336315  0.577913  1
  Ga  Ga7  1  0.999721  0.663914  0.421818  1
  Ga  Ga8  1  0.999721  0.663914  0.078182  1
  Ga  Ga9  1  0.332865  0.998525  0.920487  1
  Ga  Ga10  1  0.000513  0.336315  0.922087  1
  Ga  Ga11  1  0.666948  0.001529  0.080059  1
  Ga  Ga12  1  0.666948  0.001529  0.419941  1
  Ga  Ga13  1  0.332865  0.998525  0.579513  1
  Ga  Ga14  1  0.331780  0.332559  0.064786  1
  Ga  Ga15  1  0.668216  0.667281  0.935589  1
  Ga  Ga16  1  0.668216  0.667281  0.564411  1
  Ga  Ga17  1  0.331780  0.332559  0.435214  1
  Ga  Ga18  1  0.339468  0.547004  0.750000  1
  Ga  Ga19  1  0.660328  0.452741  0.250000  1
  Ga  Ga20  1  0.546328  0.336719  0.750000  1
  Ga  Ga21  1  0.453529  0.663313  0.250000  1
  Ir  Ir22  1  0.671028  0.328062  0.500135  1
  Ir  Ir23  1  0.328965  0.671924  0.499691  1
  Ir  Ir24  1  0.328965  0.671924  0.000309  1
  Ir  Ir25  1  0.671028  0.328062  0.999865  1
  Ir  Ir26  1  0.999974  0.999976  0.499903  1
  Ir  Ir27  1  0.999974  0.999976  0.000097  1
