# generated using pymatgen
data_LaNd9Mg3AlRu6
_symmetry_space_group_name_H-M   'P 1'
_cell_length_a   8.69015080
_cell_length_b   8.64303674
_cell_length_c   8.60731348
_cell_angle_alpha   108.98783488
_cell_angle_beta   109.57625096
_cell_angle_gamma   109.54343366
_symmetry_Int_Tables_number   1
_chemical_formula_structural   LaNd9Mg3AlRu6
_chemical_formula_sum   'La1 Nd9 Mg3 Al1 Ru6'
_cell_volume   499.52660922
_cell_formula_units_Z   1
loop_
 _symmetry_equiv_pos_site_id
 _symmetry_equiv_pos_as_xyz
  1  'x, y, z'
loop_
 _atom_site_type_symbol
 _atom_site_label
 _atom_site_symmetry_multiplicity
 _atom_site_fract_x
 _atom_site_fract_y
 _atom_site_fract_z
 _atom_site_occupancy
  La  La0  1  0.246265  0.684258  0.439309  1
  Nd  Nd1  1  0.751418  0.822249  0.075201  1
  Nd  Nd2  1  0.424791  0.248277  0.676981  1
  Nd  Nd3  1  0.686464  0.434258  0.254277  1
  Nd  Nd4  1  0.066628  0.747219  0.813855  1
  Nd  Nd5  1  0.825428  0.071675  0.750772  1
  Nd  Nd6  1  0.211986  0.210539  0.211569  1
  Nd  Nd7  1  0.500561  0.000859  0.289535  1
  Nd  Nd8  1  0.290104  0.502935  0.000808  1
  Nd  Nd9  1  0.997395  0.279599  0.498309  1
  Mg  Mg10  1  0.595545  0.596317  0.593695  1
  Mg  Mg11  1  0.500921  0.003410  0.908643  1
  Mg  Mg12  1  0.903711  0.497814  0.998239  1
  Al  Al13  1  0.000594  0.909367  0.501816  1
  Ru  Ru14  1  0.235574  0.122558  0.863507  1
  Ru  Ru15  1  0.747367  0.366310  0.614120  1
  Ru  Ru16  1  0.881471  0.244470  0.130606  1
  Ru  Ru17  1  0.131035  0.879190  0.268382  1
  Ru  Ru18  1  0.642107  0.760711  0.370833  1
  Ru  Ru19  1  0.360632  0.617983  0.739542  1
