# generated using pymatgen
data_Pr10Sn5BiN2
_symmetry_space_group_name_H-M   'P 1'
_cell_length_a   9.37083213
_cell_length_b   9.37083234
_cell_length_c   6.71731100
_cell_angle_alpha   90.00000000
_cell_angle_beta   90.00000000
_cell_angle_gamma   119.98079807
_symmetry_Int_Tables_number   1
_chemical_formula_structural   Pr10Sn5BiN2
_chemical_formula_sum   'Pr10 Sn5 Bi1 N2'
_cell_volume   510.93589312
_cell_formula_units_Z   1
loop_
 _symmetry_equiv_pos_site_id
 _symmetry_equiv_pos_as_xyz
  1  'x, y, z'
loop_
 _atom_site_type_symbol
 _atom_site_label
 _atom_site_symmetry_multiplicity
 _atom_site_fract_x
 _atom_site_fract_y
 _atom_site_fract_z
 _atom_site_occupancy
  Pr  Pr0  1  0.669612  0.332306  0.002475  1
  Pr  Pr1  1  0.332306  0.669612  0.002475  1
  Pr  Pr2  1  0.332306  0.669612  0.497525  1
  Pr  Pr3  1  0.669612  0.332306  0.497525  1
  Pr  Pr4  1  0.785737  0.785737  0.750000  1
  Pr  Pr5  1  0.213754  0.996467  0.750000  1
  Pr  Pr6  1  0.996467  0.213754  0.750000  1
  Pr  Pr7  1  0.213625  0.213625  0.250000  1
  Pr  Pr8  1  0.784466  0.999846  0.250000  1
  Pr  Pr9  1  0.999846  0.784466  0.250000  1
  Sn  Sn10  1  0.597095  0.999989  0.750000  1
  Sn  Sn11  1  0.999989  0.597095  0.750000  1
  Sn  Sn12  1  0.597734  0.597734  0.250000  1
  Sn  Sn13  1  0.402774  0.000452  0.250000  1
  Sn  Sn14  1  0.000452  0.402774  0.250000  1
  Bi  Bi15  1  0.402397  0.402397  0.750000  1
  N  N16  1  0.000915  0.000915  0.998989  1
  N  N17  1  0.000915  0.000915  0.501011  1
