# generated using pymatgen
data_Ta(Ti3P2)2
_symmetry_space_group_name_H-M   'P 1'
_cell_length_a   7.55499543
_cell_length_b   7.55499502
_cell_length_c   13.72881165
_cell_angle_alpha   75.49200846
_cell_angle_beta   75.49200955
_cell_angle_gamma   25.95656435
_symmetry_Int_Tables_number   1
_chemical_formula_structural   Ta(Ti3P2)2
_chemical_formula_sum   'Ta2 Ti12 P8'
_cell_volume   331.45138732
_cell_formula_units_Z   2
loop_
 _symmetry_equiv_pos_site_id
 _symmetry_equiv_pos_as_xyz
  1  'x, y, z'
loop_
 _atom_site_type_symbol
 _atom_site_label
 _atom_site_symmetry_multiplicity
 _atom_site_fract_x
 _atom_site_fract_y
 _atom_site_fract_z
 _atom_site_occupancy
  Ta  Ta0  1  0.000000  0.000000  0.000000  1
  Ta  Ta1  1  0.500000  0.500000  0.500000  1
  Ti  Ti2  1  0.429405  0.429405  0.168641  1
  Ti  Ti3  1  0.570595  0.570595  0.831359  1
  Ti  Ti4  1  0.195219  0.195219  0.692449  1
  Ti  Ti5  1  0.804781  0.804781  0.307551  1
  Ti  Ti6  1  0.207093  0.207093  0.205161  1
  Ti  Ti7  1  0.792907  0.792907  0.794839  1
  Ti  Ti8  1  0.339659  0.339659  0.968258  1
  Ti  Ti9  1  0.660341  0.660341  0.031742  1
  Ti  Ti10  1  0.003984  0.003984  0.338189  1
  Ti  Ti11  1  0.996016  0.996016  0.661811  1
  Ti  Ti12  1  0.178098  0.178098  0.457727  1
  Ti  Ti13  1  0.821902  0.821902  0.542273  1
  P  P14  1  0.178405  0.178405  0.890718  1
  P  P15  1  0.821595  0.821595  0.109282  1
  P  P16  1  0.371629  0.371629  0.396415  1
  P  P17  1  0.628371  0.628371  0.603585  1
  P  P18  1  0.367357  0.367357  0.660423  1
  P  P19  1  0.632643  0.632643  0.339577  1
  P  P20  1  0.062686  0.062686  0.152633  1
  P  P21  1  0.937314  0.937314  0.847367  1
