# generated using pymatgen
data_K3Ca2SbO6
_symmetry_space_group_name_H-M   'P 1'
_cell_length_a   5.92877510
_cell_length_b   5.92877528
_cell_length_c   6.50347731
_cell_angle_alpha   98.84697626
_cell_angle_beta   98.84698220
_cell_angle_gamma   119.92889012
_symmetry_Int_Tables_number   1
_chemical_formula_structural   K3Ca2SbO6
_chemical_formula_sum   'K3 Ca2 Sb1 O6'
_cell_volume   188.53101487
_cell_formula_units_Z   1
loop_
 _symmetry_equiv_pos_site_id
 _symmetry_equiv_pos_as_xyz
  1  'x, y, z'
loop_
 _atom_site_type_symbol
 _atom_site_label
 _atom_site_symmetry_multiplicity
 _atom_site_fract_x
 _atom_site_fract_y
 _atom_site_fract_z
 _atom_site_occupancy
  K  K0  1  0.829891  0.170111  0.500000  1
  K  K1  1  0.500001  0.500001  0.500000  1
  K  K2  1  0.170111  0.829891  0.500000  1
  Ca  Ca3  1  0.666523  0.333478  0.000000  1
  Ca  Ca4  1  0.333478  0.666523  0.000000  1
  Sb  Sb5  1  0.000000  0.000000  0.000000  1
  O  O6  1  0.772192  0.772192  0.185173  1
  O  O7  1  0.353214  0.062043  0.184876  1
  O  O8  1  0.062043  0.353214  0.184876  1
  O  O9  1  0.937957  0.646786  0.815123  1
  O  O10  1  0.646786  0.937957  0.815123  1
  O  O11  1  0.227808  0.227808  0.814827  1
