# generated using pymatgen
data_Tb3Al3ZnGePt
_symmetry_space_group_name_H-M   'P 1'
_cell_length_a   7.03417000
_cell_length_b   7.03417007
_cell_length_c   4.24772200
_cell_angle_alpha   90.00000000
_cell_angle_beta   90.00000000
_cell_angle_gamma   119.99999965
_symmetry_Int_Tables_number   1
_chemical_formula_structural   Tb3Al3ZnGePt
_chemical_formula_sum   'Tb3 Al3 Zn1 Ge1 Pt1'
_cell_volume   182.01720603
_cell_formula_units_Z   1
loop_
 _symmetry_equiv_pos_site_id
 _symmetry_equiv_pos_as_xyz
  1  'x, y, z'
loop_
 _atom_site_type_symbol
 _atom_site_label
 _atom_site_symmetry_multiplicity
 _atom_site_fract_x
 _atom_site_fract_y
 _atom_site_fract_z
 _atom_site_occupancy
  Tb  Tb0  1  0.417462  0.000249  0.000000  1
  Tb  Tb1  1  0.999751  0.417214  0.000000  1
  Tb  Tb2  1  0.582786  0.582538  0.000000  1
  Al  Al3  1  0.770445  0.008017  0.500000  1
  Al  Al4  1  0.237573  0.229555  0.500000  1
  Al  Al5  1  0.991983  0.762428  0.500000  1
  Zn  Zn6  1  0.666667  0.333333  0.500000  1
  Ge  Ge7  1  0.333333  0.666667  0.500000  1
  Pt  Pt8  1  0.000000  0.000000  0.000000  1
