# generated using pymatgen
data_Ho8Tm2Zn3Bi2Au
_symmetry_space_group_name_H-M   'P 1'
_cell_length_a   8.60921729
_cell_length_b   8.60921820
_cell_length_c   8.61218540
_cell_angle_alpha   123.94775918
_cell_angle_beta   123.94775998
_cell_angle_gamma   83.26608521
_symmetry_Int_Tables_number   1
_chemical_formula_structural   Ho8Tm2Zn3Bi2Au
_chemical_formula_sum   'Ho8 Tm2 Zn3 Bi2 Au1'
_cell_volume   421.33294804
_cell_formula_units_Z   1
loop_
 _symmetry_equiv_pos_site_id
 _symmetry_equiv_pos_as_xyz
  1  'x, y, z'
loop_
 _atom_site_type_symbol
 _atom_site_label
 _atom_site_symmetry_multiplicity
 _atom_site_fract_x
 _atom_site_fract_y
 _atom_site_fract_z
 _atom_site_occupancy
  Ho  Ho0  1  0.009308  0.510830  0.804719  1
  Ho  Ho1  1  0.704590  0.206111  0.195281  1
  Ho  Ho2  1  0.511710  0.705326  0.500000  1
  Ho  Ho3  1  0.205617  0.010948  0.500000  1
  Ho  Ho4  1  0.989170  0.490692  0.195281  1
  Ho  Ho5  1  0.293889  0.795410  0.804719  1
  Ho  Ho6  1  0.489052  0.294383  0.500000  1
  Ho  Ho7  1  0.794674  0.988290  0.500000  1
  Tm  Tm8  1  0.999716  0.999459  0.999174  1
  Tm  Tm9  1  0.500541  0.500284  0.000826  1
  Zn  Zn10  1  0.638714  0.140346  0.779058  1
  Zn  Zn11  1  0.359654  0.861286  0.220942  1
  Zn  Zn12  1  0.140555  0.359445  0.500000  1
  Bi  Bi13  1  0.749009  0.750991  0.000000  1
  Bi  Bi14  1  0.249009  0.250991  0.000000  1
  Au  Au15  1  0.864792  0.635208  0.500000  1
