# generated using pymatgen
data_Tm16MgIn(Ni2Hg)2
_symmetry_space_group_name_H-M   'P 1'
_cell_length_a   9.47021449
_cell_length_b   9.42244746
_cell_length_c   9.42244744
_cell_angle_alpha   59.98992245
_cell_angle_beta   60.02784872
_cell_angle_gamma   60.02785842
_symmetry_Int_Tables_number   1
_chemical_formula_structural   Tm16MgIn(Ni2Hg)2
_chemical_formula_sum   'Tm16 Mg1 In1 Ni4 Hg2'
_cell_volume   594.73276252
_cell_formula_units_Z   1
loop_
 _symmetry_equiv_pos_site_id
 _symmetry_equiv_pos_as_xyz
  1  'x, y, z'
loop_
 _atom_site_type_symbol
 _atom_site_label
 _atom_site_symmetry_multiplicity
 _atom_site_fract_x
 _atom_site_fract_y
 _atom_site_fract_z
 _atom_site_occupancy
  Tm  Tm0  1  0.599776  0.596874  0.596874  1
  Tm  Tm1  1  0.597751  0.596718  0.209717  1
  Tm  Tm2  1  0.597751  0.209717  0.596718  1
  Tm  Tm3  1  0.198488  0.599604  0.599604  1
  Tm  Tm4  1  0.059293  0.439749  0.439749  1
  Tm  Tm5  1  0.436454  0.063366  0.063366  1
  Tm  Tm6  1  0.435842  0.063054  0.437995  1
  Tm  Tm7  1  0.059563  0.439269  0.061819  1
  Tm  Tm8  1  0.435842  0.437995  0.063054  1
  Tm  Tm9  1  0.059563  0.061819  0.439269  1
  Tm  Tm10  1  0.186055  0.813744  0.813744  1
  Tm  Tm11  1  0.813752  0.186646  0.186646  1
  Tm  Tm12  1  0.814623  0.187575  0.814450  1
  Tm  Tm13  1  0.185544  0.814569  0.186121  1
  Tm  Tm14  1  0.814623  0.814450  0.187575  1
  Tm  Tm15  1  0.185544  0.186121  0.814569  1
  Mg  Mg16  1  0.529408  0.822237  0.822237  1
  In  In17  1  0.832387  0.832153  0.832153  1
  Ni  Ni18  1  0.389170  0.393385  0.393385  1
  Ni  Ni19  1  0.389172  0.394909  0.822938  1
  Ni  Ni20  1  0.389172  0.822938  0.394909  1
  Ni  Ni21  1  0.823100  0.393143  0.393143  1
  Hg  Hg22  1  0.833562  0.837718  0.492249  1
  Hg  Hg23  1  0.833562  0.492249  0.837718  1
