# generated using pymatgen
data_YHo7Re2(B12Rh)2
_symmetry_space_group_name_H-M   'P 1'
_cell_length_a   3.67300000
_cell_length_b   9.13959549
_cell_length_c   11.52969601
_cell_angle_alpha   90.43578471
_cell_angle_beta   90.00000000
_cell_angle_gamma   90.00000000
_symmetry_Int_Tables_number   1
_chemical_formula_structural   YHo7Re2(B12Rh)2
_chemical_formula_sum   'Y1 Ho7 Re2 B24 Rh2'
_cell_volume   387.03763529
_cell_formula_units_Z   1
loop_
 _symmetry_equiv_pos_site_id
 _symmetry_equiv_pos_as_xyz
  1  'x, y, z'
loop_
 _atom_site_type_symbol
 _atom_site_label
 _atom_site_symmetry_multiplicity
 _atom_site_fract_x
 _atom_site_fract_y
 _atom_site_fract_z
 _atom_site_occupancy
  Y  Y0  1  0.000000  0.318521  0.410821  1
  Ho  Ho1  1  0.000000  0.681618  0.589343  1
  Ho  Ho2  1  0.000000  0.826337  0.082663  1
  Ho  Ho3  1  0.000000  0.173647  0.917299  1
  Ho  Ho4  1  0.000000  0.945062  0.371806  1
  Ho  Ho5  1  0.000000  0.054729  0.628260  1
  Ho  Ho6  1  0.000000  0.442450  0.126572  1
  Ho  Ho7  1  0.000000  0.557606  0.873379  1
  Re  Re8  1  0.000000  0.138474  0.179370  1
  Re  Re9  1  0.000000  0.861260  0.820360  1
  B  B10  1  0.500000  0.554607  0.434204  1
  B  B11  1  0.500000  0.445987  0.566119  1
  B  B12  1  0.500000  0.052800  0.067313  1
  B  B13  1  0.500000  0.947131  0.932602  1
  B  B14  1  0.500000  0.748796  0.421469  1
  B  B15  1  0.500000  0.251149  0.578967  1
  B  B16  1  0.500000  0.248178  0.081104  1
  B  B17  1  0.500000  0.751831  0.918783  1
  B  B18  1  0.500000  0.791204  0.265328  1
  B  B19  1  0.500000  0.208794  0.734731  1
  B  B20  1  0.500000  0.292582  0.234329  1
  B  B21  1  0.500000  0.707278  0.765353  1
  B  B22  1  0.500000  0.632614  0.183524  1
  B  B23  1  0.500000  0.367467  0.816455  1
  B  B24  1  0.500000  0.131665  0.314506  1
  B  B25  1  0.500000  0.867965  0.685260  1
  B  B26  1  0.500000  0.982821  0.212945  1
  B  B27  1  0.500000  0.017014  0.787019  1
  B  B28  1  0.500000  0.483769  0.287516  1
  B  B29  1  0.500000  0.516683  0.712311  1
  B  B30  1  0.500000  0.606836  0.029645  1
  B  B31  1  0.500000  0.393214  0.970311  1
  B  B32  1  0.500000  0.107647  0.470906  1
  B  B33  1  0.500000  0.891876  0.529254  1
  Rh  Rh34  1  0.000000  0.638105  0.321359  1
  Rh  Rh35  1  0.000000  0.362286  0.678814  1
