# generated using pymatgen
data_ErMg(GaIr)2
_symmetry_space_group_name_H-M   'P 1'
_cell_length_a   4.16636200
_cell_length_b   6.82551500
_cell_length_c   7.63194300
_cell_angle_alpha   90.00000000
_cell_angle_beta   90.00000000
_cell_angle_gamma   90.00000000
_symmetry_Int_Tables_number   1
_chemical_formula_structural   ErMg(GaIr)2
_chemical_formula_sum   'Er2 Mg2 Ga4 Ir4'
_cell_volume   217.03388526
_cell_formula_units_Z   2
loop_
 _symmetry_equiv_pos_site_id
 _symmetry_equiv_pos_as_xyz
  1  'x, y, z'
loop_
 _atom_site_type_symbol
 _atom_site_label
 _atom_site_symmetry_multiplicity
 _atom_site_fract_x
 _atom_site_fract_y
 _atom_site_fract_z
 _atom_site_occupancy
  Er  Er0  1  0.750000  0.021070  0.672175  1
  Er  Er1  1  0.750000  0.521070  0.827825  1
  Mg  Mg2  1  0.250000  0.985192  0.316170  1
  Mg  Mg3  1  0.250000  0.485192  0.183830  1
  Ga  Ga4  1  0.250000  0.342646  0.561918  1
  Ga  Ga5  1  0.250000  0.842646  0.938082  1
  Ga  Ga6  1  0.750000  0.648456  0.428896  1
  Ga  Ga7  1  0.750000  0.148456  0.071104  1
  Ir  Ir8  1  0.250000  0.225047  0.885164  1
  Ir  Ir9  1  0.250000  0.725047  0.614836  1
  Ir  Ir10  1  0.750000  0.777589  0.121036  1
  Ir  Ir11  1  0.750000  0.277589  0.378964  1
