# generated using pymatgen
data_Li8Tb3Ho5Si7Sb
_symmetry_space_group_name_H-M   'P 1'
_cell_length_a   8.81153000
_cell_length_b   8.80955892
_cell_length_c   7.07222356
_cell_angle_alpha   90.10062531
_cell_angle_beta   90.00000000
_cell_angle_gamma   120.00740917
_symmetry_Int_Tables_number   1
_chemical_formula_structural   Li8Tb3Ho5Si7Sb
_chemical_formula_sum   'Li8 Tb3 Ho5 Si7 Sb1'
_cell_volume   475.39956327
_cell_formula_units_Z   1
loop_
 _symmetry_equiv_pos_site_id
 _symmetry_equiv_pos_as_xyz
  1  'x, y, z'
loop_
 _atom_site_type_symbol
 _atom_site_label
 _atom_site_symmetry_multiplicity
 _atom_site_fract_x
 _atom_site_fract_y
 _atom_site_fract_z
 _atom_site_occupancy
  Li  Li0  1  0.166520  0.333040  0.282917  1
  Li  Li1  1  0.169026  0.834263  0.285730  1
  Li  Li2  1  0.665237  0.834263  0.285730  1
  Li  Li3  1  0.833250  0.666498  0.787291  1
  Li  Li4  1  0.824689  0.162588  0.792132  1
  Li  Li5  1  0.337901  0.162588  0.792132  1
  Li  Li6  1  0.337504  0.675012  0.670482  1
  Li  Li7  1  0.665734  0.331468  0.170865  1
  Tb  Tb8  1  0.513090  0.026179  0.494186  1
  Tb  Tb9  1  0.521436  0.492089  0.490727  1
  Tb  Tb10  1  0.970653  0.492089  0.490727  1
  Ho  Ho11  1  0.486586  0.973173  0.995719  1
  Ho  Ho12  1  0.497307  0.517905  0.999463  1
  Ho  Ho13  1  0.020596  0.517905  0.999463  1
  Ho  Ho14  1  0.993977  0.987954  0.497815  1
  Ho  Ho15  1  0.996396  0.992794  0.006081  1
  Si  Si16  1  0.165699  0.832979  0.730707  1
  Si  Si17  1  0.667278  0.832979  0.730707  1
  Si  Si18  1  0.833746  0.667492  0.229349  1
  Si  Si19  1  0.834173  0.167006  0.228002  1
  Si  Si20  1  0.332834  0.167006  0.228002  1
  Si  Si21  1  0.332839  0.665679  0.257715  1
  Si  Si22  1  0.667151  0.334300  0.762886  1
  Sb  Sb23  1  0.166376  0.332753  0.733143  1
