# generated using pymatgen
data_Dy3HoV4(WO6)4
_symmetry_space_group_name_H-M   'P 1'
_cell_length_a   5.23284001
_cell_length_b   7.43330714
_cell_length_c   11.17843620
_cell_angle_alpha   89.97867622
_cell_angle_beta   89.99687074
_cell_angle_gamma   90.00513630
_symmetry_Int_Tables_number   1
_chemical_formula_structural   Dy3HoV4(WO6)4
_chemical_formula_sum   'Dy3 Ho1 V4 W4 O24'
_cell_volume   434.81103170
_cell_formula_units_Z   1
loop_
 _symmetry_equiv_pos_site_id
 _symmetry_equiv_pos_as_xyz
  1  'x, y, z'
loop_
 _atom_site_type_symbol
 _atom_site_label
 _atom_site_symmetry_multiplicity
 _atom_site_fract_x
 _atom_site_fract_y
 _atom_site_fract_z
 _atom_site_occupancy
  Dy  Dy0  1  0.544267  0.250804  0.045404  1
  Dy  Dy1  1  0.044492  0.750756  0.454523  1
  Dy  Dy2  1  0.955626  0.250767  0.545479  1
  Ho  Ho3  1  0.454850  0.750890  0.954534  1
  V  V4  1  0.051159  0.997573  0.134021  1
  V  V5  1  0.551171  0.498247  0.365715  1
  V  V6  1  0.448880  0.998059  0.634461  1
  V  V7  1  0.948630  0.498473  0.865810  1
  W  W8  1  0.056689  0.506175  0.143315  1
  W  W9  1  0.556768  0.006094  0.356471  1
  W  W10  1  0.443307  0.506112  0.643673  1
  W  W11  1  0.943047  0.005729  0.856585  1
  O  O12  1  0.755602  0.959042  0.019730  1
  O  O13  1  0.764213  0.547134  0.029431  1
  O  O14  1  0.181345  0.749425  0.115390  1
  O  O15  1  0.934300  0.258239  0.142950  1
  O  O16  1  0.375109  0.433037  0.206361  1
  O  O17  1  0.392541  0.068359  0.213500  1
  O  O18  1  0.892959  0.568525  0.286272  1
  O  O19  1  0.875458  0.932921  0.293566  1
  O  O20  1  0.434180  0.758145  0.356787  1
  O  O21  1  0.680029  0.249422  0.383958  1
  O  O22  1  0.264970  0.046334  0.470515  1
  O  O23  1  0.256332  0.459989  0.480231  1
  O  O24  1  0.743654  0.959930  0.519893  1
  O  O25  1  0.735007  0.546373  0.529548  1
  O  O26  1  0.320029  0.749429  0.616028  1
  O  O27  1  0.565828  0.258200  0.643316  1
  O  O28  1  0.124557  0.432974  0.706430  1
  O  O29  1  0.107014  0.068212  0.713609  1
  O  O30  1  0.606904  0.568832  0.786834  1
  O  O31  1  0.624264  0.932246  0.794028  1
  O  O32  1  0.067405  0.758187  0.857028  1
  O  O33  1  0.820203  0.249250  0.884072  1
  O  O34  1  0.235283  0.045918  0.970493  1
  O  O35  1  0.243928  0.460592  0.980033  1
