# generated using pymatgen
data_Hf5NbCo16Si7
_symmetry_space_group_name_H-M   'P 1'
_cell_length_a   8.00592134
_cell_length_b   7.99100925
_cell_length_c   8.00592186
_cell_angle_alpha   60.06160027
_cell_angle_beta   59.87681803
_cell_angle_gamma   60.06159650
_symmetry_Int_Tables_number   1
_chemical_formula_structural   Hf5NbCo16Si7
_chemical_formula_sum   'Hf5 Nb1 Co16 Si7'
_cell_volume   362.16488736
_cell_formula_units_Z   1
loop_
 _symmetry_equiv_pos_site_id
 _symmetry_equiv_pos_as_xyz
  1  'x, y, z'
loop_
 _atom_site_type_symbol
 _atom_site_label
 _atom_site_symmetry_multiplicity
 _atom_site_fract_x
 _atom_site_fract_y
 _atom_site_fract_z
 _atom_site_occupancy
  Hf  Hf0  1  0.206362  0.793638  0.206362  1
  Hf  Hf1  1  0.203633  0.796367  0.795515  1
  Hf  Hf2  1  0.795515  0.204485  0.203633  1
  Hf  Hf3  1  0.795515  0.796367  0.203633  1
  Hf  Hf4  1  0.203633  0.204485  0.795515  1
  Nb  Nb5  1  0.796720  0.203280  0.796720  1
  Co  Co6  1  0.169993  0.170645  0.169993  1
  Co  Co7  1  0.510632  0.830007  0.829355  1
  Co  Co8  1  0.830441  0.508025  0.830441  1
  Co  Co9  1  0.829355  0.830007  0.510632  1
  Co  Co10  1  0.169993  0.489368  0.169993  1
  Co  Co11  1  0.168905  0.169559  0.491975  1
  Co  Co12  1  0.491975  0.169559  0.168905  1
  Co  Co13  1  0.830441  0.831095  0.830441  1
  Co  Co14  1  0.379844  0.379850  0.379844  1
  Co  Co15  1  0.139538  0.620156  0.620150  1
  Co  Co16  1  0.620540  0.142579  0.620540  1
  Co  Co17  1  0.620150  0.620156  0.139538  1
  Co  Co18  1  0.379844  0.860462  0.379844  1
  Co  Co19  1  0.383659  0.379460  0.857421  1
  Co  Co20  1  0.857421  0.379460  0.383659  1
  Co  Co21  1  0.620540  0.616341  0.620540  1
  Si  Si22  1  0.498208  0.501792  0.498208  1
  Si  Si23  1  0.999690  0.500310  0.999690  1
  Si  Si24  1  0.500647  0.001766  0.998234  1
  Si  Si25  1  0.998234  0.499353  0.500647  1
  Si  Si26  1  0.499690  0.000310  0.499690  1
  Si  Si27  1  0.998234  0.001766  0.500647  1
  Si  Si28  1  0.500647  0.499353  0.998234  1
