# generated using pymatgen
data_Dy8Sc12Ga5Si10As
_symmetry_space_group_name_H-M   'P 1'
_cell_length_a   7.15467107
_cell_length_b   7.41613679
_cell_length_c   14.18174103
_cell_angle_alpha   90.03037119
_cell_angle_beta   89.77230876
_cell_angle_gamma   90.29244684
_symmetry_Int_Tables_number   1
_chemical_formula_structural   Dy8Sc12Ga5Si10As
_chemical_formula_sum   'Dy8 Sc12 Ga5 Si10 As1'
_cell_volume   752.46761190
_cell_formula_units_Z   1
loop_
 _symmetry_equiv_pos_site_id
 _symmetry_equiv_pos_as_xyz
  1  'x, y, z'
loop_
 _atom_site_type_symbol
 _atom_site_label
 _atom_site_symmetry_multiplicity
 _atom_site_fract_x
 _atom_site_fract_y
 _atom_site_fract_z
 _atom_site_occupancy
  Dy  Dy0  1  0.013498  0.174392  0.096239  1
  Dy  Dy1  1  0.989842  0.824246  0.901271  1
  Dy  Dy2  1  0.487737  0.675618  0.902925  1
  Dy  Dy3  1  0.991885  0.825074  0.602532  1
  Dy  Dy4  1  0.511339  0.321023  0.096760  1
  Dy  Dy5  1  0.009691  0.173553  0.399455  1
  Dy  Dy6  1  0.509967  0.325832  0.399042  1
  Dy  Dy7  1  0.491344  0.672988  0.600714  1
  Sc  Sc8  1  0.162906  0.503240  0.751820  1
  Sc  Sc9  1  0.836242  0.499180  0.249862  1
  Sc  Sc10  1  0.335149  0.001581  0.248566  1
  Sc  Sc11  1  0.659276  0.998854  0.751376  1
  Sc  Sc12  1  0.332920  0.172382  0.628589  1
  Sc  Sc13  1  0.668132  0.826859  0.372610  1
  Sc  Sc14  1  0.168640  0.673597  0.372593  1
  Sc  Sc15  1  0.668453  0.826279  0.124782  1
  Sc  Sc16  1  0.828290  0.330157  0.626786  1
  Sc  Sc17  1  0.331189  0.174589  0.874908  1
  Sc  Sc18  1  0.824912  0.326518  0.876070  1
  Sc  Sc19  1  0.173573  0.675407  0.123531  1
  Ga  Ga20  1  0.161343  0.460479  0.539707  1
  Ga  Ga21  1  0.838625  0.539260  0.460937  1
  Ga  Ga22  1  0.338428  0.961660  0.461384  1
  Ga  Ga23  1  0.840399  0.539212  0.039154  1
  Ga  Ga24  1  0.662328  0.039361  0.539717  1
  Si  Si25  1  0.965658  0.882883  0.247800  1
  Si  Si26  1  0.465818  0.614458  0.247544  1
  Si  Si27  1  0.531602  0.382694  0.752209  1
  Si  Si28  1  0.298178  0.860869  0.752335  1
  Si  Si29  1  0.715524  0.126768  0.247539  1
  Si  Si30  1  0.213901  0.373396  0.247593  1
  Si  Si31  1  0.788021  0.629754  0.752577  1
  Si  Si32  1  0.156351  0.462221  0.960362  1
  Si  Si33  1  0.657439  0.036274  0.961223  1
  Si  Si34  1  0.344284  0.964010  0.037557  1
  As  As35  1  0.027117  0.125334  0.751930  1
