# generated using pymatgen
data_Y20Cd6TcPd
_symmetry_space_group_name_H-M   'P 1'
_cell_length_a   9.69230800
_cell_length_b   9.69230731
_cell_length_c   9.88682800
_cell_angle_alpha   90.00000000
_cell_angle_beta   90.00000000
_cell_angle_gamma   120.00002782
_symmetry_Int_Tables_number   1
_chemical_formula_structural   Y20Cd6TcPd
_chemical_formula_sum   'Y20 Cd6 Tc1 Pd1'
_cell_volume   804.34408260
_cell_formula_units_Z   1
loop_
 _symmetry_equiv_pos_site_id
 _symmetry_equiv_pos_as_xyz
  1  'x, y, z'
loop_
 _atom_site_type_symbol
 _atom_site_label
 _atom_site_symmetry_multiplicity
 _atom_site_fract_x
 _atom_site_fract_y
 _atom_site_fract_z
 _atom_site_occupancy
  Y  Y0  1  0.209410  0.790590  0.939513  1
  Y  Y1  1  0.209410  0.418820  0.939512  1
  Y  Y2  1  0.581180  0.790590  0.939512  1
  Y  Y3  1  0.792199  0.207801  0.058317  1
  Y  Y4  1  0.792199  0.584398  0.058317  1
  Y  Y5  1  0.415602  0.207801  0.058317  1
  Y  Y6  1  0.792199  0.207801  0.441683  1
  Y  Y7  1  0.792199  0.584398  0.441683  1
  Y  Y8  1  0.415602  0.207801  0.441683  1
  Y  Y9  1  0.209410  0.790590  0.560487  1
  Y  Y10  1  0.209410  0.418820  0.560488  1
  Y  Y11  1  0.581180  0.790590  0.560488  1
  Y  Y12  1  0.540562  0.459438  0.750000  1
  Y  Y13  1  0.540562  0.081124  0.750000  1
  Y  Y14  1  0.918876  0.459438  0.750000  1
  Y  Y15  1  0.456944  0.543056  0.250000  1
  Y  Y16  1  0.456945  0.913888  0.250000  1
  Y  Y17  1  0.086111  0.543055  0.250000  1
  Y  Y18  1  0.000000  0.000000  0.001077  1
  Y  Y19  1  0.000000  0.000000  0.498923  1
  Cd  Cd20  1  0.884640  0.115361  0.750000  1
  Cd  Cd21  1  0.884639  0.769279  0.750000  1
  Cd  Cd22  1  0.230721  0.115361  0.750000  1
  Cd  Cd23  1  0.115251  0.884749  0.250000  1
  Cd  Cd24  1  0.115251  0.230502  0.250000  1
  Cd  Cd25  1  0.769498  0.884749  0.250000  1
  Tc  Tc26  1  0.333333  0.666667  0.750000  1
  Pd  Pd27  1  0.666666  0.333333  0.250000  1
