# generated using pymatgen
data_La3Pr9(IrBr3)4
_symmetry_space_group_name_H-M   'P 1'
_cell_length_a   10.58841341
_cell_length_b   10.59119098
_cell_length_c   10.57288847
_cell_angle_alpha   108.71243218
_cell_angle_beta   109.80472801
_cell_angle_gamma   109.87426067
_symmetry_Int_Tables_number   1
_chemical_formula_structural   La3Pr9(IrBr3)4
_chemical_formula_sum   'La3 Pr9 Ir4 Br12'
_cell_volume   912.90290528
_cell_formula_units_Z   1
loop_
 _symmetry_equiv_pos_site_id
 _symmetry_equiv_pos_as_xyz
  1  'x, y, z'
loop_
 _atom_site_type_symbol
 _atom_site_label
 _atom_site_symmetry_multiplicity
 _atom_site_fract_x
 _atom_site_fract_y
 _atom_site_fract_z
 _atom_site_occupancy
  La  La0  1  0.465407  0.482703  0.232703  1
  La  La1  1  0.750421  0.233722  0.266327  1
  La  La2  1  0.750421  0.016699  0.484094  1
  Pr  Pr3  1  0.233555  0.468036  0.484920  1
  Pr  Pr4  1  0.265582  0.750552  0.234058  1
  Pr  Pr5  1  0.030680  0.265340  0.015340  1
  Pr  Pr6  1  0.018143  0.031756  0.264433  1
  Pr  Pr7  1  0.483537  0.748943  0.014271  1
  Pr  Pr8  1  0.483537  0.234594  0.469265  1
  Pr  Pr9  1  0.018143  0.486387  0.753711  1
  Pr  Pr10  1  0.265582  0.015031  0.031524  1
  Pr  Pr11  1  0.233555  0.265519  0.748636  1
  Ir  Ir12  1  0.251137  0.251106  0.250018  1
  Ir  Ir13  1  0.502766  0.001383  0.251383  1
  Ir  Ir14  1  0.997216  0.248608  0.498608  1
  Ir  Ir15  1  0.251137  0.500032  0.001119  1
  Br  Br16  1  0.250050  0.754301  0.745790  1
  Br  Br17  1  0.508478  0.504239  0.754239  1
  Br  Br18  1  0.991446  0.745723  0.995723  1
  Br  Br19  1  0.745897  0.251151  0.754612  1
  Br  Br20  1  0.996520  0.992026  0.746690  1
  Br  Br21  1  0.250050  0.995750  0.504260  1
  Br  Br22  1  0.754625  0.508375  0.505888  1
  Br  Br23  1  0.502536  0.248677  0.994012  1
  Br  Br24  1  0.754625  0.746251  0.248737  1
  Br  Br25  1  0.745897  0.994746  0.991284  1
  Br  Br26  1  0.996520  0.504492  0.249830  1
  Br  Br27  1  0.502536  0.753858  0.508524  1
