# generated using pymatgen
data_Tm4MnFeB12
_symmetry_space_group_name_H-M   'P 1'
_cell_length_a   3.51583500
_cell_length_b   9.02473761
_cell_length_c   11.40108491
_cell_angle_alpha   90.13945808
_cell_angle_beta   90.00000000
_cell_angle_gamma   90.00000000
_symmetry_Int_Tables_number   1
_chemical_formula_structural   Tm4MnFeB12
_chemical_formula_sum   'Tm8 Mn2 Fe2 B24'
_cell_volume   361.74951953
_cell_formula_units_Z   2
loop_
 _symmetry_equiv_pos_site_id
 _symmetry_equiv_pos_as_xyz
  1  'x, y, z'
loop_
 _atom_site_type_symbol
 _atom_site_label
 _atom_site_symmetry_multiplicity
 _atom_site_fract_x
 _atom_site_fract_y
 _atom_site_fract_z
 _atom_site_occupancy
  Tm  Tm0  1  0.000000  0.322333  0.413532  1
  Tm  Tm1  1  0.000000  0.677667  0.586468  1
  Tm  Tm2  1  0.000000  0.825731  0.083835  1
  Tm  Tm3  1  0.000000  0.174269  0.916165  1
  Tm  Tm4  1  0.000000  0.942507  0.368468  1
  Tm  Tm5  1  0.000000  0.057493  0.631532  1
  Tm  Tm6  1  0.000000  0.441558  0.130846  1
  Tm  Tm7  1  0.000000  0.558442  0.869154  1
  Mn  Mn8  1  0.000000  0.138194  0.180433  1
  Mn  Mn9  1  0.000000  0.861806  0.819567  1
  Fe  Fe10  1  0.000000  0.637996  0.320891  1
  Fe  Fe11  1  0.000000  0.362004  0.679109  1
  B  B12  1  0.500000  0.554120  0.432560  1
  B  B13  1  0.500000  0.445880  0.567440  1
  B  B14  1  0.500000  0.053585  0.067638  1
  B  B15  1  0.500000  0.946415  0.932362  1
  B  B16  1  0.500000  0.746880  0.417796  1
  B  B17  1  0.500000  0.253120  0.582204  1
  B  B18  1  0.500000  0.246588  0.082333  1
  B  B19  1  0.500000  0.753412  0.917667  1
  B  B20  1  0.500000  0.789522  0.265185  1
  B  B21  1  0.500000  0.210478  0.734815  1
  B  B22  1  0.500000  0.290229  0.235064  1
  B  B23  1  0.500000  0.709771  0.764936  1
  B  B24  1  0.500000  0.631090  0.185992  1
  B  B25  1  0.500000  0.368910  0.814008  1
  B  B26  1  0.500000  0.131396  0.314168  1
  B  B27  1  0.500000  0.868604  0.685832  1
  B  B28  1  0.500000  0.984228  0.211208  1
  B  B29  1  0.500000  0.015772  0.788792  1
  B  B30  1  0.500000  0.484419  0.288863  1
  B  B31  1  0.500000  0.515581  0.711137  1
  B  B32  1  0.500000  0.603808  0.028749  1
  B  B33  1  0.500000  0.396192  0.971251  1
  B  B34  1  0.500000  0.103653  0.471622  1
  B  B35  1  0.500000  0.896347  0.528378  1
