# generated using pymatgen
data_Fe(RhS4)2
_symmetry_space_group_name_H-M   'P 1'
_cell_length_a   5.62620979
_cell_length_b   5.61655325
_cell_length_c   5.60652991
_cell_angle_alpha   89.92030435
_cell_angle_beta   89.54679655
_cell_angle_gamma   89.97850829
_symmetry_Int_Tables_number   1
_chemical_formula_structural   Fe(RhS4)2
_chemical_formula_sum   'Fe1 Rh2 S8'
_cell_volume   177.16009762
_cell_formula_units_Z   1
loop_
 _symmetry_equiv_pos_site_id
 _symmetry_equiv_pos_as_xyz
  1  'x, y, z'
loop_
 _atom_site_type_symbol
 _atom_site_label
 _atom_site_symmetry_multiplicity
 _atom_site_fract_x
 _atom_site_fract_y
 _atom_site_fract_z
 _atom_site_occupancy
  Fe  Fe0  1  0.500000  0.500000  0.000000  1
  Rh  Rh1  1  0.500000  0.000000  0.500000  1
  Rh  Rh2  1  0.000000  0.500000  0.500000  1
  S  S3  1  0.396628  0.880236  0.101586  1
  S  S4  1  0.880995  0.602810  0.103120  1
  S  S5  1  0.393107  0.393002  0.374073  1
  S  S6  1  0.894898  0.104264  0.389326  1
  S  S7  1  0.105103  0.895737  0.610675  1
  S  S8  1  0.606894  0.606999  0.625928  1
  S  S9  1  0.119006  0.397190  0.896880  1
  S  S10  1  0.603373  0.119764  0.898414  1
