# generated using pymatgen
data_Tb4Pr2Co17ReP12
_symmetry_space_group_name_H-M   'P 1'
_cell_length_a   3.74840200
_cell_length_b   10.59562900
_cell_length_c   12.32387700
_cell_angle_alpha   90.00000000
_cell_angle_beta   90.00000000
_cell_angle_gamma   90.00000000
_symmetry_Int_Tables_number   1
_chemical_formula_structural   Tb4Pr2Co17ReP12
_chemical_formula_sum   'Tb4 Pr2 Co17 Re1 P12'
_cell_volume   489.46344139
_cell_formula_units_Z   1
loop_
 _symmetry_equiv_pos_site_id
 _symmetry_equiv_pos_as_xyz
  1  'x, y, z'
loop_
 _atom_site_type_symbol
 _atom_site_label
 _atom_site_symmetry_multiplicity
 _atom_site_fract_x
 _atom_site_fract_y
 _atom_site_fract_z
 _atom_site_occupancy
  Tb  Tb0  1  0.500000  0.817521  0.205238  1
  Tb  Tb1  1  0.500000  0.182479  0.205238  1
  Tb  Tb2  1  0.000000  0.683215  0.796322  1
  Tb  Tb3  1  0.000000  0.316785  0.796322  1
  Pr  Pr4  1  0.000000  0.500000  0.524477  1
  Pr  Pr5  1  0.500000  0.000000  0.478168  1
  Co  Co6  1  0.000000  0.000000  0.843137  1
  Co  Co7  1  0.500000  0.500000  0.705683  1
  Co  Co8  1  0.000000  0.000000  0.293039  1
  Co  Co9  1  0.000000  0.500000  0.987809  1
  Co  Co10  1  0.500000  0.000000  0.014129  1
  Co  Co11  1  0.500000  0.332524  0.991392  1
  Co  Co12  1  0.500000  0.667476  0.991392  1
  Co  Co13  1  0.000000  0.166697  0.005814  1
  Co  Co14  1  0.000000  0.833303  0.005814  1
  Co  Co15  1  0.500000  0.296230  0.428615  1
  Co  Co16  1  0.500000  0.703770  0.428615  1
  Co  Co17  1  0.000000  0.203939  0.570706  1
  Co  Co18  1  0.000000  0.796061  0.570706  1
  Co  Co19  1  0.500000  0.879962  0.712683  1
  Co  Co20  1  0.500000  0.120038  0.712683  1
  Co  Co21  1  0.000000  0.619884  0.287649  1
  Co  Co22  1  0.000000  0.380116  0.287649  1
  Re  Re23  1  0.500000  0.500000  0.154001  1
  P  P24  1  0.500000  0.500000  0.882011  1
  P  P25  1  0.000000  0.000000  0.115706  1
  P  P26  1  0.500000  0.500000  0.344043  1
  P  P27  1  0.000000  0.000000  0.661751  1
  P  P28  1  0.500000  0.306578  0.618009  1
  P  P29  1  0.500000  0.693422  0.618009  1
  P  P30  1  0.000000  0.192604  0.382842  1
  P  P31  1  0.000000  0.807396  0.382842  1
  P  P32  1  0.500000  0.848921  0.893910  1
  P  P33  1  0.500000  0.151079  0.893910  1
  P  P34  1  0.000000  0.655610  0.104845  1
  P  P35  1  0.000000  0.344390  0.104845  1
