# generated using pymatgen
data_Cs7Nb(SO4)6
_symmetry_space_group_name_H-M   'P 1'
_cell_length_a   10.25746749
_cell_length_b   10.25746805
_cell_length_c   10.25746801
_cell_angle_alpha   110.00132202
_cell_angle_beta   110.00131962
_cell_angle_gamma   110.00131369
_symmetry_Int_Tables_number   1
_chemical_formula_structural   Cs7Nb(SO4)6
_chemical_formula_sum   'Cs7 Nb1 S6 O24'
_cell_volume   814.09044410
_cell_formula_units_Z   1
loop_
 _symmetry_equiv_pos_site_id
 _symmetry_equiv_pos_as_xyz
  1  'x, y, z'
loop_
 _atom_site_type_symbol
 _atom_site_label
 _atom_site_symmetry_multiplicity
 _atom_site_fract_x
 _atom_site_fract_y
 _atom_site_fract_z
 _atom_site_occupancy
  Cs  Cs0  1  0.500000  0.500000  0.500000  1
  Cs  Cs1  1  0.667653  0.166417  0.324627  1
  Cs  Cs2  1  0.324627  0.667653  0.166417  1
  Cs  Cs3  1  0.166417  0.324627  0.667653  1
  Cs  Cs4  1  0.332347  0.833583  0.675373  1
  Cs  Cs5  1  0.675373  0.332347  0.833583  1
  Cs  Cs6  1  0.833583  0.675373  0.332347  1
  Nb  Nb7  1  0.000000  0.000000  0.000000  1
  S  S8  1  0.241275  0.027736  0.359570  1
  S  S9  1  0.359570  0.241275  0.027736  1
  S  S10  1  0.027736  0.359570  0.241275  1
  S  S11  1  0.758725  0.972264  0.640430  1
  S  S12  1  0.640430  0.758725  0.972264  1
  S  S13  1  0.972264  0.640430  0.758725  1
  O  O14  1  0.092113  0.609900  0.849542  1
  O  O15  1  0.849542  0.092113  0.609900  1
  O  O16  1  0.609900  0.849542  0.092113  1
  O  O17  1  0.907887  0.390100  0.150458  1
  O  O18  1  0.150458  0.907887  0.390100  1
  O  O19  1  0.390100  0.150458  0.907887  1
  O  O20  1  0.009889  0.693407  0.653421  1
  O  O21  1  0.653421  0.009889  0.693407  1
  O  O22  1  0.693407  0.653421  0.009889  1
  O  O23  1  0.990111  0.306593  0.346579  1
  O  O24  1  0.346579  0.990111  0.306593  1
  O  O25  1  0.306593  0.346579  0.990111  1
  O  O26  1  0.020389  0.215548  0.111025  1
  O  O27  1  0.111025  0.020389  0.215548  1
  O  O28  1  0.498757  0.330475  0.195216  1
  O  O29  1  0.330475  0.195216  0.498757  1
  O  O30  1  0.195216  0.498757  0.330475  1
  O  O31  1  0.501243  0.669525  0.804784  1
  O  O32  1  0.669525  0.804784  0.501243  1
  O  O33  1  0.804784  0.501243  0.669525  1
  O  O34  1  0.784452  0.888975  0.979611  1
  O  O35  1  0.888975  0.979611  0.784452  1
  O  O36  1  0.979611  0.784452  0.888975  1
  O  O37  1  0.215548  0.111025  0.020389  1
