# generated using pymatgen
data_Gd3Er(Tm2Os)4
_symmetry_space_group_name_H-M   'P 1'
_cell_length_a   6.27655700
_cell_length_b   7.36425637
_cell_length_c   8.94907700
_cell_angle_alpha   90.00000000
_cell_angle_beta   90.00000000
_cell_angle_gamma   89.93083353
_symmetry_Int_Tables_number   1
_chemical_formula_structural   Gd3Er(Tm2Os)4
_chemical_formula_sum   'Gd3 Er1 Tm8 Os4'
_cell_volume   413.64550038
_cell_formula_units_Z   1
loop_
 _symmetry_equiv_pos_site_id
 _symmetry_equiv_pos_as_xyz
  1  'x, y, z'
loop_
 _atom_site_type_symbol
 _atom_site_label
 _atom_site_symmetry_multiplicity
 _atom_site_fract_x
 _atom_site_fract_y
 _atom_site_fract_z
 _atom_site_occupancy
  Gd  Gd0  1  0.871326  0.539577  0.250000  1
  Gd  Gd1  1  0.628612  0.039885  0.250000  1
  Gd  Gd2  1  0.130268  0.460467  0.750000  1
  Er  Er3  1  0.370411  0.960722  0.750000  1
  Tm  Tm4  1  0.334129  0.675270  0.062873  1
  Tm  Tm5  1  0.166300  0.173547  0.437571  1
  Tm  Tm6  1  0.665021  0.324990  0.563431  1
  Tm  Tm7  1  0.833205  0.825563  0.936291  1
  Tm  Tm8  1  0.665021  0.324990  0.936569  1
  Tm  Tm9  1  0.833205  0.825563  0.563709  1
  Tm  Tm10  1  0.334129  0.675270  0.437127  1
  Tm  Tm11  1  0.166300  0.173547  0.062429  1
  Os  Os12  1  0.042571  0.882615  0.250000  1
  Os  Os13  1  0.457854  0.382343  0.250000  1
  Os  Os14  1  0.959194  0.117149  0.750000  1
  Os  Os15  1  0.542452  0.618504  0.750000  1
