# generated using pymatgen
data_Zr3BeMo(PRu)2
_symmetry_space_group_name_H-M   'P 1'
_cell_length_a   6.70713892
_cell_length_b   6.70713885
_cell_length_c   3.51660800
_cell_angle_alpha   90.00000000
_cell_angle_beta   90.00000000
_cell_angle_gamma   119.27587530
_symmetry_Int_Tables_number   1
_chemical_formula_structural   Zr3BeMo(PRu)2
_chemical_formula_sum   'Zr3 Be1 Mo1 P2 Ru2'
_cell_volume   137.99142823
_cell_formula_units_Z   1
loop_
 _symmetry_equiv_pos_site_id
 _symmetry_equiv_pos_as_xyz
  1  'x, y, z'
loop_
 _atom_site_type_symbol
 _atom_site_label
 _atom_site_symmetry_multiplicity
 _atom_site_fract_x
 _atom_site_fract_y
 _atom_site_fract_z
 _atom_site_occupancy
  Zr  Zr0  1  0.403018  0.403018  0.500000  1
  Zr  Zr1  1  0.593140  0.996089  0.500000  1
  Zr  Zr2  1  0.996089  0.593140  0.500000  1
  Be  Be3  1  0.006596  0.006596  0.500000  1
  Mo  Mo4  1  0.757595  0.757595  0.000000  1
  P  P5  1  0.666885  0.333367  0.000000  1
  P  P6  1  0.333367  0.666885  0.000000  1
  Ru  Ru7  1  0.244349  0.998961  0.000000  1
  Ru  Ru8  1  0.998961  0.244349  0.000000  1
