# generated using pymatgen
data_HoTh(ZnIr)2
_symmetry_space_group_name_H-M   'P 1'
_cell_length_a   4.02636600
_cell_length_b   7.09506019
_cell_length_c   8.35918501
_cell_angle_alpha   89.95786926
_cell_angle_beta   90.00000000
_cell_angle_gamma   90.00000000
_symmetry_Int_Tables_number   1
_chemical_formula_structural   HoTh(ZnIr)2
_chemical_formula_sum   'Ho2 Th2 Zn4 Ir4'
_cell_volume   238.79935749
_cell_formula_units_Z   2
loop_
 _symmetry_equiv_pos_site_id
 _symmetry_equiv_pos_as_xyz
  1  'x, y, z'
loop_
 _atom_site_type_symbol
 _atom_site_label
 _atom_site_symmetry_multiplicity
 _atom_site_fract_x
 _atom_site_fract_y
 _atom_site_fract_z
 _atom_site_occupancy
  Ho  Ho0  1  0.250000  0.047724  0.317897  1
  Ho  Ho1  1  0.750000  0.952276  0.682103  1
  Th  Th2  1  0.250000  0.546183  0.190087  1
  Th  Th3  1  0.750000  0.453817  0.809913  1
  Zn  Zn4  1  0.250000  0.120638  0.937132  1
  Zn  Zn5  1  0.750000  0.879362  0.062868  1
  Zn  Zn6  1  0.250000  0.643849  0.561044  1
  Zn  Zn7  1  0.750000  0.356151  0.438956  1
  Ir  Ir8  1  0.750000  0.751909  0.371275  1
  Ir  Ir9  1  0.250000  0.248091  0.628725  1
  Ir  Ir10  1  0.750000  0.255828  0.123685  1
  Ir  Ir11  1  0.250000  0.744172  0.876315  1
