# generated using pymatgen
data_Sc8CrSi16Ru11
_symmetry_space_group_name_H-M   'P 1'
_cell_length_a   9.90236551
_cell_length_b   9.90415530
_cell_length_c   13.38649531
_cell_angle_alpha   53.92750583
_cell_angle_beta   53.97066404
_cell_angle_gamma   31.10400704
_symmetry_Int_Tables_number   1
_chemical_formula_structural   Sc8CrSi16Ru11
_chemical_formula_sum   'Sc8 Cr1 Si16 Ru11'
_cell_volume   536.96924287
_cell_formula_units_Z   1
loop_
 _symmetry_equiv_pos_site_id
 _symmetry_equiv_pos_as_xyz
  1  'x, y, z'
loop_
 _atom_site_type_symbol
 _atom_site_label
 _atom_site_symmetry_multiplicity
 _atom_site_fract_x
 _atom_site_fract_y
 _atom_site_fract_z
 _atom_site_occupancy
  Sc  Sc0  1  0.038733  0.288801  0.639838  1
  Sc  Sc1  1  0.712165  0.964411  0.856492  1
  Sc  Sc2  1  0.963119  0.707791  0.360476  1
  Sc  Sc3  1  0.289953  0.037606  0.140744  1
  Sc  Sc4  1  0.294176  0.562353  0.644533  1
  Sc  Sc5  1  0.439155  0.704328  0.854551  1
  Sc  Sc6  1  0.703994  0.437080  0.359935  1
  Sc  Sc7  1  0.559844  0.296230  0.143806  1
  Cr  Cr8  1  0.895811  0.144881  0.586150  1
  Si  Si9  1  0.975617  0.252693  0.893670  1
  Si  Si10  1  0.745735  0.033248  0.605293  1
  Si  Si11  1  0.025448  0.747778  0.106190  1
  Si  Si12  1  0.249941  0.975106  0.397291  1
  Si  Si13  1  0.140694  0.386319  0.900345  1
  Si  Si14  1  0.614427  0.858456  0.599336  1
  Si  Si15  1  0.859967  0.611461  0.101220  1
  Si  Si16  1  0.388824  0.138168  0.399515  1
  Si  Si17  1  0.078896  0.576068  0.567691  1
  Si  Si18  1  0.426732  0.918309  0.932577  1
  Si  Si19  1  0.918750  0.421946  0.433273  1
  Si  Si20  1  0.574959  0.081334  0.066428  1
  Si  Si21  1  0.618308  0.380198  0.748569  1
  Si  Si22  1  0.384158  0.616499  0.250304  1
  Si  Si23  1  0.122175  0.877642  0.747647  1
  Si  Si24  1  0.871589  0.127817  0.250509  1
  Ru  Ru25  1  0.855667  0.106372  0.914509  1
  Ru  Ru26  1  0.103825  0.857286  0.414183  1
  Ru  Ru27  1  0.143104  0.895659  0.086483  1
  Ru  Ru28  1  0.831983  0.647520  0.781728  1
  Ru  Ru29  1  0.352923  0.166313  0.718254  1
  Ru  Ru30  1  0.170461  0.352960  0.218084  1
  Ru  Ru31  1  0.647906  0.831317  0.280709  1
  Ru  Ru32  1  0.248594  0.506347  0.933428  1
  Ru  Ru33  1  0.493069  0.749763  0.566818  1
  Ru  Ru34  1  0.752542  0.490927  0.067370  1
  Ru  Ru35  1  0.506757  0.249013  0.432054  1
