# generated using pymatgen
data_HoTmZr2(Al3Rh)6
_symmetry_space_group_name_H-M   'P 1'
_cell_length_a   7.51294809
_cell_length_b   7.49647128
_cell_length_c   9.34494400
_cell_angle_alpha   90.00000000
_cell_angle_beta   90.00000000
_cell_angle_gamma   119.67921514
_symmetry_Int_Tables_number   1
_chemical_formula_structural   HoTmZr2(Al3Rh)6
_chemical_formula_sum   'Ho1 Tm1 Zr2 Al18 Rh6'
_cell_volume   457.26649395
_cell_formula_units_Z   1
loop_
 _symmetry_equiv_pos_site_id
 _symmetry_equiv_pos_as_xyz
  1  'x, y, z'
loop_
 _atom_site_type_symbol
 _atom_site_label
 _atom_site_symmetry_multiplicity
 _atom_site_fract_x
 _atom_site_fract_y
 _atom_site_fract_z
 _atom_site_occupancy
  Ho  Ho0  1  0.670434  0.993791  0.250000  1
  Tm  Tm1  1  0.329399  0.006187  0.750000  1
  Zr  Zr2  1  0.994860  0.671146  0.250000  1
  Zr  Zr3  1  0.005266  0.328902  0.750000  1
  Al  Al4  1  0.124748  0.123140  0.250000  1
  Al  Al5  1  0.875693  0.877038  0.750000  1
  Al  Al6  1  0.999164  0.337126  0.075017  1
  Al  Al7  1  0.001143  0.663160  0.924608  1
  Al  Al8  1  0.001143  0.663160  0.575392  1
  Al  Al9  1  0.332187  0.998048  0.421767  1
  Al  Al10  1  0.999164  0.337126  0.424983  1
  Al  Al11  1  0.667509  0.001986  0.578863  1
  Al  Al12  1  0.667509  0.001986  0.921137  1
  Al  Al13  1  0.332187  0.998048  0.078233  1
  Al  Al14  1  0.331016  0.333146  0.556048  1
  Al  Al15  1  0.669006  0.666586  0.444336  1
  Al  Al16  1  0.669006  0.666586  0.055664  1
  Al  Al17  1  0.331016  0.333146  0.943952  1
  Al  Al18  1  0.334018  0.548740  0.250000  1
  Al  Al19  1  0.665639  0.450809  0.750000  1
  Al  Al20  1  0.555809  0.343600  0.250000  1
  Al  Al21  1  0.443999  0.656569  0.750000  1
  Rh  Rh22  1  0.672058  0.327225  0.999157  1
  Rh  Rh23  1  0.327767  0.672734  0.000604  1
  Rh  Rh24  1  0.327767  0.672734  0.499396  1
  Rh  Rh25  1  0.672058  0.327225  0.500843  1
  Rh  Rh26  1  0.000218  0.000029  0.999853  1
  Rh  Rh27  1  0.000218  0.000029  0.500147  1
