# generated using pymatgen
data_TaBe8RuW2
_symmetry_space_group_name_H-M   'P 1'
_cell_length_a   4.45411500
_cell_length_b   4.45411461
_cell_length_c   7.33220300
_cell_angle_alpha   90.00000000
_cell_angle_beta   90.00000000
_cell_angle_gamma   120.00001034
_symmetry_Int_Tables_number   1
_chemical_formula_structural   TaBe8RuW2
_chemical_formula_sum   'Ta1 Be8 Ru1 W2'
_cell_volume   125.97601907
_cell_formula_units_Z   1
loop_
 _symmetry_equiv_pos_site_id
 _symmetry_equiv_pos_as_xyz
  1  'x, y, z'
loop_
 _atom_site_type_symbol
 _atom_site_label
 _atom_site_symmetry_multiplicity
 _atom_site_fract_x
 _atom_site_fract_y
 _atom_site_fract_z
 _atom_site_occupancy
  Ta  Ta0  1  0.666667  0.333333  0.058450  1
  Be  Be1  1  0.000000  0.000000  0.505029  1
  Be  Be2  1  0.000000  0.000000  0.998993  1
  Be  Be3  1  0.662309  0.831154  0.252700  1
  Be  Be4  1  0.168846  0.831154  0.252700  1
  Be  Be5  1  0.168846  0.337691  0.252700  1
  Be  Be6  1  0.338284  0.169143  0.747670  1
  Be  Be7  1  0.830857  0.169143  0.747670  1
  Be  Be8  1  0.830857  0.661716  0.747670  1
  Ru  Ru9  1  0.333333  0.666667  0.933640  1
  W  W10  1  0.666667  0.333333  0.439884  1
  W  W11  1  0.333333  0.666667  0.562895  1
