# generated using pymatgen
data_SmY2Mn(Co4P3)2
_symmetry_space_group_name_H-M   'P 1'
_cell_length_a   3.71195800
_cell_length_b   10.57788900
_cell_length_c   12.23984500
_cell_angle_alpha   90.00000000
_cell_angle_beta   90.00000000
_cell_angle_gamma   90.00000000
_symmetry_Int_Tables_number   1
_chemical_formula_structural   SmY2Mn(Co4P3)2
_chemical_formula_sum   'Sm2 Y4 Mn2 Co16 P12'
_cell_volume   480.59359346
_cell_formula_units_Z   2
loop_
 _symmetry_equiv_pos_site_id
 _symmetry_equiv_pos_as_xyz
  1  'x, y, z'
loop_
 _atom_site_type_symbol
 _atom_site_label
 _atom_site_symmetry_multiplicity
 _atom_site_fract_x
 _atom_site_fract_y
 _atom_site_fract_z
 _atom_site_occupancy
  Sm  Sm0  1  0.000000  0.500000  0.522705  1
  Sm  Sm1  1  0.500000  0.000000  0.477295  1
  Y  Y2  1  0.500000  0.817971  0.204706  1
  Y  Y3  1  0.500000  0.182029  0.204706  1
  Y  Y4  1  0.000000  0.682029  0.795294  1
  Y  Y5  1  0.000000  0.317971  0.795294  1
  Mn  Mn6  1  0.500000  0.500000  0.157125  1
  Mn  Mn7  1  0.000000  0.000000  0.842875  1
  Co  Co8  1  0.500000  0.500000  0.704335  1
  Co  Co9  1  0.000000  0.000000  0.295665  1
  Co  Co10  1  0.000000  0.500000  0.986272  1
  Co  Co11  1  0.500000  0.000000  0.013728  1
  Co  Co12  1  0.500000  0.333177  0.994214  1
  Co  Co13  1  0.500000  0.666823  0.994214  1
  Co  Co14  1  0.000000  0.166823  0.005786  1
  Co  Co15  1  0.000000  0.833177  0.005786  1
  Co  Co16  1  0.500000  0.296348  0.429629  1
  Co  Co17  1  0.500000  0.703652  0.429629  1
  Co  Co18  1  0.000000  0.203652  0.570371  1
  Co  Co19  1  0.000000  0.796348  0.570371  1
  Co  Co20  1  0.500000  0.879890  0.711145  1
  Co  Co21  1  0.500000  0.120110  0.711145  1
  Co  Co22  1  0.000000  0.620110  0.288855  1
  Co  Co23  1  0.000000  0.379890  0.288855  1
  P  P24  1  0.500000  0.500000  0.883309  1
  P  P25  1  0.000000  0.000000  0.116691  1
  P  P26  1  0.500000  0.500000  0.342039  1
  P  P27  1  0.000000  0.000000  0.657961  1
  P  P28  1  0.500000  0.309116  0.616788  1
  P  P29  1  0.500000  0.690884  0.616788  1
  P  P30  1  0.000000  0.190884  0.383212  1
  P  P31  1  0.000000  0.809116  0.383212  1
  P  P32  1  0.500000  0.847196  0.893890  1
  P  P33  1  0.500000  0.152804  0.893890  1
  P  P34  1  0.000000  0.652804  0.106110  1
  P  P35  1  0.000000  0.347196  0.106110  1
