# generated using pymatgen
data_La2Ta3Co9As7
_symmetry_space_group_name_H-M   'P 1'
_cell_length_a   3.88025700
_cell_length_b   9.60529843
_cell_length_c   9.60529800
_cell_angle_alpha   120.00000540
_cell_angle_beta   90.00000000
_cell_angle_gamma   90.00000000
_symmetry_Int_Tables_number   1
_chemical_formula_structural   La2Ta3Co9As7
_chemical_formula_sum   'La2 Ta3 Co9 As7'
_cell_volume   310.03648538
_cell_formula_units_Z   1
loop_
 _symmetry_equiv_pos_site_id
 _symmetry_equiv_pos_as_xyz
  1  'x, y, z'
loop_
 _atom_site_type_symbol
 _atom_site_label
 _atom_site_symmetry_multiplicity
 _atom_site_fract_x
 _atom_site_fract_y
 _atom_site_fract_z
 _atom_site_occupancy
  La  La0  1  0.000000  0.666667  0.333333  1
  La  La1  1  0.500000  0.333333  0.666667  1
  Ta  Ta2  1  0.500000  0.778874  0.893363  1
  Ta  Ta3  1  0.500000  0.114490  0.221126  1
  Ta  Ta4  1  0.500000  0.106637  0.885510  1
  Co  Co5  1  0.000000  0.574618  0.936482  1
  Co  Co6  1  0.000000  0.361864  0.425382  1
  Co  Co7  1  0.000000  0.063518  0.638136  1
  Co  Co8  1  0.000000  0.876359  0.153106  1
  Co  Co9  1  0.000000  0.276748  0.123641  1
  Co  Co10  1  0.000000  0.846894  0.723252  1
  Co  Co11  1  0.500000  0.946858  0.378514  1
  Co  Co12  1  0.500000  0.431655  0.053142  1
  Co  Co13  1  0.500000  0.621486  0.568345  1
  As  As14  1  0.500000  0.704172  0.114238  1
  As  As15  1  0.500000  0.410067  0.295828  1
  As  As16  1  0.500000  0.885762  0.589933  1
  As  As17  1  0.000000  0.000000  0.000000  1
  As  As18  1  0.000000  0.585956  0.688920  1
  As  As19  1  0.000000  0.102966  0.414044  1
  As  As20  1  0.000000  0.311080  0.897034  1
