# generated using pymatgen
data_Nd2HoSi6(Pd4Pt)4
_symmetry_space_group_name_H-M   'P 1'
_cell_length_a   8.75665920
_cell_length_b   8.76979283
_cell_length_c   8.76979309
_cell_angle_alpha   59.92597667
_cell_angle_beta   59.89814003
_cell_angle_gamma   59.89814044
_symmetry_Int_Tables_number   1
_chemical_formula_structural   Nd2HoSi6(Pd4Pt)4
_chemical_formula_sum   'Nd2 Ho1 Si6 Pd16 Pt4'
_cell_volume   475.21372069
_cell_formula_units_Z   1
loop_
 _symmetry_equiv_pos_site_id
 _symmetry_equiv_pos_as_xyz
  1  'x, y, z'
loop_
 _atom_site_type_symbol
 _atom_site_label
 _atom_site_symmetry_multiplicity
 _atom_site_fract_x
 _atom_site_fract_y
 _atom_site_fract_z
 _atom_site_occupancy
  Nd  Nd0  1  0.250572  0.250421  0.250421  1
  Nd  Nd1  1  0.748398  0.750287  0.750287  1
  Ho  Ho2  1  0.999962  0.000159  0.000159  1
  Si  Si3  1  0.732035  0.266630  0.266630  1
  Si  Si4  1  0.269213  0.731666  0.731666  1
  Si  Si5  1  0.268388  0.731692  0.267316  1
  Si  Si6  1  0.731815  0.268027  0.733185  1
  Si  Si7  1  0.268388  0.267316  0.731692  1
  Si  Si8  1  0.731815  0.733185  0.268027  1
  Pd  Pd9  1  0.618174  0.614544  0.153167  1
  Pd  Pd10  1  0.618174  0.153167  0.614544  1
  Pd  Pd11  1  0.847201  0.383053  0.383053  1
  Pd  Pd12  1  0.150822  0.616585  0.616585  1
  Pd  Pd13  1  0.344270  0.000452  0.000452  1
  Pd  Pd14  1  0.654794  0.000524  0.000524  1
  Pd  Pd15  1  0.999171  0.345458  0.656518  1
  Pd  Pd16  1  0.999171  0.656518  0.345458  1
  Pd  Pd17  1  0.999326  0.345398  0.999918  1
  Pd  Pd18  1  0.655517  0.999663  0.345537  1
  Pd  Pd19  1  0.999539  0.655753  0.000475  1
  Pd  Pd20  1  0.344177  0.000163  0.656322  1
  Pd  Pd21  1  0.999326  0.999918  0.345398  1
  Pd  Pd22  1  0.999539  0.000475  0.655753  1
  Pd  Pd23  1  0.655517  0.345537  0.999663  1
  Pd  Pd24  1  0.344177  0.656322  0.000163  1
  Pt  Pt25  1  0.386071  0.386370  0.386370  1
  Pt  Pt26  1  0.616448  0.612900  0.612900  1
  Pt  Pt27  1  0.383999  0.384540  0.843277  1
  Pt  Pt28  1  0.383999  0.843277  0.384540  1
