# generated using pymatgen
data_TaAg(SF2)3
_symmetry_space_group_name_H-M   'P 1'
_cell_length_a   9.28966223
_cell_length_b   9.25289844
_cell_length_c   5.27606200
_cell_angle_alpha   87.84202897
_cell_angle_beta   87.34908059
_cell_angle_gamma   118.97165369
_symmetry_Int_Tables_number   1
_chemical_formula_structural   TaAg(SF2)3
_chemical_formula_sum   'Ta2 Ag2 S6 F12'
_cell_volume   395.39661387
_cell_formula_units_Z   2
loop_
 _symmetry_equiv_pos_site_id
 _symmetry_equiv_pos_as_xyz
  1  'x, y, z'
loop_
 _atom_site_type_symbol
 _atom_site_label
 _atom_site_symmetry_multiplicity
 _atom_site_fract_x
 _atom_site_fract_y
 _atom_site_fract_z
 _atom_site_occupancy
  Ta  Ta0  1  0.822710  0.177322  0.000022  1
  Ta  Ta1  1  0.177290  0.822678  0.999978  1
  Ag  Ag2  1  0.500000  0.500000  0.000000  1
  Ag  Ag3  1  0.000000  0.000000  0.500000  1
  S  S4  1  0.297138  0.297054  0.597829  1
  S  S5  1  0.702862  0.702946  0.402171  1
  S  S6  1  0.303995  0.505442  0.417275  1
  S  S7  1  0.504756  0.302410  0.417186  1
  S  S8  1  0.696005  0.494558  0.582725  1
  S  S9  1  0.495244  0.697590  0.582814  1
  F  F10  1  0.026920  0.207959  0.140515  1
  F  F11  1  0.208268  0.028354  0.141426  1
  F  F12  1  0.973080  0.792041  0.859485  1
  F  F13  1  0.791732  0.971646  0.858574  1
  F  F14  1  0.955520  0.286728  0.690906  1
  F  F15  1  0.287349  0.954943  0.691146  1
  F  F16  1  0.044480  0.713272  0.309094  1
  F  F17  1  0.712651  0.045057  0.308854  1
  F  F18  1  0.625699  0.150697  0.863200  1
  F  F19  1  0.151472  0.624467  0.863549  1
  F  F20  1  0.374301  0.849303  0.136800  1
  F  F21  1  0.848528  0.375533  0.136451  1
