# generated using pymatgen
data_Sm8Sc12Ga11Si5
_symmetry_space_group_name_H-M   'P 1'
_cell_length_a   7.31149177
_cell_length_b   7.56974038
_cell_length_c   14.42550398
_cell_angle_alpha   90.00394437
_cell_angle_beta   89.88751007
_cell_angle_gamma   90.10811497
_symmetry_Int_Tables_number   1
_chemical_formula_structural   Sm8Sc12Ga11Si5
_chemical_formula_sum   'Sm8 Sc12 Ga11 Si5'
_cell_volume   798.39234337
_cell_formula_units_Z   1
loop_
 _symmetry_equiv_pos_site_id
 _symmetry_equiv_pos_as_xyz
  1  'x, y, z'
loop_
 _atom_site_type_symbol
 _atom_site_label
 _atom_site_symmetry_multiplicity
 _atom_site_fract_x
 _atom_site_fract_y
 _atom_site_fract_z
 _atom_site_occupancy
  Sm  Sm0  1  0.013365  0.175493  0.096563  1
  Sm  Sm1  1  0.989389  0.821464  0.904080  1
  Sm  Sm2  1  0.487838  0.678672  0.903662  1
  Sm  Sm3  1  0.988738  0.822949  0.597292  1
  Sm  Sm4  1  0.511373  0.321731  0.097064  1
  Sm  Sm5  1  0.011036  0.176961  0.402422  1
  Sm  Sm6  1  0.511006  0.322936  0.402166  1
  Sm  Sm7  1  0.488857  0.677244  0.597422  1
  Sc  Sc8  1  0.163020  0.506486  0.749702  1
  Sc  Sc9  1  0.838031  0.494113  0.249870  1
  Sc  Sc10  1  0.336973  0.006475  0.248604  1
  Sc  Sc11  1  0.662001  0.993629  0.749709  1
  Sc  Sc12  1  0.329221  0.171196  0.623724  1
  Sc  Sc13  1  0.670279  0.828727  0.375888  1
  Sc  Sc14  1  0.170325  0.671477  0.375924  1
  Sc  Sc15  1  0.667716  0.827791  0.123901  1
  Sc  Sc16  1  0.829284  0.328476  0.623941  1
  Sc  Sc17  1  0.328006  0.171320  0.877742  1
  Sc  Sc18  1  0.829071  0.329538  0.876591  1
  Sc  Sc19  1  0.174387  0.673547  0.122527  1
  Ga  Ga20  1  0.031918  0.118200  0.751280  1
  Ga  Ga21  1  0.967333  0.880433  0.249234  1
  Ga  Ga22  1  0.467054  0.617803  0.249299  1
  Ga  Ga23  1  0.532091  0.381280  0.750565  1
  Ga  Ga24  1  0.158489  0.462729  0.541431  1
  Ga  Ga25  1  0.841179  0.537234  0.458419  1
  Ga  Ga26  1  0.340990  0.963096  0.458284  1
  Ga  Ga27  1  0.841265  0.536989  0.042342  1
  Ga  Ga28  1  0.658733  0.036885  0.541257  1
  Ga  Ga29  1  0.157960  0.463493  0.958777  1
  Ga  Ga30  1  0.657848  0.036837  0.959208  1
  Si  Si31  1  0.285435  0.879235  0.750736  1
  Si  Si32  1  0.714943  0.120946  0.249126  1
  Si  Si33  1  0.214252  0.379200  0.249329  1
  Si  Si34  1  0.785117  0.620685  0.750613  1
  Si  Si35  1  0.345477  0.964731  0.041305  1
