# generated using pymatgen
data_DyYCo9Tc3As7
_symmetry_space_group_name_H-M   'P 1'
_cell_length_a   3.82885000
_cell_length_b   9.36844580
_cell_length_c   9.36844700
_cell_angle_alpha   120.00000070
_cell_angle_beta   90.00000000
_cell_angle_gamma   90.00000000
_symmetry_Int_Tables_number   1
_chemical_formula_structural   DyYCo9Tc3As7
_chemical_formula_sum   'Dy1 Y1 Co9 Tc3 As7'
_cell_volume   291.02757067
_cell_formula_units_Z   1
loop_
 _symmetry_equiv_pos_site_id
 _symmetry_equiv_pos_as_xyz
  1  'x, y, z'
loop_
 _atom_site_type_symbol
 _atom_site_label
 _atom_site_symmetry_multiplicity
 _atom_site_fract_x
 _atom_site_fract_y
 _atom_site_fract_z
 _atom_site_occupancy
  Dy  Dy0  1  0.500000  0.333333  0.666667  1
  Y  Y1  1  0.000000  0.666667  0.333333  1
  Co  Co2  1  0.000000  0.569018  0.940842  1
  Co  Co3  1  0.000000  0.371824  0.430982  1
  Co  Co4  1  0.000000  0.059158  0.628176  1
  Co  Co5  1  0.000000  0.875391  0.157244  1
  Co  Co6  1  0.000000  0.281852  0.124609  1
  Co  Co7  1  0.000000  0.842756  0.718148  1
  Co  Co8  1  0.500000  0.946834  0.380794  1
  Co  Co9  1  0.500000  0.433959  0.053166  1
  Co  Co10  1  0.500000  0.619206  0.566041  1
  Tc  Tc11  1  0.500000  0.782816  0.900317  1
  Tc  Tc12  1  0.500000  0.117501  0.217184  1
  Tc  Tc13  1  0.500000  0.099683  0.882499  1
  As  As14  1  0.000000  0.000000  0.000000  1
  As  As15  1  0.500000  0.706563  0.116584  1
  As  As16  1  0.500000  0.410022  0.293437  1
  As  As17  1  0.500000  0.883416  0.589978  1
  As  As18  1  0.000000  0.587593  0.701662  1
  As  As19  1  0.000000  0.114069  0.412407  1
  As  As20  1  0.000000  0.298338  0.885931  1
