# generated using pymatgen
data_Tb5Ho(Sc2Pb3)2
_symmetry_space_group_name_H-M   'P 1'
_cell_length_a   8.92884300
_cell_length_b   8.92268527
_cell_length_c   6.38308000
_cell_angle_alpha   90.00000000
_cell_angle_beta   90.00000000
_cell_angle_gamma   120.02282793
_symmetry_Int_Tables_number   1
_chemical_formula_structural   Tb5Ho(Sc2Pb3)2
_chemical_formula_sum   'Tb5 Ho1 Sc4 Pb6'
_cell_volume   440.30309044
_cell_formula_units_Z   1
loop_
 _symmetry_equiv_pos_site_id
 _symmetry_equiv_pos_as_xyz
  1  'x, y, z'
loop_
 _atom_site_type_symbol
 _atom_site_label
 _atom_site_symmetry_multiplicity
 _atom_site_fract_x
 _atom_site_fract_y
 _atom_site_fract_z
 _atom_site_occupancy
  Tb  Tb0  1  0.239018  0.000000  0.250000  1
  Tb  Tb1  1  0.238677  0.238807  0.750000  1
  Tb  Tb2  1  0.999870  0.761193  0.750000  1
  Tb  Tb3  1  0.999862  0.238692  0.250000  1
  Tb  Tb4  1  0.761170  0.761308  0.250000  1
  Ho  Ho5  1  0.761114  0.000000  0.750000  1
  Sc  Sc6  1  0.333372  0.666673  0.999947  1
  Sc  Sc7  1  0.666700  0.333327  0.500053  1
  Sc  Sc8  1  0.666700  0.333327  0.999947  1
  Sc  Sc9  1  0.333372  0.666673  0.500053  1
  Pb  Pb10  1  0.601043  0.000000  0.250000  1
  Pb  Pb11  1  0.601239  0.601574  0.750000  1
  Pb  Pb12  1  0.999664  0.398426  0.750000  1
  Pb  Pb13  1  0.999988  0.601069  0.250000  1
  Pb  Pb14  1  0.398919  0.398931  0.250000  1
  Pb  Pb15  1  0.399292  0.000000  0.750000  1
