# generated using pymatgen
data_Ce3Sc(Tc3Os)2
_symmetry_space_group_name_H-M   'P 1'
_cell_length_a   5.23364700
_cell_length_b   5.23364839
_cell_length_c   9.25971600
_cell_angle_alpha   90.00000000
_cell_angle_beta   90.00000000
_cell_angle_gamma   120.00001015
_symmetry_Int_Tables_number   1
_chemical_formula_structural   Ce3Sc(Tc3Os)2
_chemical_formula_sum   'Ce3 Sc1 Tc6 Os2'
_cell_volume   219.65304271
_cell_formula_units_Z   1
loop_
 _symmetry_equiv_pos_site_id
 _symmetry_equiv_pos_as_xyz
  1  'x, y, z'
loop_
 _atom_site_type_symbol
 _atom_site_label
 _atom_site_symmetry_multiplicity
 _atom_site_fract_x
 _atom_site_fract_y
 _atom_site_fract_z
 _atom_site_occupancy
  Ce  Ce0  1  0.333333  0.666667  0.439971  1
  Ce  Ce1  1  0.666667  0.333333  0.560402  1
  Ce  Ce2  1  0.666667  0.333333  0.935703  1
  Sc  Sc3  1  0.333333  0.666667  0.069762  1
  Tc  Tc4  1  0.829865  0.170135  0.244138  1
  Tc  Tc5  1  0.829865  0.659732  0.244138  1
  Tc  Tc6  1  0.340268  0.170135  0.244138  1
  Tc  Tc7  1  0.170324  0.829676  0.754178  1
  Tc  Tc8  1  0.170324  0.340648  0.754178  1
  Tc  Tc9  1  0.659352  0.829676  0.754178  1
  Os  Os10  1  0.000000  0.000000  0.497619  1
  Os  Os11  1  0.000000  0.000000  0.001594  1
