# generated using pymatgen
data_DyHo4Tm7Co5Sn
_symmetry_space_group_name_H-M   'P 1'
_cell_length_a   8.19452863
_cell_length_b   8.19452835
_cell_length_c   8.19330288
_cell_angle_alpha   106.86314783
_cell_angle_beta   110.83452024
_cell_angle_gamma   110.75298821
_symmetry_Int_Tables_number   1
_chemical_formula_structural   DyHo4Tm7Co5Sn
_chemical_formula_sum   'Dy1 Ho4 Tm7 Co5 Sn1'
_cell_volume   422.84454634
_cell_formula_units_Z   1
loop_
 _symmetry_equiv_pos_site_id
 _symmetry_equiv_pos_as_xyz
  1  'x, y, z'
loop_
 _atom_site_type_symbol
 _atom_site_label
 _atom_site_symmetry_multiplicity
 _atom_site_fract_x
 _atom_site_fract_y
 _atom_site_fract_z
 _atom_site_occupancy
  Dy  Dy0  1  0.807786  0.209149  0.016937  1
  Ho  Ho1  1  0.477586  0.291044  0.187122  1
  Ho  Ho2  1  0.104549  0.291553  0.812229  1
  Ho  Ho3  1  0.896077  0.709536  0.187122  1
  Ho  Ho4  1  0.520676  0.707679  0.812229  1
  Tm  Tm5  1  0.307543  0.621164  0.314445  1
  Tm  Tm6  1  0.305841  0.992670  0.685620  1
  Tm  Tm7  1  0.692951  0.379779  0.685620  1
  Tm  Tm8  1  0.693281  0.006901  0.314445  1
  Tm  Tm9  1  0.193321  0.208995  0.402315  1
  Tm  Tm10  1  0.807664  0.790660  0.598324  1
  Tm  Tm11  1  0.192527  0.791074  0.983600  1
  Co  Co12  1  0.500122  0.613346  0.113467  1
  Co  Co13  1  0.499282  0.386962  0.886243  1
  Co  Co14  1  0.375873  0.000237  0.376109  1
  Co  Co15  1  0.623271  0.999553  0.622824  1
  Co  Co16  1  0.001125  0.999129  0.000253  1
  Sn  Sn17  1  0.000526  0.500569  0.501095  1
