# generated using pymatgen
data_DyHoU2(InIr2)2
_symmetry_space_group_name_H-M   'P 1'
_cell_length_a   7.70258407
_cell_length_b   7.70258373
_cell_length_c   3.57902000
_cell_angle_alpha   90.00000000
_cell_angle_beta   90.00000000
_cell_angle_gamma   85.20674324
_symmetry_Int_Tables_number   1
_chemical_formula_structural   DyHoU2(InIr2)2
_chemical_formula_sum   'Dy1 Ho1 U2 In2 Ir4'
_cell_volume   211.59991094
_cell_formula_units_Z   1
loop_
 _symmetry_equiv_pos_site_id
 _symmetry_equiv_pos_as_xyz
  1  'x, y, z'
loop_
 _atom_site_type_symbol
 _atom_site_label
 _atom_site_symmetry_multiplicity
 _atom_site_fract_x
 _atom_site_fract_y
 _atom_site_fract_z
 _atom_site_occupancy
  Dy  Dy0  1  0.669843  0.169843  0.500000  1
  Ho  Ho1  1  0.330167  0.830167  0.500000  1
  U  U2  1  0.167709  0.332335  0.500000  1
  U  U3  1  0.832335  0.667709  0.500000  1
  In  In4  1  0.499873  0.500146  0.000000  1
  In  In5  1  0.000146  0.999873  0.000000  1
  Ir  Ir6  1  0.124311  0.624311  0.000000  1
  Ir  Ir7  1  0.876094  0.376094  0.000000  1
  Ir  Ir8  1  0.645704  0.853819  0.000000  1
  Ir  Ir9  1  0.353819  0.145704  0.000000  1
