# generated using pymatgen
data_DyHo5(B7W)2
_symmetry_space_group_name_H-M   'P 1'
_cell_length_a   8.15106876
_cell_length_b   8.15106925
_cell_length_c   9.48563800
_cell_angle_alpha   90.00000000
_cell_angle_beta   90.00000000
_cell_angle_gamma   155.59915201
_symmetry_Int_Tables_number   1
_chemical_formula_structural   DyHo5(B7W)2
_chemical_formula_sum   'Dy1 Ho5 B14 W2'
_cell_volume   260.35726915
_cell_formula_units_Z   1
loop_
 _symmetry_equiv_pos_site_id
 _symmetry_equiv_pos_as_xyz
  1  'x, y, z'
loop_
 _atom_site_type_symbol
 _atom_site_label
 _atom_site_symmetry_multiplicity
 _atom_site_fract_x
 _atom_site_fract_y
 _atom_site_fract_z
 _atom_site_occupancy
  Dy  Dy0  1  0.754684  0.245316  0.750000  1
  Ho  Ho1  1  0.892660  0.107340  0.439713  1
  Ho  Ho2  1  0.107265  0.892735  0.559904  1
  Ho  Ho3  1  0.892660  0.107340  0.060287  1
  Ho  Ho4  1  0.107265  0.892735  0.940096  1
  Ho  Ho5  1  0.244781  0.755219  0.250000  1
  B  B6  1  0.727679  0.272321  0.466660  1
  B  B7  1  0.272443  0.727557  0.532300  1
  B  B8  1  0.727679  0.272321  0.033340  1
  B  B9  1  0.272443  0.727557  0.967700  1
  B  B10  1  0.635220  0.364780  0.146904  1
  B  B11  1  0.364905  0.635095  0.853337  1
  B  B12  1  0.635220  0.364780  0.353096  1
  B  B13  1  0.364905  0.635095  0.646663  1
  B  B14  1  0.519558  0.480442  0.091584  1
  B  B15  1  0.480449  0.519551  0.908416  1
  B  B16  1  0.519558  0.480442  0.408416  1
  B  B17  1  0.480449  0.519551  0.591584  1
  B  B18  1  0.455007  0.544993  0.250000  1
  B  B19  1  0.545070  0.454930  0.750000  1
  W  W20  1  0.053172  0.946828  0.250000  1
  W  W21  1  0.946929  0.053071  0.750000  1
