# generated using pymatgen
data_TbY4RuRh
_symmetry_space_group_name_H-M   'P 1'
_cell_length_a   8.58398684
_cell_length_b   8.58398693
_cell_length_c   7.26986900
_cell_angle_alpha   83.40546943
_cell_angle_beta   83.40547608
_cell_angle_gamma   43.83511643
_symmetry_Int_Tables_number   1
_chemical_formula_structural   TbY4RuRh
_chemical_formula_sum   'Tb2 Y8 Ru2 Rh2'
_cell_volume   368.14993060
_cell_formula_units_Z   2
loop_
 _symmetry_equiv_pos_site_id
 _symmetry_equiv_pos_as_xyz
  1  'x, y, z'
loop_
 _atom_site_type_symbol
 _atom_site_label
 _atom_site_symmetry_multiplicity
 _atom_site_fract_x
 _atom_site_fract_y
 _atom_site_fract_z
 _atom_site_occupancy
  Tb  Tb0  1  0.577275  0.422725  0.750000  1
  Tb  Tb1  1  0.424138  0.575862  0.250000  1
  Y  Y2  1  0.206955  0.981166  0.582144  1
  Y  Y3  1  0.018834  0.793045  0.917856  1
  Y  Y4  1  0.208950  0.353002  0.313378  1
  Y  Y5  1  0.646998  0.791050  0.186622  1
  Y  Y6  1  0.791245  0.643321  0.683262  1
  Y  Y7  1  0.356679  0.208755  0.816738  1
  Y  Y8  1  0.976688  0.209040  0.085603  1
  Y  Y9  1  0.790960  0.023312  0.414397  1
  Ru  Ru10  1  0.821706  0.397223  0.427287  1
  Ru  Ru11  1  0.602777  0.178294  0.072713  1
  Rh  Rh12  1  0.178717  0.601922  0.574296  1
  Rh  Rh13  1  0.398078  0.821283  0.925704  1
