# generated using pymatgen
data_NaGa7Br12
_symmetry_space_group_name_H-M   'P 1'
_cell_length_a   11.77293816
_cell_length_b   7.04671189
_cell_length_c   8.86736428
_cell_angle_alpha   89.37468576
_cell_angle_beta   89.76071220
_cell_angle_gamma   90.56323117
_symmetry_Int_Tables_number   1
_chemical_formula_structural   NaGa7Br12
_chemical_formula_sum   'Na1 Ga7 Br12'
_cell_volume   735.55490126
_cell_formula_units_Z   1
loop_
 _symmetry_equiv_pos_site_id
 _symmetry_equiv_pos_as_xyz
  1  'x, y, z'
loop_
 _atom_site_type_symbol
 _atom_site_label
 _atom_site_symmetry_multiplicity
 _atom_site_fract_x
 _atom_site_fract_y
 _atom_site_fract_z
 _atom_site_occupancy
  Na  Na0  1  0.500000  0.500000  0.000000  1
  Ga  Ga1  1  0.500000  0.000000  0.500000  1
  Ga  Ga2  1  0.000000  0.000000  0.500000  1
  Ga  Ga3  1  0.000000  0.500000  0.000000  1
  Ga  Ga4  1  0.251804  0.038437  0.965004  1
  Ga  Ga5  1  0.748844  0.851969  0.771420  1
  Ga  Ga6  1  0.748196  0.961563  0.034996  1
  Ga  Ga7  1  0.251156  0.148031  0.228580  1
  Br  Br8  1  0.585945  0.656678  0.701678  1
  Br  Br9  1  0.414055  0.343322  0.298322  1
  Br  Br10  1  0.908054  0.656410  0.692939  1
  Br  Br11  1  0.746766  0.299438  0.073060  1
  Br  Br12  1  0.089756  0.152853  0.819946  1
  Br  Br13  1  0.584657  0.833950  0.175081  1
  Br  Br14  1  0.910244  0.847147  0.180054  1
  Br  Br15  1  0.415343  0.166050  0.824919  1
  Br  Br16  1  0.091946  0.343590  0.307061  1
  Br  Br17  1  0.749804  0.110599  0.586390  1
  Br  Br18  1  0.250196  0.889401  0.413610  1
  Br  Br19  1  0.253234  0.700562  0.926940  1
