# generated using pymatgen
data_Sc4ZnSi3(GeIr2)3
_symmetry_space_group_name_H-M   'P 1'
_cell_length_a   7.01995127
_cell_length_b   7.05145394
_cell_length_c   7.05072842
_cell_angle_alpha   109.68829126
_cell_angle_beta   109.56898222
_cell_angle_gamma   109.21208751
_symmetry_Int_Tables_number   1
_chemical_formula_structural   Sc4ZnSi3(GeIr2)3
_chemical_formula_sum   'Sc4 Zn1 Si3 Ge3 Ir6'
_cell_volume   268.48491396
_cell_formula_units_Z   1
loop_
 _symmetry_equiv_pos_site_id
 _symmetry_equiv_pos_as_xyz
  1  'x, y, z'
loop_
 _atom_site_type_symbol
 _atom_site_label
 _atom_site_symmetry_multiplicity
 _atom_site_fract_x
 _atom_site_fract_y
 _atom_site_fract_z
 _atom_site_occupancy
  Sc  Sc0  1  0.004445  0.996749  0.519260  1
  Sc  Sc1  1  0.004692  0.496746  0.008479  1
  Sc  Sc2  1  0.489391  0.996840  0.992634  1
  Sc  Sc3  1  0.500686  0.508628  0.504257  1
  Zn  Zn4  1  0.750940  0.251189  0.503825  1
  Si  Si5  1  0.325165  0.325267  0.001081  1
  Si  Si6  1  0.674451  0.991074  0.683570  1
  Si  Si7  1  0.007964  0.691190  0.683386  1
  Ge  Ge8  1  0.690290  0.690129  0.002138  1
  Ge  Ge9  1  0.296670  0.992850  0.305281  1
  Ge  Ge10  1  0.006297  0.310211  0.305469  1
  Ir  Ir11  1  0.744285  0.489996  0.258881  1
  Ir  Ir12  1  0.508936  0.251870  0.748425  1
  Ir  Ir13  1  0.233678  0.491734  0.747539  1
  Ir  Ir14  1  0.251669  0.751405  0.504479  1
  Ir  Ir15  1  0.508920  0.762323  0.258009  1
  Ir  Ir16  1  0.001519  0.001800  0.973286  1
