# generated using pymatgen
data_Ca3SmSi7Hg
_symmetry_space_group_name_H-M   'P 1'
_cell_length_a   4.20172000
_cell_length_b   4.30513700
_cell_length_c   14.14264600
_cell_angle_alpha   90.00000000
_cell_angle_beta   90.00000000
_cell_angle_gamma   90.00000000
_symmetry_Int_Tables_number   1
_chemical_formula_structural   Ca3SmSi7Hg
_chemical_formula_sum   'Ca3 Sm1 Si7 Hg1'
_cell_volume   255.82604397
_cell_formula_units_Z   1
loop_
 _symmetry_equiv_pos_site_id
 _symmetry_equiv_pos_as_xyz
  1  'x, y, z'
loop_
 _atom_site_type_symbol
 _atom_site_label
 _atom_site_symmetry_multiplicity
 _atom_site_fract_x
 _atom_site_fract_y
 _atom_site_fract_z
 _atom_site_occupancy
  Ca  Ca0  1  0.000000  0.000000  0.509610  1
  Ca  Ca1  1  0.500000  0.000000  0.753381  1
  Ca  Ca2  1  0.000000  0.500000  0.238638  1
  Sm  Sm3  1  0.500000  0.500000  0.999827  1
  Si  Si4  1  0.000000  0.000000  0.916056  1
  Si  Si5  1  0.000000  0.500000  0.839615  1
  Si  Si6  1  0.500000  0.000000  0.321595  1
  Si  Si7  1  0.000000  0.000000  0.077919  1
  Si  Si8  1  0.500000  0.500000  0.594065  1
  Si  Si9  1  0.500000  0.000000  0.159236  1
  Si  Si10  1  0.000000  0.500000  0.674830  1
  Hg  Hg11  1  0.500000  0.500000  0.415227  1
