# generated using pymatgen
data_TbY3(ScPt)4
_symmetry_space_group_name_H-M   'P 1'
_cell_length_a   4.60952500
_cell_length_b   6.99894855
_cell_length_c   8.47570095
_cell_angle_alpha   89.90639671
_cell_angle_beta   90.00000000
_cell_angle_gamma   90.00000000
_symmetry_Int_Tables_number   1
_chemical_formula_structural   TbY3(ScPt)4
_chemical_formula_sum   'Tb1 Y3 Sc4 Pt4'
_cell_volume   273.44124395
_cell_formula_units_Z   1
loop_
 _symmetry_equiv_pos_site_id
 _symmetry_equiv_pos_as_xyz
  1  'x, y, z'
loop_
 _atom_site_type_symbol
 _atom_site_label
 _atom_site_symmetry_multiplicity
 _atom_site_fract_x
 _atom_site_fract_y
 _atom_site_fract_z
 _atom_site_occupancy
  Tb  Tb0  1  0.250000  0.987675  0.325399  1
  Y  Y1  1  0.250000  0.486964  0.175531  1
  Y  Y2  1  0.750000  0.013157  0.676537  1
  Y  Y3  1  0.750000  0.513209  0.824017  1
  Sc  Sc4  1  0.250000  0.859975  0.925574  1
  Sc  Sc5  1  0.250000  0.359424  0.574329  1
  Sc  Sc6  1  0.750000  0.139814  0.073441  1
  Sc  Sc7  1  0.750000  0.640070  0.425790  1
  Pt  Pt8  1  0.250000  0.244011  0.904297  1
  Pt  Pt9  1  0.250000  0.744028  0.595311  1
  Pt  Pt10  1  0.750000  0.755928  0.095502  1
  Pt  Pt11  1  0.750000  0.255744  0.404269  1
