# generated using pymatgen
data_TbB9N
_symmetry_space_group_name_H-M   'P 1'
_cell_length_a   5.52201612
_cell_length_b   5.52201676
_cell_length_c   7.60928920
_cell_angle_alpha   111.27514287
_cell_angle_beta   68.72485550
_cell_angle_gamma   119.99999016
_symmetry_Int_Tables_number   1
_chemical_formula_structural   TbB9N
_chemical_formula_sum   'Tb2 B18 N2'
_cell_volume   182.45421912
_cell_formula_units_Z   2
loop_
 _symmetry_equiv_pos_site_id
 _symmetry_equiv_pos_as_xyz
  1  'x, y, z'
loop_
 _atom_site_type_symbol
 _atom_site_label
 _atom_site_symmetry_multiplicity
 _atom_site_fract_x
 _atom_site_fract_y
 _atom_site_fract_z
 _atom_site_occupancy
  Tb  Tb0  1  0.297839  0.702160  0.106482  1
  Tb  Tb1  1  0.702159  0.297840  0.893518  1
  B  B2  1  0.179427  0.142666  0.105905  1
  B  B3  1  0.857335  0.142665  0.105905  1
  B  B4  1  0.857335  0.820574  0.105905  1
  B  B5  1  0.351913  0.323593  0.295272  1
  B  B6  1  0.676408  0.323592  0.295272  1
  B  B7  1  0.676408  0.648088  0.295272  1
  B  B8  1  0.337055  0.134262  0.460153  1
  B  B9  1  0.337055  0.662945  0.460153  1
  B  B10  1  0.865737  0.662945  0.460153  1
  B  B11  1  0.134262  0.337055  0.539848  1
  B  B12  1  0.662945  0.337055  0.539848  1
  B  B13  1  0.662945  0.865738  0.539848  1
  B  B14  1  0.323593  0.351913  0.704728  1
  B  B15  1  0.323593  0.676408  0.704728  1
  B  B16  1  0.648086  0.676407  0.704728  1
  B  B17  1  0.142666  0.179427  0.894095  1
  B  B18  1  0.142666  0.857335  0.894095  1
  B  B19  1  0.820574  0.857335  0.894095  1
  N  N20  1  0.188160  0.811839  0.435519  1
  N  N21  1  0.811839  0.188160  0.564481  1
