# generated using pymatgen
data_Na2Ac4LuAu10
_symmetry_space_group_name_H-M   'P 1'
_cell_length_a   9.02564000
_cell_length_b   9.02564125
_cell_length_c   11.02382300
_cell_angle_alpha   90.00000000
_cell_angle_beta   90.00000000
_cell_angle_gamma   105.71051429
_symmetry_Int_Tables_number   1
_chemical_formula_structural   Na2Ac4LuAu10
_chemical_formula_sum   'Na4 Ac8 Lu2 Au20'
_cell_volume   864.47640600
_cell_formula_units_Z   2
loop_
 _symmetry_equiv_pos_site_id
 _symmetry_equiv_pos_as_xyz
  1  'x, y, z'
loop_
 _atom_site_type_symbol
 _atom_site_label
 _atom_site_symmetry_multiplicity
 _atom_site_fract_x
 _atom_site_fract_y
 _atom_site_fract_z
 _atom_site_occupancy
  Na  Na0  1  0.506302  0.006302  0.250000  1
  Na  Na1  1  0.993698  0.493698  0.750000  1
  Na  Na2  1  0.006302  0.506302  0.250000  1
  Na  Na3  1  0.493698  0.993698  0.750000  1
  Ac  Ac4  1  0.705423  0.294577  0.000000  1
  Ac  Ac5  1  0.205423  0.794577  0.500000  1
  Ac  Ac6  1  0.798716  0.798716  0.294520  1
  Ac  Ac7  1  0.298716  0.298716  0.205480  1
  Ac  Ac8  1  0.794577  0.205423  0.500000  1
  Ac  Ac9  1  0.294577  0.705423  0.000000  1
  Ac  Ac10  1  0.701284  0.701284  0.794520  1
  Ac  Ac11  1  0.201284  0.201284  0.705480  1
  Lu  Lu12  1  0.000000  0.000000  0.000000  1
  Lu  Lu13  1  0.500000  0.500000  0.500000  1
  Au  Au14  1  0.162721  0.425825  0.480504  1
  Au  Au15  1  0.907199  0.907199  0.592365  1
  Au  Au16  1  0.574175  0.837279  0.519496  1
  Au  Au17  1  0.889116  0.156178  0.205988  1
  Au  Au18  1  0.389116  0.656178  0.294012  1
  Au  Au19  1  0.656178  0.389116  0.294012  1
  Au  Au20  1  0.407199  0.407199  0.907635  1
  Au  Au21  1  0.925825  0.662721  0.019496  1
  Au  Au22  1  0.343822  0.610884  0.705988  1
  Au  Au23  1  0.337279  0.074175  0.980504  1
  Au  Au24  1  0.592801  0.592801  0.092365  1
  Au  Au25  1  0.662721  0.925825  0.019496  1
  Au  Au26  1  0.092801  0.092801  0.407635  1
  Au  Au27  1  0.610884  0.343822  0.705988  1
  Au  Au28  1  0.110884  0.843822  0.794012  1
  Au  Au29  1  0.074175  0.337279  0.980504  1
  Au  Au30  1  0.837279  0.574175  0.519496  1
  Au  Au31  1  0.156178  0.889116  0.205988  1
  Au  Au32  1  0.425825  0.162721  0.480504  1
  Au  Au33  1  0.843822  0.110884  0.794012  1
