# generated using pymatgen
data_Er16CdIn3Pd4
_symmetry_space_group_name_H-M   'P 1'
_cell_length_a   9.62571887
_cell_length_b   9.62673375
_cell_length_c   9.62673400
_cell_angle_alpha   59.99999915
_cell_angle_beta   59.99651135
_cell_angle_gamma   59.99651136
_symmetry_Int_Tables_number   1
_chemical_formula_structural   Er16CdIn3Pd4
_chemical_formula_sum   'Er16 Cd1 In3 Pd4'
_cell_volume   630.74410861
_cell_formula_units_Z   1
loop_
 _symmetry_equiv_pos_site_id
 _symmetry_equiv_pos_as_xyz
  1  'x, y, z'
loop_
 _atom_site_type_symbol
 _atom_site_label
 _atom_site_symmetry_multiplicity
 _atom_site_fract_x
 _atom_site_fract_y
 _atom_site_fract_z
 _atom_site_occupancy
  Er  Er0  1  0.352232  0.352841  0.352841  1
  Er  Er1  1  0.352232  0.352841  0.942085  1
  Er  Er2  1  0.352232  0.942085  0.352841  1
  Er  Er3  1  0.942507  0.352497  0.352497  1
  Er  Er4  1  0.810964  0.189004  0.189004  1
  Er  Er5  1  0.188636  0.811354  0.811354  1
  Er  Er6  1  0.188636  0.811354  0.188656  1
  Er  Er7  1  0.810964  0.189004  0.811028  1
  Er  Er8  1  0.188636  0.188656  0.811354  1
  Er  Er9  1  0.810964  0.811028  0.189004  1
  Er  Er10  1  0.936135  0.565241  0.565241  1
  Er  Er11  1  0.565373  0.934737  0.934737  1
  Er  Er12  1  0.565373  0.934737  0.565153  1
  Er  Er13  1  0.936135  0.565241  0.933382  1
  Er  Er14  1  0.565373  0.565153  0.934737  1
  Er  Er15  1  0.936135  0.933382  0.565241  1
  Cd  Cd16  1  0.250464  0.583178  0.583178  1
  In  In17  1  0.582179  0.583277  0.583277  1
  In  In18  1  0.582179  0.583277  0.251267  1
  In  In19  1  0.582179  0.251267  0.583277  1
  Pd  Pd20  1  0.144415  0.144020  0.144020  1
  Pd  Pd21  1  0.144415  0.144020  0.567546  1
  Pd  Pd22  1  0.144415  0.567546  0.144020  1
  Pd  Pd23  1  0.567228  0.144257  0.144257  1
