# generated using pymatgen
data_Zr6Al6OsPt5
_symmetry_space_group_name_H-M   'P 1'
_cell_length_a   7.14336500
_cell_length_b   7.14336563
_cell_length_c   7.31484200
_cell_angle_alpha   90.00000000
_cell_angle_beta   90.00000000
_cell_angle_gamma   120.00000170
_symmetry_Int_Tables_number   1
_chemical_formula_structural   Zr6Al6OsPt5
_chemical_formula_sum   'Zr6 Al6 Os1 Pt5'
_cell_volume   323.25205587
_cell_formula_units_Z   1
loop_
 _symmetry_equiv_pos_site_id
 _symmetry_equiv_pos_as_xyz
  1  'x, y, z'
loop_
 _atom_site_type_symbol
 _atom_site_label
 _atom_site_symmetry_multiplicity
 _atom_site_fract_x
 _atom_site_fract_y
 _atom_site_fract_z
 _atom_site_occupancy
  Zr  Zr0  1  0.020990  0.606462  0.743762  1
  Zr  Zr1  1  0.990494  0.588381  0.255597  1
  Zr  Zr2  1  0.597887  0.009506  0.255597  1
  Zr  Zr3  1  0.585472  0.979010  0.743762  1
  Zr  Zr4  1  0.411619  0.402113  0.255597  1
  Zr  Zr5  1  0.393538  0.414528  0.743762  1
  Al  Al6  1  0.001176  0.256138  0.498903  1
  Al  Al7  1  0.742483  0.737701  0.999498  1
  Al  Al8  1  0.995218  0.257517  0.999498  1
  Al  Al9  1  0.254962  0.998824  0.498903  1
  Al  Al10  1  0.262299  0.004782  0.999498  1
  Al  Al11  1  0.743862  0.745038  0.498903  1
  Os  Os12  1  0.333333  0.666667  0.486006  1
  Pt  Pt13  1  0.666667  0.333333  0.526150  1
  Pt  Pt14  1  0.666667  0.333333  0.974213  1
  Pt  Pt15  1  0.000000  0.000000  0.246639  1
  Pt  Pt16  1  0.000000  0.000000  0.751638  1
  Pt  Pt17  1  0.333333  0.666667  0.022074  1
