# generated using pymatgen
data_YbEu(AlIr)2
_symmetry_space_group_name_H-M   'P 1'
_cell_length_a   7.18476100
_cell_length_b   4.12250500
_cell_length_c   7.88152400
_cell_angle_alpha   90.00000000
_cell_angle_beta   90.00000000
_cell_angle_gamma   90.00000000
_symmetry_Int_Tables_number   1
_chemical_formula_structural   YbEu(AlIr)2
_chemical_formula_sum   'Yb2 Eu2 Al4 Ir4'
_cell_volume   233.44453927
_cell_formula_units_Z   2
loop_
 _symmetry_equiv_pos_site_id
 _symmetry_equiv_pos_as_xyz
  1  'x, y, z'
loop_
 _atom_site_type_symbol
 _atom_site_label
 _atom_site_symmetry_multiplicity
 _atom_site_fract_x
 _atom_site_fract_y
 _atom_site_fract_z
 _atom_site_occupancy
  Yb  Yb0  1  0.475626  0.749999  0.676368  1
  Yb  Yb1  1  0.975625  0.749999  0.823633  1
  Eu  Eu2  1  0.023952  0.250001  0.171808  1
  Eu  Eu3  1  0.523952  0.250001  0.328193  1
  Al  Al4  1  0.359975  0.749999  0.059041  1
  Al  Al5  1  0.859975  0.749999  0.440960  1
  Al  Al6  1  0.139744  0.250001  0.567245  1
  Al  Al7  1  0.639743  0.250001  0.932755  1
  Ir  Ir8  1  0.713521  0.749999  0.119139  1
  Ir  Ir9  1  0.213520  0.749999  0.380862  1
  Ir  Ir10  1  0.787181  0.250001  0.624537  1
  Ir  Ir11  1  0.287182  0.250001  0.875464  1
