# generated using pymatgen
data_NdEuNbIr3
_symmetry_space_group_name_H-M   'P 1'
_cell_length_a   5.34351685
_cell_length_b   5.34351547
_cell_length_c   5.34351600
_cell_angle_alpha   65.58909566
_cell_angle_beta   65.58911415
_cell_angle_gamma   65.58910023
_symmetry_Int_Tables_number   1
_chemical_formula_structural   NdEuNbIr3
_chemical_formula_sum   'Nd1 Eu1 Nb1 Ir3'
_cell_volume   120.98469360
_cell_formula_units_Z   1
loop_
 _symmetry_equiv_pos_site_id
 _symmetry_equiv_pos_as_xyz
  1  'x, y, z'
loop_
 _atom_site_type_symbol
 _atom_site_label
 _atom_site_symmetry_multiplicity
 _atom_site_fract_x
 _atom_site_fract_y
 _atom_site_fract_z
 _atom_site_occupancy
  Nd  Nd0  1  0.250248  0.250248  0.250248  1
  Eu  Eu1  1  0.000104  0.000104  0.000104  1
  Nb  Nb2  1  0.624831  0.624831  0.624831  1
  Ir  Ir3  1  0.625078  0.625078  0.124664  1
  Ir  Ir4  1  0.625078  0.124664  0.625078  1
  Ir  Ir5  1  0.124664  0.625078  0.625078  1
