# generated using pymatgen
data_Zr8Fe3Co4Si14Rh
_symmetry_space_group_name_H-M   'P 1'
_cell_length_a   9.54554124
_cell_length_b   9.53743663
_cell_length_c   9.52944659
_cell_angle_alpha   94.16795940
_cell_angle_beta   94.14480853
_cell_angle_gamma   148.70772718
_symmetry_Int_Tables_number   1
_chemical_formula_structural   Zr8Fe3Co4Si14Rh
_chemical_formula_sum   'Zr8 Fe3 Co4 Si14 Rh1'
_cell_volume   434.03705333
_cell_formula_units_Z   1
loop_
 _symmetry_equiv_pos_site_id
 _symmetry_equiv_pos_as_xyz
  1  'x, y, z'
loop_
 _atom_site_type_symbol
 _atom_site_label
 _atom_site_symmetry_multiplicity
 _atom_site_fract_x
 _atom_site_fract_y
 _atom_site_fract_z
 _atom_site_occupancy
  Zr  Zr0  1  0.694926  0.499527  0.194182  1
  Zr  Zr1  1  0.499607  0.697287  0.197081  1
  Zr  Zr2  1  0.500781  0.303968  0.804936  1
  Zr  Zr3  1  0.302424  0.501211  0.802404  1
  Zr  Zr4  1  0.863066  0.863847  0.724440  1
  Zr  Zr5  1  0.137491  0.862138  0.000184  1
  Zr  Zr6  1  0.862126  0.138540  0.000213  1
  Zr  Zr7  1  0.135949  0.136688  0.275406  1
  Fe  Fe8  1  0.396196  0.896280  0.792971  1
  Fe  Fe9  1  0.900735  0.103270  0.501491  1
  Fe  Fe10  1  0.396030  0.604855  0.499114  1
  Co  Co11  1  0.900649  0.398667  0.798076  1
  Co  Co12  1  0.601703  0.099593  0.203453  1
  Co  Co13  1  0.102711  0.602481  0.205412  1
  Co  Co14  1  0.601694  0.396927  0.501092  1
  Si  Si15  1  0.749579  0.750377  0.999947  1
  Si  Si16  1  0.249620  0.250208  0.999632  1
  Si  Si17  1  0.091844  0.501129  0.589732  1
  Si  Si18  1  0.519530  0.105717  0.595398  1
  Si  Si19  1  0.506720  0.913648  0.410252  1
  Si  Si20  1  0.887155  0.475536  0.404714  1
  Si  Si21  1  0.698278  0.000067  0.698292  1
  Si  Si22  1  0.995984  0.691961  0.703390  1
  Si  Si23  1  0.695888  0.700736  0.420427  1
  Si  Si24  1  0.291195  0.713037  0.999547  1
  Si  Si25  1  0.308736  0.005292  0.296723  1
  Si  Si26  1  0.708535  0.286531  0.999745  1
  Si  Si27  1  0.299387  0.304200  0.579905  1
  Si  Si28  1  0.999419  0.300920  0.302650  1
  Rh  Rh29  1  0.102042  0.895362  0.499189  1
