# generated using pymatgen
data_Ce2HoAl2InTc2
_symmetry_space_group_name_H-M   'P 1'
_cell_length_a   8.13794318
_cell_length_b   8.13794214
_cell_length_c   4.92643105
_cell_angle_alpha   83.21264811
_cell_angle_beta   83.21264600
_cell_angle_gamma   33.62105030
_symmetry_Int_Tables_number   1
_chemical_formula_structural   Ce2HoAl2InTc2
_chemical_formula_sum   'Ce2 Ho1 Al2 In1 Tc2'
_cell_volume   179.26639300
_cell_formula_units_Z   1
loop_
 _symmetry_equiv_pos_site_id
 _symmetry_equiv_pos_as_xyz
  1  'x, y, z'
loop_
 _atom_site_type_symbol
 _atom_site_label
 _atom_site_symmetry_multiplicity
 _atom_site_fract_x
 _atom_site_fract_y
 _atom_site_fract_z
 _atom_site_occupancy
  Ce  Ce0  1  0.831284  0.831284  0.571932  1
  Ce  Ce1  1  0.168716  0.168716  0.428068  1
  Ho  Ho2  1  0.000000  0.000000  0.000000  1
  Al  Al3  1  0.366888  0.366888  0.047095  1
  Al  Al4  1  0.633112  0.633112  0.952905  1
  In  In5  1  0.500000  0.500000  0.500000  1
  Tc  Tc6  1  0.794946  0.794946  0.100468  1
  Tc  Tc7  1  0.205054  0.205054  0.899532  1
