# generated using pymatgen
data_Ho2B10Ir
_symmetry_space_group_name_H-M   'P 1'
_cell_length_a   4.16688400
_cell_length_b   5.67422600
_cell_length_c   11.33115700
_cell_angle_alpha   90.00000000
_cell_angle_beta   90.00000000
_cell_angle_gamma   90.00000000
_symmetry_Int_Tables_number   1
_chemical_formula_structural   Ho2B10Ir
_chemical_formula_sum   'Ho4 B20 Ir2'
_cell_volume   267.91208048
_cell_formula_units_Z   2
loop_
 _symmetry_equiv_pos_site_id
 _symmetry_equiv_pos_as_xyz
  1  'x, y, z'
loop_
 _atom_site_type_symbol
 _atom_site_label
 _atom_site_symmetry_multiplicity
 _atom_site_fract_x
 _atom_site_fract_y
 _atom_site_fract_z
 _atom_site_occupancy
  Ho  Ho0  1  0.500000  0.203569  0.365514  1
  Ho  Ho1  1  0.500000  0.796431  0.634486  1
  Ho  Ho2  1  0.500000  0.296431  0.865514  1
  Ho  Ho3  1  0.500000  0.703569  0.134486  1
  B  B4  1  0.000000  0.381270  0.042554  1
  B  B5  1  0.000000  0.618730  0.957446  1
  B  B6  1  0.000000  0.118730  0.542554  1
  B  B7  1  0.000000  0.881270  0.457446  1
  B  B8  1  0.000000  0.363423  0.197358  1
  B  B9  1  0.000000  0.636577  0.802642  1
  B  B10  1  0.000000  0.136577  0.697358  1
  B  B11  1  0.000000  0.863423  0.302642  1
  B  B12  1  0.000000  0.055046  0.193166  1
  B  B13  1  0.000000  0.944954  0.806834  1
  B  B14  1  0.000000  0.444954  0.693166  1
  B  B15  1  0.000000  0.555046  0.306834  1
  B  B16  1  0.301632  0.219932  0.119480  1
  B  B17  1  0.698368  0.780068  0.880520  1
  B  B18  1  0.301632  0.780068  0.880520  1
  B  B19  1  0.698368  0.280068  0.619480  1
  B  B20  1  0.698368  0.219932  0.119480  1
  B  B21  1  0.301632  0.719932  0.380520  1
  B  B22  1  0.698368  0.719932  0.380520  1
  B  B23  1  0.301632  0.280068  0.619480  1
  Ir  Ir24  1  0.000000  0.000000  0.000000  1
  Ir  Ir25  1  0.000000  0.500000  0.500000  1
