# generated using pymatgen
data_Pr2Y4IrI10
_symmetry_space_group_name_H-M   'P 1'
_cell_length_a   7.83156900
_cell_length_b   9.89002650
_cell_length_c   9.90159400
_cell_angle_alpha   106.85871809
_cell_angle_beta   96.34062313
_cell_angle_gamma   105.11321866
_symmetry_Int_Tables_number   1
_chemical_formula_structural   Pr2Y4IrI10
_chemical_formula_sum   'Pr2 Y4 Ir1 I10'
_cell_volume   694.06068215
_cell_formula_units_Z   1
loop_
 _symmetry_equiv_pos_site_id
 _symmetry_equiv_pos_as_xyz
  1  'x, y, z'
loop_
 _atom_site_type_symbol
 _atom_site_label
 _atom_site_symmetry_multiplicity
 _atom_site_fract_x
 _atom_site_fract_y
 _atom_site_fract_z
 _atom_site_occupancy
  Pr  Pr0  1  0.117023  0.043711  0.761264  1
  Pr  Pr1  1  0.882977  0.956289  0.238736  1
  Y  Y2  1  0.969998  0.286827  0.086389  1
  Y  Y3  1  0.030002  0.713173  0.913611  1
  Y  Y4  1  0.348668  0.125425  0.165447  1
  Y  Y5  1  0.651332  0.874575  0.834553  1
  Ir  Ir6  1  0.000000  0.000000  0.000000  1
  I  I7  1  0.348191  0.447485  0.270192  1
  I  I8  1  0.651809  0.552515  0.729808  1
  I  I9  1  0.267829  0.090279  0.457453  1
  I  I10  1  0.732171  0.909721  0.542547  1
  I  I11  1  0.083628  0.378831  0.825259  1
  I  I12  1  0.916372  0.621169  0.174741  1
  I  I13  1  0.447943  0.817176  0.087754  1
  I  I14  1  0.552057  0.182824  0.912246  1
  I  I15  1  0.775418  0.261663  0.342423  1
  I  I16  1  0.224582  0.738337  0.657577  1
