# generated using pymatgen
data_Sc6Al(Ga3Ni8)2
_symmetry_space_group_name_H-M   'P 1'
_cell_length_a   8.27526773
_cell_length_b   8.27526795
_cell_length_c   8.27526800
_cell_angle_alpha   59.99999979
_cell_angle_beta   59.99999892
_cell_angle_gamma   60.00000015
_symmetry_Int_Tables_number   1
_chemical_formula_structural   Sc6Al(Ga3Ni8)2
_chemical_formula_sum   'Sc6 Al1 Ga6 Ni16'
_cell_volume   400.71092596
_cell_formula_units_Z   1
loop_
 _symmetry_equiv_pos_site_id
 _symmetry_equiv_pos_as_xyz
  1  'x, y, z'
loop_
 _atom_site_type_symbol
 _atom_site_label
 _atom_site_symmetry_multiplicity
 _atom_site_fract_x
 _atom_site_fract_y
 _atom_site_fract_z
 _atom_site_occupancy
  Sc  Sc0  1  0.716336  0.716336  0.283664  1
  Sc  Sc1  1  0.283664  0.716336  0.283664  1
  Sc  Sc2  1  0.716336  0.283664  0.283664  1
  Sc  Sc3  1  0.283664  0.283664  0.716336  1
  Sc  Sc4  1  0.716336  0.283664  0.716336  1
  Sc  Sc5  1  0.283664  0.716336  0.716336  1
  Al  Al6  1  0.000000  0.000000  0.000000  1
  Ga  Ga7  1  0.000000  0.000000  0.500000  1
  Ga  Ga8  1  0.500000  0.000000  0.500000  1
  Ga  Ga9  1  0.000000  0.500000  0.500000  1
  Ga  Ga10  1  0.500000  0.500000  0.000000  1
  Ga  Ga11  1  0.000000  0.500000  0.000000  1
  Ga  Ga12  1  0.500000  0.000000  0.000000  1
  Ni  Ni13  1  0.878453  0.878453  0.364640  1
  Ni  Ni14  1  0.878453  0.364640  0.878453  1
  Ni  Ni15  1  0.364640  0.878453  0.878453  1
  Ni  Ni16  1  0.878453  0.878453  0.878453  1
  Ni  Ni17  1  0.121547  0.121547  0.635360  1
  Ni  Ni18  1  0.121547  0.635360  0.121547  1
  Ni  Ni19  1  0.635360  0.121547  0.121547  1
  Ni  Ni20  1  0.121547  0.121547  0.121547  1
  Ni  Ni21  1  0.669590  0.669590  0.991231  1
  Ni  Ni22  1  0.669590  0.991231  0.669590  1
  Ni  Ni23  1  0.991231  0.669590  0.669590  1
  Ni  Ni24  1  0.669590  0.669590  0.669590  1
  Ni  Ni25  1  0.330410  0.330410  0.008769  1
  Ni  Ni26  1  0.330410  0.008769  0.330410  1
  Ni  Ni27  1  0.008769  0.330410  0.330410  1
  Ni  Ni28  1  0.330410  0.330410  0.330410  1
