# generated using pymatgen
data_Cs12Na8Hf(ZrSb4)3
_symmetry_space_group_name_H-M   'P 1'
_cell_length_a   11.82174094
_cell_length_b   11.82174008
_cell_length_c   17.64953253
_cell_angle_alpha   89.99356285
_cell_angle_beta   89.99356199
_cell_angle_gamma   142.93910133
_symmetry_Int_Tables_number   1
_chemical_formula_structural   Cs12Na8Hf(ZrSb4)3
_chemical_formula_sum   'Cs12 Na8 Hf1 Zr3 Sb12'
_cell_volume   1486.52063394
_cell_formula_units_Z   1
loop_
 _symmetry_equiv_pos_site_id
 _symmetry_equiv_pos_as_xyz
  1  'x, y, z'
loop_
 _atom_site_type_symbol
 _atom_site_label
 _atom_site_symmetry_multiplicity
 _atom_site_fract_x
 _atom_site_fract_y
 _atom_site_fract_z
 _atom_site_occupancy
  Cs  Cs0  1  0.944922  0.606180  0.827182  1
  Cs  Cs1  1  0.554755  0.893709  0.326780  1
  Cs  Cs2  1  0.393820  0.055078  0.172818  1
  Cs  Cs3  1  0.054879  0.393986  0.173798  1
  Cs  Cs4  1  0.896552  0.560043  0.327457  1
  Cs  Cs5  1  0.439957  0.103448  0.672543  1
  Cs  Cs6  1  0.606014  0.945121  0.826202  1
  Cs  Cs7  1  0.278692  0.277452  0.318945  1
  Cs  Cs8  1  0.779673  0.779782  0.180357  1
  Cs  Cs9  1  0.220218  0.220327  0.819643  1
  Cs  Cs10  1  0.722548  0.721308  0.681055  1
  Cs  Cs11  1  0.106291  0.445245  0.673220  1
  Na  Na12  1  0.918688  0.081312  0.000000  1
  Na  Na13  1  0.581447  0.418553  0.500000  1
  Na  Na14  1  0.081171  0.918829  0.000000  1
  Na  Na15  1  0.418872  0.581128  0.500000  1
  Na  Na16  1  0.753849  0.246151  0.000000  1
  Na  Na17  1  0.746203  0.253797  0.500000  1
  Na  Na18  1  0.246271  0.753729  0.000000  1
  Na  Na19  1  0.253530  0.746470  0.500000  1
  Hf  Hf20  1  0.085555  0.914445  0.500000  1
  Zr  Zr21  1  0.585910  0.414090  0.000000  1
  Zr  Zr22  1  0.914912  0.085088  0.500000  1
  Zr  Zr23  1  0.414001  0.585999  0.000000  1
  Sb  Sb24  1  0.876131  0.560943  0.094162  1
  Sb  Sb25  1  0.439057  0.123869  0.905838  1
  Sb  Sb26  1  0.624801  0.938925  0.594071  1
  Sb  Sb27  1  0.939463  0.625661  0.593489  1
  Sb  Sb28  1  0.123819  0.439102  0.905773  1
  Sb  Sb29  1  0.560898  0.876181  0.094227  1
  Sb  Sb30  1  0.374339  0.060537  0.406511  1
  Sb  Sb31  1  0.204756  0.202974  0.587399  1
  Sb  Sb32  1  0.704170  0.704270  0.912826  1
  Sb  Sb33  1  0.295730  0.295830  0.087174  1
  Sb  Sb34  1  0.061075  0.375199  0.405929  1
  Sb  Sb35  1  0.797026  0.795244  0.412601  1
