# generated using pymatgen
data_Li(ZrTe2)5
_symmetry_space_group_name_H-M   'P 1'
_cell_length_a   6.88944936
_cell_length_b   8.18495842
_cell_length_c   9.94091053
_cell_angle_alpha   109.73771837
_cell_angle_beta   110.21501814
_cell_angle_gamma   89.93443450
_symmetry_Int_Tables_number   1
_chemical_formula_structural   Li(ZrTe2)5
_chemical_formula_sum   'Li1 Zr5 Te10'
_cell_volume   490.87628927
_cell_formula_units_Z   1
loop_
 _symmetry_equiv_pos_site_id
 _symmetry_equiv_pos_as_xyz
  1  'x, y, z'
loop_
 _atom_site_type_symbol
 _atom_site_label
 _atom_site_symmetry_multiplicity
 _atom_site_fract_x
 _atom_site_fract_y
 _atom_site_fract_z
 _atom_site_occupancy
  Li  Li0  1  0.000000  0.500000  0.000000  1
  Zr  Zr1  1  0.704122  0.399020  0.400166  1
  Zr  Zr2  1  0.295878  0.600980  0.599834  1
  Zr  Zr3  1  0.500000  0.000000  0.000000  1
  Zr  Zr4  1  0.896208  0.798025  0.798159  1
  Zr  Zr5  1  0.103792  0.201975  0.201841  1
  Te  Te6  1  0.286238  0.648224  0.901267  1
  Te  Te7  1  0.484683  0.048787  0.300618  1
  Te  Te8  1  0.679492  0.444965  0.698226  1
  Te  Te9  1  0.884926  0.850869  0.103427  1
  Te  Te10  1  0.085612  0.247574  0.501027  1
  Te  Te11  1  0.115074  0.149131  0.896573  1
  Te  Te12  1  0.320508  0.555035  0.301774  1
  Te  Te13  1  0.515317  0.951213  0.699382  1
  Te  Te14  1  0.713762  0.351776  0.098733  1
  Te  Te15  1  0.914388  0.752426  0.498973  1
