# generated using pymatgen
data_Ho20Bi11Sb
_symmetry_space_group_name_H-M   'P 1'
_cell_length_a   8.21172233
_cell_length_b   9.49189800
_cell_length_c   11.98710400
_cell_angle_alpha   90.00000000
_cell_angle_beta   90.03207329
_cell_angle_gamma   90.00000000
_symmetry_Int_Tables_number   1
_chemical_formula_structural   Ho20Bi11Sb
_chemical_formula_sum   'Ho20 Bi11 Sb1'
_cell_volume   934.33264659
_cell_formula_units_Z   1
loop_
 _symmetry_equiv_pos_site_id
 _symmetry_equiv_pos_as_xyz
  1  'x, y, z'
loop_
 _atom_site_type_symbol
 _atom_site_label
 _atom_site_symmetry_multiplicity
 _atom_site_fract_x
 _atom_site_fract_y
 _atom_site_fract_z
 _atom_site_occupancy
  Ho  Ho0  1  0.353239  0.750000  0.212850  1
  Ho  Ho1  1  0.852558  0.750000  0.284061  1
  Ho  Ho2  1  0.647641  0.250000  0.784179  1
  Ho  Ho3  1  0.147523  0.250000  0.716006  1
  Ho  Ho4  1  0.690194  0.566185  0.057385  1
  Ho  Ho5  1  0.192785  0.935825  0.441266  1
  Ho  Ho6  1  0.308440  0.060393  0.941488  1
  Ho  Ho7  1  0.807232  0.436111  0.558603  1
  Ho  Ho8  1  0.308440  0.439607  0.941488  1
  Ho  Ho9  1  0.807232  0.063889  0.558603  1
  Ho  Ho10  1  0.690194  0.933815  0.057385  1
  Ho  Ho11  1  0.192785  0.564175  0.441266  1
  Ho  Ho12  1  0.475172  0.250000  0.488018  1
  Ho  Ho13  1  0.975791  0.250000  0.011680  1
  Ho  Ho14  1  0.525051  0.750000  0.512076  1
  Ho  Ho15  1  0.028158  0.750000  0.987880  1
  Ho  Ho16  1  0.312787  0.250000  0.218685  1
  Ho  Ho17  1  0.812535  0.250000  0.281395  1
  Ho  Ho18  1  0.683187  0.750000  0.783872  1
  Ho  Ho19  1  0.188820  0.750000  0.720235  1
  Bi  Bi20  1  0.907670  0.750000  0.543392  1
  Bi  Bi21  1  0.593026  0.250000  0.042984  1
  Bi  Bi22  1  0.092782  0.250000  0.457150  1
  Bi  Bi23  1  0.565365  0.995401  0.325388  1
  Bi  Bi24  1  0.065318  0.504326  0.174389  1
  Bi  Bi25  1  0.434563  0.495435  0.674490  1
  Bi  Bi26  1  0.934339  0.004141  0.825528  1
  Bi  Bi27  1  0.434563  0.004565  0.674490  1
  Bi  Bi28  1  0.934339  0.495859  0.825528  1
  Bi  Bi29  1  0.565365  0.504599  0.325388  1
  Bi  Bi30  1  0.065318  0.995674  0.174389  1
  Sb  Sb31  1  0.407595  0.750000  0.958464  1
