# generated using pymatgen
data_Lu2ThIrRh8
_symmetry_space_group_name_H-M   'P 1'
_cell_length_a   5.27155700
_cell_length_b   5.27155651
_cell_length_c   17.51683400
_cell_angle_alpha   90.00000000
_cell_angle_beta   90.00000000
_cell_angle_gamma   119.99999681
_symmetry_Int_Tables_number   1
_chemical_formula_structural   Lu2ThIrRh8
_chemical_formula_sum   'Lu4 Th2 Ir2 Rh16'
_cell_volume   421.56450126
_cell_formula_units_Z   2
loop_
 _symmetry_equiv_pos_site_id
 _symmetry_equiv_pos_as_xyz
  1  'x, y, z'
loop_
 _atom_site_type_symbol
 _atom_site_label
 _atom_site_symmetry_multiplicity
 _atom_site_fract_x
 _atom_site_fract_y
 _atom_site_fract_z
 _atom_site_occupancy
  Lu  Lu0  1  0.333333  0.666667  0.539534  1
  Lu  Lu1  1  0.666667  0.333333  0.039534  1
  Lu  Lu2  1  0.666667  0.333333  0.460466  1
  Lu  Lu3  1  0.333333  0.666667  0.960466  1
  Th  Th4  1  0.333333  0.666667  0.750000  1
  Th  Th5  1  0.666667  0.333333  0.250000  1
  Ir  Ir6  1  0.000000  0.000000  0.000000  1
  Ir  Ir7  1  0.000000  0.000000  0.500000  1
  Rh  Rh8  1  0.167581  0.335161  0.123535  1
  Rh  Rh9  1  0.832419  0.664839  0.623535  1
  Rh  Rh10  1  0.664839  0.832419  0.123535  1
  Rh  Rh11  1  0.167581  0.832419  0.123535  1
  Rh  Rh12  1  0.832419  0.167581  0.623535  1
  Rh  Rh13  1  0.335161  0.167581  0.623535  1
  Rh  Rh14  1  0.832419  0.664839  0.876465  1
  Rh  Rh15  1  0.832419  0.167581  0.876465  1
  Rh  Rh16  1  0.335161  0.167581  0.876465  1
  Rh  Rh17  1  0.664839  0.832419  0.376465  1
  Rh  Rh18  1  0.167581  0.832419  0.376465  1
  Rh  Rh19  1  0.167581  0.335161  0.376465  1
  Rh  Rh20  1  0.000000  0.000000  0.250000  1
  Rh  Rh21  1  0.000000  0.000000  0.750000  1
  Rh  Rh22  1  0.333333  0.666667  0.250000  1
  Rh  Rh23  1  0.666667  0.333333  0.750000  1
