# generated using pymatgen
data_Tb10Tl7InCoPd3
_symmetry_space_group_name_H-M   'P 1'
_cell_length_a   8.24853009
_cell_length_b   18.49794336
_cell_length_c   3.63313900
_cell_angle_alpha   90.00000000
_cell_angle_beta   90.00000000
_cell_angle_gamma   90.13993258
_symmetry_Int_Tables_number   1
_chemical_formula_structural   Tb10Tl7InCoPd3
_chemical_formula_sum   'Tb10 Tl7 In1 Co1 Pd3'
_cell_volume   554.34575613
_cell_formula_units_Z   1
loop_
 _symmetry_equiv_pos_site_id
 _symmetry_equiv_pos_as_xyz
  1  'x, y, z'
loop_
 _atom_site_type_symbol
 _atom_site_label
 _atom_site_symmetry_multiplicity
 _atom_site_fract_x
 _atom_site_fract_y
 _atom_site_fract_z
 _atom_site_occupancy
  Tb  Tb0  1  0.500889  0.499067  0.000000  1
  Tb  Tb1  1  0.001519  0.000773  0.000000  1
  Tb  Tb2  1  0.726953  0.276261  0.000000  1
  Tb  Tb3  1  0.257857  0.719779  0.000000  1
  Tb  Tb4  1  0.756468  0.781125  0.000000  1
  Tb  Tb5  1  0.261971  0.218444  0.000000  1
  Tb  Tb6  1  0.612993  0.092233  0.000000  1
  Tb  Tb7  1  0.381683  0.916283  0.000000  1
  Tb  Tb8  1  0.882125  0.584780  0.000000  1
  Tb  Tb9  1  0.119058  0.412231  0.000000  1
  Tl  Tl10  1  0.708538  0.934516  0.500000  1
  Tl  Tl11  1  0.296324  0.069435  0.500000  1
  Tl  Tl12  1  0.794440  0.431893  0.500000  1
  Tl  Tl13  1  0.206022  0.565377  0.500000  1
  Tl  Tl14  1  0.579574  0.649382  0.500000  1
  Tl  Tl15  1  0.423408  0.347768  0.500000  1
  Tl  Tl16  1  0.921359  0.150254  0.500000  1
  In  In17  1  0.079531  0.850462  0.500000  1
  Co  Co18  1  0.520167  0.195042  0.500000  1
  Pd  Pd19  1  0.471002  0.804532  0.500000  1
  Pd  Pd20  1  0.974695  0.697922  0.500000  1
  Pd  Pd21  1  0.023424  0.302441  0.500000  1
