# generated using pymatgen
data_YbPa2(Ga2Co3)3
_symmetry_space_group_name_H-M   'P 1'
_cell_length_a   4.17469900
_cell_length_b   8.56306814
_cell_length_c   8.56485741
_cell_angle_alpha   59.98349998
_cell_angle_beta   90.00000000
_cell_angle_gamma   90.00000000
_symmetry_Int_Tables_number   1
_chemical_formula_structural   YbPa2(Ga2Co3)3
_chemical_formula_sum   'Yb1 Pa2 Ga6 Co9'
_cell_volume   265.11426993
_cell_formula_units_Z   1
loop_
 _symmetry_equiv_pos_site_id
 _symmetry_equiv_pos_as_xyz
  1  'x, y, z'
loop_
 _atom_site_type_symbol
 _atom_site_label
 _atom_site_symmetry_multiplicity
 _atom_site_fract_x
 _atom_site_fract_y
 _atom_site_fract_z
 _atom_site_occupancy
  Yb  Yb0  1  0.500000  0.666628  0.666650  1
  Pa  Pa1  1  0.500000  0.333072  0.333380  1
  Pa  Pa2  1  0.000000  0.000063  0.999834  1
  Ga  Ga3  1  0.000000  0.498897  0.507929  1
  Ga  Ga4  1  0.000000  0.507974  0.992981  1
  Ga  Ga5  1  0.000000  0.993187  0.498964  1
  Ga  Ga6  1  0.500000  0.729420  0.279983  1
  Ga  Ga7  1  0.500000  0.279783  0.990815  1
  Ga  Ga8  1  0.500000  0.990638  0.729470  1
  Co  Co9  1  0.000000  0.184183  0.175862  1
  Co  Co10  1  0.000000  0.175816  0.640151  1
  Co  Co11  1  0.000000  0.640476  0.183861  1
  Co  Co12  1  0.000000  0.827270  0.833870  1
  Co  Co13  1  0.000000  0.338617  0.827189  1
  Co  Co14  1  0.000000  0.834008  0.338822  1
  Co  Co15  1  0.500000  0.304722  0.676781  1
  Co  Co16  1  0.500000  0.676776  0.018733  1
  Co  Co17  1  0.500000  0.018371  0.304826  1
