# generated using pymatgen
data_MgFeSb4(Cl2O3)2
_symmetry_space_group_name_H-M   'P 1'
_cell_length_a   8.15882268
_cell_length_b   9.05053271
_cell_length_c   10.40944314
_cell_angle_alpha   66.66516076
_cell_angle_beta   82.79067131
_cell_angle_gamma   92.52779107
_symmetry_Int_Tables_number   1
_chemical_formula_structural   MgFeSb4(Cl2O3)2
_chemical_formula_sum   'Mg2 Fe2 Sb8 Cl8 O12'
_cell_volume   696.47697599
_cell_formula_units_Z   2
loop_
 _symmetry_equiv_pos_site_id
 _symmetry_equiv_pos_as_xyz
  1  'x, y, z'
loop_
 _atom_site_type_symbol
 _atom_site_label
 _atom_site_symmetry_multiplicity
 _atom_site_fract_x
 _atom_site_fract_y
 _atom_site_fract_z
 _atom_site_occupancy
  Mg  Mg0  1  0.513486  0.110492  0.595635  1
  Mg  Mg1  1  0.486481  0.389544  0.904402  1
  Fe  Fe2  1  0.513594  0.611267  0.096414  1
  Fe  Fe3  1  0.486429  0.888746  0.403652  1
  Sb  Sb4  1  0.692588  0.035559  0.931273  1
  Sb  Sb5  1  0.692169  0.529845  0.435539  1
  Sb  Sb6  1  0.307814  0.970158  0.064412  1
  Sb  Sb7  1  0.307388  0.464479  0.568711  1
  Sb  Sb8  1  0.704736  0.787969  0.735771  1
  Sb  Sb9  1  0.703379  0.288136  0.233581  1
  Sb  Sb10  1  0.296666  0.211746  0.266430  1
  Sb  Sb11  1  0.295296  0.712073  0.764223  1
  Cl  Cl12  1  0.772810  0.933077  0.286745  1
  Cl  Cl13  1  0.773260  0.432064  0.787155  1
  Cl  Cl14  1  0.226712  0.067946  0.712866  1
  Cl  Cl15  1  0.227199  0.566915  0.213279  1
  Cl  Cl16  1  0.844940  0.228144  0.463514  1
  Cl  Cl17  1  0.845809  0.729655  0.962263  1
  Cl  Cl18  1  0.154168  0.770340  0.537731  1
  Cl  Cl19  1  0.155078  0.271841  0.036495  1
  O  O20  1  0.482865  0.647348  0.436973  1
  O  O21  1  0.483430  0.153863  0.933559  1
  O  O22  1  0.516566  0.346169  0.566453  1
  O  O23  1  0.517099  0.852661  0.062922  1
  O  O24  1  0.357865  0.007787  0.236187  1
  O  O25  1  0.359036  0.507144  0.737543  1
  O  O26  1  0.640982  0.992912  0.762432  1
  O  O27  1  0.642131  0.492078  0.263837  1
  O  O28  1  0.506960  0.151208  0.382773  1
  O  O29  1  0.507638  0.645812  0.882294  1
  O  O30  1  0.492378  0.854273  0.617665  1
  O  O31  1  0.493043  0.348748  0.117269  1
