# generated using pymatgen
data_Sm3Y9Ga7SiRh8
_symmetry_space_group_name_H-M   'P 1'
_cell_length_a   5.56603894
_cell_length_b   7.95299648
_cell_length_c   13.53292657
_cell_angle_alpha   90.03831679
_cell_angle_beta   89.95832004
_cell_angle_gamma   90.05869162
_symmetry_Int_Tables_number   1
_chemical_formula_structural   Sm3Y9Ga7SiRh8
_chemical_formula_sum   'Sm3 Y9 Ga7 Si1 Rh8'
_cell_volume   599.05723321
_cell_formula_units_Z   1
loop_
 _symmetry_equiv_pos_site_id
 _symmetry_equiv_pos_as_xyz
  1  'x, y, z'
loop_
 _atom_site_type_symbol
 _atom_site_label
 _atom_site_symmetry_multiplicity
 _atom_site_fract_x
 _atom_site_fract_y
 _atom_site_fract_z
 _atom_site_occupancy
  Sm  Sm0  1  0.628854  0.260513  0.250569  1
  Sm  Sm1  1  0.368805  0.763724  0.250923  1
  Sm  Sm2  1  0.851639  0.899637  0.094739  1
  Y  Y3  1  0.366404  0.736482  0.750116  1
  Y  Y4  1  0.635631  0.240361  0.749559  1
  Y  Y5  1  0.151126  0.398354  0.095725  1
  Y  Y6  1  0.850952  0.597837  0.897486  1
  Y  Y7  1  0.852131  0.599416  0.602016  1
  Y  Y8  1  0.850128  0.898923  0.404803  1
  Y  Y9  1  0.150976  0.399855  0.404968  1
  Y  Y10  1  0.151089  0.101396  0.602045  1
  Y  Y11  1  0.150897  0.102951  0.896731  1
  Ga  Ga12  1  0.125118  0.111986  0.251412  1
  Ga  Ga13  1  0.870254  0.887822  0.749918  1
  Ga  Ga14  1  0.873119  0.606733  0.250502  1
  Ga  Ga15  1  0.641153  0.252295  0.996432  1
  Ga  Ga16  1  0.358397  0.748905  0.995976  1
  Ga  Ga17  1  0.360340  0.749086  0.503800  1
  Ga  Ga18  1  0.641059  0.250643  0.502558  1
  Si  Si19  1  0.134851  0.388801  0.749629  1
  Rh  Rh20  1  0.354546  0.037771  0.090887  1
  Rh  Rh21  1  0.637849  0.966507  0.905437  1
  Rh  Rh22  1  0.642270  0.965714  0.593452  1
  Rh  Rh23  1  0.644708  0.536995  0.410500  1
  Rh  Rh24  1  0.353637  0.036155  0.409779  1
  Rh  Rh25  1  0.356136  0.462264  0.597890  1
  Rh  Rh26  1  0.355751  0.462252  0.901811  1
  Rh  Rh27  1  0.642176  0.536625  0.090336  1
