# generated using pymatgen
data_Mg3ScZn2B4(IrRh4)2
_symmetry_space_group_name_H-M   'P 1'
_cell_length_a   9.44200800
_cell_length_b   2.93837900
_cell_length_c   9.44200800
_cell_angle_alpha   90.00000000
_cell_angle_beta   90.00000000
_cell_angle_gamma   90.00000000
_symmetry_Int_Tables_number   1
_chemical_formula_structural   Mg3ScZn2B4(IrRh4)2
_chemical_formula_sum   'Mg3 Sc1 Zn2 B4 Ir2 Rh8'
_cell_volume   261.96093971
_cell_formula_units_Z   1
loop_
 _symmetry_equiv_pos_site_id
 _symmetry_equiv_pos_as_xyz
  1  'x, y, z'
loop_
 _atom_site_type_symbol
 _atom_site_label
 _atom_site_symmetry_multiplicity
 _atom_site_fract_x
 _atom_site_fract_y
 _atom_site_fract_z
 _atom_site_occupancy
  Mg  Mg0  1  0.822629  0.000000  0.323810  1
  Mg  Mg1  1  0.176224  0.000000  0.677441  1
  Mg  Mg2  1  0.679160  0.000000  0.820969  1
  Sc  Sc3  1  0.323737  0.000000  0.176420  1
  Zn  Zn4  1  0.000359  0.000000  0.000462  1
  Zn  Zn5  1  0.499605  0.000000  0.499480  1
  B  B6  1  0.626476  0.000000  0.125532  1
  B  B7  1  0.123888  0.000000  0.376184  1
  B  B8  1  0.873654  0.000000  0.626295  1
  B  B9  1  0.374343  0.000000  0.873360  1
  Ir  Ir10  1  0.501387  0.500000  0.998557  1
  Ir  Ir11  1  0.999544  0.500000  0.500401  1
  Rh  Rh12  1  0.784877  0.500000  0.072808  1
  Rh  Rh13  1  0.071688  0.500000  0.216457  1
  Rh  Rh14  1  0.570255  0.500000  0.283520  1
  Rh  Rh15  1  0.283660  0.500000  0.428495  1
  Rh  Rh16  1  0.715435  0.500000  0.570513  1
  Rh  Rh17  1  0.427299  0.500000  0.715160  1
  Rh  Rh18  1  0.929265  0.500000  0.784555  1
  Rh  Rh19  1  0.216519  0.500000  0.929583  1
