# generated using pymatgen
data_Ho6Er4In8RuPt3
_symmetry_space_group_name_H-M   'P 1'
_cell_length_a   3.62224600
_cell_length_b   8.09182055
_cell_length_c   18.16928983
_cell_angle_alpha   90.01813350
_cell_angle_beta   90.00000000
_cell_angle_gamma   90.00000000
_symmetry_Int_Tables_number   1
_chemical_formula_structural   Ho6Er4In8RuPt3
_chemical_formula_sum   'Ho6 Er4 In8 Ru1 Pt3'
_cell_volume   532.55211736
_cell_formula_units_Z   1
loop_
 _symmetry_equiv_pos_site_id
 _symmetry_equiv_pos_as_xyz
  1  'x, y, z'
loop_
 _atom_site_type_symbol
 _atom_site_label
 _atom_site_symmetry_multiplicity
 _atom_site_fract_x
 _atom_site_fract_y
 _atom_site_fract_z
 _atom_site_occupancy
  Ho  Ho0  1  0.000000  0.233314  0.222730  1
  Ho  Ho1  1  0.000000  0.757414  0.778729  1
  Ho  Ho2  1  0.000000  0.257198  0.721505  1
  Ho  Ho3  1  0.000000  0.750832  0.278572  1
  Ho  Ho4  1  0.000000  0.999667  0.000475  1
  Ho  Ho5  1  0.000000  0.500604  0.499192  1
  Er  Er6  1  0.000000  0.115660  0.411680  1
  Er  Er7  1  0.000000  0.884375  0.585663  1
  Er  Er8  1  0.000000  0.384158  0.914328  1
  Er  Er9  1  0.000000  0.617980  0.087417  1
  In  In10  1  0.500000  0.423446  0.351049  1
  In  In11  1  0.500000  0.574819  0.647751  1
  In  In12  1  0.500000  0.074858  0.852149  1
  In  In13  1  0.500000  0.930238  0.149576  1
  In  In14  1  0.500000  0.293022  0.066136  1
  In  In15  1  0.500000  0.707763  0.934022  1
  In  In16  1  0.500000  0.208924  0.566462  1
  In  In17  1  0.500000  0.794356  0.431200  1
  Ru  Ru18  1  0.500000  0.018778  0.304553  1
  Pt  Pt19  1  0.500000  0.976630  0.696055  1
  Pt  Pt20  1  0.500000  0.477450  0.804316  1
  Pt  Pt21  1  0.500000  0.518515  0.196439  1
