# generated using pymatgen
data_CaHg3(BrO3)8
_symmetry_space_group_name_H-M   'P 1'
_cell_length_a   5.78480658
_cell_length_b   11.17595665
_cell_length_c   11.26838800
_cell_angle_alpha   119.45886211
_cell_angle_beta   90.02560321
_cell_angle_gamma   90.10350768
_symmetry_Int_Tables_number   1
_chemical_formula_structural   CaHg3(BrO3)8
_chemical_formula_sum   'Ca1 Hg3 Br8 O24'
_cell_volume   634.31819846
_cell_formula_units_Z   1
loop_
 _symmetry_equiv_pos_site_id
 _symmetry_equiv_pos_as_xyz
  1  'x, y, z'
loop_
 _atom_site_type_symbol
 _atom_site_label
 _atom_site_symmetry_multiplicity
 _atom_site_fract_x
 _atom_site_fract_y
 _atom_site_fract_z
 _atom_site_occupancy
  Ca  Ca0  1  0.144369  0.768317  0.509890  1
  Hg  Hg1  1  0.649343  0.229568  0.488844  1
  Hg  Hg2  1  0.154231  0.270749  0.009674  1
  Hg  Hg3  1  0.652632  0.729973  0.991669  1
  Br  Br4  1  0.269906  0.415294  0.354230  1
  Br  Br5  1  0.766925  0.582643  0.650153  1
  Br  Br6  1  0.268579  0.920526  0.855045  1
  Br  Br7  1  0.770935  0.082616  0.144837  1
  Br  Br8  1  0.775025  0.086258  0.689806  1
  Br  Br9  1  0.281719  0.911353  0.301612  1
  Br  Br10  1  0.273318  0.414143  0.808088  1
  Br  Br11  1  0.779989  0.583601  0.192728  1
  O  O12  1  0.414795  0.895228  0.970020  1
  O  O13  1  0.916619  0.105985  0.027682  1
  O  O14  1  0.373580  0.805413  0.700353  1
  O  O15  1  0.882570  0.200323  0.297982  1
  O  O16  1  0.387701  0.302045  0.202112  1
  O  O17  1  0.880951  0.697800  0.804515  1
  O  O18  1  0.898272  0.227468  0.817322  1
  O  O19  1  0.423005  0.769932  0.182207  1
  O  O20  1  0.922851  0.950395  0.675822  1
  O  O21  1  0.419625  0.049857  0.312550  1
  O  O22  1  0.380011  0.071549  0.876380  1
  O  O23  1  0.880016  0.931964  0.123818  1
  O  O24  1  0.398711  0.272398  0.682122  1
  O  O25  1  0.915103  0.720348  0.319457  1
  O  O26  1  0.357275  0.415364  0.954508  1
  O  O27  1  0.865379  0.585096  0.049045  1
  O  O28  1  0.415300  0.551139  0.817807  1
  O  O29  1  0.912162  0.443243  0.181213  1
  O  O30  1  0.365603  0.569376  0.380248  1
  O  O31  1  0.878589  0.431297  0.624424  1
  O  O32  1  0.419080  0.394802  0.472316  1
  O  O33  1  0.911625  0.613632  0.539114  1
  O  O34  1  0.856729  0.088618  0.544771  1
  O  O35  1  0.347074  0.911691  0.447631  1
