# generated using pymatgen
data_Ho3Er4Co3Sn23Ru3
_symmetry_space_group_name_H-M   'P 1'
_cell_length_a   9.76019500
_cell_length_b   9.76019404
_cell_length_c   10.01160000
_cell_angle_alpha   90.00000000
_cell_angle_beta   90.00000000
_cell_angle_gamma   119.99999985
_symmetry_Int_Tables_number   1
_chemical_formula_structural   Ho3Er4Co3Sn23Ru3
_chemical_formula_sum   'Ho3 Er4 Co3 Sn23 Ru3'
_cell_volume   825.94488609
_cell_formula_units_Z   1
loop_
 _symmetry_equiv_pos_site_id
 _symmetry_equiv_pos_as_xyz
  1  'x, y, z'
loop_
 _atom_site_type_symbol
 _atom_site_label
 _atom_site_symmetry_multiplicity
 _atom_site_fract_x
 _atom_site_fract_y
 _atom_site_fract_z
 _atom_site_occupancy
  Ho  Ho0  1  0.038548  0.519274  0.306362  1
  Ho  Ho1  1  0.480726  0.961452  0.306362  1
  Ho  Ho2  1  0.480726  0.519274  0.306362  1
  Er  Er3  1  0.000000  0.000000  0.985055  1
  Er  Er4  1  0.517730  0.482270  0.694988  1
  Er  Er5  1  0.517730  0.035458  0.694988  1
  Er  Er6  1  0.964542  0.482270  0.694988  1
  Co  Co7  1  0.338559  0.169279  0.200424  1
  Co  Co8  1  0.830721  0.661441  0.200424  1
  Co  Co9  1  0.830721  0.169279  0.200424  1
  Sn  Sn10  1  0.666667  0.333333  0.184023  1
  Sn  Sn11  1  0.666667  0.333333  0.879815  1
  Sn  Sn12  1  0.333333  0.666667  0.123290  1
  Sn  Sn13  1  0.349953  0.345836  0.004874  1
  Sn  Sn14  1  0.995883  0.650047  0.004874  1
  Sn  Sn15  1  0.654164  0.004117  0.004874  1
  Sn  Sn16  1  0.654164  0.650047  0.004874  1
  Sn  Sn17  1  0.333333  0.666667  0.820153  1
  Sn  Sn18  1  0.436352  0.218177  0.453191  1
  Sn  Sn19  1  0.220114  0.779886  0.542727  1
  Sn  Sn20  1  0.220114  0.440226  0.542727  1
  Sn  Sn21  1  0.559774  0.779886  0.542727  1
  Sn  Sn22  1  0.116982  0.883018  0.270816  1
  Sn  Sn23  1  0.781823  0.563648  0.453191  1
  Sn  Sn24  1  0.781823  0.218177  0.453191  1
  Sn  Sn25  1  0.349953  0.004117  0.004874  1
  Sn  Sn26  1  0.116982  0.233965  0.270816  1
  Sn  Sn27  1  0.766035  0.883018  0.270816  1
  Sn  Sn28  1  0.237828  0.118914  0.722798  1
  Sn  Sn29  1  0.881086  0.762172  0.722798  1
  Sn  Sn30  1  0.881086  0.118914  0.722798  1
  Sn  Sn31  1  0.000000  0.000000  0.495441  1
  Sn  Sn32  1  0.995883  0.345836  0.004874  1
  Ru  Ru33  1  0.168216  0.831784  0.803018  1
  Ru  Ru34  1  0.168216  0.336432  0.803018  1
  Ru  Ru35  1  0.663568  0.831784  0.803018  1
