# generated using pymatgen
data_Sc8Ga12Cu3Ir
_symmetry_space_group_name_H-M   'P 1'
_cell_length_a   6.67029100
_cell_length_b   8.47928525
_cell_length_c   8.47891000
_cell_angle_alpha   119.99745153
_cell_angle_beta   90.00070436
_cell_angle_gamma   89.99787748
_symmetry_Int_Tables_number   1
_chemical_formula_structural   Sc8Ga12Cu3Ir
_chemical_formula_sum   'Sc8 Ga12 Cu3 Ir1'
_cell_volume   415.32285974
_cell_formula_units_Z   1
loop_
 _symmetry_equiv_pos_site_id
 _symmetry_equiv_pos_as_xyz
  1  'x, y, z'
loop_
 _atom_site_type_symbol
 _atom_site_label
 _atom_site_symmetry_multiplicity
 _atom_site_fract_x
 _atom_site_fract_y
 _atom_site_fract_z
 _atom_site_occupancy
  Sc  Sc0  1  0.753339  0.000007  0.000039  1
  Sc  Sc1  1  0.252281  0.000043  0.999969  1
  Sc  Sc2  1  0.746997  0.487013  0.512942  1
  Sc  Sc3  1  0.256932  0.522801  0.477292  1
  Sc  Sc4  1  0.747105  0.025997  0.512976  1
  Sc  Sc5  1  0.256895  0.954461  0.477227  1
  Sc  Sc6  1  0.747055  0.486997  0.974048  1
  Sc  Sc7  1  0.256907  0.522850  0.045571  1
  Ga  Ga8  1  0.962847  0.831567  0.168401  1
  Ga  Ga9  1  0.040795  0.170370  0.829712  1
  Ga  Ga10  1  0.962626  0.336995  0.168495  1
  Ga  Ga11  1  0.458778  0.170713  0.829323  1
  Ga  Ga12  1  0.041002  0.659184  0.829579  1
  Ga  Ga13  1  0.543098  0.834979  0.165044  1
  Ga  Ga14  1  0.962777  0.831526  0.663113  1
  Ga  Ga15  1  0.458714  0.658643  0.829344  1
  Ga  Ga16  1  0.040945  0.170357  0.340642  1
  Ga  Ga17  1  0.543118  0.330023  0.165020  1
  Ga  Ga18  1  0.458734  0.170659  0.341328  1
  Ga  Ga19  1  0.543131  0.835019  0.670015  1
  Cu  Cu20  1  0.951017  0.666622  0.333365  1
  Cu  Cu21  1  0.028310  0.333185  0.666645  1
  Cu  Cu22  1  0.470276  0.333321  0.666538  1
  Ir  Ir23  1  0.516326  0.666669  0.333373  1
