# generated using pymatgen
data_Y3Er5ReOsBr8
_symmetry_space_group_name_H-M   'P 1'
_cell_length_a   8.95670004
_cell_length_b   8.93225833
_cell_length_c   6.54020000
_cell_angle_alpha   89.49281012
_cell_angle_beta   89.49570476
_cell_angle_gamma   89.40878698
_symmetry_Int_Tables_number   1
_chemical_formula_structural   Y3Er5ReOsBr8
_chemical_formula_sum   'Y3 Er5 Re1 Os1 Br8'
_cell_volume   523.17106842
_cell_formula_units_Z   1
loop_
 _symmetry_equiv_pos_site_id
 _symmetry_equiv_pos_as_xyz
  1  'x, y, z'
loop_
 _atom_site_type_symbol
 _atom_site_label
 _atom_site_symmetry_multiplicity
 _atom_site_fract_x
 _atom_site_fract_y
 _atom_site_fract_z
 _atom_site_occupancy
  Y  Y0  1  0.251590  0.900260  0.011694  1
  Y  Y1  1  0.746991  0.101637  0.990778  1
  Y  Y2  1  0.099915  0.748516  0.488406  1
  Er  Er3  1  0.900947  0.247998  0.511339  1
  Er  Er4  1  0.754787  0.903859  0.508342  1
  Er  Er5  1  0.244955  0.096274  0.491398  1
  Er  Er6  1  0.095062  0.245764  0.992514  1
  Er  Er7  1  0.903833  0.755270  0.009228  1
  Re  Re8  1  0.995010  0.005378  0.250496  1
  Os  Os9  1  0.004776  0.995464  0.749538  1
  Br  Br10  1  0.421447  0.817989  0.410645  1
  Br  Br11  1  0.580351  0.182743  0.590053  1
  Br  Br12  1  0.181826  0.578593  0.089098  1
  Br  Br13  1  0.818375  0.421372  0.907191  1
  Br  Br14  1  0.413545  0.193641  0.092636  1
  Br  Br15  1  0.587046  0.807297  0.906644  1
  Br  Br16  1  0.808344  0.584974  0.406745  1
  Br  Br17  1  0.191197  0.412971  0.593254  1
