# generated using pymatgen
data_Dy18SnBi9O10
_symmetry_space_group_name_H-M   'P 1'
_cell_length_a   10.01485141
_cell_length_b   10.01935573
_cell_length_c   8.98290148
_cell_angle_alpha   90.03359987
_cell_angle_beta   89.98356466
_cell_angle_gamma   89.97148350
_symmetry_Int_Tables_number   1
_chemical_formula_structural   Dy18SnBi9O10
_chemical_formula_sum   'Dy18 Sn1 Bi9 O10'
_cell_volume   901.36522127
_cell_formula_units_Z   1
loop_
 _symmetry_equiv_pos_site_id
 _symmetry_equiv_pos_as_xyz
  1  'x, y, z'
loop_
 _atom_site_type_symbol
 _atom_site_label
 _atom_site_symmetry_multiplicity
 _atom_site_fract_x
 _atom_site_fract_y
 _atom_site_fract_z
 _atom_site_occupancy
  Dy  Dy0  1  0.502238  0.993524  0.679382  1
  Dy  Dy1  1  0.793360  0.105602  0.334983  1
  Dy  Dy2  1  0.275243  0.082569  0.001681  1
  Dy  Dy3  1  0.583127  0.224973  0.001958  1
  Dy  Dy4  1  0.206669  0.894428  0.335074  1
  Dy  Dy5  1  0.605486  0.706407  0.340427  1
  Dy  Dy6  1  0.299462  0.607085  0.665304  1
  Dy  Dy7  1  0.419042  0.773043  0.998772  1
  Dy  Dy8  1  0.225255  0.416643  0.997478  1
  Dy  Dy9  1  0.888379  0.791282  0.665099  1
  Dy  Dy10  1  0.999880  0.500223  0.320102  1
  Dy  Dy11  1  0.083701  0.725619  0.998307  1
  Dy  Dy12  1  0.916274  0.274879  0.997773  1
  Dy  Dy13  1  0.771272  0.584845  0.994246  1
  Dy  Dy14  1  0.724847  0.916020  0.000299  1
  Dy  Dy15  1  0.394647  0.293512  0.335471  1
  Dy  Dy16  1  0.703729  0.400279  0.665317  1
  Dy  Dy17  1  0.105528  0.206569  0.664739  1
  Sn  Sn18  1  0.595416  0.695194  0.697751  1
  Bi  Bi19  1  0.905531  0.805885  0.303800  1
  Bi  Bi20  1  0.694387  0.404925  0.303301  1
  Bi  Bi21  1  0.001487  0.500285  0.680228  1
  Bi  Bi22  1  0.305268  0.594793  0.303361  1
  Bi  Bi23  1  0.805795  0.096189  0.696073  1
  Bi  Bi24  1  0.405254  0.304582  0.696394  1
  Bi  Bi25  1  0.192935  0.904902  0.696228  1
  Bi  Bi26  1  0.094900  0.194210  0.303965  1
  Bi  Bi27  1  0.499834  0.000621  0.319270  1
  O  O28  1  0.226682  0.879526  0.083879  1
  O  O29  1  0.272857  0.620240  0.915808  1
  O  O30  1  0.120661  0.226011  0.916002  1
  O  O31  1  0.880885  0.774507  0.916779  1
  O  O32  1  0.726653  0.378244  0.915786  1
  O  O33  1  0.498785  0.002281  0.937663  1
  O  O34  1  0.773794  0.120003  0.083660  1
  O  O35  1  0.000717  0.499054  0.063005  1
  O  O36  1  0.379436  0.274187  0.084281  1
  O  O37  1  0.620585  0.726857  0.086354  1
