# generated using pymatgen
data_SmSi4(Ir2Rh)2
_symmetry_space_group_name_H-M   'P 1'
_cell_length_a   7.10036300
_cell_length_b   7.10036311
_cell_length_c   3.74444600
_cell_angle_alpha   90.00000000
_cell_angle_beta   90.00000000
_cell_angle_gamma   120.45740967
_symmetry_Int_Tables_number   1
_chemical_formula_structural   SmSi4(Ir2Rh)2
_chemical_formula_sum   'Sm1 Si4 Ir4 Rh2'
_cell_volume   162.72679502
_cell_formula_units_Z   1
loop_
 _symmetry_equiv_pos_site_id
 _symmetry_equiv_pos_as_xyz
  1  'x, y, z'
loop_
 _atom_site_type_symbol
 _atom_site_label
 _atom_site_symmetry_multiplicity
 _atom_site_fract_x
 _atom_site_fract_y
 _atom_site_fract_z
 _atom_site_occupancy
  Sm  Sm0  1  0.999989  0.000011  0.000000  1
  Si  Si1  1  0.800824  0.199176  0.500000  1
  Si  Si2  1  0.396197  0.198106  0.500000  1
  Si  Si3  1  0.333991  0.666009  0.000000  1
  Si  Si4  1  0.801894  0.603803  0.500000  1
  Ir  Ir5  1  0.198212  0.801788  0.500000  1
  Ir  Ir6  1  0.533612  0.066755  0.000000  1
  Ir  Ir7  1  0.933245  0.466388  0.000000  1
  Ir  Ir8  1  0.533438  0.466562  0.000000  1
  Rh  Rh9  1  0.198025  0.396097  0.500000  1
  Rh  Rh10  1  0.603903  0.801975  0.500000  1
