# generated using pymatgen
data_Ho8Ti11NbSi15Ge
_symmetry_space_group_name_H-M   'P 1'
_cell_length_a   7.05065207
_cell_length_b   7.04434735
_cell_length_c   12.96359210
_cell_angle_alpha   89.96113140
_cell_angle_beta   89.96657810
_cell_angle_gamma   89.99606199
_symmetry_Int_Tables_number   1
_chemical_formula_structural   Ho8Ti11NbSi15Ge
_chemical_formula_sum   'Ho8 Ti11 Nb1 Si15 Ge1'
_cell_volume   643.86560976
_cell_formula_units_Z   1
loop_
 _symmetry_equiv_pos_site_id
 _symmetry_equiv_pos_as_xyz
  1  'x, y, z'
loop_
 _atom_site_type_symbol
 _atom_site_label
 _atom_site_symmetry_multiplicity
 _atom_site_fract_x
 _atom_site_fract_y
 _atom_site_fract_z
 _atom_site_occupancy
  Ho  Ho0  1  0.341258  0.002140  0.465935  1
  Ho  Ho1  1  0.498444  0.839599  0.716936  1
  Ho  Ho2  1  0.502060  0.158941  0.216310  1
  Ho  Ho3  1  0.840358  0.497335  0.283235  1
  Ho  Ho4  1  0.158744  0.503117  0.784135  1
  Ho  Ho5  1  0.658675  0.997904  0.966747  1
  Ho  Ho6  1  0.001382  0.341842  0.532499  1
  Ho  Ho7  1  0.998133  0.658410  0.033458  1
  Ti  Ti8  1  0.173720  0.826647  0.250228  1
  Ti  Ti9  1  0.823797  0.173997  0.750406  1
  Ti  Ti10  1  0.673045  0.673054  0.499925  1
  Ti  Ti11  1  0.153187  0.008527  0.877523  1
  Ti  Ti12  1  0.491830  0.650870  0.125157  1
  Ti  Ti13  1  0.509902  0.350236  0.625708  1
  Ti  Ti14  1  0.651348  0.492122  0.874943  1
  Ti  Ti15  1  0.348730  0.508080  0.374176  1
  Ti  Ti16  1  0.848050  0.992502  0.375875  1
  Ti  Ti17  1  0.008823  0.153142  0.123758  1
  Ti  Ti18  1  0.990367  0.845288  0.623395  1
  Nb  Nb19  1  0.326498  0.326707  0.000068  1
  Si  Si20  1  0.369295  0.703474  0.934028  1
  Si  Si21  1  0.630734  0.297574  0.434256  1
  Si  Si22  1  0.703401  0.369313  0.066029  1
  Si  Si23  1  0.297698  0.630762  0.565688  1
  Si  Si24  1  0.797422  0.869124  0.184388  1
  Si  Si25  1  0.130827  0.202364  0.315950  1
  Si  Si26  1  0.869120  0.797563  0.815735  1
  Si  Si27  1  0.291003  0.951597  0.065194  1
  Si  Si28  1  0.547063  0.791238  0.314798  1
  Si  Si29  1  0.456708  0.208398  0.814829  1
  Si  Si30  1  0.791650  0.546869  0.685208  1
  Si  Si31  1  0.207951  0.453892  0.186656  1
  Si  Si32  1  0.709076  0.047016  0.564653  1
  Si  Si33  1  0.951712  0.290942  0.934986  1
  Si  Si34  1  0.047055  0.709224  0.435241  1
  Ge  Ge35  1  0.200931  0.130190  0.681944  1
