# generated using pymatgen
data_Zr3Ga4GeRu8
_symmetry_space_group_name_H-M   'P 1'
_cell_length_a   6.28913201
_cell_length_b   4.43311600
_cell_length_c   8.80868102
_cell_angle_alpha   90.00000000
_cell_angle_beta   89.99263012
_cell_angle_gamma   90.00000000
_symmetry_Int_Tables_number   1
_chemical_formula_structural   Zr3Ga4GeRu8
_chemical_formula_sum   'Zr3 Ga4 Ge1 Ru8'
_cell_volume   245.59000410
_cell_formula_units_Z   1
loop_
 _symmetry_equiv_pos_site_id
 _symmetry_equiv_pos_as_xyz
  1  'x, y, z'
loop_
 _atom_site_type_symbol
 _atom_site_label
 _atom_site_symmetry_multiplicity
 _atom_site_fract_x
 _atom_site_fract_y
 _atom_site_fract_z
 _atom_site_occupancy
  Zr  Zr0  1  0.249988  0.249999  0.115863  1
  Zr  Zr1  1  0.750023  0.750001  0.375007  1
  Zr  Zr2  1  0.249965  0.249999  0.634073  1
  Ga  Ga3  1  0.750036  0.249999  0.139189  1
  Ga  Ga4  1  0.250028  0.750001  0.375009  1
  Ga  Ga5  1  0.750024  0.249999  0.610736  1
  Ga  Ga6  1  0.249948  0.750001  0.875016  1
  Ge  Ge7  1  0.750047  0.750001  0.875043  1
  Ru  Ru8  1  0.510208  0.750001  0.112434  1
  Ru  Ru9  1  0.989791  0.750001  0.112446  1
  Ru  Ru10  1  0.493499  0.249999  0.374970  1
  Ru  Ru11  1  0.006524  0.249999  0.374981  1
  Ru  Ru12  1  0.989728  0.750001  0.637689  1
  Ru  Ru13  1  0.510232  0.750001  0.637681  1
  Ru  Ru14  1  0.971641  0.249999  0.874933  1
  Ru  Ru15  1  0.528316  0.249999  0.874930  1
