# generated using pymatgen
data_Pa2SnC
_symmetry_space_group_name_H-M   'P 1'
_cell_length_a   3.34093400
_cell_length_b   3.34093511
_cell_length_c   17.33658200
_cell_angle_alpha   90.00000000
_cell_angle_beta   90.00000000
_cell_angle_gamma   119.99998899
_symmetry_Int_Tables_number   1
_chemical_formula_structural   Pa2SnC
_chemical_formula_sum   'Pa4 Sn2 C2'
_cell_volume   167.58305181
_cell_formula_units_Z   2
loop_
 _symmetry_equiv_pos_site_id
 _symmetry_equiv_pos_as_xyz
  1  'x, y, z'
loop_
 _atom_site_type_symbol
 _atom_site_label
 _atom_site_symmetry_multiplicity
 _atom_site_fract_x
 _atom_site_fract_y
 _atom_site_fract_z
 _atom_site_occupancy
  Pa  Pa0  1  0.666667  0.333333  0.911967  1
  Pa  Pa1  1  0.333333  0.666667  0.087219  1
  Pa  Pa2  1  0.333333  0.666667  0.412417  1
  Pa  Pa3  1  0.666667  0.333333  0.588346  1
  Sn  Sn4  1  0.333333  0.666667  0.750451  1
  Sn  Sn5  1  0.666667  0.333333  0.249433  1
  C  C6  1  0.000000  0.000000  0.999928  1
  C  C7  1  0.000000  0.000000  0.500240  1
