# generated using pymatgen
data_Nd4Al2Zn2Ir3Rh
_symmetry_space_group_name_H-M   'P 1'
_cell_length_a   4.18527600
_cell_length_b   7.15388703
_cell_length_c   8.24162169
_cell_angle_alpha   90.05985493
_cell_angle_beta   90.00000000
_cell_angle_gamma   90.00000000
_symmetry_Int_Tables_number   1
_chemical_formula_structural   Nd4Al2Zn2Ir3Rh
_chemical_formula_sum   'Nd4 Al2 Zn2 Ir3 Rh1'
_cell_volume   246.76219212
_cell_formula_units_Z   1
loop_
 _symmetry_equiv_pos_site_id
 _symmetry_equiv_pos_as_xyz
  1  'x, y, z'
loop_
 _atom_site_type_symbol
 _atom_site_label
 _atom_site_symmetry_multiplicity
 _atom_site_fract_x
 _atom_site_fract_y
 _atom_site_fract_z
 _atom_site_occupancy
  Nd  Nd0  1  0.250000  0.534904  0.189472  1
  Nd  Nd1  1  0.750000  0.465586  0.810751  1
  Nd  Nd2  1  0.750000  0.960925  0.681680  1
  Nd  Nd3  1  0.250000  0.037515  0.318250  1
  Al  Al4  1  0.750000  0.862166  0.063090  1
  Al  Al5  1  0.250000  0.137310  0.938490  1
  Zn  Zn6  1  0.250000  0.640194  0.563572  1
  Zn  Zn7  1  0.750000  0.360458  0.436452  1
  Ir  Ir8  1  0.250000  0.775411  0.894030  1
  Ir  Ir9  1  0.750000  0.225173  0.104935  1
  Ir  Ir10  1  0.750000  0.740359  0.372517  1
  Rh  Rh11  1  0.250000  0.259999  0.626760  1
