# generated using pymatgen
data_PuCrN2
_symmetry_space_group_name_H-M   'P 1'
_cell_length_a   3.20352300
_cell_length_b   5.40695200
_cell_length_c   10.38132000
_cell_angle_alpha   90.00000000
_cell_angle_beta   90.00000000
_cell_angle_gamma   90.00000000
_symmetry_Int_Tables_number   1
_chemical_formula_structural   PuCrN2
_chemical_formula_sum   'Pu4 Cr4 N8'
_cell_volume   179.81790716
_cell_formula_units_Z   4
loop_
 _symmetry_equiv_pos_site_id
 _symmetry_equiv_pos_as_xyz
  1  'x, y, z'
loop_
 _atom_site_type_symbol
 _atom_site_label
 _atom_site_symmetry_multiplicity
 _atom_site_fract_x
 _atom_site_fract_y
 _atom_site_fract_z
 _atom_site_occupancy
  Pu  Pu0  1  0.750000  0.079924  0.856342  1
  Pu  Pu1  1  0.750000  0.579924  0.643658  1
  Pu  Pu2  1  0.250000  0.920076  0.143658  1
  Pu  Pu3  1  0.250000  0.420076  0.356342  1
  Cr  Cr4  1  0.250000  0.075917  0.594721  1
  Cr  Cr5  1  0.750000  0.424083  0.094721  1
  Cr  Cr6  1  0.250000  0.575917  0.905279  1
  Cr  Cr7  1  0.750000  0.924083  0.405279  1
  N  N8  1  0.250000  0.337581  0.746842  1
  N  N9  1  0.750000  0.162419  0.246842  1
  N  N10  1  0.250000  0.270301  0.010425  1
  N  N11  1  0.750000  0.662419  0.253158  1
  N  N12  1  0.250000  0.837581  0.753158  1
  N  N13  1  0.750000  0.729699  0.989575  1
  N  N14  1  0.750000  0.229699  0.510425  1
  N  N15  1  0.250000  0.770301  0.489575  1
