# generated using pymatgen
data_Li4Ho3ErPt4
_symmetry_space_group_name_H-M   'P 1'
_cell_length_a   4.01341200
_cell_length_b   7.00111140
_cell_length_c   8.37593193
_cell_angle_alpha   90.04991700
_cell_angle_beta   90.00000000
_cell_angle_gamma   90.00000000
_symmetry_Int_Tables_number   1
_chemical_formula_structural   Li4Ho3ErPt4
_chemical_formula_sum   'Li4 Ho3 Er1 Pt4'
_cell_volume   235.34973166
_cell_formula_units_Z   1
loop_
 _symmetry_equiv_pos_site_id
 _symmetry_equiv_pos_as_xyz
  1  'x, y, z'
loop_
 _atom_site_type_symbol
 _atom_site_label
 _atom_site_symmetry_multiplicity
 _atom_site_fract_x
 _atom_site_fract_y
 _atom_site_fract_z
 _atom_site_occupancy
  Li  Li0  1  0.250000  0.629133  0.559391  1
  Li  Li1  1  0.250000  0.129502  0.940702  1
  Li  Li2  1  0.750000  0.370862  0.441069  1
  Li  Li3  1  0.750000  0.870181  0.059011  1
  Ho  Ho4  1  0.250000  0.044013  0.319499  1
  Ho  Ho5  1  0.250000  0.543750  0.180112  1
  Ho  Ho6  1  0.750000  0.956272  0.680903  1
  Er  Er7  1  0.750000  0.456093  0.819650  1
  Pt  Pt8  1  0.250000  0.247511  0.623696  1
  Pt  Pt9  1  0.250000  0.745550  0.876671  1
  Pt  Pt10  1  0.750000  0.753454  0.376948  1
  Pt  Pt11  1  0.750000  0.253680  0.122351  1
