# generated using pymatgen
data_NdNp3(B6Ru)2
_symmetry_space_group_name_H-M   'P 1'
_cell_length_a   3.60733900
_cell_length_b   9.38086875
_cell_length_c   11.41838554
_cell_angle_alpha   90.10231010
_cell_angle_beta   90.00000000
_cell_angle_gamma   90.00000000
_symmetry_Int_Tables_number   1
_chemical_formula_structural   NdNp3(B6Ru)2
_chemical_formula_sum   'Nd2 Np6 B24 Ru4'
_cell_volume   386.39725022
_cell_formula_units_Z   2
loop_
 _symmetry_equiv_pos_site_id
 _symmetry_equiv_pos_as_xyz
  1  'x, y, z'
loop_
 _atom_site_type_symbol
 _atom_site_label
 _atom_site_symmetry_multiplicity
 _atom_site_fract_x
 _atom_site_fract_y
 _atom_site_fract_z
 _atom_site_occupancy
  Nd  Nd0  1  0.000000  0.338563  0.406532  1
  Nd  Nd1  1  0.000000  0.661437  0.593468  1
  Np  Np2  1  0.000000  0.838312  0.092856  1
  Np  Np3  1  0.000000  0.161688  0.907144  1
  Np  Np4  1  0.000000  0.959331  0.400848  1
  Np  Np5  1  0.000000  0.040669  0.599152  1
  Np  Np6  1  0.000000  0.460424  0.097099  1
  Np  Np7  1  0.000000  0.539576  0.902901  1
  B  B8  1  0.500000  0.556127  0.427981  1
  B  B9  1  0.500000  0.443873  0.572019  1
  B  B10  1  0.500000  0.051817  0.067832  1
  B  B11  1  0.500000  0.948183  0.932168  1
  B  B12  1  0.500000  0.746262  0.421307  1
  B  B13  1  0.500000  0.253738  0.578693  1
  B  B14  1  0.500000  0.242618  0.075861  1
  B  B15  1  0.500000  0.757382  0.924139  1
  B  B16  1  0.500000  0.806705  0.273100  1
  B  B17  1  0.500000  0.193295  0.726900  1
  B  B18  1  0.500000  0.304376  0.222703  1
  B  B19  1  0.500000  0.695624  0.777297  1
  B  B20  1  0.500000  0.647799  0.187564  1
  B  B21  1  0.500000  0.352201  0.812436  1
  B  B22  1  0.500000  0.144084  0.310603  1
  B  B23  1  0.500000  0.855916  0.689397  1
  B  B24  1  0.500000  0.989180  0.219485  1
  B  B25  1  0.500000  0.010820  0.780515  1
  B  B26  1  0.500000  0.492253  0.276814  1
  B  B27  1  0.500000  0.507747  0.723186  1
  B  B28  1  0.500000  0.645287  0.039861  1
  B  B29  1  0.500000  0.354713  0.960139  1
  B  B30  1  0.500000  0.139852  0.460861  1
  B  B31  1  0.500000  0.860148  0.539139  1
  Ru  Ru32  1  0.000000  0.648373  0.316889  1
  Ru  Ru33  1  0.000000  0.351627  0.683111  1
  Ru  Ru34  1  0.000000  0.147137  0.179425  1
  Ru  Ru35  1  0.000000  0.852863  0.820575  1
