# generated using pymatgen
data_Tm6Ti(Al3Pt8)2
_symmetry_space_group_name_H-M   'P 1'
_cell_length_a   8.95761649
_cell_length_b   8.95761634
_cell_length_c   8.95761600
_cell_angle_alpha   59.99999388
_cell_angle_beta   59.99999442
_cell_angle_gamma   60.00000214
_symmetry_Int_Tables_number   1
_chemical_formula_structural   Tm6Ti(Al3Pt8)2
_chemical_formula_sum   'Tm6 Ti1 Al6 Pt16'
_cell_volume   508.23238345
_cell_formula_units_Z   1
loop_
 _symmetry_equiv_pos_site_id
 _symmetry_equiv_pos_as_xyz
  1  'x, y, z'
loop_
 _atom_site_type_symbol
 _atom_site_label
 _atom_site_symmetry_multiplicity
 _atom_site_fract_x
 _atom_site_fract_y
 _atom_site_fract_z
 _atom_site_occupancy
  Tm  Tm0  1  0.714460  0.285540  0.285540  1
  Tm  Tm1  1  0.285540  0.714460  0.714460  1
  Tm  Tm2  1  0.285540  0.714460  0.285540  1
  Tm  Tm3  1  0.285540  0.285540  0.714460  1
  Tm  Tm4  1  0.714460  0.285540  0.714460  1
  Tm  Tm5  1  0.714460  0.714460  0.285540  1
  Ti  Ti6  1  0.000000  0.000000  0.000000  1
  Al  Al7  1  0.500000  0.000000  0.000000  1
  Al  Al8  1  0.000000  0.500000  0.500000  1
  Al  Al9  1  0.000000  0.500000  0.000000  1
  Al  Al10  1  0.000000  0.000000  0.500000  1
  Al  Al11  1  0.500000  0.000000  0.500000  1
  Al  Al12  1  0.500000  0.500000  0.000000  1
  Pt  Pt13  1  0.339473  0.339473  0.339473  1
  Pt  Pt14  1  0.339473  0.339473  0.981583  1
  Pt  Pt15  1  0.981583  0.339473  0.339473  1
  Pt  Pt16  1  0.339473  0.981583  0.339473  1
  Pt  Pt17  1  0.660527  0.660527  0.660527  1
  Pt  Pt18  1  0.660527  0.660527  0.018417  1
  Pt  Pt19  1  0.660527  0.018417  0.660527  1
  Pt  Pt20  1  0.018417  0.660527  0.660527  1
  Pt  Pt21  1  0.119674  0.119674  0.119674  1
  Pt  Pt22  1  0.119674  0.119674  0.640977  1
  Pt  Pt23  1  0.640977  0.119674  0.119674  1
  Pt  Pt24  1  0.119674  0.640977  0.119674  1
  Pt  Pt25  1  0.880326  0.880326  0.880326  1
  Pt  Pt26  1  0.880326  0.880326  0.359023  1
  Pt  Pt27  1  0.880326  0.359023  0.880326  1
  Pt  Pt28  1  0.359023  0.880326  0.880326  1
