# generated using pymatgen
data_YTaB6W
_symmetry_space_group_name_H-M   'P 1'
_cell_length_a   3.55535100
_cell_length_b   8.94662700
_cell_length_c   11.31115600
_cell_angle_alpha   90.00000000
_cell_angle_beta   90.00000000
_cell_angle_gamma   90.00000000
_symmetry_Int_Tables_number   1
_chemical_formula_structural   YTaB6W
_chemical_formula_sum   'Y4 Ta4 B24 W4'
_cell_volume   359.78976604
_cell_formula_units_Z   4
loop_
 _symmetry_equiv_pos_site_id
 _symmetry_equiv_pos_as_xyz
  1  'x, y, z'
loop_
 _atom_site_type_symbol
 _atom_site_label
 _atom_site_symmetry_multiplicity
 _atom_site_fract_x
 _atom_site_fract_y
 _atom_site_fract_z
 _atom_site_occupancy
  Y  Y0  1  0.000000  0.321026  0.413896  1
  Y  Y1  1  0.000000  0.678974  0.586104  1
  Y  Y2  1  0.000000  0.821026  0.086104  1
  Y  Y3  1  0.000000  0.178974  0.913896  1
  Ta  Ta4  1  0.000000  0.946207  0.373886  1
  Ta  Ta5  1  0.000000  0.053793  0.626114  1
  Ta  Ta6  1  0.000000  0.446207  0.126114  1
  Ta  Ta7  1  0.000000  0.553793  0.873886  1
  B  B8  1  0.500000  0.553760  0.433565  1
  B  B9  1  0.500000  0.446240  0.566435  1
  B  B10  1  0.500000  0.053760  0.066435  1
  B  B11  1  0.500000  0.946240  0.933565  1
  B  B12  1  0.500000  0.756822  0.418859  1
  B  B13  1  0.500000  0.243178  0.581141  1
  B  B14  1  0.500000  0.256822  0.081141  1
  B  B15  1  0.500000  0.743178  0.918859  1
  B  B16  1  0.500000  0.798273  0.263947  1
  B  B17  1  0.500000  0.201727  0.736053  1
  B  B18  1  0.500000  0.298273  0.236053  1
  B  B19  1  0.500000  0.701727  0.763947  1
  B  B20  1  0.500000  0.629438  0.180421  1
  B  B21  1  0.500000  0.370562  0.819579  1
  B  B22  1  0.500000  0.129438  0.319579  1
  B  B23  1  0.500000  0.870562  0.680421  1
  B  B24  1  0.500000  0.980382  0.214804  1
  B  B25  1  0.500000  0.019618  0.785196  1
  B  B26  1  0.500000  0.480382  0.285196  1
  B  B27  1  0.500000  0.519618  0.714804  1
  B  B28  1  0.500000  0.597547  0.025789  1
  B  B29  1  0.500000  0.402453  0.974211  1
  B  B30  1  0.500000  0.097547  0.474211  1
  B  B31  1  0.500000  0.902453  0.525789  1
  W  W32  1  0.000000  0.643142  0.316145  1
  W  W33  1  0.000000  0.356858  0.683855  1
  W  W34  1  0.000000  0.143142  0.183855  1
  W  W35  1  0.000000  0.856858  0.816145  1
