# generated using pymatgen
data_Li2ThUN4
_symmetry_space_group_name_H-M   'P 1'
_cell_length_a   4.44052154
_cell_length_b   4.44052096
_cell_length_c   6.57117511
_cell_angle_alpha   109.74768820
_cell_angle_beta   109.74768369
_cell_angle_gamma   90.00001288
_symmetry_Int_Tables_number   1
_chemical_formula_structural   Li2ThUN4
_chemical_formula_sum   'Li2 Th1 U1 N4'
_cell_volume   113.82257773
_cell_formula_units_Z   1
loop_
 _symmetry_equiv_pos_site_id
 _symmetry_equiv_pos_as_xyz
  1  'x, y, z'
loop_
 _atom_site_type_symbol
 _atom_site_label
 _atom_site_symmetry_multiplicity
 _atom_site_fract_x
 _atom_site_fract_y
 _atom_site_fract_z
 _atom_site_occupancy
  Li  Li0  1  0.624999  0.375001  0.250001  1
  Li  Li1  1  0.375000  0.625001  0.750000  1
  Th  Th2  1  0.125000  0.875000  0.250001  1
  U  U3  1  0.874999  0.124999  0.750000  1
  N  N4  1  0.063016  0.313017  0.126031  1
  N  N5  1  0.686982  0.936983  0.373968  1
  N  N6  1  0.348088  0.098087  0.696175  1
  N  N7  1  0.901911  0.651912  0.803825  1
