# generated using pymatgen
data_Li3Co6Ni3P7Ru2
_symmetry_space_group_name_H-M   'P 1'
_cell_length_a   8.95553019
_cell_length_b   8.88965939
_cell_length_c   3.57783500
_cell_angle_alpha   90.00000000
_cell_angle_beta   90.00000000
_cell_angle_gamma   119.20410727
_symmetry_Int_Tables_number   1
_chemical_formula_structural   Li3Co6Ni3P7Ru2
_chemical_formula_sum   'Li3 Co6 Ni3 P7 Ru2'
_cell_volume   248.63073188
_cell_formula_units_Z   1
loop_
 _symmetry_equiv_pos_site_id
 _symmetry_equiv_pos_as_xyz
  1  'x, y, z'
loop_
 _atom_site_type_symbol
 _atom_site_label
 _atom_site_symmetry_multiplicity
 _atom_site_fract_x
 _atom_site_fract_y
 _atom_site_fract_z
 _atom_site_occupancy
  Li  Li0  1  0.222658  0.101318  0.500000  1
  Li  Li1  1  0.335535  0.667853  0.000000  1
  Li  Li2  1  0.662758  0.334081  0.500000  1
  Co  Co3  1  0.717134  0.880645  0.000000  1
  Co  Co4  1  0.165230  0.281304  0.000000  1
  Co  Co5  1  0.121768  0.836972  0.000000  1
  Co  Co6  1  0.622576  0.570708  0.000000  1
  Co  Co7  1  0.560961  0.948192  0.500000  1
  Co  Co8  1  0.390206  0.437059  0.500000  1
  Ni  Ni9  1  0.934340  0.372290  0.000000  1
  Ni  Ni10  1  0.434103  0.062172  0.000000  1
  Ni  Ni11  1  0.056134  0.608929  0.500000  1
  P  P12  1  0.583384  0.710525  0.500000  1
  P  P13  1  0.130890  0.408759  0.500000  1
  P  P14  1  0.291527  0.876302  0.500000  1
  P  P15  1  0.997011  0.997048  0.000000  1
  P  P16  1  0.875927  0.587090  0.000000  1
  P  P17  1  0.697535  0.117006  0.000000  1
  P  P18  1  0.424108  0.305016  0.000000  1
  Ru  Ru19  1  0.868689  0.773133  0.500000  1
  Ru  Ru20  1  0.907526  0.123598  0.500000  1
