# generated using pymatgen
data_Tb2DyLu3(Al3Os)8
_symmetry_space_group_name_H-M   'P 1'
_cell_length_a   8.79576173
_cell_length_b   8.77221316
_cell_length_c   9.60587400
_cell_angle_alpha   90.00000000
_cell_angle_beta   90.00000000
_cell_angle_gamma   120.00743483
_symmetry_Int_Tables_number   1
_chemical_formula_structural   Tb2DyLu3(Al3Os)8
_chemical_formula_sum   'Tb2 Dy1 Lu3 Al24 Os8'
_cell_volume   641.82644705
_cell_formula_units_Z   1
loop_
 _symmetry_equiv_pos_site_id
 _symmetry_equiv_pos_as_xyz
  1  'x, y, z'
loop_
 _atom_site_type_symbol
 _atom_site_label
 _atom_site_symmetry_multiplicity
 _atom_site_fract_x
 _atom_site_fract_y
 _atom_site_fract_z
 _atom_site_occupancy
  Tb  Tb0  1  0.191677  0.384169  0.250000  1
  Tb  Tb1  1  0.807713  0.615616  0.750000  1
  Dy  Dy2  1  0.807337  0.193495  0.750000  1
  Lu  Lu3  1  0.607242  0.803775  0.250000  1
  Lu  Lu4  1  0.393385  0.197476  0.750000  1
  Lu  Lu5  1  0.195432  0.803614  0.250000  1
  Al  Al6  1  0.333037  0.666431  0.021487  1
  Al  Al7  1  0.666804  0.333464  0.978971  1
  Al  Al8  1  0.666804  0.333464  0.521029  1
  Al  Al9  1  0.333037  0.666431  0.478513  1
  Al  Al10  1  0.164256  0.327553  0.576440  1
  Al  Al11  1  0.836303  0.673192  0.422972  1
  Al  Al12  1  0.672281  0.836514  0.574977  1
  Al  Al13  1  0.836303  0.673192  0.077028  1
  Al  Al14  1  0.326880  0.162802  0.424329  1
  Al  Al15  1  0.164256  0.327553  0.923560  1
  Al  Al16  1  0.164369  0.837499  0.575169  1
  Al  Al17  1  0.326880  0.162802  0.075671  1
  Al  Al18  1  0.835293  0.162922  0.423248  1
  Al  Al19  1  0.672281  0.836514  0.925023  1
  Al  Al20  1  0.835293  0.162922  0.076752  1
  Al  Al21  1  0.164369  0.837499  0.924831  1
  Al  Al22  1  0.560676  0.122591  0.250000  1
  Al  Al23  1  0.437963  0.877054  0.750000  1
  Al  Al24  1  0.875754  0.438498  0.250000  1
  Al  Al25  1  0.124728  0.562925  0.750000  1
  Al  Al26  1  0.561818  0.438302  0.250000  1
  Al  Al27  1  0.438024  0.562144  0.750000  1
  Al  Al28  1  0.996163  0.993637  0.250000  1
  Al  Al29  1  0.006556  0.004525  0.750000  1
  Os  Os30  1  0.498903  0.999177  0.001188  1
  Os  Os31  1  0.000568  0.501129  0.000847  1
  Os  Os32  1  0.498903  0.999177  0.498812  1
  Os  Os33  1  0.499637  0.500089  0.000285  1
  Os  Os34  1  0.000568  0.501129  0.499153  1
  Os  Os35  1  0.499637  0.500089  0.499715  1
  Os  Os36  1  0.999437  0.000318  0.000076  1
  Os  Os37  1  0.999437  0.000318  0.499924  1
