# generated using pymatgen
data_HoTmAlRe3
_symmetry_space_group_name_H-M   'P 1'
_cell_length_a   5.34731500
_cell_length_b   5.34731557
_cell_length_c   9.00212100
_cell_angle_alpha   90.00000000
_cell_angle_beta   90.00000000
_cell_angle_gamma   120.00000267
_symmetry_Int_Tables_number   1
_chemical_formula_structural   HoTmAlRe3
_chemical_formula_sum   'Ho2 Tm2 Al2 Re6'
_cell_volume   222.91898088
_cell_formula_units_Z   2
loop_
 _symmetry_equiv_pos_site_id
 _symmetry_equiv_pos_as_xyz
  1  'x, y, z'
loop_
 _atom_site_type_symbol
 _atom_site_label
 _atom_site_symmetry_multiplicity
 _atom_site_fract_x
 _atom_site_fract_y
 _atom_site_fract_z
 _atom_site_occupancy
  Ho  Ho0  1  0.333333  0.666667  0.432854  1
  Ho  Ho1  1  0.666667  0.333333  0.567146  1
  Tm  Tm2  1  0.666667  0.333333  0.932975  1
  Tm  Tm3  1  0.333333  0.666667  0.067025  1
  Al  Al4  1  0.000000  0.000000  0.500000  1
  Al  Al5  1  0.000000  0.000000  0.000000  1
  Re  Re6  1  0.830462  0.169538  0.248889  1
  Re  Re7  1  0.830462  0.660922  0.248889  1
  Re  Re8  1  0.339078  0.169538  0.248889  1
  Re  Re9  1  0.169538  0.830462  0.751111  1
  Re  Re10  1  0.169538  0.339078  0.751111  1
  Re  Re11  1  0.660922  0.830462  0.751111  1
