# generated using pymatgen
data_YThAl3Cu7
_symmetry_space_group_name_H-M   'P 1'
_cell_length_a   4.18261800
_cell_length_b   5.14093855
_cell_length_c   8.95832485
_cell_angle_alpha   89.25782310
_cell_angle_beta   90.00000000
_cell_angle_gamma   90.00000000
_symmetry_Int_Tables_number   1
_chemical_formula_structural   YThAl3Cu7
_chemical_formula_sum   'Y1 Th1 Al3 Cu7'
_cell_volume   192.61095540
_cell_formula_units_Z   1
loop_
 _symmetry_equiv_pos_site_id
 _symmetry_equiv_pos_as_xyz
  1  'x, y, z'
loop_
 _atom_site_type_symbol
 _atom_site_label
 _atom_site_symmetry_multiplicity
 _atom_site_fract_x
 _atom_site_fract_y
 _atom_site_fract_z
 _atom_site_occupancy
  Y  Y0  1  0.000000  0.247898  0.750049  1
  Th  Th1  1  0.000000  0.752020  0.252750  1
  Al  Al2  1  0.500000  0.735990  0.743872  1
  Al  Al3  1  0.500000  0.257878  0.254064  1
  Al  Al4  1  0.500000  0.001224  0.998462  1
  Cu  Cu5  1  0.000000  0.255767  0.077788  1
  Cu  Cu6  1  0.000000  0.750989  0.587292  1
  Cu  Cu7  1  0.000000  0.747436  0.910600  1
  Cu  Cu8  1  0.000000  0.249905  0.423907  1
  Cu  Cu9  1  0.500000  0.498041  0.500400  1
  Cu  Cu10  1  0.500000  0.502180  0.000020  1
  Cu  Cu11  1  0.500000  0.000673  0.500797  1
