# generated using pymatgen
data_CeTm7(ReB6)4
_symmetry_space_group_name_H-M   'P 1'
_cell_length_a   3.66082700
_cell_length_b   9.12092328
_cell_length_c   11.49129344
_cell_angle_alpha   90.03434121
_cell_angle_beta   90.00000000
_cell_angle_gamma   90.00000000
_symmetry_Int_Tables_number   1
_chemical_formula_structural   CeTm7(ReB6)4
_chemical_formula_sum   'Ce1 Tm7 Re4 B24'
_cell_volume   383.69562332
_cell_formula_units_Z   1
loop_
 _symmetry_equiv_pos_site_id
 _symmetry_equiv_pos_as_xyz
  1  'x, y, z'
loop_
 _atom_site_type_symbol
 _atom_site_label
 _atom_site_symmetry_multiplicity
 _atom_site_fract_x
 _atom_site_fract_y
 _atom_site_fract_z
 _atom_site_occupancy
  Ce  Ce0  1  0.000000  0.322813  0.413930  1
  Tm  Tm1  1  0.000000  0.677838  0.586918  1
  Tm  Tm2  1  0.000000  0.823070  0.085567  1
  Tm  Tm3  1  0.000000  0.176364  0.913872  1
  Tm  Tm4  1  0.000000  0.942574  0.370268  1
  Tm  Tm5  1  0.000000  0.056079  0.630472  1
  Tm  Tm6  1  0.000000  0.443446  0.128408  1
  Tm  Tm7  1  0.000000  0.557163  0.870759  1
  Re  Re8  1  0.000000  0.638755  0.320398  1
  Re  Re9  1  0.000000  0.361623  0.679443  1
  Re  Re10  1  0.000000  0.138799  0.179127  1
  Re  Re11  1  0.000000  0.861523  0.821110  1
  B  B12  1  0.500000  0.553906  0.432607  1
  B  B13  1  0.500000  0.446910  0.567904  1
  B  B14  1  0.500000  0.052778  0.066417  1
  B  B15  1  0.500000  0.947166  0.933478  1
  B  B16  1  0.500000  0.750062  0.419081  1
  B  B17  1  0.500000  0.250261  0.582674  1
  B  B18  1  0.500000  0.249385  0.080033  1
  B  B19  1  0.500000  0.750342  0.919198  1
  B  B20  1  0.500000  0.792771  0.265170  1
  B  B21  1  0.500000  0.207397  0.735610  1
  B  B22  1  0.500000  0.291742  0.233368  1
  B  B23  1  0.500000  0.707445  0.765352  1
  B  B24  1  0.500000  0.631456  0.184012  1
  B  B25  1  0.500000  0.369744  0.815364  1
  B  B26  1  0.500000  0.130113  0.314088  1
  B  B27  1  0.500000  0.869136  0.685335  1
  B  B28  1  0.500000  0.981234  0.211709  1
  B  B29  1  0.500000  0.018362  0.788296  1
  B  B30  1  0.500000  0.483184  0.286832  1
  B  B31  1  0.500000  0.519026  0.712908  1
  B  B32  1  0.500000  0.600703  0.027620  1
  B  B33  1  0.500000  0.399752  0.971525  1
  B  B34  1  0.500000  0.098571  0.472556  1
  B  B35  1  0.500000  0.898507  0.528588  1
