# generated using pymatgen
data_Y18Sc2Cd6NiOs
_symmetry_space_group_name_H-M   'P 1'
_cell_length_a   9.60287200
_cell_length_b   9.60287364
_cell_length_c   9.73612400
_cell_angle_alpha   90.00000000
_cell_angle_beta   90.00000000
_cell_angle_gamma   119.99999434
_symmetry_Int_Tables_number   1
_chemical_formula_structural   Y18Sc2Cd6NiOs
_chemical_formula_sum   'Y18 Sc2 Cd6 Ni1 Os1'
_cell_volume   777.53349594
_cell_formula_units_Z   1
loop_
 _symmetry_equiv_pos_site_id
 _symmetry_equiv_pos_as_xyz
  1  'x, y, z'
loop_
 _atom_site_type_symbol
 _atom_site_label
 _atom_site_symmetry_multiplicity
 _atom_site_fract_x
 _atom_site_fract_y
 _atom_site_fract_z
 _atom_site_occupancy
  Y  Y0  1  0.540252  0.459748  0.250000  1
  Y  Y1  1  0.540252  0.080502  0.250000  1
  Y  Y2  1  0.919498  0.459748  0.250000  1
  Y  Y3  1  0.457127  0.542873  0.750000  1
  Y  Y4  1  0.457127  0.914256  0.750000  1
  Y  Y5  1  0.085744  0.542873  0.750000  1
  Y  Y6  1  0.207719  0.792281  0.441051  1
  Y  Y7  1  0.207719  0.415440  0.441051  1
  Y  Y8  1  0.584560  0.792281  0.441051  1
  Y  Y9  1  0.791607  0.208393  0.561632  1
  Y  Y10  1  0.791607  0.583214  0.561632  1
  Y  Y11  1  0.416786  0.208393  0.561632  1
  Y  Y12  1  0.791607  0.208393  0.938368  1
  Y  Y13  1  0.791607  0.583214  0.938368  1
  Y  Y14  1  0.416786  0.208393  0.938368  1
  Y  Y15  1  0.207719  0.792281  0.058949  1
  Y  Y16  1  0.207719  0.415440  0.058949  1
  Y  Y17  1  0.584560  0.792281  0.058949  1
  Sc  Sc18  1  0.000000  0.000000  0.499590  1
  Sc  Sc19  1  0.000000  0.000000  0.000410  1
  Cd  Cd20  1  0.889195  0.110805  0.250000  1
  Cd  Cd21  1  0.889195  0.778391  0.250000  1
  Cd  Cd22  1  0.221609  0.110805  0.250000  1
  Cd  Cd23  1  0.110854  0.889146  0.750000  1
  Cd  Cd24  1  0.110854  0.221708  0.750000  1
  Cd  Cd25  1  0.778292  0.889146  0.750000  1
  Ni  Ni26  1  0.666667  0.333333  0.750000  1
  Os  Os27  1  0.333333  0.666667  0.250000  1
