# generated using pymatgen
data_K3Dy(AsS2)6
_symmetry_space_group_name_H-M   'P 1'
_cell_length_a   9.45440000
_cell_length_b   9.45439987
_cell_length_c   7.92415500
_cell_angle_alpha   90.00000000
_cell_angle_beta   90.00000000
_cell_angle_gamma   119.99999953
_symmetry_Int_Tables_number   1
_chemical_formula_structural   K3Dy(AsS2)6
_chemical_formula_sum   'K3 Dy1 As6 S12'
_cell_volume   613.41096482
_cell_formula_units_Z   1
loop_
 _symmetry_equiv_pos_site_id
 _symmetry_equiv_pos_as_xyz
  1  'x, y, z'
loop_
 _atom_site_type_symbol
 _atom_site_label
 _atom_site_symmetry_multiplicity
 _atom_site_fract_x
 _atom_site_fract_y
 _atom_site_fract_z
 _atom_site_occupancy
  K  K0  1  0.000000  0.000000  0.000000  1
  K  K1  1  0.333333  0.666667  0.848324  1
  K  K2  1  0.666667  0.333333  0.151676  1
  Dy  Dy3  1  0.000000  0.000000  0.500000  1
  As  As4  1  0.289630  0.837999  0.371310  1
  As  As5  1  0.162001  0.451631  0.371310  1
  As  As6  1  0.548369  0.710370  0.371310  1
  As  As7  1  0.710370  0.162001  0.628690  1
  As  As8  1  0.837999  0.548369  0.628690  1
  As  As9  1  0.451631  0.289630  0.628690  1
  S  S10  1  0.256495  0.045898  0.294238  1
  S  S11  1  0.954102  0.210597  0.294238  1
  S  S12  1  0.789403  0.743505  0.294238  1
  S  S13  1  0.743505  0.954102  0.705762  1
  S  S14  1  0.045898  0.789403  0.705762  1
  S  S15  1  0.210597  0.256495  0.705762  1
  S  S16  1  0.523540  0.903683  0.211785  1
  S  S17  1  0.096317  0.619856  0.211785  1
  S  S18  1  0.380144  0.476460  0.211785  1
  S  S19  1  0.476460  0.096317  0.788215  1
  S  S20  1  0.903683  0.380144  0.788215  1
  S  S21  1  0.619856  0.523540  0.788215  1
