# generated using pymatgen
data_Dy4TeC4I
_symmetry_space_group_name_H-M   'P 1'
_cell_length_a   7.52357308
_cell_length_b   7.52357233
_cell_length_c   6.69954900
_cell_angle_alpha   99.77430079
_cell_angle_beta   99.77429981
_cell_angle_gamma   32.92246507
_symmetry_Int_Tables_number   1
_chemical_formula_structural   Dy4TeC4I
_chemical_formula_sum   'Dy4 Te1 C4 I1'
_cell_volume   202.85351749
_cell_formula_units_Z   1
loop_
 _symmetry_equiv_pos_site_id
 _symmetry_equiv_pos_as_xyz
  1  'x, y, z'
loop_
 _atom_site_type_symbol
 _atom_site_label
 _atom_site_symmetry_multiplicity
 _atom_site_fract_x
 _atom_site_fract_y
 _atom_site_fract_z
 _atom_site_occupancy
  Dy  Dy0  1  0.856402  0.458023  0.157559  1
  Dy  Dy1  1  0.541977  0.143598  0.342441  1
  Dy  Dy2  1  0.464173  0.857669  0.643422  1
  Dy  Dy3  1  0.142332  0.535827  0.856579  1
  Te  Te4  1  0.220867  0.779134  0.250000  1
  C  C5  1  0.346695  0.103349  0.025951  1
  C  C6  1  0.896651  0.653304  0.474050  1
  C  C7  1  0.107552  0.353164  0.528000  1
  C  C8  1  0.646836  0.892448  0.972000  1
  I  I9  1  0.776518  0.223482  0.750000  1
