# generated using pymatgen
data_Ce4Cu3PRh9
_symmetry_space_group_name_H-M   'P 1'
_cell_length_a   7.13145398
_cell_length_b   7.13145364
_cell_length_c   7.24330600
_cell_angle_alpha   109.78925162
_cell_angle_beta   109.78925063
_cell_angle_gamma   109.15132379
_symmetry_Int_Tables_number   1
_chemical_formula_structural   Ce4Cu3PRh9
_chemical_formula_sum   'Ce4 Cu3 P1 Rh9'
_cell_volume   282.45642466
_cell_formula_units_Z   1
loop_
 _symmetry_equiv_pos_site_id
 _symmetry_equiv_pos_as_xyz
  1  'x, y, z'
loop_
 _atom_site_type_symbol
 _atom_site_label
 _atom_site_symmetry_multiplicity
 _atom_site_fract_x
 _atom_site_fract_y
 _atom_site_fract_z
 _atom_site_occupancy
  Ce  Ce0  1  0.000000  0.000000  0.500000  1
  Ce  Ce1  1  0.025698  0.512849  0.012849  1
  Ce  Ce2  1  0.487151  0.974302  0.987151  1
  Ce  Ce3  1  0.487151  0.512849  0.500000  1
  Cu  Cu4  1  0.747350  0.252650  0.500000  1
  Cu  Cu5  1  0.747350  0.494699  0.247350  1
  Cu  Cu6  1  0.505301  0.252650  0.752650  1
  P  P7  1  0.000000  0.000000  0.000000  1
  Rh  Rh8  1  0.242462  0.484923  0.742462  1
  Rh  Rh9  1  0.242462  0.757538  0.500000  1
  Rh  Rh10  1  0.515077  0.757538  0.257538  1
  Rh  Rh11  1  0.736152  0.711225  0.999950  1
  Rh  Rh12  1  0.288775  0.024928  0.288725  1
  Rh  Rh13  1  0.975072  0.263848  0.263797  1
  Rh  Rh14  1  0.288775  0.263848  0.000050  1
  Rh  Rh15  1  0.736152  0.024928  0.736203  1
  Rh  Rh16  1  0.975072  0.711225  0.711275  1
