# generated using pymatgen
data_Er8Cr3OsC8
_symmetry_space_group_name_H-M   'P 1'
_cell_length_a   5.00659500
_cell_length_b   6.42927929
_cell_length_c   9.69983147
_cell_angle_alpha   90.03524002
_cell_angle_beta   90.00000000
_cell_angle_gamma   90.00000000
_symmetry_Int_Tables_number   1
_chemical_formula_structural   Er8Cr3OsC8
_chemical_formula_sum   'Er8 Cr3 Os1 C8'
_cell_volume   312.22585269
_cell_formula_units_Z   1
loop_
 _symmetry_equiv_pos_site_id
 _symmetry_equiv_pos_as_xyz
  1  'x, y, z'
loop_
 _atom_site_type_symbol
 _atom_site_label
 _atom_site_symmetry_multiplicity
 _atom_site_fract_x
 _atom_site_fract_y
 _atom_site_fract_z
 _atom_site_occupancy
  Er  Er0  1  0.250000  0.685023  0.556320  1
  Er  Er1  1  0.750000  0.319945  0.442498  1
  Er  Er2  1  0.750000  0.817871  0.056301  1
  Er  Er3  1  0.250000  0.178495  0.945430  1
  Er  Er4  1  0.250000  0.530566  0.217908  1
  Er  Er5  1  0.750000  0.466714  0.783236  1
  Er  Er6  1  0.750000  0.969471  0.714643  1
  Er  Er7  1  0.250000  0.030477  0.281690  1
  Cr  Cr8  1  0.250000  0.724033  0.862620  1
  Cr  Cr9  1  0.750000  0.272695  0.140404  1
  Cr  Cr10  1  0.750000  0.773266  0.361598  1
  Os  Os11  1  0.250000  0.223858  0.636256  1
  C  C12  1  0.250000  0.462857  0.763409  1
  C  C13  1  0.750000  0.542324  0.239136  1
  C  C14  1  0.750000  0.040248  0.261520  1
  C  C15  1  0.250000  0.951771  0.743721  1
  C  C16  1  0.250000  0.812904  0.041770  1
  C  C17  1  0.750000  0.188391  0.961352  1
  C  C18  1  0.750000  0.686899  0.541143  1
  C  C19  1  0.250000  0.322191  0.449045  1
