# generated using pymatgen
data_YbSmU8O20
_symmetry_space_group_name_H-M   'P 1'
_cell_length_a   6.60682355
_cell_length_b   7.63862970
_cell_length_c   8.53504766
_cell_angle_alpha   102.90299968
_cell_angle_beta   97.23392753
_cell_angle_gamma   106.90773160
_symmetry_Int_Tables_number   1
_chemical_formula_structural   YbSmU8O20
_chemical_formula_sum   'Yb1 Sm1 U8 O20'
_cell_volume   393.21117887
_cell_formula_units_Z   1
loop_
 _symmetry_equiv_pos_site_id
 _symmetry_equiv_pos_as_xyz
  1  'x, y, z'
loop_
 _atom_site_type_symbol
 _atom_site_label
 _atom_site_symmetry_multiplicity
 _atom_site_fract_x
 _atom_site_fract_y
 _atom_site_fract_z
 _atom_site_occupancy
  Yb  Yb0  1  0.999870  0.999640  0.999691  1
  Sm  Sm1  1  0.801236  0.603079  0.603541  1
  U  U2  1  0.001687  0.500380  0.000068  1
  U  U3  1  0.599891  0.198895  0.197229  1
  U  U4  1  0.798986  0.099670  0.603129  1
  U  U5  1  0.604822  0.702458  0.199204  1
  U  U6  1  0.198863  0.397046  0.398238  1
  U  U7  1  0.396137  0.297648  0.800832  1
  U  U8  1  0.198388  0.899824  0.396595  1
  U  U9  1  0.399937  0.801694  0.801731  1
  O  O10  1  0.850866  0.315212  0.449279  1
  O  O11  1  0.639988  0.922518  0.056710  1
  O  O12  1  0.852650  0.833298  0.447476  1
  O  O13  1  0.949322  0.766574  0.153481  1
  O  O14  1  0.436458  0.518199  0.651075  1
  O  O15  1  0.649244  0.426250  0.049371  1
  O  O16  1  0.743417  0.367308  0.755012  1
  O  O17  1  0.257561  0.127129  0.257623  1
  O  O18  1  0.948784  0.286194  0.153710  1
  O  O19  1  0.549158  0.972948  0.353191  1
  O  O20  1  0.065688  0.718557  0.852233  1
  O  O21  1  0.442589  0.026648  0.645956  1
  O  O22  1  0.733556  0.880654  0.747751  1
  O  O23  1  0.356702  0.573151  0.953180  1
  O  O24  1  0.254551  0.627089  0.246179  1
  O  O25  1  0.053656  0.233484  0.845791  1
  O  O26  1  0.546075  0.474223  0.342422  1
  O  O27  1  0.148766  0.172648  0.549786  1
  O  O28  1  0.362301  0.080563  0.947566  1
  O  O29  1  0.158851  0.677018  0.541952  1
