# generated using pymatgen
data_Ho2Pa2Pd11Pt
_symmetry_space_group_name_H-M   'P 1'
_cell_length_a   5.83344400
_cell_length_b   5.82889526
_cell_length_c   9.69645600
_cell_angle_alpha   90.00000000
_cell_angle_beta   90.00000000
_cell_angle_gamma   120.02582941
_symmetry_Int_Tables_number   1
_chemical_formula_structural   Ho2Pa2Pd11Pt
_chemical_formula_sum   'Ho2 Pa2 Pd11 Pt1'
_cell_volume   285.45775947
_cell_formula_units_Z   1
loop_
 _symmetry_equiv_pos_site_id
 _symmetry_equiv_pos_as_xyz
  1  'x, y, z'
loop_
 _atom_site_type_symbol
 _atom_site_label
 _atom_site_symmetry_multiplicity
 _atom_site_fract_x
 _atom_site_fract_y
 _atom_site_fract_z
 _atom_site_occupancy
  Ho  Ho0  1  0.999411  0.998823  0.499341  1
  Ho  Ho1  1  0.999411  0.998823  0.000659  1
  Pa  Pa2  1  0.334286  0.668572  0.250000  1
  Pa  Pa3  1  0.666653  0.333306  0.750000  1
  Pd  Pd4  1  0.499479  0.498912  0.500720  1
  Pd  Pd5  1  0.499601  0.999201  0.500874  1
  Pd  Pd6  1  0.999431  0.498912  0.500720  1
  Pd  Pd7  1  0.499479  0.498912  0.999280  1
  Pd  Pd8  1  0.499601  0.999201  0.999126  1
  Pd  Pd9  1  0.999431  0.498912  0.999280  1
  Pd  Pd10  1  0.346430  0.174556  0.250000  1
  Pd  Pd11  1  0.828125  0.174556  0.250000  1
  Pd  Pd12  1  0.172645  0.345291  0.750000  1
  Pd  Pd13  1  0.655331  0.827544  0.750000  1
  Pd  Pd14  1  0.172213  0.827544  0.750000  1
  Pt  Pt15  1  0.828468  0.656936  0.250000  1
