# generated using pymatgen
data_Pr3Al12IrRu2Pt
_symmetry_space_group_name_H-M   'P 1'
_cell_length_a   8.94299650
_cell_length_b   8.93023419
_cell_length_c   9.69254879
_cell_angle_alpha   89.92448864
_cell_angle_beta   90.03599647
_cell_angle_gamma   119.75009909
_symmetry_Int_Tables_number   1
_chemical_formula_structural   Pr3Al12IrRu2Pt
_chemical_formula_sum   'Pr6 Al24 Ir2 Ru4 Pt2'
_cell_volume   672.05108492
_cell_formula_units_Z   2
loop_
 _symmetry_equiv_pos_site_id
 _symmetry_equiv_pos_as_xyz
  1  'x, y, z'
loop_
 _atom_site_type_symbol
 _atom_site_label
 _atom_site_symmetry_multiplicity
 _atom_site_fract_x
 _atom_site_fract_y
 _atom_site_fract_z
 _atom_site_occupancy
  Pr  Pr0  1  0.190502  0.380997  0.247761  1
  Pr  Pr1  1  0.809498  0.619003  0.752239  1
  Pr  Pr2  1  0.620102  0.809565  0.249370  1
  Pr  Pr3  1  0.379898  0.190435  0.750630  1
  Pr  Pr4  1  0.189292  0.808836  0.250891  1
  Pr  Pr5  1  0.810708  0.191164  0.749109  1
  Al  Al6  1  0.331401  0.668799  0.022488  1
  Al  Al7  1  0.668599  0.331201  0.977512  1
  Al  Al8  1  0.669798  0.338720  0.522137  1
  Al  Al9  1  0.330202  0.661280  0.477863  1
  Al  Al10  1  0.164641  0.328155  0.573615  1
  Al  Al11  1  0.835359  0.671845  0.426385  1
  Al  Al12  1  0.673834  0.831265  0.573979  1
  Al  Al13  1  0.840087  0.673844  0.076362  1
  Al  Al14  1  0.326166  0.168735  0.426021  1
  Al  Al15  1  0.159913  0.326156  0.923638  1
  Al  Al16  1  0.157976  0.831586  0.577241  1
  Al  Al17  1  0.325612  0.159222  0.075277  1
  Al  Al18  1  0.842024  0.168414  0.422759  1
  Al  Al19  1  0.674388  0.840778  0.924723  1
  Al  Al20  1  0.836519  0.163273  0.076840  1
  Al  Al21  1  0.163481  0.836727  0.923160  1
  Al  Al22  1  0.564297  0.128242  0.247117  1
  Al  Al23  1  0.435703  0.871758  0.752883  1
  Al  Al24  1  0.874410  0.437266  0.250789  1
  Al  Al25  1  0.125590  0.562734  0.749211  1
  Al  Al26  1  0.564258  0.436627  0.253625  1
  Al  Al27  1  0.435742  0.563373  0.746375  1
  Al  Al28  1  0.998206  0.999340  0.250091  1
  Al  Al29  1  0.001794  0.000660  0.749909  1
  Ir  Ir30  1  0.500000  0.000000  0.000000  1
  Ir  Ir31  1  0.000000  0.500000  0.000000  1
  Ru  Ru32  1  0.000000  0.500000  0.500000  1
  Ru  Ru33  1  0.500000  0.500000  0.500000  1
  Ru  Ru34  1  0.000000  0.000000  0.000000  1
  Ru  Ru35  1  0.000000  0.000000  0.500000  1
  Pt  Pt36  1  0.500000  0.000000  0.500000  1
  Pt  Pt37  1  0.500000  0.500000  0.000000  1
