# generated using pymatgen
data_Sr14ZrBi11
_symmetry_space_group_name_H-M   'P 1'
_cell_length_a   17.43565046
_cell_length_b   17.43564961
_cell_length_c   17.43565000
_cell_angle_alpha   117.56788764
_cell_angle_beta   117.56788618
_cell_angle_gamma   94.26683267
_symmetry_Int_Tables_number   1
_chemical_formula_structural   Sr14ZrBi11
_chemical_formula_sum   'Sr56 Zr4 Bi44'
_cell_volume   3874.15824281
_cell_formula_units_Z   4
loop_
 _symmetry_equiv_pos_site_id
 _symmetry_equiv_pos_as_xyz
  1  'x, y, z'
loop_
 _atom_site_type_symbol
 _atom_site_label
 _atom_site_symmetry_multiplicity
 _atom_site_fract_x
 _atom_site_fract_y
 _atom_site_fract_z
 _atom_site_occupancy
  Sr  Sr0  1  0.304245  0.646382  0.018524  1
  Sr  Sr1  1  0.405120  0.011911  0.655448  1
  Sr  Sr2  1  0.396382  0.877858  0.842136  1
  Sr  Sr3  1  0.162909  0.377942  0.133469  1
  Sr  Sr4  1  0.035722  0.554245  0.157864  1
  Sr  Sr5  1  0.261911  0.155120  0.155448  1
  Sr  Sr6  1  0.988089  0.643538  0.393209  1
  Sr  Sr7  1  0.214278  0.872142  0.018524  1
  Sr  Sr8  1  0.477169  0.875000  0.102170  1
  Sr  Sr9  1  0.844880  0.000329  0.106791  1
  Sr  Sr10  1  0.625000  0.522831  0.397831  1
  Sr  Sr11  1  0.344880  0.238089  0.844552  1
  Sr  Sr12  1  0.853618  0.195755  0.981476  1
  Sr  Sr13  1  0.744473  0.877942  0.215033  1
  Sr  Sr14  1  0.772830  0.375000  0.897830  1
  Sr  Sr15  1  0.122058  0.337091  0.866531  1
  Sr  Sr16  1  0.945755  0.464278  0.842136  1
  Sr  Sr17  1  0.761911  0.606462  0.106791  1
  Sr  Sr18  1  0.714278  0.695755  0.342136  1
  Sr  Sr19  1  0.488089  0.094880  0.344552  1
  Sr  Sr20  1  0.905120  0.249671  0.393209  1
  Sr  Sr21  1  0.356462  0.749671  0.344552  1
  Sr  Sr22  1  0.353618  0.372142  0.657864  1
  Sr  Sr23  1  0.505527  0.220560  0.633469  1
  Sr  Sr24  1  0.244473  0.029440  0.866531  1
  Sr  Sr25  1  0.622142  0.103618  0.157864  1
  Sr  Sr26  1  0.856462  0.511911  0.606791  1
  Sr  Sr27  1  0.893538  0.738089  0.893209  1
  Sr  Sr28  1  0.896382  0.054245  0.518524  1
  Sr  Sr29  1  0.122142  0.964278  0.518524  1
  Sr  Sr30  1  0.627942  0.912909  0.633469  1
  Sr  Sr31  1  0.087091  0.720560  0.715033  1
  Sr  Sr32  1  0.127858  0.146382  0.342136  1
  Sr  Sr33  1  0.272831  0.375000  0.397830  1
  Sr  Sr34  1  0.535722  0.377858  0.481476  1
  Sr  Sr35  1  0.625000  0.022830  0.897830  1
  Sr  Sr36  1  0.750329  0.143538  0.655448  1
  Sr  Sr37  1  0.005527  0.372058  0.284967  1
  Sr  Sr38  1  0.127942  0.494473  0.715033  1
  Sr  Sr39  1  0.499671  0.655120  0.893209  1
  Sr  Sr40  1  0.970560  0.837091  0.215033  1
  Sr  Sr41  1  0.587091  0.872058  0.366531  1
  Sr  Sr42  1  0.125000  0.227170  0.602170  1
  Sr  Sr43  1  0.250329  0.594880  0.606791  1
  Sr  Sr44  1  0.779440  0.412909  0.284967  1
  Sr  Sr45  1  0.622058  0.755527  0.784967  1
  Sr  Sr46  1  0.445755  0.603618  0.481476  1
  Sr  Sr47  1  0.125000  0.727170  0.102170  1
  Sr  Sr48  1  0.627858  0.285722  0.981476  1
  Sr  Sr49  1  0.977170  0.875000  0.602170  1
  Sr  Sr50  1  0.393538  0.500329  0.155448  1
  Sr  Sr51  1  0.279440  0.994473  0.366531  1
  Sr  Sr52  1  0.662909  0.529440  0.784967  1
  Sr  Sr53  1  0.999671  0.106462  0.844552  1
  Sr  Sr54  1  0.804245  0.785722  0.657864  1
  Sr  Sr55  1  0.470560  0.255527  0.133469  1
  Zr  Zr56  1  0.000000  0.000000  0.000000  1
  Zr  Zr57  1  0.500000  0.500000  0.000000  1
  Zr  Zr58  1  0.250000  0.750000  0.500000  1
  Zr  Zr59  1  0.750000  0.250000  0.500000  1
  Bi  Bi60  1  0.300818  0.432445  0.857248  1
  Bi  Bi61  1  0.361340  0.861340  0.222680  1
  Bi  Bi62  1  0.800818  0.943571  0.868374  1
  Bi  Bi63  1  0.174803  0.806429  0.357248  1
  Bi  Bi64  1  0.958431  0.049413  0.353592  1
  Bi  Bi65  1  0.182445  0.825197  0.631626  1
  Bi  Bi66  1  0.111340  0.111340  0.722680  1
  Bi  Bi67  1  0.791569  0.200587  0.146408  1
  Bi  Bi68  1  0.354839  0.208431  0.409018  1
  Bi  Bi69  1  0.250000  0.250000  0.000000  1
  Bi  Bi70  1  0.799413  0.945820  0.590982  1
  Bi  Bi71  1  0.449182  0.817555  0.642752  1
  Bi  Bi72  1  0.056429  0.924803  0.857248  1
  Bi  Bi73  1  0.861340  0.638660  0.500000  1
  Bi  Bi74  1  0.554180  0.700587  0.409018  1
  Bi  Bi75  1  0.682445  0.050818  0.357248  1
  Bi  Bi76  1  0.067555  0.199182  0.142752  1
  Bi  Bi77  1  0.138660  0.361340  0.500000  1
  Bi  Bi78  1  0.193571  0.550818  0.368374  1
  Bi  Bi79  1  0.388660  0.388660  0.277320  1
  Bi  Bi80  1  0.500000  0.000000  0.500000  1
  Bi  Bi81  1  0.075197  0.932445  0.131626  1
  Bi  Bi82  1  0.567555  0.424803  0.868374  1
  Bi  Bi83  1  0.450587  0.541569  0.646408  1
  Bi  Bi84  1  0.674803  0.317555  0.368374  1
  Bi  Bi85  1  0.458431  0.104839  0.909018  1
  Bi  Bi86  1  0.395161  0.041569  0.090982  1
  Bi  Bi87  1  0.895161  0.804180  0.353592  1
  Bi  Bi88  1  0.695820  0.604839  0.646408  1
  Bi  Bi89  1  0.693571  0.325197  0.642752  1
  Bi  Bi90  1  0.750000  0.750000  0.000000  1
  Bi  Bi91  1  0.195820  0.549413  0.090982  1
  Bi  Bi92  1  0.949182  0.306429  0.631626  1
  Bi  Bi93  1  0.854839  0.445820  0.146408  1
  Bi  Bi94  1  0.888660  0.611340  0.000000  1
  Bi  Bi95  1  0.299413  0.708431  0.853592  1
  Bi  Bi96  1  0.000000  0.500000  0.500000  1
  Bi  Bi97  1  0.291569  0.145161  0.590982  1
  Bi  Bi98  1  0.638660  0.138660  0.777320  1
  Bi  Bi99  1  0.556429  0.699182  0.131626  1
  Bi  Bi100  1  0.575197  0.443571  0.142752  1
  Bi  Bi101  1  0.054180  0.645161  0.853592  1
  Bi  Bi102  1  0.950587  0.304180  0.909018  1
  Bi  Bi103  1  0.611340  0.888660  0.000000  1
