# generated using pymatgen
data_Nd6Si2RuS14
_symmetry_space_group_name_H-M   'P 1'
_cell_length_a   5.75193341
_cell_length_b   10.09138999
_cell_length_c   10.21063000
_cell_angle_alpha   60.69429119
_cell_angle_beta   89.59540526
_cell_angle_gamma   90.03414257
_symmetry_Int_Tables_number   1
_chemical_formula_structural   Nd6Si2RuS14
_chemical_formula_sum   'Nd6 Si2 Ru1 S14'
_cell_volume   516.80720488
_cell_formula_units_Z   1
loop_
 _symmetry_equiv_pos_site_id
 _symmetry_equiv_pos_as_xyz
  1  'x, y, z'
loop_
 _atom_site_type_symbol
 _atom_site_label
 _atom_site_symmetry_multiplicity
 _atom_site_fract_x
 _atom_site_fract_y
 _atom_site_fract_z
 _atom_site_occupancy
  Nd  Nd0  1  0.749468  0.230068  0.642723  1
  Nd  Nd1  1  0.749555  0.645400  0.123801  1
  Nd  Nd2  1  0.747804  0.127589  0.227104  1
  Nd  Nd3  1  0.257436  0.770510  0.356450  1
  Nd  Nd4  1  0.256057  0.352511  0.877014  1
  Nd  Nd5  1  0.253024  0.872756  0.774379  1
  Si  Si6  1  0.168318  0.332410  0.332255  1
  Si  Si7  1  0.661668  0.667650  0.667546  1
  Ru  Ru8  1  0.523374  0.000233  0.999771  1
  S  S9  1  0.293490  0.150965  0.763231  1
  S  S10  1  0.289304  0.762633  0.086742  1
  S  S11  1  0.289654  0.085233  0.151532  1
  S  S12  1  0.740273  0.843934  0.237904  1
  S  S13  1  0.746024  0.240260  0.916613  1
  S  S14  1  0.748297  0.917542  0.843084  1
  S  S15  1  0.535021  0.334170  0.331760  1
  S  S16  1  0.028307  0.665801  0.668322  1
  S  S17  1  0.026549  0.110274  0.475536  1
  S  S18  1  0.024939  0.478821  0.408960  1
  S  S19  1  0.028401  0.409831  0.111654  1
  S  S20  1  0.521135  0.889298  0.527348  1
  S  S21  1  0.519652  0.524552  0.587617  1
  S  S22  1  0.519249  0.587563  0.888656  1
