# generated using pymatgen
data_Ce2Nd2TlCdPt4
_symmetry_space_group_name_H-M   'P 1'
_cell_length_a   7.92988301
_cell_length_b   7.96061001
_cell_length_c   3.78066400
_cell_angle_alpha   90.00000000
_cell_angle_beta   90.00000000
_cell_angle_gamma   89.99360971
_symmetry_Int_Tables_number   1
_chemical_formula_structural   Ce2Nd2TlCdPt4
_chemical_formula_sum   'Ce2 Nd2 Tl1 Cd1 Pt4'
_cell_volume   238.66086373
_cell_formula_units_Z   1
loop_
 _symmetry_equiv_pos_site_id
 _symmetry_equiv_pos_as_xyz
  1  'x, y, z'
loop_
 _atom_site_type_symbol
 _atom_site_label
 _atom_site_symmetry_multiplicity
 _atom_site_fract_x
 _atom_site_fract_y
 _atom_site_fract_z
 _atom_site_occupancy
  Ce  Ce0  1  0.830687  0.671242  0.500000  1
  Ce  Ce1  1  0.669998  0.170062  0.500000  1
  Nd  Nd2  1  0.169684  0.328085  0.500000  1
  Nd  Nd3  1  0.329165  0.829176  0.500000  1
  Tl  Tl4  1  0.499436  0.502472  0.000000  1
  Cd  Cd5  1  0.000320  0.001806  0.000000  1
  Pt  Pt6  1  0.644695  0.872807  0.000000  1
  Pt  Pt7  1  0.113395  0.631321  0.000000  1
  Pt  Pt8  1  0.861069  0.367220  0.000000  1
  Pt  Pt9  1  0.381550  0.125809  0.000000  1
