# generated using pymatgen
data_Hf13In3(Rh2N)4
_symmetry_space_group_name_H-M   'P 1'
_cell_length_a   8.66412511
_cell_length_b   8.66412419
_cell_length_c   8.66412664
_cell_angle_alpha   60.12422688
_cell_angle_beta   60.12422766
_cell_angle_gamma   60.12422835
_symmetry_Int_Tables_number   1
_chemical_formula_structural   Hf13In3(Rh2N)4
_chemical_formula_sum   'Hf13 In3 Rh8 N4'
_cell_volume   461.18981918
_cell_formula_units_Z   1
loop_
 _symmetry_equiv_pos_site_id
 _symmetry_equiv_pos_as_xyz
  1  'x, y, z'
loop_
 _atom_site_type_symbol
 _atom_site_label
 _atom_site_symmetry_multiplicity
 _atom_site_fract_x
 _atom_site_fract_y
 _atom_site_fract_z
 _atom_site_occupancy
  Hf  Hf0  1  0.625000  0.625000  0.625000  1
  Hf  Hf1  1  0.813460  0.813460  0.183817  1
  Hf  Hf2  1  0.184012  0.184012  0.813615  1
  Hf  Hf3  1  0.813460  0.183817  0.813460  1
  Hf  Hf4  1  0.184012  0.813615  0.184012  1
  Hf  Hf5  1  0.183817  0.813460  0.813460  1
  Hf  Hf6  1  0.813615  0.184012  0.184012  1
  Hf  Hf7  1  0.436540  0.436540  0.066183  1
  Hf  Hf8  1  0.065988  0.065988  0.436385  1
  Hf  Hf9  1  0.436540  0.066183  0.436540  1
  Hf  Hf10  1  0.065988  0.436385  0.065988  1
  Hf  Hf11  1  0.066183  0.436540  0.436540  1
  Hf  Hf12  1  0.436385  0.065988  0.065988  1
  In  In13  1  0.125000  0.625000  0.625000  1
  In  In14  1  0.625000  0.125000  0.625000  1
  In  In15  1  0.625000  0.625000  0.125000  1
  Rh  Rh16  1  0.774042  0.412951  0.412951  1
  Rh  Rh17  1  0.412951  0.774042  0.412951  1
  Rh  Rh18  1  0.412951  0.412951  0.774042  1
  Rh  Rh19  1  0.408733  0.408733  0.408733  1
  Rh  Rh20  1  0.475958  0.837049  0.837049  1
  Rh  Rh21  1  0.837049  0.475958  0.837049  1
  Rh  Rh22  1  0.837049  0.837049  0.475958  1
  Rh  Rh23  1  0.841267  0.841267  0.841267  1
  N  N24  1  0.625000  0.125000  0.125000  1
  N  N25  1  0.125000  0.625000  0.125000  1
  N  N26  1  0.125000  0.125000  0.625000  1
  N  N27  1  0.125000  0.125000  0.125000  1
