# generated using pymatgen
data_Tb15Ho5(Ir3Rh)3
_symmetry_space_group_name_H-M   'P 1'
_cell_length_a   10.91379805
_cell_length_b   10.91403206
_cell_length_c   6.40162306
_cell_angle_alpha   90.01160956
_cell_angle_beta   89.98915317
_cell_angle_gamma   89.99848861
_symmetry_Int_Tables_number   1
_chemical_formula_structural   Tb15Ho5(Ir3Rh)3
_chemical_formula_sum   'Tb15 Ho5 Ir9 Rh3'
_cell_volume   762.51996641
_cell_formula_units_Z   1
loop_
 _symmetry_equiv_pos_site_id
 _symmetry_equiv_pos_as_xyz
  1  'x, y, z'
loop_
 _atom_site_type_symbol
 _atom_site_label
 _atom_site_symmetry_multiplicity
 _atom_site_fract_x
 _atom_site_fract_y
 _atom_site_fract_z
 _atom_site_occupancy
  Tb  Tb0  1  0.290027  0.088555  0.378708  1
  Tb  Tb1  1  0.290048  0.911332  0.878745  1
  Tb  Tb2  1  0.709983  0.088700  0.878766  1
  Tb  Tb3  1  0.709870  0.911589  0.378857  1
  Tb  Tb4  1  0.588696  0.790035  0.878725  1
  Tb  Tb5  1  0.588413  0.209868  0.378866  1
  Tb  Tb6  1  0.411579  0.790136  0.378846  1
  Tb  Tb7  1  0.411247  0.209979  0.878804  1
  Tb  Tb8  1  0.209166  0.411470  0.620266  1
  Tb  Tb9  1  0.209470  0.588393  0.122405  1
  Tb  Tb10  1  0.790626  0.411335  0.122439  1
  Tb  Tb11  1  0.790747  0.588385  0.620276  1
  Tb  Tb12  1  0.911409  0.709540  0.122440  1
  Tb  Tb13  1  0.911748  0.290719  0.620266  1
  Tb  Tb14  1  0.088383  0.709281  0.620306  1
  Ho  Ho15  1  0.088532  0.290754  0.122221  1
  Ho  Ho16  1  0.000015  0.000046  0.500212  1
  Ho  Ho17  1  0.000095  0.000218  0.000203  1
  Ho  Ho18  1  0.499988  0.499952  0.000118  1
  Ho  Ho19  1  0.499987  0.499997  0.500219  1
  Ir  Ir20  1  0.846372  0.152994  0.249591  1
  Ir  Ir21  1  0.846281  0.846847  0.749837  1
  Ir  Ir22  1  0.153592  0.153346  0.750480  1
  Ir  Ir23  1  0.153876  0.847119  0.249760  1
  Ir  Ir24  1  0.653137  0.346291  0.749845  1
  Ir  Ir25  1  0.652870  0.653878  0.249761  1
  Ir  Ir26  1  0.346779  0.346041  0.249584  1
  Ir  Ir27  1  0.346839  0.653711  0.749870  1
  Ir  Ir28  1  0.000124  0.499729  0.377280  1
  Rh  Rh29  1  0.499983  0.000018  0.121696  1
  Rh  Rh30  1  0.500012  0.999999  0.621847  1
  Rh  Rh31  1  0.000106  0.499742  0.878765  1
