# generated using pymatgen
data_ErPa(Ni7B2)3
_symmetry_space_group_name_H-M   'P 1'
_cell_length_a   7.55680037
_cell_length_b   7.55481723
_cell_length_c   7.55554202
_cell_angle_alpha   59.98942580
_cell_angle_beta   60.00328184
_cell_angle_gamma   59.99480088
_symmetry_Int_Tables_number   1
_chemical_formula_structural   ErPa(Ni7B2)3
_chemical_formula_sum   'Er1 Pa1 Ni21 B6'
_cell_volume   304.98011458
_cell_formula_units_Z   1
loop_
 _symmetry_equiv_pos_site_id
 _symmetry_equiv_pos_as_xyz
  1  'x, y, z'
loop_
 _atom_site_type_symbol
 _atom_site_label
 _atom_site_symmetry_multiplicity
 _atom_site_fract_x
 _atom_site_fract_y
 _atom_site_fract_z
 _atom_site_occupancy
  Er  Er0  1  0.749996  0.750068  0.750069  1
  Pa  Pa1  1  0.249956  0.250032  0.250032  1
  Ni  Ni2  1  0.337372  0.000586  0.661463  1
  Ni  Ni3  1  0.843045  0.385669  0.385640  1
  Ni  Ni4  1  0.611217  0.611239  0.611242  1
  Ni  Ni5  1  0.000596  0.337279  0.000595  1
  Ni  Ni6  1  0.337310  0.000591  0.000598  1
  Ni  Ni7  1  0.000596  0.337308  0.661508  1
  Ni  Ni8  1  0.661487  0.000636  0.337282  1
  Ni  Ni9  1  0.000593  0.000617  0.337263  1
  Ni  Ni10  1  0.337367  0.661475  0.000568  1
  Ni  Ni11  1  0.661506  0.337306  0.000629  1
  Ni  Ni12  1  0.000605  0.661487  0.337288  1
  Ni  Ni13  1  0.000597  0.000589  0.661439  1
  Ni  Ni14  1  0.166424  0.611179  0.611217  1
  Ni  Ni15  1  0.661442  0.000584  0.000634  1
  Ni  Ni16  1  0.000599  0.661436  0.000569  1
  Ni  Ni17  1  0.000013  0.999946  0.999942  1
  Ni  Ni18  1  0.385641  0.385640  0.385640  1
  Ni  Ni19  1  0.385670  0.843027  0.385653  1
  Ni  Ni20  1  0.611167  0.611173  0.166461  1
  Ni  Ni21  1  0.611144  0.166488  0.611186  1
  Ni  Ni22  1  0.385647  0.385644  0.843074  1
  B  B23  1  0.731616  0.268386  0.731591  1
  B  B24  1  0.268419  0.268396  0.731569  1
  B  B25  1  0.731629  0.731591  0.268367  1
  B  B26  1  0.731553  0.268442  0.268426  1
  B  B27  1  0.268352  0.731639  0.731654  1
  B  B28  1  0.268441  0.731545  0.268402  1
