# generated using pymatgen
data_KBaHf2(NiAs)4
_symmetry_space_group_name_H-M   'P 1'
_cell_length_a   4.00175000
_cell_length_b   8.21125201
_cell_length_c   7.14679660
_cell_angle_alpha   92.38185963
_cell_angle_beta   90.00000000
_cell_angle_gamma   90.00000000
_symmetry_Int_Tables_number   1
_chemical_formula_structural   KBaHf2(NiAs)4
_chemical_formula_sum   'K1 Ba1 Hf2 Ni4 As4'
_cell_volume   234.63639663
_cell_formula_units_Z   1
loop_
 _symmetry_equiv_pos_site_id
 _symmetry_equiv_pos_as_xyz
  1  'x, y, z'
loop_
 _atom_site_type_symbol
 _atom_site_label
 _atom_site_symmetry_multiplicity
 _atom_site_fract_x
 _atom_site_fract_y
 _atom_site_fract_z
 _atom_site_occupancy
  K  K0  1  0.250000  0.498837  0.242989  1
  Ba  Ba1  1  0.750000  0.501248  0.765684  1
  Hf  Hf2  1  0.750000  0.010495  0.706734  1
  Hf  Hf3  1  0.250000  0.989154  0.290469  1
  Ni  Ni4  1  0.250000  0.896186  0.930466  1
  Ni  Ni5  1  0.750000  0.102303  0.063749  1
  Ni  Ni6  1  0.750000  0.797800  0.421754  1
  Ni  Ni7  1  0.250000  0.203932  0.578469  1
  As  As8  1  0.250000  0.778215  0.599186  1
  As  As9  1  0.750000  0.218508  0.398413  1
  As  As10  1  0.750000  0.799554  0.089828  1
  As  As11  1  0.250000  0.203768  0.912257  1
