# generated using pymatgen
data_Tb5Pr3CdInIr2
_symmetry_space_group_name_H-M   'P 1'
_cell_length_a   9.81434157
_cell_length_b   9.81434139
_cell_length_c   9.78661600
_cell_angle_alpha   60.09340593
_cell_angle_beta   60.09340651
_cell_angle_gamma   60.15513902
_symmetry_Int_Tables_number   1
_chemical_formula_structural   Tb5Pr3CdInIr2
_chemical_formula_sum   'Tb10 Pr6 Cd2 In2 Ir4'
_cell_volume   668.28180412
_cell_formula_units_Z   2
loop_
 _symmetry_equiv_pos_site_id
 _symmetry_equiv_pos_as_xyz
  1  'x, y, z'
loop_
 _atom_site_type_symbol
 _atom_site_label
 _atom_site_symmetry_multiplicity
 _atom_site_fract_x
 _atom_site_fract_y
 _atom_site_fract_z
 _atom_site_occupancy
  Tb  Tb0  1  0.347427  0.347427  0.345955  1
  Tb  Tb1  1  0.347427  0.347427  0.959190  1
  Tb  Tb2  1  0.348418  0.957133  0.347224  1
  Tb  Tb3  1  0.957133  0.348418  0.347224  1
  Tb  Tb4  1  0.810741  0.187861  0.189320  1
  Tb  Tb5  1  0.187861  0.810741  0.812079  1
  Tb  Tb6  1  0.187861  0.810741  0.189320  1
  Tb  Tb7  1  0.810741  0.187861  0.812079  1
  Tb  Tb8  1  0.186347  0.186347  0.813653  1
  Tb  Tb9  1  0.809602  0.809602  0.190398  1
  Pr  Pr10  1  0.943186  0.558788  0.558322  1
  Pr  Pr11  1  0.558788  0.943186  0.939704  1
  Pr  Pr12  1  0.558788  0.943186  0.558322  1
  Pr  Pr13  1  0.943186  0.558788  0.939704  1
  Pr  Pr14  1  0.558982  0.558982  0.941018  1
  Pr  Pr15  1  0.941554  0.941554  0.558446  1
  Cd  Cd16  1  0.578062  0.262553  0.579691  1
  Cd  Cd17  1  0.262553  0.578062  0.579691  1
  In  In18  1  0.579521  0.579521  0.580788  1
  In  In19  1  0.579521  0.579521  0.260168  1
  Ir  Ir20  1  0.141706  0.141706  0.140531  1
  Ir  Ir21  1  0.141706  0.141706  0.576056  1
  Ir  Ir22  1  0.142178  0.576708  0.140557  1
  Ir  Ir23  1  0.576708  0.142178  0.140557  1
