# generated using pymatgen
data_Hf12Al7Co4SiC4
_symmetry_space_group_name_H-M   'P 1'
_cell_length_a   8.45425469
_cell_length_b   8.45431094
_cell_length_c   8.45427305
_cell_angle_alpha   60.04226708
_cell_angle_beta   60.04214948
_cell_angle_gamma   60.04218509
_symmetry_Int_Tables_number   1
_chemical_formula_structural   Hf12Al7Co4SiC4
_chemical_formula_sum   'Hf12 Al7 Co4 Si1 C4'
_cell_volume   427.69092591
_cell_formula_units_Z   1
loop_
 _symmetry_equiv_pos_site_id
 _symmetry_equiv_pos_as_xyz
  1  'x, y, z'
loop_
 _atom_site_type_symbol
 _atom_site_label
 _atom_site_symmetry_multiplicity
 _atom_site_fract_x
 _atom_site_fract_y
 _atom_site_fract_z
 _atom_site_occupancy
  Hf  Hf0  1  0.552703  0.946618  0.552703  1
  Hf  Hf1  1  0.301535  0.699131  0.699139  1
  Hf  Hf2  1  0.698122  0.301850  0.301849  1
  Hf  Hf3  1  0.301844  0.698122  0.301845  1
  Hf  Hf4  1  0.699138  0.699130  0.301536  1
  Hf  Hf5  1  0.301850  0.301850  0.698122  1
  Hf  Hf6  1  0.552697  0.552707  0.946620  1
  Hf  Hf7  1  0.946621  0.552707  0.552696  1
  Hf  Hf8  1  0.556503  0.947512  0.947512  1
  Hf  Hf9  1  0.947512  0.947512  0.556503  1
  Hf  Hf10  1  0.699132  0.301540  0.699131  1
  Hf  Hf11  1  0.947518  0.556504  0.947517  1
  Al  Al12  1  0.011754  0.329153  0.329173  1
  Al  Al13  1  0.329167  0.011740  0.329171  1
  Al  Al14  1  0.329171  0.329154  0.011754  1
  Al  Al15  1  0.920929  0.237917  0.920923  1
  Al  Al16  1  0.920926  0.920940  0.237901  1
  Al  Al17  1  0.237900  0.920942  0.920923  1
  Al  Al18  1  0.329018  0.329001  0.329027  1
  Co  Co19  1  0.124580  0.124581  0.124580  1
  Co  Co20  1  0.629889  0.120817  0.120815  1
  Co  Co21  1  0.120819  0.629883  0.120819  1
  Co  Co22  1  0.120815  0.120817  0.629889  1
  Si  Si23  1  0.919683  0.919702  0.919679  1
  C  C24  1  0.624795  0.624795  0.624795  1
  C  C25  1  0.125517  0.624930  0.624931  1
  C  C26  1  0.624930  0.125517  0.624929  1
  C  C27  1  0.624930  0.624931  0.125517  1
