# generated using pymatgen
data_Sc6Pa5NbTc12
_symmetry_space_group_name_H-M   'P 1'
_cell_length_a   4.67434800
_cell_length_b   6.65382700
_cell_length_c   14.04992700
_cell_angle_alpha   90.00023882
_cell_angle_beta   89.99941630
_cell_angle_gamma   90.00015104
_symmetry_Int_Tables_number   1
_chemical_formula_structural   Sc6Pa5NbTc12
_chemical_formula_sum   'Sc6 Pa5 Nb1 Tc12'
_cell_volume   436.98508568
_cell_formula_units_Z   1
loop_
 _symmetry_equiv_pos_site_id
 _symmetry_equiv_pos_as_xyz
  1  'x, y, z'
loop_
 _atom_site_type_symbol
 _atom_site_label
 _atom_site_symmetry_multiplicity
 _atom_site_fract_x
 _atom_site_fract_y
 _atom_site_fract_z
 _atom_site_occupancy
  Sc  Sc0  1  0.000023  0.000001  0.992827  1
  Sc  Sc1  1  0.499981  0.499993  0.166059  1
  Sc  Sc2  1  0.999971  0.000009  0.333348  1
  Sc  Sc3  1  0.500005  0.499993  0.500607  1
  Sc  Sc4  1  0.000034  0.000000  0.673815  1
  Sc  Sc5  1  0.500011  0.499998  0.833345  1
  Pa  Pa6  1  0.999984  0.499997  0.996131  1
  Pa  Pa7  1  0.499993  0.000001  0.162138  1
  Pa  Pa8  1  0.999979  0.499998  0.333332  1
  Pa  Pa9  1  0.499993  0.999999  0.504512  1
  Pa  Pa10  1  0.000014  0.500004  0.670542  1
  Nb  Nb11  1  0.500034  0.000002  0.833341  1
  Tc  Tc12  1  0.500006  0.247812  0.998425  1
  Tc  Tc13  1  0.500010  0.752184  0.998427  1
  Tc  Tc14  1  0.999977  0.250500  0.166129  1
  Tc  Tc15  1  0.999978  0.749499  0.166131  1
  Tc  Tc16  1  0.499962  0.249187  0.333326  1
  Tc  Tc17  1  0.499959  0.750816  0.333327  1
  Tc  Tc18  1  0.000005  0.250454  0.500521  1
  Tc  Tc19  1  0.000008  0.749545  0.500521  1
  Tc  Tc20  1  0.500028  0.247809  0.668247  1
  Tc  Tc21  1  0.500030  0.752193  0.668248  1
  Tc  Tc22  1  0.000009  0.248855  0.833353  1
  Tc  Tc23  1  0.000004  0.751143  0.833351  1
