# generated using pymatgen
data_TbSc2GaNi8
_symmetry_space_group_name_H-M   'P 1'
_cell_length_a   4.87365799
_cell_length_b   4.95105270
_cell_length_c   8.50707684
_cell_angle_alpha   73.08239109
_cell_angle_beta   72.60869244
_cell_angle_gamma   59.47328469
_symmetry_Int_Tables_number   1
_chemical_formula_structural   TbSc2GaNi8
_chemical_formula_sum   'Tb1 Sc2 Ga1 Ni8'
_cell_volume   166.30172624
_cell_formula_units_Z   1
loop_
 _symmetry_equiv_pos_site_id
 _symmetry_equiv_pos_as_xyz
  1  'x, y, z'
loop_
 _atom_site_type_symbol
 _atom_site_label
 _atom_site_symmetry_multiplicity
 _atom_site_fract_x
 _atom_site_fract_y
 _atom_site_fract_z
 _atom_site_occupancy
  Tb  Tb0  1  0.000575  0.998988  0.001448  1
  Sc  Sc1  1  0.142168  0.145521  0.566792  1
  Sc  Sc2  1  0.857674  0.862921  0.416482  1
  Ga  Ga3  1  0.083493  0.581081  0.754345  1
  Ni  Ni4  1  0.590855  0.585628  0.744418  1
  Ni  Ni5  1  0.590855  0.079097  0.744418  1
  Ni  Ni6  1  0.916617  0.414140  0.255103  1
  Ni  Ni7  1  0.412018  0.414529  0.254792  1
  Ni  Ni8  1  0.412018  0.918662  0.254792  1
  Ni  Ni9  1  0.338364  0.328944  0.003748  1
  Ni  Ni10  1  0.660003  0.667555  0.004888  1
  Ni  Ni11  1  0.495360  0.502934  0.498773  1
