# generated using pymatgen
data_Dy5FeBi2
_symmetry_space_group_name_H-M   'P 1'
_cell_length_a   8.00222024
_cell_length_b   8.92408400
_cell_length_c   12.44832046
_cell_angle_alpha   90.00000000
_cell_angle_beta   89.99627024
_cell_angle_gamma   90.00000000
_symmetry_Int_Tables_number   1
_chemical_formula_structural   Dy5FeBi2
_chemical_formula_sum   'Dy20 Fe4 Bi8'
_cell_volume   888.96550387
_cell_formula_units_Z   4
loop_
 _symmetry_equiv_pos_site_id
 _symmetry_equiv_pos_as_xyz
  1  'x, y, z'
loop_
 _atom_site_type_symbol
 _atom_site_label
 _atom_site_symmetry_multiplicity
 _atom_site_fract_x
 _atom_site_fract_y
 _atom_site_fract_z
 _atom_site_occupancy
  Dy  Dy0  1  0.653568  0.750000  0.699878  1
  Dy  Dy1  1  0.346432  0.250000  0.300122  1
  Dy  Dy2  1  0.153026  0.250000  0.800963  1
  Dy  Dy3  1  0.846974  0.750000  0.199037  1
  Dy  Dy4  1  0.118679  0.750000  0.813749  1
  Dy  Dy5  1  0.881321  0.250000  0.186251  1
  Dy  Dy6  1  0.618489  0.250000  0.686247  1
  Dy  Dy7  1  0.381511  0.750000  0.313753  1
  Dy  Dy8  1  0.554043  0.750000  0.995472  1
  Dy  Dy9  1  0.445957  0.250000  0.004528  1
  Dy  Dy10  1  0.054142  0.250000  0.504185  1
  Dy  Dy11  1  0.945858  0.750000  0.495815  1
  Dy  Dy12  1  0.826501  0.464897  0.936219  1
  Dy  Dy13  1  0.173499  0.535103  0.063781  1
  Dy  Dy14  1  0.326628  0.534931  0.563679  1
  Dy  Dy15  1  0.173499  0.964897  0.063781  1
  Dy  Dy16  1  0.673372  0.465069  0.436321  1
  Dy  Dy17  1  0.826501  0.035103  0.936219  1
  Dy  Dy18  1  0.673372  0.034931  0.436321  1
  Dy  Dy19  1  0.326628  0.965069  0.563679  1
  Fe  Fe20  1  0.931940  0.750000  0.991649  1
  Fe  Fe21  1  0.068060  0.250000  0.008351  1
  Fe  Fe22  1  0.431952  0.250000  0.507776  1
  Fe  Fe23  1  0.568048  0.750000  0.492224  1
  Bi  Bi24  1  0.931726  0.006779  0.673422  1
  Bi  Bi25  1  0.068274  0.993221  0.326578  1
  Bi  Bi26  1  0.431259  0.993536  0.826534  1
  Bi  Bi27  1  0.068274  0.506779  0.326578  1
  Bi  Bi28  1  0.568741  0.006464  0.173466  1
  Bi  Bi29  1  0.931726  0.493221  0.673422  1
  Bi  Bi30  1  0.568741  0.493536  0.173466  1
  Bi  Bi31  1  0.431259  0.506464  0.826534  1
