# generated using pymatgen
data_HoAlWO6
_symmetry_space_group_name_H-M   'P 1'
_cell_length_a   5.17163900
_cell_length_b   7.28572500
_cell_length_c   10.82168200
_cell_angle_alpha   90.00000000
_cell_angle_beta   90.00000000
_cell_angle_gamma   90.00000000
_symmetry_Int_Tables_number   1
_chemical_formula_structural   HoAlWO6
_chemical_formula_sum   'Ho4 Al4 W4 O24'
_cell_volume   407.75166628
_cell_formula_units_Z   4
loop_
 _symmetry_equiv_pos_site_id
 _symmetry_equiv_pos_as_xyz
  1  'x, y, z'
loop_
 _atom_site_type_symbol
 _atom_site_label
 _atom_site_symmetry_multiplicity
 _atom_site_fract_x
 _atom_site_fract_y
 _atom_site_fract_z
 _atom_site_occupancy
  Ho  Ho0  1  0.546437  0.251683  0.044570  1
  Ho  Ho1  1  0.046436  0.751683  0.455431  1
  Ho  Ho2  1  0.953564  0.251683  0.544570  1
  Ho  Ho3  1  0.453563  0.751683  0.955430  1
  Al  Al4  1  0.045568  0.997338  0.136136  1
  Al  Al5  1  0.545568  0.497338  0.363864  1
  Al  Al6  1  0.454431  0.997338  0.636137  1
  Al  Al7  1  0.954432  0.497338  0.863863  1
  W  W8  1  0.053263  0.506369  0.144463  1
  W  W9  1  0.553263  0.006368  0.355536  1
  W  W10  1  0.446736  0.506369  0.644463  1
  W  W11  1  0.946737  0.006368  0.855537  1
  O  O12  1  0.761134  0.961386  0.024162  1
  O  O13  1  0.764950  0.543199  0.023981  1
  O  O14  1  0.167789  0.755555  0.119633  1
  O  O15  1  0.942547  0.250643  0.143852  1
  O  O16  1  0.379649  0.439584  0.212999  1
  O  O17  1  0.370805  0.064344  0.211629  1
  O  O18  1  0.870806  0.564344  0.288371  1
  O  O19  1  0.879650  0.939584  0.287001  1
  O  O20  1  0.442547  0.750644  0.356148  1
  O  O21  1  0.667790  0.255555  0.380368  1
  O  O22  1  0.264949  0.043199  0.476019  1
  O  O23  1  0.261135  0.461386  0.475838  1
  O  O24  1  0.738866  0.961386  0.524162  1
  O  O25  1  0.735051  0.543199  0.523981  1
  O  O26  1  0.332212  0.755555  0.619633  1
  O  O27  1  0.557453  0.250643  0.643853  1
  O  O28  1  0.120350  0.439584  0.712999  1
  O  O29  1  0.129194  0.064344  0.711630  1
  O  O30  1  0.629195  0.564344  0.788370  1
  O  O31  1  0.620351  0.939584  0.787001  1
  O  O32  1  0.057452  0.750644  0.856147  1
  O  O33  1  0.832211  0.255555  0.880368  1
  O  O34  1  0.235052  0.043199  0.976019  1
  O  O35  1  0.238866  0.461386  0.975838  1
