# generated using pymatgen
data_TmLu3(ZnIr)4
_symmetry_space_group_name_H-M   'P 1'
_cell_length_a   3.94733000
_cell_length_b   6.95846938
_cell_length_c   8.08799653
_cell_angle_alpha   89.90172821
_cell_angle_beta   90.00000000
_cell_angle_gamma   90.00000000
_symmetry_Int_Tables_number   1
_chemical_formula_structural   TmLu3(ZnIr)4
_chemical_formula_sum   'Tm1 Lu3 Zn4 Ir4'
_cell_volume   222.15570628
_cell_formula_units_Z   1
loop_
 _symmetry_equiv_pos_site_id
 _symmetry_equiv_pos_as_xyz
  1  'x, y, z'
loop_
 _atom_site_type_symbol
 _atom_site_label
 _atom_site_symmetry_multiplicity
 _atom_site_fract_x
 _atom_site_fract_y
 _atom_site_fract_z
 _atom_site_occupancy
  Tm  Tm0  1  0.250000  0.044711  0.680659  1
  Lu  Lu1  1  0.750000  0.455172  0.180401  1
  Lu  Lu2  1  0.750000  0.954896  0.319068  1
  Lu  Lu3  1  0.250000  0.545181  0.820076  1
  Zn  Zn4  1  0.750000  0.868401  0.935308  1
  Zn  Zn5  1  0.750000  0.368956  0.564681  1
  Zn  Zn6  1  0.250000  0.131210  0.065181  1
  Zn  Zn7  1  0.250000  0.631079  0.434806  1
  Ir  Ir8  1  0.750000  0.251154  0.876481  1
  Ir  Ir9  1  0.750000  0.748391  0.624172  1
  Ir  Ir10  1  0.250000  0.750309  0.124471  1
  Ir  Ir11  1  0.250000  0.250538  0.374696  1
