# generated using pymatgen
data_NdTh3(B10Ir)2
_symmetry_space_group_name_H-M   'P 1'
_cell_length_a   4.21285800
_cell_length_b   5.73721305
_cell_length_c   11.47066609
_cell_angle_alpha   89.98535712
_cell_angle_beta   90.00000000
_cell_angle_gamma   90.00000000
_symmetry_Int_Tables_number   1
_chemical_formula_structural   NdTh3(B10Ir)2
_chemical_formula_sum   'Nd1 Th3 B20 Ir2'
_cell_volume   277.24672320
_cell_formula_units_Z   1
loop_
 _symmetry_equiv_pos_site_id
 _symmetry_equiv_pos_as_xyz
  1  'x, y, z'
loop_
 _atom_site_type_symbol
 _atom_site_label
 _atom_site_symmetry_multiplicity
 _atom_site_fract_x
 _atom_site_fract_y
 _atom_site_fract_z
 _atom_site_occupancy
  Nd  Nd0  1  0.500000  0.202790  0.363813  1
  Th  Th1  1  0.500000  0.295853  0.864145  1
  Th  Th2  1  0.500000  0.703490  0.135121  1
  Th  Th3  1  0.500000  0.794060  0.635029  1
  B  B4  1  0.000000  0.118458  0.543494  1
  B  B5  1  0.000000  0.882379  0.456682  1
  B  B6  1  0.000000  0.617609  0.956856  1
  B  B7  1  0.000000  0.382193  0.043106  1
  B  B8  1  0.000000  0.136332  0.697275  1
  B  B9  1  0.000000  0.862102  0.302456  1
  B  B10  1  0.301974  0.217896  0.119349  1
  B  B11  1  0.302217  0.782539  0.880689  1
  B  B12  1  0.698568  0.718671  0.381182  1
  B  B13  1  0.698612  0.282715  0.619193  1
  B  B14  1  0.697783  0.782539  0.880689  1
  B  B15  1  0.698026  0.217896  0.119349  1
  B  B16  1  0.301388  0.282715  0.619193  1
  B  B17  1  0.301432  0.718671  0.381182  1
  B  B18  1  0.000000  0.054143  0.192898  1
  B  B19  1  0.000000  0.945277  0.806532  1
  B  B20  1  0.000000  0.554752  0.307335  1
  B  B21  1  0.000000  0.445343  0.693373  1
  B  B22  1  0.000000  0.363572  0.197167  1
  B  B23  1  0.000000  0.636342  0.802752  1
  Ir  Ir24  1  0.000000  0.502117  0.500781  1
  Ir  Ir25  1  0.000000  0.999545  0.000359  1
