# generated using pymatgen
data_TbZn2CdPt2
_symmetry_space_group_name_H-M   'P 1'
_cell_length_a   5.23717772
_cell_length_b   5.31064030
_cell_length_c   5.31064001
_cell_angle_alpha   63.21931008
_cell_angle_beta   60.45655929
_cell_angle_gamma   60.45654461
_symmetry_Int_Tables_number   1
_chemical_formula_structural   TbZn2CdPt2
_chemical_formula_sum   'Tb1 Zn2 Cd1 Pt2'
_cell_volume   107.51124136
_cell_formula_units_Z   1
loop_
 _symmetry_equiv_pos_site_id
 _symmetry_equiv_pos_as_xyz
  1  'x, y, z'
loop_
 _atom_site_type_symbol
 _atom_site_label
 _atom_site_symmetry_multiplicity
 _atom_site_fract_x
 _atom_site_fract_y
 _atom_site_fract_z
 _atom_site_occupancy
  Tb  Tb0  1  0.256876  0.243124  0.243124  1
  Zn  Zn1  1  0.121250  0.628986  0.628986  1
  Zn  Zn2  1  0.620778  0.628986  0.628986  1
  Cd  Cd3  1  0.003835  0.996165  0.996165  1
  Pt  Pt4  1  0.623632  0.626887  0.125849  1
  Pt  Pt5  1  0.623632  0.125849  0.626887  1
