# generated using pymatgen
data_Tm4BiC2Se
_symmetry_space_group_name_H-M   'P 1'
_cell_length_a   3.66133400
_cell_length_b   3.66133464
_cell_length_c   14.21007000
_cell_angle_alpha   90.00000000
_cell_angle_beta   90.00000000
_cell_angle_gamma   119.99999418
_symmetry_Int_Tables_number   1
_chemical_formula_structural   Tm4BiC2Se
_chemical_formula_sum   'Tm4 Bi1 C2 Se1'
_cell_volume   164.97025591
_cell_formula_units_Z   1
loop_
 _symmetry_equiv_pos_site_id
 _symmetry_equiv_pos_as_xyz
  1  'x, y, z'
loop_
 _atom_site_type_symbol
 _atom_site_label
 _atom_site_symmetry_multiplicity
 _atom_site_fract_x
 _atom_site_fract_y
 _atom_site_fract_z
 _atom_site_occupancy
  Tm  Tm0  1  0.666666  0.333333  0.069394  1
  Tm  Tm1  1  0.666666  0.333333  0.430606  1
  Tm  Tm2  1  0.333333  0.666667  0.611957  1
  Tm  Tm3  1  0.333333  0.666667  0.888043  1
  Bi  Bi4  1  0.333333  0.666667  0.250000  1
  C  C5  1  0.000000  0.000000  0.982052  1
  C  C6  1  0.000000  0.000000  0.517948  1
  Se  Se7  1  0.666666  0.333333  0.750000  1
