# generated using pymatgen
data_DyPbF7
_symmetry_space_group_name_H-M   'P 1'
_cell_length_a   5.81242000
_cell_length_b   6.16128861
_cell_length_c   8.40295223
_cell_angle_alpha   102.83206925
_cell_angle_beta   90.00000000
_cell_angle_gamma   90.00000000
_symmetry_Int_Tables_number   1
_chemical_formula_structural   DyPbF7
_chemical_formula_sum   'Dy2 Pb2 F14'
_cell_volume   293.41092122
_cell_formula_units_Z   2
loop_
 _symmetry_equiv_pos_site_id
 _symmetry_equiv_pos_as_xyz
  1  'x, y, z'
loop_
 _atom_site_type_symbol
 _atom_site_label
 _atom_site_symmetry_multiplicity
 _atom_site_fract_x
 _atom_site_fract_y
 _atom_site_fract_z
 _atom_site_occupancy
  Dy  Dy0  1  0.696936  0.653017  0.683587  1
  Dy  Dy1  1  0.196936  0.346983  0.316413  1
  Pb  Pb2  1  0.706912  0.811309  0.226443  1
  Pb  Pb3  1  0.206912  0.188691  0.773557  1
  F  F4  1  0.898930  0.463481  0.479991  1
  F  F5  1  0.398930  0.536519  0.520009  1
  F  F6  1  0.430491  0.919307  0.769276  1
  F  F7  1  0.930491  0.080693  0.230724  1
  F  F8  1  0.942111  0.948882  0.759078  1
  F  F9  1  0.442111  0.051118  0.240922  1
  F  F10  1  0.989306  0.465503  0.792001  1
  F  F11  1  0.489306  0.534497  0.207999  1
  F  F12  1  0.697749  0.757616  0.973314  1
  F  F13  1  0.197749  0.242384  0.026686  1
  F  F14  1  0.704234  0.871454  0.481702  1
  F  F15  1  0.204234  0.128546  0.518298  1
  F  F16  1  0.509693  0.383369  0.783194  1
  F  F17  1  0.009693  0.616631  0.216806  1
