# generated using pymatgen
data_Pr2Al20ReOsRh2
_symmetry_space_group_name_H-M   'P 1'
_cell_length_a   6.91514613
_cell_length_b   6.91041488
_cell_length_c   9.23386158
_cell_angle_alpha   90.53122103
_cell_angle_beta   90.41226627
_cell_angle_gamma   96.93453615
_symmetry_Int_Tables_number   1
_chemical_formula_structural   Pr2Al20ReOsRh2
_chemical_formula_sum   'Pr2 Al20 Re1 Os1 Rh2'
_cell_volume   437.99211222
_cell_formula_units_Z   1
loop_
 _symmetry_equiv_pos_site_id
 _symmetry_equiv_pos_as_xyz
  1  'x, y, z'
loop_
 _atom_site_type_symbol
 _atom_site_label
 _atom_site_symmetry_multiplicity
 _atom_site_fract_x
 _atom_site_fract_y
 _atom_site_fract_z
 _atom_site_occupancy
  Pr  Pr0  1  0.875262  0.127640  0.750525  1
  Pr  Pr1  1  0.124738  0.872360  0.249475  1
  Al  Al2  1  0.619918  0.377435  0.549749  1
  Al  Al3  1  0.380082  0.622565  0.450251  1
  Al  Al4  1  0.377280  0.619569  0.049422  1
  Al  Al5  1  0.622720  0.380431  0.950578  1
  Al  Al6  1  0.225436  0.225296  0.500518  1
  Al  Al7  1  0.774564  0.774704  0.499482  1
  Al  Al8  1  0.773993  0.774538  0.999337  1
  Al  Al9  1  0.226007  0.225462  0.000663  1
  Al  Al10  1  0.840993  0.160281  0.102558  1
  Al  Al11  1  0.159007  0.839719  0.897442  1
  Al  Al12  1  0.161031  0.841393  0.602946  1
  Al  Al13  1  0.838969  0.158607  0.397054  1
  Al  Al14  1  0.857183  0.590444  0.749418  1
  Al  Al15  1  0.142817  0.409556  0.250582  1
  Al  Al16  1  0.409448  0.141917  0.750228  1
  Al  Al17  1  0.590552  0.858083  0.249772  1
  Al  Al18  1  0.221692  0.482522  0.753468  1
  Al  Al19  1  0.778308  0.517478  0.246532  1
  Al  Al20  1  0.517703  0.778777  0.745648  1
  Al  Al21  1  0.482297  0.221223  0.254352  1
  Re  Re22  1  0.000000  0.500000  0.000000  1
  Os  Os23  1  0.500000  0.000000  0.500000  1
  Rh  Rh24  1  0.000000  0.500000  0.500000  1
  Rh  Rh25  1  0.500000  0.000000  0.000000  1
