# generated using pymatgen
data_LaP12IrRu3
_symmetry_space_group_name_H-M   'P 1'
_cell_length_a   7.03792059
_cell_length_b   7.02645060
_cell_length_c   7.02645017
_cell_angle_alpha   109.43812834
_cell_angle_beta   109.50429853
_cell_angle_gamma   109.50429163
_symmetry_Int_Tables_number   1
_chemical_formula_structural   LaP12IrRu3
_chemical_formula_sum   'La1 P12 Ir1 Ru3'
_cell_volume   267.37265724
_cell_formula_units_Z   1
loop_
 _symmetry_equiv_pos_site_id
 _symmetry_equiv_pos_as_xyz
  1  'x, y, z'
loop_
 _atom_site_type_symbol
 _atom_site_label
 _atom_site_symmetry_multiplicity
 _atom_site_fract_x
 _atom_site_fract_y
 _atom_site_fract_z
 _atom_site_occupancy
  La  La0  1  0.000000  0.000000  0.000000  1
  P  P1  1  0.140478  0.785845  0.640612  1
  P  P2  1  0.144166  0.500124  0.356401  1
  P  P3  1  0.855834  0.499876  0.643599  1
  P  P4  1  0.355958  0.143723  0.500124  1
  P  P5  1  0.787767  0.643599  0.143723  1
  P  P6  1  0.859522  0.214155  0.359388  1
  P  P7  1  0.645366  0.145232  0.785845  1
  P  P8  1  0.500133  0.640612  0.854768  1
  P  P9  1  0.644042  0.856277  0.499876  1
  P  P10  1  0.499867  0.359388  0.145232  1
  P  P11  1  0.354634  0.854768  0.214155  1
  P  P12  1  0.212233  0.356401  0.856277  1
  Ir  Ir13  1  0.500000  0.000000  0.000000  1
  Ru  Ru14  1  0.500000  0.500000  0.500000  1
  Ru  Ru15  1  0.000000  0.500000  0.000000  1
  Ru  Ru16  1  0.000000  0.000000  0.500000  1
