# generated using pymatgen
data_Ho7Cd(Sn11Os3)2
_symmetry_space_group_name_H-M   'P 1'
_cell_length_a   9.81446100
_cell_length_b   9.81445977
_cell_length_c   10.16644000
_cell_angle_alpha   90.00000000
_cell_angle_beta   90.00000000
_cell_angle_gamma   119.99999402
_symmetry_Int_Tables_number   1
_chemical_formula_structural   Ho7Cd(Sn11Os3)2
_chemical_formula_sum   'Ho7 Cd1 Sn22 Os6'
_cell_volume   848.07139052
_cell_formula_units_Z   1
loop_
 _symmetry_equiv_pos_site_id
 _symmetry_equiv_pos_as_xyz
  1  'x, y, z'
loop_
 _atom_site_type_symbol
 _atom_site_label
 _atom_site_symmetry_multiplicity
 _atom_site_fract_x
 _atom_site_fract_y
 _atom_site_fract_z
 _atom_site_occupancy
  Ho  Ho0  1  0.000000  0.000000  0.000000  1
  Ho  Ho1  1  0.517215  0.482785  0.693640  1
  Ho  Ho2  1  0.517215  0.034430  0.693640  1
  Ho  Ho3  1  0.965570  0.482785  0.693640  1
  Ho  Ho4  1  0.034430  0.517215  0.306360  1
  Ho  Ho5  1  0.482785  0.965570  0.306360  1
  Ho  Ho6  1  0.482785  0.517215  0.306360  1
  Cd  Cd7  1  0.000000  0.000000  0.500000  1
  Sn  Sn8  1  0.666667  0.333333  0.176824  1
  Sn  Sn9  1  0.666667  0.333333  0.873076  1
  Sn  Sn10  1  0.333333  0.666667  0.126924  1
  Sn  Sn11  1  0.349990  0.349990  0.000000  1
  Sn  Sn12  1  0.000000  0.650010  0.000000  1
  Sn  Sn13  1  0.650010  0.000000  0.000000  1
  Sn  Sn14  1  0.650010  0.650010  0.000000  1
  Sn  Sn15  1  0.333333  0.666667  0.823176  1
  Sn  Sn16  1  0.440552  0.220276  0.460344  1
  Sn  Sn17  1  0.220276  0.779724  0.539656  1
  Sn  Sn18  1  0.220276  0.440552  0.539656  1
  Sn  Sn19  1  0.559448  0.779724  0.539656  1
  Sn  Sn20  1  0.122319  0.877681  0.268477  1
  Sn  Sn21  1  0.779724  0.559448  0.460344  1
  Sn  Sn22  1  0.779724  0.220276  0.460344  1
  Sn  Sn23  1  0.349990  0.000000  0.000000  1
  Sn  Sn24  1  0.122319  0.244639  0.268477  1
  Sn  Sn25  1  0.755361  0.877681  0.268477  1
  Sn  Sn26  1  0.244639  0.122319  0.731523  1
  Sn  Sn27  1  0.877681  0.755361  0.731523  1
  Sn  Sn28  1  0.877681  0.122319  0.731523  1
  Sn  Sn29  1  0.000000  0.349990  0.000000  1
  Os  Os30  1  0.168938  0.831062  0.796704  1
  Os  Os31  1  0.168938  0.337876  0.796704  1
  Os  Os32  1  0.662124  0.831062  0.796704  1
  Os  Os33  1  0.337876  0.168938  0.203296  1
  Os  Os34  1  0.831062  0.662124  0.203296  1
  Os  Os35  1  0.831062  0.168938  0.203296  1
