# generated using pymatgen
data_Tm2ZrScPt2
_symmetry_space_group_name_H-M   'P 1'
_cell_length_a   4.66742500
_cell_length_b   6.96524200
_cell_length_c   8.28543400
_cell_angle_alpha   90.00000000
_cell_angle_beta   90.00000000
_cell_angle_gamma   90.00000000
_symmetry_Int_Tables_number   1
_chemical_formula_structural   Tm2ZrScPt2
_chemical_formula_sum   'Tm4 Zr2 Sc2 Pt4'
_cell_volume   269.35734359
_cell_formula_units_Z   2
loop_
 _symmetry_equiv_pos_site_id
 _symmetry_equiv_pos_as_xyz
  1  'x, y, z'
loop_
 _atom_site_type_symbol
 _atom_site_label
 _atom_site_symmetry_multiplicity
 _atom_site_fract_x
 _atom_site_fract_y
 _atom_site_fract_z
 _atom_site_occupancy
  Tm  Tm0  1  0.250000  0.982910  0.326459  1
  Tm  Tm1  1  0.250000  0.482910  0.173541  1
  Tm  Tm2  1  0.750000  0.014781  0.678551  1
  Tm  Tm3  1  0.750000  0.514781  0.821449  1
  Zr  Zr4  1  0.250000  0.857588  0.927330  1
  Zr  Zr5  1  0.250000  0.357588  0.572670  1
  Sc  Sc6  1  0.750000  0.145875  0.080033  1
  Sc  Sc7  1  0.750000  0.645875  0.419967  1
  Pt  Pt8  1  0.250000  0.241167  0.900244  1
  Pt  Pt9  1  0.250000  0.741167  0.599756  1
  Pt  Pt10  1  0.750000  0.757679  0.093147  1
  Pt  Pt11  1  0.750000  0.257679  0.406853  1
