# generated using pymatgen
data_NaPr(IO4)2
_symmetry_space_group_name_H-M   'P 1'
_cell_length_a   7.08595984
_cell_length_b   7.05149483
_cell_length_c   7.11542846
_cell_angle_alpha   89.36356506
_cell_angle_beta   88.31459932
_cell_angle_gamma   92.71722065
_symmetry_Int_Tables_number   1
_chemical_formula_structural   NaPr(IO4)2
_chemical_formula_sum   'Na2 Pr2 I4 O16'
_cell_volume   354.95263129
_cell_formula_units_Z   2
loop_
 _symmetry_equiv_pos_site_id
 _symmetry_equiv_pos_as_xyz
  1  'x, y, z'
loop_
 _atom_site_type_symbol
 _atom_site_label
 _atom_site_symmetry_multiplicity
 _atom_site_fract_x
 _atom_site_fract_y
 _atom_site_fract_z
 _atom_site_occupancy
  Na  Na0  1  0.059115  0.667184  0.164396  1
  Na  Na1  1  0.940885  0.332816  0.835604  1
  Pr  Pr2  1  0.346429  0.190726  0.181331  1
  Pr  Pr3  1  0.653570  0.809274  0.818669  1
  I  I4  1  0.856475  0.144853  0.292086  1
  I  I5  1  0.544349  0.664732  0.335563  1
  I  I6  1  0.455651  0.335268  0.664436  1
  I  I7  1  0.143526  0.855146  0.707915  1
  O  O8  1  0.691632  0.111186  0.097067  1
  O  O9  1  0.710371  0.686283  0.130824  1
  O  O10  1  0.000669  0.341101  0.183778  1
  O  O11  1  0.357588  0.538033  0.201802  1
  O  O12  1  0.045609  0.980878  0.243265  1
  O  O13  1  0.423044  0.889072  0.326339  1
  O  O14  1  0.609825  0.389785  0.408175  1
  O  O15  1  0.735550  0.759467  0.489962  1
  O  O16  1  0.264450  0.240533  0.510038  1
  O  O17  1  0.390174  0.610215  0.591824  1
  O  O18  1  0.576957  0.110929  0.673662  1
  O  O19  1  0.954391  0.019123  0.756734  1
  O  O20  1  0.642412  0.461967  0.798197  1
  O  O21  1  0.999330  0.658899  0.816223  1
  O  O22  1  0.289629  0.313715  0.869176  1
  O  O23  1  0.308368  0.888814  0.902933  1
