# generated using pymatgen
data_Na2Sm(P3Pd10)2
_symmetry_space_group_name_H-M   'P 1'
_cell_length_a   8.61244821
_cell_length_b   8.61244918
_cell_length_c   8.61244900
_cell_angle_alpha   60.00000454
_cell_angle_beta   60.00000081
_cell_angle_gamma   60.00000871
_symmetry_Int_Tables_number   1
_chemical_formula_structural   Na2Sm(P3Pd10)2
_chemical_formula_sum   'Na2 Sm1 P6 Pd20'
_cell_volume   451.71551473
_cell_formula_units_Z   1
loop_
 _symmetry_equiv_pos_site_id
 _symmetry_equiv_pos_as_xyz
  1  'x, y, z'
loop_
 _atom_site_type_symbol
 _atom_site_label
 _atom_site_symmetry_multiplicity
 _atom_site_fract_x
 _atom_site_fract_y
 _atom_site_fract_z
 _atom_site_occupancy
  Na  Na0  1  0.250000  0.250000  0.250000  1
  Na  Na1  1  0.000000  0.000000  0.000000  1
  Sm  Sm2  1  0.750000  0.750000  0.750000  1
  P  P3  1  0.737935  0.262065  0.262065  1
  P  P4  1  0.262065  0.737935  0.737935  1
  P  P5  1  0.262065  0.737935  0.262065  1
  P  P6  1  0.737935  0.262065  0.737935  1
  P  P7  1  0.262065  0.262065  0.737935  1
  P  P8  1  0.737935  0.737935  0.262065  1
  Pd  Pd9  1  0.384556  0.384556  0.384556  1
  Pd  Pd10  1  0.613629  0.613629  0.613629  1
  Pd  Pd11  1  0.384556  0.384556  0.846333  1
  Pd  Pd12  1  0.384556  0.846333  0.384556  1
  Pd  Pd13  1  0.613629  0.613629  0.159113  1
  Pd  Pd14  1  0.613629  0.159113  0.613629  1
  Pd  Pd15  1  0.846333  0.384556  0.384556  1
  Pd  Pd16  1  0.159113  0.613629  0.613629  1
  Pd  Pd17  1  0.346917  0.998288  0.998288  1
  Pd  Pd18  1  0.656506  0.998288  0.998288  1
  Pd  Pd19  1  0.998288  0.346917  0.656506  1
  Pd  Pd20  1  0.998288  0.656506  0.346917  1
  Pd  Pd21  1  0.998288  0.346917  0.998288  1
  Pd  Pd22  1  0.656506  0.998288  0.346917  1
  Pd  Pd23  1  0.998288  0.656506  0.998288  1
  Pd  Pd24  1  0.346917  0.998288  0.656506  1
  Pd  Pd25  1  0.998288  0.998288  0.346917  1
  Pd  Pd26  1  0.998288  0.998288  0.656506  1
  Pd  Pd27  1  0.656506  0.346917  0.998288  1
  Pd  Pd28  1  0.346917  0.656506  0.998288  1
