# generated using pymatgen
data_Nd4Al17Si(PtRh2)2
_symmetry_space_group_name_H-M   'P 1'
_cell_length_a   7.63325120
_cell_length_b   7.63325172
_cell_length_c   9.54342070
_cell_angle_alpha   89.97377230
_cell_angle_beta   89.97376082
_cell_angle_gamma   119.59168045
_symmetry_Int_Tables_number   1
_chemical_formula_structural   Nd4Al17Si(PtRh2)2
_chemical_formula_sum   'Nd4 Al17 Si1 Pt2 Rh4'
_cell_volume   483.53275513
_cell_formula_units_Z   1
loop_
 _symmetry_equiv_pos_site_id
 _symmetry_equiv_pos_as_xyz
  1  'x, y, z'
loop_
 _atom_site_type_symbol
 _atom_site_label
 _atom_site_symmetry_multiplicity
 _atom_site_fract_x
 _atom_site_fract_y
 _atom_site_fract_z
 _atom_site_occupancy
  Nd  Nd0  1  0.993666  0.672687  0.749937  1
  Nd  Nd1  1  0.004559  0.331423  0.250194  1
  Nd  Nd2  1  0.672687  0.993666  0.749937  1
  Nd  Nd3  1  0.331423  0.004559  0.250194  1
  Al  Al4  1  0.873510  0.873510  0.248604  1
  Al  Al5  1  0.003411  0.332333  0.576819  1
  Al  Al6  1  0.996864  0.669272  0.424686  1
  Al  Al7  1  0.998953  0.665648  0.072034  1
  Al  Al8  1  0.336271  0.001282  0.926763  1
  Al  Al9  1  0.001282  0.336271  0.926763  1
  Al  Al10  1  0.665648  0.998953  0.072034  1
  Al  Al11  1  0.669272  0.996864  0.424686  1
  Al  Al12  1  0.332333  0.003411  0.576819  1
  Al  Al13  1  0.333101  0.333101  0.050107  1
  Al  Al14  1  0.664903  0.664903  0.953684  1
  Al  Al15  1  0.666080  0.666080  0.552527  1
  Al  Al16  1  0.331941  0.331941  0.443062  1
  Al  Al17  1  0.336190  0.544707  0.754302  1
  Al  Al18  1  0.660340  0.454508  0.245827  1
  Al  Al19  1  0.544707  0.336190  0.754302  1
  Al  Al20  1  0.454508  0.660340  0.245827  1
  Si  Si21  1  0.130358  0.130358  0.750901  1
  Pt  Pt22  1  0.669999  0.327333  0.500869  1
  Pt  Pt23  1  0.327333  0.669999  0.500869  1
  Rh  Rh24  1  0.327848  0.669601  0.999377  1
  Rh  Rh25  1  0.669601  0.327848  0.999377  1
  Rh  Rh26  1  0.001613  0.001613  0.506782  1
  Rh  Rh27  1  0.001600  0.001600  0.992716  1
