# generated using pymatgen
data_Ce6YThF30
_symmetry_space_group_name_H-M   'P 1'
_cell_length_a   8.74123237
_cell_length_b   8.74123079
_cell_length_c   8.70596646
_cell_angle_alpha   79.55866799
_cell_angle_beta   79.55867082
_cell_angle_gamma   100.47512785
_symmetry_Int_Tables_number   1
_chemical_formula_structural   Ce6YThF30
_chemical_formula_sum   'Ce6 Y1 Th1 F30'
_cell_volume   627.32147132
_cell_formula_units_Z   1
loop_
 _symmetry_equiv_pos_site_id
 _symmetry_equiv_pos_as_xyz
  1  'x, y, z'
loop_
 _atom_site_type_symbol
 _atom_site_label
 _atom_site_symmetry_multiplicity
 _atom_site_fract_x
 _atom_site_fract_y
 _atom_site_fract_z
 _atom_site_occupancy
  Ce  Ce0  1  0.750322  0.249678  0.250000  1
  Ce  Ce1  1  0.250044  0.749956  0.750000  1
  Ce  Ce2  1  0.748889  0.676441  0.679281  1
  Ce  Ce3  1  0.323559  0.251111  0.820719  1
  Ce  Ce4  1  0.247653  0.321796  0.326148  1
  Ce  Ce5  1  0.678204  0.752347  0.173852  1
  Y  Y6  1  0.822183  0.177817  0.750000  1
  Th  Th7  1  0.177912  0.822088  0.250000  1
  F  F8  1  0.314408  0.341739  0.055235  1
  F  F9  1  0.947375  0.816675  0.152157  1
  F  F10  1  0.836679  0.449221  0.686814  1
  F  F11  1  0.450754  0.848733  0.180382  1
  F  F12  1  0.812002  0.940104  0.661516  1
  F  F13  1  0.348369  0.317487  0.552373  1
  F  F14  1  0.682513  0.651631  0.947626  1
  F  F15  1  0.059896  0.187998  0.838484  1
  F  F16  1  0.151267  0.549246  0.319618  1
  F  F17  1  0.550779  0.163321  0.813186  1
  F  F18  1  0.183325  0.052625  0.347843  1
  F  F19  1  0.658261  0.685592  0.444765  1
  F  F20  1  0.779712  0.270678  0.992568  1
  F  F21  1  0.009088  0.277369  0.221493  1
  F  F22  1  0.777337  0.509001  0.220532  1
  F  F23  1  0.505809  0.777440  0.723102  1
  F  F24  1  0.278153  0.007006  0.721240  1
  F  F25  1  0.280656  0.777152  0.488313  1
  F  F26  1  0.222848  0.719344  0.011687  1
  F  F27  1  0.992994  0.721847  0.778760  1
  F  F28  1  0.222560  0.494191  0.776898  1
  F  F29  1  0.490999  0.222663  0.279468  1
  F  F30  1  0.722631  0.990912  0.278507  1
  F  F31  1  0.729322  0.220288  0.507432  1
  F  F32  1  0.461703  0.538297  0.250000  1
  F  F33  1  0.749788  0.961655  0.966173  1
  F  F34  1  0.038345  0.250212  0.533827  1
  F  F35  1  0.250102  0.036381  0.033599  1
  F  F36  1  0.963619  0.749898  0.466401  1
  F  F37  1  0.529942  0.470058  0.750000  1
