# generated using pymatgen
data_YHo3Ga18(Co2Pd)2
_symmetry_space_group_name_H-M   'P 1'
_cell_length_a   7.46842500
_cell_length_b   7.46867161
_cell_length_c   9.41781800
_cell_angle_alpha   90.00000000
_cell_angle_beta   90.00000000
_cell_angle_gamma   119.53859784
_symmetry_Int_Tables_number   1
_chemical_formula_structural   YHo3Ga18(Co2Pd)2
_chemical_formula_sum   'Y1 Ho3 Ga18 Co4 Pd2'
_cell_volume   457.03956894
_cell_formula_units_Z   1
loop_
 _symmetry_equiv_pos_site_id
 _symmetry_equiv_pos_as_xyz
  1  'x, y, z'
loop_
 _atom_site_type_symbol
 _atom_site_label
 _atom_site_symmetry_multiplicity
 _atom_site_fract_x
 _atom_site_fract_y
 _atom_site_fract_z
 _atom_site_occupancy
  Y  Y0  1  0.003245  0.322777  0.250000  1
  Ho  Ho1  1  0.677173  0.996770  0.750000  1
  Ho  Ho2  1  0.322841  0.003210  0.250000  1
  Ho  Ho3  1  0.996787  0.677209  0.750000  1
  Ga  Ga4  1  0.001069  0.654727  0.075099  1
  Ga  Ga5  1  0.654265  0.000866  0.424884  1
  Ga  Ga6  1  0.001069  0.654727  0.424901  1
  Ga  Ga7  1  0.998921  0.345522  0.924575  1
  Ga  Ga8  1  0.654265  0.000866  0.075116  1
  Ga  Ga9  1  0.345507  0.998926  0.924755  1
  Ga  Ga10  1  0.656839  0.656833  0.563331  1
  Ga  Ga11  1  0.343371  0.343175  0.063188  1
  Ga  Ga12  1  0.656839  0.656833  0.936669  1
  Ga  Ga13  1  0.343371  0.343175  0.436812  1
  Ga  Ga14  1  0.141956  0.141944  0.750000  1
  Ga  Ga15  1  0.858001  0.857830  0.250000  1
  Ga  Ga16  1  0.665297  0.442869  0.250000  1
  Ga  Ga17  1  0.334524  0.557190  0.750000  1
  Ga  Ga18  1  0.443077  0.665708  0.250000  1
  Ga  Ga19  1  0.557188  0.334512  0.750000  1
  Ga  Ga20  1  0.345507  0.998926  0.575245  1
  Ga  Ga21  1  0.998921  0.345522  0.575425  1
  Co  Co22  1  0.670714  0.329244  0.999945  1
  Co  Co23  1  0.329284  0.670790  0.500051  1
  Co  Co24  1  0.329284  0.670790  0.999949  1
  Co  Co25  1  0.670714  0.329244  0.500055  1
  Pd  Pd26  1  0.999985  0.999909  0.999925  1
  Pd  Pd27  1  0.999985  0.999909  0.500075  1
