# generated using pymatgen
data_Zr7Nb(Si4Ru3)4
_symmetry_space_group_name_H-M   'P 1'
_cell_length_a   9.87243974
_cell_length_b   9.90829207
_cell_length_c   13.34719403
_cell_angle_alpha   53.99203987
_cell_angle_beta   53.95189007
_cell_angle_gamma   31.52913983
_symmetry_Int_Tables_number   1
_chemical_formula_structural   Zr7Nb(Si4Ru3)4
_chemical_formula_sum   'Zr7 Nb1 Si16 Ru12'
_cell_volume   540.39215326
_cell_formula_units_Z   1
loop_
 _symmetry_equiv_pos_site_id
 _symmetry_equiv_pos_as_xyz
  1  'x, y, z'
loop_
 _atom_site_type_symbol
 _atom_site_label
 _atom_site_symmetry_multiplicity
 _atom_site_fract_x
 _atom_site_fract_y
 _atom_site_fract_z
 _atom_site_occupancy
  Zr  Zr0  1  0.444433  0.702164  0.850123  1
  Zr  Zr1  1  0.693711  0.446055  0.358680  1
  Zr  Zr2  1  0.553851  0.297376  0.147489  1
  Zr  Zr3  1  0.037191  0.297109  0.637593  1
  Zr  Zr4  1  0.705488  0.966065  0.859226  1
  Zr  Zr5  1  0.959246  0.705122  0.365088  1
  Zr  Zr6  1  0.293509  0.039071  0.136358  1
  Nb  Nb7  1  0.298695  0.550851  0.657527  1
  Si  Si8  1  0.872053  0.127490  0.249604  1
  Si  Si9  1  0.135000  0.862132  0.750551  1
  Si  Si10  1  0.381790  0.618389  0.248791  1
  Si  Si11  1  0.618293  0.383447  0.741234  1
  Si  Si12  1  0.971989  0.253495  0.893683  1
  Si  Si13  1  0.742507  0.037051  0.601411  1
  Si  Si14  1  0.026121  0.746311  0.104920  1
  Si  Si15  1  0.255032  0.972061  0.393667  1
  Si  Si16  1  0.571375  0.085209  0.065093  1
  Si  Si17  1  0.904514  0.430169  0.440346  1
  Si  Si18  1  0.428856  0.913145  0.934020  1
  Si  Si19  1  0.092698  0.572278  0.567625  1
  Si  Si20  1  0.385445  0.143499  0.395239  1
  Si  Si21  1  0.859055  0.609136  0.105050  1
  Si  Si22  1  0.614480  0.860028  0.603474  1
  Si  Si23  1  0.144134  0.392606  0.892588  1
  Ru  Ru24  1  0.649231  0.826128  0.279232  1
  Ru  Ru25  1  0.170732  0.350809  0.222418  1
  Ru  Ru26  1  0.762567  0.481765  0.067686  1
  Ru  Ru27  1  0.831668  0.643172  0.780554  1
  Ru  Ru28  1  0.927408  0.113654  0.583188  1
  Ru  Ru29  1  0.857261  0.099713  0.912646  1
  Ru  Ru30  1  0.094954  0.863319  0.413512  1
  Ru  Ru31  1  0.135624  0.906321  0.083478  1
  Ru  Ru32  1  0.236983  0.515275  0.938852  1
  Ru  Ru33  1  0.471295  0.782330  0.566784  1
  Ru  Ru34  1  0.516367  0.237905  0.432510  1
  Ru  Ru35  1  0.356443  0.169353  0.719762  1
