# generated using pymatgen
data_Cs2Rh2F11
_symmetry_space_group_name_H-M   'P 1'
_cell_length_a   5.37829800
_cell_length_b   7.56890676
_cell_length_c   14.10479900
_cell_angle_alpha   80.22950390
_cell_angle_beta   90.00000000
_cell_angle_gamma   90.00000000
_symmetry_Int_Tables_number   1
_chemical_formula_structural   Cs2Rh2F11
_chemical_formula_sum   'Cs4 Rh4 F22'
_cell_volume   565.84766336
_cell_formula_units_Z   2
loop_
 _symmetry_equiv_pos_site_id
 _symmetry_equiv_pos_as_xyz
  1  'x, y, z'
loop_
 _atom_site_type_symbol
 _atom_site_label
 _atom_site_symmetry_multiplicity
 _atom_site_fract_x
 _atom_site_fract_y
 _atom_site_fract_z
 _atom_site_occupancy
  Cs  Cs0  1  0.407113  0.233395  0.592291  1
  Cs  Cs1  1  0.592887  0.233395  0.092291  1
  Cs  Cs2  1  0.592887  0.766605  0.407709  1
  Cs  Cs3  1  0.407113  0.766605  0.907709  1
  Rh  Rh4  1  0.019497  0.286086  0.336946  1
  Rh  Rh5  1  0.980503  0.286086  0.836946  1
  Rh  Rh6  1  0.019497  0.713914  0.163054  1
  Rh  Rh7  1  0.980503  0.713914  0.663054  1
  F  F8  1  0.135684  0.500000  0.750000  1
  F  F9  1  0.864316  0.500000  0.250000  1
  F  F10  1  0.728118  0.847894  0.184704  1
  F  F11  1  0.693062  0.579588  0.638599  1
  F  F12  1  0.163301  0.788144  0.272869  1
  F  F13  1  0.844098  0.080437  0.918700  1
  F  F14  1  0.306938  0.420412  0.361401  1
  F  F15  1  0.155902  0.919563  0.081300  1
  F  F16  1  0.163301  0.211856  0.227131  1
  F  F17  1  0.271882  0.847894  0.684704  1
  F  F18  1  0.836699  0.211856  0.727131  1
  F  F19  1  0.693062  0.420412  0.861401  1
  F  F20  1  0.155902  0.080437  0.418700  1
  F  F21  1  0.138562  0.361547  0.945073  1
  F  F22  1  0.271882  0.152106  0.815296  1
  F  F23  1  0.861438  0.638453  0.054927  1
  F  F24  1  0.836699  0.788144  0.772869  1
  F  F25  1  0.728118  0.152106  0.315296  1
  F  F26  1  0.844098  0.919563  0.581300  1
  F  F27  1  0.861438  0.361547  0.445073  1
  F  F28  1  0.306938  0.579588  0.138599  1
  F  F29  1  0.138562  0.638453  0.554927  1
