# generated using pymatgen
data_CeLuU2As6Ru7
_symmetry_space_group_name_H-M   'P 1'
_cell_length_a   7.20287410
_cell_length_b   7.25994840
_cell_length_c   7.20626759
_cell_angle_alpha   109.42392910
_cell_angle_beta   109.37437082
_cell_angle_gamma   109.37707570
_symmetry_Int_Tables_number   1
_chemical_formula_structural   CeLuU2As6Ru7
_chemical_formula_sum   'Ce1 Lu1 U2 As6 Ru7'
_cell_volume   290.93662345
_cell_formula_units_Z   1
loop_
 _symmetry_equiv_pos_site_id
 _symmetry_equiv_pos_as_xyz
  1  'x, y, z'
loop_
 _atom_site_type_symbol
 _atom_site_label
 _atom_site_symmetry_multiplicity
 _atom_site_fract_x
 _atom_site_fract_y
 _atom_site_fract_z
 _atom_site_occupancy
  Ce  Ce0  1  0.000000  0.000000  0.500000  1
  Lu  Lu1  1  0.500000  0.000000  0.000000  1
  U  U2  1  0.000000  0.500000  0.000000  1
  U  U3  1  0.500000  0.500000  0.500000  1
  As  As4  1  0.314908  0.999909  0.309657  1
  As  As5  1  0.994644  0.309957  0.309676  1
  As  As6  1  0.005356  0.690043  0.690324  1
  As  As7  1  0.315177  0.309957  0.000169  1
  As  As8  1  0.684823  0.690043  0.999831  1
  As  As9  1  0.685092  0.000091  0.690343  1
  Ru  Ru10  1  0.748940  0.497854  0.248930  1
  Ru  Ru11  1  0.493220  0.744478  0.248495  1
  Ru  Ru12  1  0.506780  0.255522  0.751505  1
  Ru  Ru13  1  0.748848  0.255593  0.504226  1
  Ru  Ru14  1  0.251152  0.744407  0.495774  1
  Ru  Ru15  1  0.251060  0.502146  0.751070  1
  Ru  Ru16  1  0.000000  0.000000  0.000000  1
