# generated using pymatgen
data_Dy8Y4GaCo4Pd
_symmetry_space_group_name_H-M   'P 1'
_cell_length_a   8.28423300
_cell_length_b   8.28423342
_cell_length_c   8.28423153
_cell_angle_alpha   107.17777917
_cell_angle_beta   110.53618219
_cell_angle_gamma   110.72381809
_symmetry_Int_Tables_number   1
_chemical_formula_structural   Dy8Y4GaCo4Pd
_chemical_formula_sum   'Dy8 Y4 Ga1 Co4 Pd1'
_cell_volume   437.13356193
_cell_formula_units_Z   1
loop_
 _symmetry_equiv_pos_site_id
 _symmetry_equiv_pos_as_xyz
  1  'x, y, z'
loop_
 _atom_site_type_symbol
 _atom_site_label
 _atom_site_symmetry_multiplicity
 _atom_site_fract_x
 _atom_site_fract_y
 _atom_site_fract_z
 _atom_site_occupancy
  Dy  Dy0  1  0.697949  0.281001  0.978949  1
  Dy  Dy1  1  0.302051  0.718999  0.021051  1
  Dy  Dy2  1  0.697949  0.718999  0.416948  1
  Dy  Dy3  1  0.302051  0.281001  0.583052  1
  Dy  Dy4  1  0.802947  0.119071  0.316124  1
  Dy  Dy5  1  0.802947  0.486824  0.683876  1
  Dy  Dy6  1  0.197053  0.880929  0.683876  1
  Dy  Dy7  1  0.197053  0.513176  0.316124  1
  Y  Y8  1  0.602589  0.791622  0.810968  1
  Y  Y9  1  0.980655  0.791622  0.189032  1
  Y  Y10  1  0.019345  0.208378  0.810968  1
  Y  Y11  1  0.397411  0.208378  0.189032  1
  Ga  Ga12  1  0.500000  0.000000  0.500000  1
  Co  Co13  1  0.877627  0.500000  0.377627  1
  Co  Co14  1  0.122373  0.500000  0.622373  1
  Co  Co15  1  0.000000  0.112944  0.112944  1
  Co  Co16  1  0.000000  0.887056  0.887056  1
  Pd  Pd17  1  0.500000  0.500000  0.000000  1
