# generated using pymatgen
data_Y10Si2BiPb5
_symmetry_space_group_name_H-M   'P 1'
_cell_length_a   9.34740280
_cell_length_b   9.34740446
_cell_length_c   6.52454900
_cell_angle_alpha   90.00000000
_cell_angle_beta   90.00000000
_cell_angle_gamma   119.79843130
_symmetry_Int_Tables_number   1
_chemical_formula_structural   Y10Si2BiPb5
_chemical_formula_sum   'Y10 Si2 Bi1 Pb5'
_cell_volume   494.69971033
_cell_formula_units_Z   1
loop_
 _symmetry_equiv_pos_site_id
 _symmetry_equiv_pos_as_xyz
  1  'x, y, z'
loop_
 _atom_site_type_symbol
 _atom_site_label
 _atom_site_symmetry_multiplicity
 _atom_site_fract_x
 _atom_site_fract_y
 _atom_site_fract_z
 _atom_site_occupancy
  Y  Y0  1  0.667465  0.333402  0.501208  1
  Y  Y1  1  0.333402  0.667465  0.501208  1
  Y  Y2  1  0.333402  0.667465  0.998792  1
  Y  Y3  1  0.667465  0.333402  0.998792  1
  Y  Y4  1  0.750498  0.750498  0.250000  1
  Y  Y5  1  0.247320  0.998628  0.250000  1
  Y  Y6  1  0.998628  0.247320  0.250000  1
  Y  Y7  1  0.250031  0.250031  0.750000  1
  Y  Y8  1  0.750930  0.999165  0.750000  1
  Y  Y9  1  0.999165  0.750930  0.750000  1
  Si  Si10  1  0.000071  0.000071  0.499870  1
  Si  Si11  1  0.000071  0.000071  0.000130  1
  Bi  Bi12  1  0.393091  0.393091  0.250000  1
  Pb  Pb13  1  0.606717  0.000314  0.250000  1
  Pb  Pb14  1  0.000314  0.606717  0.250000  1
  Pb  Pb15  1  0.607606  0.607606  0.750000  1
  Pb  Pb16  1  0.393072  0.000754  0.750000  1
  Pb  Pb17  1  0.000754  0.393072  0.750000  1
