# generated using pymatgen
data_Dy4Er2Al24Os7Rh
_symmetry_space_group_name_H-M   'P 1'
_cell_length_a   8.81655102
_cell_length_b   8.81655157
_cell_length_c   9.56151110
_cell_angle_alpha   89.73971410
_cell_angle_beta   90.26028403
_cell_angle_gamma   119.74519478
_symmetry_Int_Tables_number   1
_chemical_formula_structural   Dy4Er2Al24Os7Rh
_chemical_formula_sum   'Dy4 Er2 Al24 Os7 Rh1'
_cell_volume   645.29459015
_cell_formula_units_Z   1
loop_
 _symmetry_equiv_pos_site_id
 _symmetry_equiv_pos_as_xyz
  1  'x, y, z'
loop_
 _atom_site_type_symbol
 _atom_site_label
 _atom_site_symmetry_multiplicity
 _atom_site_fract_x
 _atom_site_fract_y
 _atom_site_fract_z
 _atom_site_occupancy
  Dy  Dy0  1  0.190574  0.387275  0.251889  1
  Dy  Dy1  1  0.809426  0.612725  0.748111  1
  Dy  Dy2  1  0.612725  0.809426  0.251889  1
  Dy  Dy3  1  0.387275  0.190574  0.748111  1
  Er  Er4  1  0.195133  0.804867  0.251393  1
  Er  Er5  1  0.804867  0.195133  0.748607  1
  Al  Al6  1  0.332837  0.667163  0.018685  1
  Al  Al7  1  0.667163  0.332837  0.981315  1
  Al  Al8  1  0.666782  0.333218  0.516738  1
  Al  Al9  1  0.333218  0.666782  0.483262  1
  Al  Al10  1  0.163782  0.325330  0.577317  1
  Al  Al11  1  0.836218  0.674670  0.422683  1
  Al  Al12  1  0.674670  0.836218  0.577317  1
  Al  Al13  1  0.839340  0.675441  0.077604  1
  Al  Al14  1  0.325330  0.163782  0.422683  1
  Al  Al15  1  0.160660  0.324559  0.922396  1
  Al  Al16  1  0.163434  0.836566  0.575864  1
  Al  Al17  1  0.324559  0.160660  0.077604  1
  Al  Al18  1  0.836566  0.163434  0.424136  1
  Al  Al19  1  0.675441  0.839340  0.922396  1
  Al  Al20  1  0.836838  0.163162  0.075917  1
  Al  Al21  1  0.163162  0.836838  0.924083  1
  Al  Al22  1  0.560003  0.122024  0.249568  1
  Al  Al23  1  0.439997  0.877976  0.750432  1
  Al  Al24  1  0.877976  0.439997  0.249568  1
  Al  Al25  1  0.122024  0.560003  0.750432  1
  Al  Al26  1  0.560428  0.439572  0.249933  1
  Al  Al27  1  0.439572  0.560428  0.750067  1
  Al  Al28  1  0.999702  0.000298  0.250129  1
  Al  Al29  1  0.000298  0.999702  0.749871  1
  Os  Os30  1  0.500000  0.000000  0.000000  1
  Os  Os31  1  0.000000  0.500000  0.000000  1
  Os  Os32  1  0.500000  0.000000  0.500000  1
  Os  Os33  1  0.000000  0.500000  0.500000  1
  Os  Os34  1  0.500000  0.500000  0.500000  1
  Os  Os35  1  0.000000  0.000000  0.000000  1
  Os  Os36  1  0.000000  0.000000  0.500000  1
  Rh  Rh37  1  0.500000  0.500000  0.000000  1
