# generated using pymatgen
data_ScNbP7Ru12
_symmetry_space_group_name_H-M   'P 1'
_cell_length_a   9.35538900
_cell_length_b   9.35538865
_cell_length_c   3.88363900
_cell_angle_alpha   90.00000000
_cell_angle_beta   90.00000000
_cell_angle_gamma   119.99999675
_symmetry_Int_Tables_number   1
_chemical_formula_structural   ScNbP7Ru12
_chemical_formula_sum   'Sc1 Nb1 P7 Ru12'
_cell_volume   294.36975341
_cell_formula_units_Z   1
loop_
 _symmetry_equiv_pos_site_id
 _symmetry_equiv_pos_as_xyz
  1  'x, y, z'
loop_
 _atom_site_type_symbol
 _atom_site_label
 _atom_site_symmetry_multiplicity
 _atom_site_fract_x
 _atom_site_fract_y
 _atom_site_fract_z
 _atom_site_occupancy
  Sc  Sc0  1  0.333333  0.666667  0.000000  1
  Nb  Nb1  1  0.666667  0.333333  0.500000  1
  P  P2  1  0.594606  0.718871  0.500000  1
  P  P3  1  0.000000  0.000000  0.000000  1
  P  P4  1  0.281129  0.875735  0.500000  1
  P  P5  1  0.124265  0.405394  0.500000  1
  P  P6  1  0.885943  0.575003  0.000000  1
  P  P7  1  0.424997  0.310940  0.000000  1
  P  P8  1  0.689060  0.114057  0.000000  1
  Ru  Ru9  1  0.555154  0.952157  0.500000  1
  Ru  Ru10  1  0.397003  0.444846  0.500000  1
  Ru  Ru11  1  0.912860  0.125263  0.500000  1
  Ru  Ru12  1  0.212403  0.087140  0.500000  1
  Ru  Ru13  1  0.874737  0.787597  0.500000  1
  Ru  Ru14  1  0.724706  0.887346  0.000000  1
  Ru  Ru15  1  0.112654  0.837359  0.000000  1
  Ru  Ru16  1  0.162641  0.275294  0.000000  1
  Ru  Ru17  1  0.431862  0.077073  0.000000  1
  Ru  Ru18  1  0.922927  0.354790  0.000000  1
  Ru  Ru19  1  0.645210  0.568138  0.000000  1
  Ru  Ru20  1  0.047843  0.602997  0.500000  1
