# generated using pymatgen
data_Dy3Tm4Sn23Ru6
_symmetry_space_group_name_H-M   'P 1'
_cell_length_a   9.83194004
_cell_length_b   9.88978334
_cell_length_c   10.03759265
_cell_angle_alpha   89.99999796
_cell_angle_beta   89.84302654
_cell_angle_gamma   120.19480204
_symmetry_Int_Tables_number   1
_chemical_formula_structural   Dy3Tm4Sn23Ru6
_chemical_formula_sum   'Dy3 Tm4 Sn23 Ru6'
_cell_volume   843.58367017
_cell_formula_units_Z   1
loop_
 _symmetry_equiv_pos_site_id
 _symmetry_equiv_pos_as_xyz
  1  'x, y, z'
loop_
 _atom_site_type_symbol
 _atom_site_label
 _atom_site_symmetry_multiplicity
 _atom_site_fract_x
 _atom_site_fract_y
 _atom_site_fract_z
 _atom_site_occupancy
  Dy  Dy0  1  0.000000  0.000000  0.000000  1
  Dy  Dy1  1  0.030956  0.515478  0.305595  1
  Dy  Dy2  1  0.969044  0.484522  0.694405  1
  Tm  Tm3  1  0.485849  0.513742  0.303994  1
  Tm  Tm4  1  0.514151  0.486258  0.696006  1
  Tm  Tm5  1  0.485849  0.972107  0.303994  1
  Tm  Tm6  1  0.514151  0.027893  0.696006  1
  Sn  Sn7  1  0.349427  0.000910  0.000192  1
  Sn  Sn8  1  0.650573  0.999090  0.999808  1
  Sn  Sn9  1  0.000000  0.348432  0.000000  1
  Sn  Sn10  1  0.000000  0.651568  0.000000  1
  Sn  Sn11  1  0.650573  0.651484  0.999808  1
  Sn  Sn12  1  0.349427  0.348516  0.000192  1
  Sn  Sn13  1  0.332885  0.666443  0.820953  1
  Sn  Sn14  1  0.667115  0.333557  0.179047  1
  Sn  Sn15  1  0.000000  0.000000  0.500000  1
  Sn  Sn16  1  0.778238  0.220854  0.464396  1
  Sn  Sn17  1  0.221762  0.779146  0.535604  1
  Sn  Sn18  1  0.778238  0.557385  0.464396  1
  Sn  Sn19  1  0.221762  0.442615  0.535604  1
  Sn  Sn20  1  0.443292  0.221646  0.464923  1
  Sn  Sn21  1  0.556708  0.778354  0.535077  1
  Sn  Sn22  1  0.335492  0.667747  0.129393  1
  Sn  Sn23  1  0.664508  0.332253  0.870607  1
  Sn  Sn24  1  0.117898  0.881614  0.275543  1
  Sn  Sn25  1  0.882102  0.118386  0.724457  1
  Sn  Sn26  1  0.117898  0.236283  0.275543  1
  Sn  Sn27  1  0.882102  0.763717  0.724457  1
  Sn  Sn28  1  0.761660  0.880829  0.273475  1
  Sn  Sn29  1  0.238340  0.119171  0.726525  1
  Ru  Ru30  1  0.828118  0.168865  0.203066  1
  Ru  Ru31  1  0.171882  0.831135  0.796934  1
  Ru  Ru32  1  0.828118  0.659253  0.203066  1
  Ru  Ru33  1  0.171882  0.340747  0.796934  1
  Ru  Ru34  1  0.340665  0.170333  0.203386  1
  Ru  Ru35  1  0.659335  0.829667  0.796614  1
