# generated using pymatgen
data_Rb2Pa3OF12
_symmetry_space_group_name_H-M   'P 1'
_cell_length_a   11.56336716
_cell_length_b   11.56336733
_cell_length_c   11.56336708
_cell_angle_alpha   42.92252425
_cell_angle_beta   42.92252451
_cell_angle_gamma   42.92251931
_symmetry_Int_Tables_number   1
_chemical_formula_structural   Rb2Pa3OF12
_chemical_formula_sum   'Rb4 Pa6 O2 F24'
_cell_volume   649.84581540
_cell_formula_units_Z   2
loop_
 _symmetry_equiv_pos_site_id
 _symmetry_equiv_pos_as_xyz
  1  'x, y, z'
loop_
 _atom_site_type_symbol
 _atom_site_label
 _atom_site_symmetry_multiplicity
 _atom_site_fract_x
 _atom_site_fract_y
 _atom_site_fract_z
 _atom_site_occupancy
  Rb  Rb0  1  0.000000  0.000000  0.000000  1
  Rb  Rb1  1  0.500000  0.500000  0.500000  1
  Rb  Rb2  1  0.136820  0.136820  0.136820  1
  Rb  Rb3  1  0.863180  0.863180  0.863180  1
  Pa  Pa4  1  0.579222  0.579222  0.033260  1
  Pa  Pa5  1  0.033260  0.579222  0.579222  1
  Pa  Pa6  1  0.579222  0.033260  0.579222  1
  Pa  Pa7  1  0.420778  0.966740  0.420778  1
  Pa  Pa8  1  0.966740  0.420778  0.420778  1
  Pa  Pa9  1  0.420778  0.420778  0.966740  1
  O  O10  1  0.281088  0.281088  0.281088  1
  O  O11  1  0.718912  0.718912  0.718912  1
  F  F12  1  0.370649  0.698603  0.698603  1
  F  F13  1  0.698603  0.370649  0.698603  1
  F  F14  1  0.698603  0.698603  0.370649  1
  F  F15  1  0.629351  0.301397  0.301397  1
  F  F16  1  0.301397  0.629351  0.301397  1
  F  F17  1  0.301397  0.301397  0.629351  1
  F  F18  1  0.085229  0.599684  0.085229  1
  F  F19  1  0.085229  0.085229  0.599684  1
  F  F20  1  0.000000  0.353467  0.646533  1
  F  F21  1  0.353467  0.646533  0.000000  1
  F  F22  1  0.646533  0.000000  0.353467  1
  F  F23  1  0.000000  0.646533  0.353467  1
  F  F24  1  0.646533  0.353467  0.000000  1
  F  F25  1  0.353467  0.000000  0.646533  1
  F  F26  1  0.084103  0.657176  0.657176  1
  F  F27  1  0.657176  0.657176  0.084103  1
  F  F28  1  0.657176  0.084103  0.657176  1
  F  F29  1  0.342824  0.915897  0.342824  1
  F  F30  1  0.915897  0.342824  0.342824  1
  F  F31  1  0.342824  0.342824  0.915897  1
  F  F32  1  0.914771  0.400316  0.914771  1
  F  F33  1  0.400316  0.914771  0.914771  1
  F  F34  1  0.914771  0.914771  0.400316  1
  F  F35  1  0.599684  0.085229  0.085229  1
