# generated using pymatgen
data_Li3Yb2CePt3
_symmetry_space_group_name_H-M   'P 1'
_cell_length_a   7.11480600
_cell_length_b   7.14824274
_cell_length_c   4.05183900
_cell_angle_alpha   90.00000000
_cell_angle_beta   90.00000000
_cell_angle_gamma   120.15556224
_symmetry_Int_Tables_number   1
_chemical_formula_structural   Li3Yb2CePt3
_chemical_formula_sum   'Li3 Yb2 Ce1 Pt3'
_cell_volume   178.18135305
_cell_formula_units_Z   1
loop_
 _symmetry_equiv_pos_site_id
 _symmetry_equiv_pos_as_xyz
  1  'x, y, z'
loop_
 _atom_site_type_symbol
 _atom_site_label
 _atom_site_symmetry_multiplicity
 _atom_site_fract_x
 _atom_site_fract_y
 _atom_site_fract_z
 _atom_site_occupancy
  Li  Li0  1  0.758274  0.763158  0.500000  1
  Li  Li1  1  0.241726  0.004884  0.500000  1
  Li  Li2  1  0.000000  0.230036  0.500000  1
  Yb  Yb3  1  0.411673  0.412024  0.000000  1
  Yb  Yb4  1  0.588327  0.000352  0.000000  1
  Ce  Ce5  1  0.000000  0.590038  0.000000  1
  Pt  Pt6  1  0.000000  0.988464  0.000000  1
  Pt  Pt7  1  0.679410  0.345226  0.500000  1
  Pt  Pt8  1  0.320590  0.665816  0.500000  1
