# generated using pymatgen
data_Y3Th(Zn5Sn)2
_symmetry_space_group_name_H-M   'P 1'
_cell_length_a   8.43857277
_cell_length_b   8.43857218
_cell_length_c   9.03797712
_cell_angle_alpha   90.60148857
_cell_angle_beta   89.39851264
_cell_angle_gamma   149.90631321
_symmetry_Int_Tables_number   1
_chemical_formula_structural   Y3Th(Zn5Sn)2
_chemical_formula_sum   'Y3 Th1 Zn10 Sn2'
_cell_volume   322.68681443
_cell_formula_units_Z   1
loop_
 _symmetry_equiv_pos_site_id
 _symmetry_equiv_pos_as_xyz
  1  'x, y, z'
loop_
 _atom_site_type_symbol
 _atom_site_label
 _atom_site_symmetry_multiplicity
 _atom_site_fract_x
 _atom_site_fract_y
 _atom_site_fract_z
 _atom_site_occupancy
  Y  Y0  1  0.202316  0.797684  0.253127  1
  Y  Y1  1  0.797684  0.202316  0.746873  1
  Y  Y2  1  0.000000  0.000000  0.500000  1
  Th  Th3  1  0.000000  0.000000  0.000000  1
  Zn  Zn4  1  0.815406  0.184594  0.387294  1
  Zn  Zn5  1  0.184594  0.815406  0.612706  1
  Zn  Zn6  1  0.811006  0.188994  0.105730  1
  Zn  Zn7  1  0.188994  0.811006  0.894270  1
  Zn  Zn8  1  0.658370  0.341630  0.484194  1
  Zn  Zn9  1  0.341630  0.658370  0.515806  1
  Zn  Zn10  1  0.656254  0.343746  0.021935  1
  Zn  Zn11  1  0.343746  0.656254  0.978065  1
  Zn  Zn12  1  0.393085  0.606915  0.245390  1
  Zn  Zn13  1  0.606915  0.393085  0.754610  1
  Sn  Sn14  1  0.554411  0.445589  0.256366  1
  Sn  Sn15  1  0.445589  0.554411  0.743634  1
