# generated using pymatgen
data_Ba4InReO8
_symmetry_space_group_name_H-M   'P 1'
_cell_length_a   7.32754213
_cell_length_b   7.32754230
_cell_length_c   5.94585600
_cell_angle_alpha   90.00000000
_cell_angle_beta   90.00000000
_cell_angle_gamma   132.18339870
_symmetry_Int_Tables_number   1
_chemical_formula_structural   Ba4InReO8
_chemical_formula_sum   'Ba4 In1 Re1 O8'
_cell_volume   236.56406884
_cell_formula_units_Z   1
loop_
 _symmetry_equiv_pos_site_id
 _symmetry_equiv_pos_as_xyz
  1  'x, y, z'
loop_
 _atom_site_type_symbol
 _atom_site_label
 _atom_site_symmetry_multiplicity
 _atom_site_fract_x
 _atom_site_fract_y
 _atom_site_fract_z
 _atom_site_occupancy
  Ba  Ba0  1  0.354369  0.645631  0.000000  1
  Ba  Ba1  1  0.854242  0.145758  0.500000  1
  Ba  Ba2  1  0.145758  0.854242  0.500000  1
  Ba  Ba3  1  0.645631  0.354369  0.000000  1
  In  In4  1  0.000000  0.000000  0.000000  1
  Re  Re5  1  0.500000  0.500000  0.500000  1
  O  O6  1  0.262782  0.262782  0.734099  1
  O  O7  1  0.737218  0.737218  0.265901  1
  O  O8  1  0.737218  0.737218  0.734099  1
  O  O9  1  0.262782  0.262782  0.265901  1
  O  O10  1  0.160113  0.839887  0.000000  1
  O  O11  1  0.652313  0.347687  0.500000  1
  O  O12  1  0.347687  0.652313  0.500000  1
  O  O13  1  0.839887  0.160113  0.000000  1
