# generated using pymatgen
data_Ce10CuBiPb6
_symmetry_space_group_name_H-M   'P 1'
_cell_length_a   9.72212000
_cell_length_b   9.72212182
_cell_length_c   6.68295400
_cell_angle_alpha   90.00000000
_cell_angle_beta   90.00000000
_cell_angle_gamma   119.99999381
_symmetry_Int_Tables_number   1
_chemical_formula_structural   Ce10CuBiPb6
_chemical_formula_sum   'Ce10 Cu1 Bi1 Pb6'
_cell_volume   547.04262372
_cell_formula_units_Z   1
loop_
 _symmetry_equiv_pos_site_id
 _symmetry_equiv_pos_as_xyz
  1  'x, y, z'
loop_
 _atom_site_type_symbol
 _atom_site_label
 _atom_site_symmetry_multiplicity
 _atom_site_fract_x
 _atom_site_fract_y
 _atom_site_fract_z
 _atom_site_occupancy
  Ce  Ce0  1  0.666667  0.333333  0.500000  1
  Ce  Ce1  1  0.333333  0.666667  0.500000  1
  Ce  Ce2  1  0.333333  0.666667  0.000000  1
  Ce  Ce3  1  0.666667  0.333333  0.000000  1
  Ce  Ce4  1  0.729976  0.729976  0.234535  1
  Ce  Ce5  1  0.270024  0.000000  0.234535  1
  Ce  Ce6  1  0.000000  0.270024  0.234535  1
  Ce  Ce7  1  0.270024  0.270024  0.765465  1
  Ce  Ce8  1  0.729976  0.000000  0.765465  1
  Ce  Ce9  1  0.000000  0.729976  0.765465  1
  Cu  Cu10  1  0.000000  0.000000  0.000000  1
  Bi  Bi11  1  0.000000  0.000000  0.500000  1
  Pb  Pb12  1  0.380348  0.380348  0.254595  1
  Pb  Pb13  1  0.619652  0.000000  0.254595  1
  Pb  Pb14  1  0.000000  0.619652  0.254595  1
  Pb  Pb15  1  0.619652  0.619652  0.745405  1
  Pb  Pb16  1  0.380348  0.000000  0.745405  1
  Pb  Pb17  1  0.000000  0.380348  0.745405  1
