# generated using pymatgen
data_ThGaCo4
_symmetry_space_group_name_H-M   'P 1'
_cell_length_a   8.55204100
_cell_length_b   8.55204009
_cell_length_c   4.09897800
_cell_angle_alpha   90.00000000
_cell_angle_beta   90.00000000
_cell_angle_gamma   119.99999965
_symmetry_Int_Tables_number   1
_chemical_formula_structural   ThGaCo4
_chemical_formula_sum   'Th3 Ga3 Co12'
_cell_volume   259.62452985
_cell_formula_units_Z   3
loop_
 _symmetry_equiv_pos_site_id
 _symmetry_equiv_pos_as_xyz
  1  'x, y, z'
loop_
 _atom_site_type_symbol
 _atom_site_label
 _atom_site_symmetry_multiplicity
 _atom_site_fract_x
 _atom_site_fract_y
 _atom_site_fract_z
 _atom_site_occupancy
  Th  Th0  1  0.333333  0.666667  0.000000  1
  Th  Th1  1  0.666667  0.333333  0.000000  1
  Th  Th2  1  0.000000  0.000000  0.000000  1
  Ga  Ga3  1  0.500000  0.000000  0.500000  1
  Ga  Ga4  1  0.000000  0.500000  0.500000  1
  Ga  Ga5  1  0.500000  0.500000  0.500000  1
  Co  Co6  1  0.322828  0.000000  0.000000  1
  Co  Co7  1  0.677172  0.000000  0.000000  1
  Co  Co8  1  0.000000  0.322828  0.000000  1
  Co  Co9  1  0.000000  0.677172  0.000000  1
  Co  Co10  1  0.677172  0.677172  0.000000  1
  Co  Co11  1  0.322828  0.322828  0.000000  1
  Co  Co12  1  0.162961  0.325922  0.500000  1
  Co  Co13  1  0.837039  0.674078  0.500000  1
  Co  Co14  1  0.674078  0.837039  0.500000  1
  Co  Co15  1  0.325922  0.162961  0.500000  1
  Co  Co16  1  0.162961  0.837039  0.500000  1
  Co  Co17  1  0.837039  0.162961  0.500000  1
