# generated using pymatgen
data_Rb5Sc(PSe3)4
_symmetry_space_group_name_H-M   'P 1'
_cell_length_a   13.88730200
_cell_length_b   13.88730200
_cell_length_c   7.57234100
_cell_angle_alpha   90.00000000
_cell_angle_beta   90.00000000
_cell_angle_gamma   90.00000000
_symmetry_Int_Tables_number   1
_chemical_formula_structural   Rb5Sc(PSe3)4
_chemical_formula_sum   'Rb10 Sc2 P8 Se24'
_cell_volume   1460.38015588
_cell_formula_units_Z   2
loop_
 _symmetry_equiv_pos_site_id
 _symmetry_equiv_pos_as_xyz
  1  'x, y, z'
loop_
 _atom_site_type_symbol
 _atom_site_label
 _atom_site_symmetry_multiplicity
 _atom_site_fract_x
 _atom_site_fract_y
 _atom_site_fract_z
 _atom_site_occupancy
  Rb  Rb0  1  0.000000  0.000000  0.500000  1
  Rb  Rb1  1  0.000000  0.000000  0.000000  1
  Rb  Rb2  1  0.314811  0.339648  0.500000  1
  Rb  Rb3  1  0.685189  0.660352  0.500000  1
  Rb  Rb4  1  0.660352  0.314811  0.000000  1
  Rb  Rb5  1  0.339648  0.685189  0.000000  1
  Rb  Rb6  1  0.313973  0.972398  0.500000  1
  Rb  Rb7  1  0.686027  0.027602  0.500000  1
  Rb  Rb8  1  0.027602  0.313973  0.000000  1
  Rb  Rb9  1  0.972398  0.686027  0.000000  1
  Sc  Sc10  1  0.000000  0.500000  0.500000  1
  Sc  Sc11  1  0.500000  0.000000  0.000000  1
  P  P12  1  0.202214  0.607748  0.500000  1
  P  P13  1  0.797786  0.392252  0.500000  1
  P  P14  1  0.392252  0.202214  0.000000  1
  P  P15  1  0.607748  0.797786  0.000000  1
  P  P16  1  0.113283  0.746946  0.500000  1
  P  P17  1  0.886717  0.253054  0.500000  1
  P  P18  1  0.253054  0.113283  0.000000  1
  P  P19  1  0.746946  0.886717  0.000000  1
  Se  Se20  1  0.150249  0.824474  0.258290  1
  Se  Se21  1  0.849751  0.175526  0.258290  1
  Se  Se22  1  0.175526  0.150249  0.758290  1
  Se  Se23  1  0.824474  0.849751  0.758290  1
  Se  Se24  1  0.849751  0.175526  0.741710  1
  Se  Se25  1  0.150249  0.824474  0.741710  1
  Se  Se26  1  0.824474  0.849751  0.241710  1
  Se  Se27  1  0.175526  0.150249  0.241710  1
  Se  Se28  1  0.037489  0.310014  0.500000  1
  Se  Se29  1  0.962511  0.689986  0.500000  1
  Se  Se30  1  0.689986  0.037489  0.000000  1
  Se  Se31  1  0.310014  0.962511  0.000000  1
  Se  Se32  1  0.355155  0.630796  0.500000  1
  Se  Se33  1  0.644845  0.369204  0.500000  1
  Se  Se34  1  0.369204  0.355155  0.000000  1
  Se  Se35  1  0.630796  0.644845  0.000000  1
  Se  Se36  1  0.147918  0.528330  0.263064  1
  Se  Se37  1  0.852082  0.471670  0.263064  1
  Se  Se38  1  0.471670  0.147918  0.763064  1
  Se  Se39  1  0.528330  0.852082  0.763064  1
  Se  Se40  1  0.852082  0.471670  0.736936  1
  Se  Se41  1  0.147918  0.528330  0.736936  1
  Se  Se42  1  0.528330  0.852082  0.236936  1
  Se  Se43  1  0.471670  0.147918  0.236936  1
