# generated using pymatgen
data_CaCdIn4(SeO3)8
_symmetry_space_group_name_H-M   'P 1'
_cell_length_a   4.91355582
_cell_length_b   8.87783760
_cell_length_c   16.35841936
_cell_angle_alpha   70.70455406
_cell_angle_beta   89.88161527
_cell_angle_gamma   89.98962743
_symmetry_Int_Tables_number   1
_chemical_formula_structural   CaCdIn4(SeO3)8
_chemical_formula_sum   'Ca1 Cd1 In4 Se8 O24'
_cell_volume   673.49742069
_cell_formula_units_Z   1
loop_
 _symmetry_equiv_pos_site_id
 _symmetry_equiv_pos_as_xyz
  1  'x, y, z'
loop_
 _atom_site_type_symbol
 _atom_site_label
 _atom_site_symmetry_multiplicity
 _atom_site_fract_x
 _atom_site_fract_y
 _atom_site_fract_z
 _atom_site_occupancy
  Ca  Ca0  1  0.000000  0.000000  0.000000  1
  Cd  Cd1  1  0.500000  0.000000  0.500000  1
  In  In2  1  0.527484  0.153779  0.786722  1
  In  In3  1  0.971478  0.152048  0.287132  1
  In  In4  1  0.472516  0.846221  0.213278  1
  In  In5  1  0.028522  0.847952  0.712868  1
  Se  Se6  1  0.556257  0.784913  0.879636  1
  Se  Se7  1  0.942738  0.785155  0.379971  1
  Se  Se8  1  0.443743  0.215087  0.120364  1
  Se  Se9  1  0.057262  0.214845  0.620029  1
  Se  Se10  1  0.005149  0.350892  0.865426  1
  Se  Se11  1  0.495010  0.348047  0.366615  1
  Se  Se12  1  0.994851  0.649108  0.134574  1
  Se  Se13  1  0.504990  0.651953  0.633385  1
  O  O14  1  0.765414  0.352886  0.787296  1
  O  O15  1  0.735998  0.351489  0.288436  1
  O  O16  1  0.234586  0.647114  0.212704  1
  O  O17  1  0.264002  0.648511  0.711564  1
  O  O18  1  0.817883  0.719477  0.831085  1
  O  O19  1  0.682424  0.718291  0.331850  1
  O  O20  1  0.182117  0.280523  0.168915  1
  O  O21  1  0.317576  0.281709  0.668150  1
  O  O22  1  0.205767  0.180057  0.870872  1
  O  O23  1  0.293323  0.179099  0.371813  1
  O  O24  1  0.794233  0.819943  0.129128  1
  O  O25  1  0.706677  0.820901  0.628187  1
  O  O26  1  0.686480  0.950952  0.900861  1
  O  O27  1  0.812098  0.952880  0.399642  1
  O  O28  1  0.313520  0.049048  0.099139  1
  O  O29  1  0.187902  0.047120  0.600358  1
  O  O30  1  0.359749  0.909384  0.793267  1
  O  O31  1  0.140256  0.908650  0.293115  1
  O  O32  1  0.640251  0.090616  0.206733  1
  O  O33  1  0.859744  0.091350  0.706885  1
  O  O34  1  0.842887  0.264834  0.961378  1
  O  O35  1  0.652041  0.256796  0.463345  1
  O  O36  1  0.157113  0.735166  0.038622  1
  O  O37  1  0.347959  0.743204  0.536655  1
