# generated using pymatgen
data_Nd4Er3Sc3(In2Pt)4
_symmetry_space_group_name_H-M   'P 1'
_cell_length_a   3.62854800
_cell_length_b   8.20411345
_cell_length_c   18.04667027
_cell_angle_alpha   89.11752262
_cell_angle_beta   90.00000000
_cell_angle_gamma   90.00000000
_symmetry_Int_Tables_number   1
_chemical_formula_structural   Nd4Er3Sc3(In2Pt)4
_chemical_formula_sum   'Nd4 Er3 Sc3 In8 Pt4'
_cell_volume   537.16795707
_cell_formula_units_Z   1
loop_
 _symmetry_equiv_pos_site_id
 _symmetry_equiv_pos_as_xyz
  1  'x, y, z'
loop_
 _atom_site_type_symbol
 _atom_site_label
 _atom_site_symmetry_multiplicity
 _atom_site_fract_x
 _atom_site_fract_y
 _atom_site_fract_z
 _atom_site_occupancy
  Nd  Nd0  1  0.000000  0.268549  0.708897  1
  Nd  Nd1  1  0.000000  0.732564  0.291165  1
  Nd  Nd2  1  0.000000  0.998435  0.997798  1
  Nd  Nd3  1  0.000000  0.500422  0.500883  1
  Er  Er4  1  0.000000  0.619206  0.088045  1
  Er  Er5  1  0.000000  0.235663  0.215639  1
  Er  Er6  1  0.000000  0.765618  0.785397  1
  Sc  Sc7  1  0.000000  0.117342  0.411208  1
  Sc  Sc8  1  0.000000  0.882403  0.589781  1
  Sc  Sc9  1  0.000000  0.382599  0.909159  1
  In  In10  1  0.500000  0.397045  0.349912  1
  In  In11  1  0.500000  0.603164  0.652683  1
  In  In12  1  0.500000  0.093678  0.845519  1
  In  In13  1  0.500000  0.918191  0.153993  1
  In  In14  1  0.500000  0.305812  0.058827  1
  In  In15  1  0.500000  0.686219  0.937008  1
  In  In16  1  0.500000  0.175750  0.553929  1
  In  In17  1  0.500000  0.823567  0.446529  1
  Pt  Pt18  1  0.500000  0.033013  0.307444  1
  Pt  Pt19  1  0.500000  0.966879  0.693452  1
  Pt  Pt20  1  0.500000  0.480800  0.806797  1
  Pt  Pt21  1  0.500000  0.513082  0.195934  1
