# generated using pymatgen
data_Sc4Be8NiRu9
_symmetry_space_group_name_H-M   'P 1'
_cell_length_a   3.20495600
_cell_length_b   8.56842613
_cell_length_c   10.11665187
_cell_angle_alpha   90.50550811
_cell_angle_beta   90.00000000
_cell_angle_gamma   90.00000000
_symmetry_Int_Tables_number   1
_chemical_formula_structural   Sc4Be8NiRu9
_chemical_formula_sum   'Sc4 Be8 Ni1 Ru9'
_cell_volume   277.80690145
_cell_formula_units_Z   1
loop_
 _symmetry_equiv_pos_site_id
 _symmetry_equiv_pos_as_xyz
  1  'x, y, z'
loop_
 _atom_site_type_symbol
 _atom_site_label
 _atom_site_symmetry_multiplicity
 _atom_site_fract_x
 _atom_site_fract_y
 _atom_site_fract_z
 _atom_site_occupancy
  Sc  Sc0  1  0.500000  0.836684  0.185814  1
  Sc  Sc1  1  0.500000  0.163316  0.814186  1
  Sc  Sc2  1  0.500000  0.664025  0.685924  1
  Sc  Sc3  1  0.500000  0.335975  0.314076  1
  Be  Be4  1  0.500000  0.964740  0.595632  1
  Be  Be5  1  0.500000  0.035260  0.404368  1
  Be  Be6  1  0.500000  0.847370  0.906505  1
  Be  Be7  1  0.500000  0.152630  0.093495  1
  Be  Be8  1  0.500000  0.659361  0.405446  1
  Be  Be9  1  0.500000  0.340639  0.594554  1
  Be  Be10  1  0.500000  0.466872  0.904912  1
  Be  Be11  1  0.500000  0.533128  0.095088  1
  Ni  Ni12  1  0.000000  0.000000  0.000000  1
  Ru  Ru13  1  0.000000  0.663684  0.958533  1
  Ru  Ru14  1  0.000000  0.336316  0.041467  1
  Ru  Ru15  1  0.000000  0.840956  0.455949  1
  Ru  Ru16  1  0.000000  0.159044  0.544051  1
  Ru  Ru17  1  0.000000  0.407788  0.754634  1
  Ru  Ru18  1  0.000000  0.592212  0.245366  1
  Ru  Ru19  1  0.000000  0.500000  0.500000  1
  Ru  Ru20  1  0.000000  0.911597  0.749813  1
  Ru  Ru21  1  0.000000  0.088403  0.250187  1
