# generated using pymatgen
data_Pm4Te3(MoO8)3
_symmetry_space_group_name_H-M   'P 1'
_cell_length_a   7.00232744
_cell_length_b   7.00027097
_cell_length_c   11.85075175
_cell_angle_alpha   78.12016608
_cell_angle_beta   77.75580306
_cell_angle_gamma   110.99586483
_symmetry_Int_Tables_number   1
_chemical_formula_structural   Pm4Te3(MoO8)3
_chemical_formula_sum   'Pm4 Te3 Mo3 O24'
_cell_volume   504.07447467
_cell_formula_units_Z   1
loop_
 _symmetry_equiv_pos_site_id
 _symmetry_equiv_pos_as_xyz
  1  'x, y, z'
loop_
 _atom_site_type_symbol
 _atom_site_label
 _atom_site_symmetry_multiplicity
 _atom_site_fract_x
 _atom_site_fract_y
 _atom_site_fract_z
 _atom_site_occupancy
  Pm  Pm0  1  0.189699  0.440408  0.594415  1
  Pm  Pm1  1  0.805831  0.556249  0.407835  1
  Pm  Pm2  1  0.567423  0.810959  0.903353  1
  Pm  Pm3  1  0.437435  0.197020  0.091454  1
  Te  Te4  1  0.010487  0.304058  0.952530  1
  Te  Te5  1  0.991475  0.702093  0.048455  1
  Te  Te6  1  0.695121  0.985737  0.546020  1
  Mo  Mo7  1  0.296615  0.004474  0.450750  1
  Mo  Mo8  1  0.602436  0.391958  0.750296  1
  Mo  Mo9  1  0.396727  0.617910  0.248479  1
  O  O10  1  0.540680  0.463376  0.607352  1
  O  O11  1  0.451839  0.527350  0.390495  1
  O  O12  1  0.525376  0.456004  0.893035  1
  O  O13  1  0.474949  0.549145  0.108478  1
  O  O14  1  0.503339  0.108335  0.791912  1
  O  O15  1  0.497887  0.901372  0.211016  1
  O  O16  1  0.885730  0.491013  0.711127  1
  O  O17  1  0.112603  0.515899  0.288069  1
  O  O18  1  0.728570  0.143505  0.954243  1
  O  O19  1  0.274513  0.861663  0.046029  1
  O  O20  1  0.864262  0.266403  0.544907  1
  O  O21  1  0.131098  0.723302  0.462470  1
  O  O22  1  0.392620  0.815385  0.576980  1
  O  O23  1  0.605984  0.166865  0.424668  1
  O  O24  1  0.174473  0.613582  0.919806  1
  O  O25  1  0.827103  0.392322  0.080508  1
  O  O26  1  0.164576  0.314298  0.800140  1
  O  O27  1  0.836854  0.690482  0.200737  1
  O  O28  1  0.689503  0.835423  0.698653  1
  O  O29  1  0.315063  0.154217  0.302968  1
  O  O30  1  0.902046  0.839327  0.935758  1
  O  O31  1  0.099920  0.166302  0.065025  1
  O  O32  1  0.169141  0.097490  0.557072  1
  O  O33  1  0.838623  0.896074  0.434967  1
