# generated using pymatgen
data_Hf2Be2AlIr5
_symmetry_space_group_name_H-M   'P 1'
_cell_length_a   9.43686700
_cell_length_b   9.43686700
_cell_length_c   3.15976000
_cell_angle_alpha   90.00000000
_cell_angle_beta   90.00000000
_cell_angle_gamma   90.00000000
_symmetry_Int_Tables_number   1
_chemical_formula_structural   Hf2Be2AlIr5
_chemical_formula_sum   'Hf4 Be4 Al2 Ir10'
_cell_volume   281.39071666
_cell_formula_units_Z   2
loop_
 _symmetry_equiv_pos_site_id
 _symmetry_equiv_pos_as_xyz
  1  'x, y, z'
loop_
 _atom_site_type_symbol
 _atom_site_label
 _atom_site_symmetry_multiplicity
 _atom_site_fract_x
 _atom_site_fract_y
 _atom_site_fract_z
 _atom_site_occupancy
  Hf  Hf0  1  0.676011  0.176011  0.000000  1
  Hf  Hf1  1  0.323989  0.823989  0.000000  1
  Hf  Hf2  1  0.176011  0.323989  0.000000  1
  Hf  Hf3  1  0.823989  0.676011  0.000000  1
  Be  Be4  1  0.123723  0.623723  0.000000  1
  Be  Be5  1  0.876277  0.376277  0.000000  1
  Be  Be6  1  0.623723  0.876277  0.000000  1
  Be  Be7  1  0.376277  0.123723  0.000000  1
  Al  Al8  1  0.000000  0.000000  0.000000  1
  Al  Al9  1  0.500000  0.500000  0.000000  1
  Ir  Ir10  1  0.210338  0.069033  0.500000  1
  Ir  Ir11  1  0.789662  0.930967  0.500000  1
  Ir  Ir12  1  0.069033  0.789662  0.500000  1
  Ir  Ir13  1  0.710338  0.430967  0.500000  1
  Ir  Ir14  1  0.930967  0.210338  0.500000  1
  Ir  Ir15  1  0.289662  0.569033  0.500000  1
  Ir  Ir16  1  0.569033  0.710338  0.500000  1
  Ir  Ir17  1  0.430967  0.289662  0.500000  1
  Ir  Ir18  1  0.500000  0.000000  0.500000  1
  Ir  Ir19  1  0.000000  0.500000  0.500000  1
