# generated using pymatgen
data_Dy2Zr(ScFe6)3
_symmetry_space_group_name_H-M   'P 1'
_cell_length_a   4.98454923
_cell_length_b   4.98454909
_cell_length_c   16.11723250
_cell_angle_alpha   98.89557970
_cell_angle_beta   98.89557724
_cell_angle_gamma   59.99998603
_symmetry_Int_Tables_number   1
_chemical_formula_structural   Dy2Zr(ScFe6)3
_chemical_formula_sum   'Dy2 Zr1 Sc3 Fe18'
_cell_volume   341.22189535
_cell_formula_units_Z   1
loop_
 _symmetry_equiv_pos_site_id
 _symmetry_equiv_pos_as_xyz
  1  'x, y, z'
loop_
 _atom_site_type_symbol
 _atom_site_label
 _atom_site_symmetry_multiplicity
 _atom_site_fract_x
 _atom_site_fract_y
 _atom_site_fract_z
 _atom_site_occupancy
  Dy  Dy0  1  0.000305  0.000305  0.000914  1
  Dy  Dy1  1  0.499346  0.499346  0.498039  1
  Zr  Zr2  1  0.571740  0.571740  0.715220  1
  Sc  Sc3  1  0.428181  0.428181  0.284544  1
  Sc  Sc4  1  0.929038  0.929038  0.787113  1
  Sc  Sc5  1  0.071659  0.071659  0.214976  1
  Fe  Fe6  1  0.455835  0.958423  0.372681  1
  Fe  Fe7  1  0.956503  0.458658  0.873819  1
  Fe  Fe8  1  0.958423  0.958423  0.372681  1
  Fe  Fe9  1  0.458658  0.458658  0.873819  1
  Fe  Fe10  1  0.958423  0.455835  0.372681  1
  Fe  Fe11  1  0.458658  0.956503  0.873819  1
  Fe  Fe12  1  0.044121  0.541418  0.126957  1
  Fe  Fe13  1  0.543793  0.041225  0.626243  1
  Fe  Fe14  1  0.541418  0.541418  0.126957  1
  Fe  Fe15  1  0.041225  0.041225  0.626243  1
  Fe  Fe16  1  0.541418  0.044121  0.126957  1
  Fe  Fe17  1  0.041225  0.543793  0.626243  1
  Fe  Fe18  1  0.333763  0.333763  0.001291  1
  Fe  Fe19  1  0.833505  0.833505  0.500514  1
  Fe  Fe20  1  0.166195  0.166195  0.498585  1
  Fe  Fe21  1  0.666538  0.666538  0.999614  1
  Fe  Fe22  1  0.749946  0.749946  0.249838  1
  Fe  Fe23  1  0.250082  0.250082  0.750246  1
