# generated using pymatgen
data_Ce3Pr4Nd(Si3Rh)4
_symmetry_space_group_name_H-M   'P 1'
_cell_length_a   8.26242600
_cell_length_b   8.26242703
_cell_length_c   8.36119800
_cell_angle_alpha   90.00000000
_cell_angle_beta   90.00000000
_cell_angle_gamma   119.99999588
_symmetry_Int_Tables_number   1
_chemical_formula_structural   Ce3Pr4Nd(Si3Rh)4
_chemical_formula_sum   'Ce3 Pr4 Nd1 Si12 Rh4'
_cell_volume   494.32705163
_cell_formula_units_Z   1
loop_
 _symmetry_equiv_pos_site_id
 _symmetry_equiv_pos_as_xyz
  1  'x, y, z'
loop_
 _atom_site_type_symbol
 _atom_site_label
 _atom_site_symmetry_multiplicity
 _atom_site_fract_x
 _atom_site_fract_y
 _atom_site_fract_z
 _atom_site_occupancy
  Ce  Ce0  1  0.498893  0.501107  0.750000  1
  Ce  Ce1  1  0.498893  0.997788  0.750000  1
  Ce  Ce2  1  0.002212  0.501107  0.750000  1
  Pr  Pr3  1  0.000000  0.000000  0.250000  1
  Pr  Pr4  1  0.500922  0.499078  0.250000  1
  Pr  Pr5  1  0.500922  0.001844  0.250000  1
  Pr  Pr6  1  0.998156  0.499078  0.250000  1
  Nd  Nd7  1  0.000000  0.000000  0.750000  1
  Si  Si8  1  0.166392  0.833608  0.503216  1
  Si  Si9  1  0.166392  0.332785  0.503216  1
  Si  Si10  1  0.667215  0.833608  0.503216  1
  Si  Si11  1  0.833513  0.166487  0.502760  1
  Si  Si12  1  0.833513  0.667024  0.502760  1
  Si  Si13  1  0.332976  0.166487  0.502760  1
  Si  Si14  1  0.833513  0.166487  0.997240  1
  Si  Si15  1  0.833513  0.667024  0.997240  1
  Si  Si16  1  0.332976  0.166487  0.997240  1
  Si  Si17  1  0.166392  0.833608  0.996784  1
  Si  Si18  1  0.166392  0.332785  0.996784  1
  Si  Si19  1  0.667215  0.833608  0.996784  1
  Rh  Rh20  1  0.333333  0.666667  0.514027  1
  Rh  Rh21  1  0.666667  0.333333  0.520158  1
  Rh  Rh22  1  0.666667  0.333333  0.979842  1
  Rh  Rh23  1  0.333333  0.666667  0.985973  1
