# generated using pymatgen
data_Dy8Ho2Ru3Rh
_symmetry_space_group_name_H-M   'P 1'
_cell_length_a   6.34466378
_cell_length_b   7.25715224
_cell_length_c   8.48763235
_cell_angle_alpha   96.66500411
_cell_angle_beta   111.99485460
_cell_angle_gamma   90.10654731
_symmetry_Int_Tables_number   1
_chemical_formula_structural   Dy8Ho2Ru3Rh
_chemical_formula_sum   'Dy8 Ho2 Ru3 Rh1'
_cell_volume   359.47715652
_cell_formula_units_Z   1
loop_
 _symmetry_equiv_pos_site_id
 _symmetry_equiv_pos_as_xyz
  1  'x, y, z'
loop_
 _atom_site_type_symbol
 _atom_site_label
 _atom_site_symmetry_multiplicity
 _atom_site_fract_x
 _atom_site_fract_y
 _atom_site_fract_z
 _atom_site_occupancy
  Dy  Dy0  1  0.978851  0.917699  0.184864  1
  Dy  Dy1  1  0.792014  0.585203  0.811040  1
  Dy  Dy2  1  0.021413  0.085077  0.814123  1
  Dy  Dy3  1  0.208969  0.413513  0.184865  1
  Dy  Dy4  1  0.640546  0.816676  0.435577  1
  Dy  Dy5  1  0.210556  0.685809  0.568657  1
  Dy  Dy6  1  0.357102  0.185558  0.566058  1
  Dy  Dy7  1  0.792647  0.312511  0.435445  1
  Ho  Ho8  1  0.420570  0.750918  0.999818  1
  Ho  Ho9  1  0.577051  0.247517  0.997946  1
  Ru  Ru10  1  0.604662  0.923261  0.780321  1
  Ru  Ru11  1  0.175746  0.425404  0.779219  1
  Ru  Ru12  1  0.397883  0.075639  0.220403  1
  Rh  Rh13  1  0.821989  0.575213  0.221666  1
