# generated using pymatgen
data_Sc2BeB3Ru5
_symmetry_space_group_name_H-M   'P 1'
_cell_length_a   3.04056400
_cell_length_b   8.51361545
_cell_length_c   10.15064588
_cell_angle_alpha   90.13823691
_cell_angle_beta   90.00000000
_cell_angle_gamma   90.00000000
_symmetry_Int_Tables_number   1
_chemical_formula_structural   Sc2BeB3Ru5
_chemical_formula_sum   'Sc4 Be2 B6 Ru10'
_cell_volume   262.76081004
_cell_formula_units_Z   2
loop_
 _symmetry_equiv_pos_site_id
 _symmetry_equiv_pos_as_xyz
  1  'x, y, z'
loop_
 _atom_site_type_symbol
 _atom_site_label
 _atom_site_symmetry_multiplicity
 _atom_site_fract_x
 _atom_site_fract_y
 _atom_site_fract_z
 _atom_site_occupancy
  Sc  Sc0  1  0.500000  0.842944  0.183458  1
  Sc  Sc1  1  0.500000  0.157056  0.816542  1
  Sc  Sc2  1  0.500000  0.656860  0.679151  1
  Sc  Sc3  1  0.500000  0.343140  0.320849  1
  Be  Be4  1  0.500000  0.962395  0.593616  1
  Be  Be5  1  0.500000  0.037605  0.406384  1
  B  B6  1  0.500000  0.852447  0.897867  1
  B  B7  1  0.500000  0.147553  0.102133  1
  B  B8  1  0.500000  0.653215  0.401872  1
  B  B9  1  0.500000  0.346785  0.598128  1
  B  B10  1  0.500000  0.465255  0.910080  1
  B  B11  1  0.500000  0.534745  0.089920  1
  Ru  Ru12  1  0.000000  0.657717  0.956411  1
  Ru  Ru13  1  0.000000  0.342283  0.043589  1
  Ru  Ru14  1  0.000000  0.832684  0.449238  1
  Ru  Ru15  1  0.000000  0.167316  0.550762  1
  Ru  Ru16  1  0.000000  0.000000  0.000000  1
  Ru  Ru17  1  0.000000  0.405982  0.761674  1
  Ru  Ru18  1  0.000000  0.594018  0.238326  1
  Ru  Ru19  1  0.000000  0.500000  0.500000  1
  Ru  Ru20  1  0.000000  0.896652  0.747699  1
  Ru  Ru21  1  0.000000  0.103348  0.252301  1
