# generated using pymatgen
data_Ce6Al23CoSiOs7
_symmetry_space_group_name_H-M   'P 1'
_cell_length_a   8.85844600
_cell_length_b   8.85844626
_cell_length_c   9.49796500
_cell_angle_alpha   90.00000000
_cell_angle_beta   90.00000000
_cell_angle_gamma   120.00000649
_symmetry_Int_Tables_number   1
_chemical_formula_structural   Ce6Al23CoSiOs7
_chemical_formula_sum   'Ce6 Al23 Co1 Si1 Os7'
_cell_volume   645.47030207
_cell_formula_units_Z   1
loop_
 _symmetry_equiv_pos_site_id
 _symmetry_equiv_pos_as_xyz
  1  'x, y, z'
loop_
 _atom_site_type_symbol
 _atom_site_label
 _atom_site_symmetry_multiplicity
 _atom_site_fract_x
 _atom_site_fract_y
 _atom_site_fract_z
 _atom_site_occupancy
  Ce  Ce0  1  0.195075  0.390150  0.249378  1
  Ce  Ce1  1  0.805759  0.611519  0.750039  1
  Ce  Ce2  1  0.609850  0.804925  0.249378  1
  Ce  Ce3  1  0.388481  0.194241  0.750039  1
  Ce  Ce4  1  0.195075  0.804925  0.249378  1
  Ce  Ce5  1  0.805759  0.194241  0.750039  1
  Al  Al6  1  0.666667  0.333333  0.989786  1
  Al  Al7  1  0.666667  0.333333  0.511405  1
  Al  Al8  1  0.333333  0.666667  0.484806  1
  Al  Al9  1  0.162129  0.324257  0.576346  1
  Al  Al10  1  0.838165  0.676332  0.422196  1
  Al  Al11  1  0.675743  0.837871  0.576346  1
  Al  Al12  1  0.839705  0.679409  0.076223  1
  Al  Al13  1  0.323668  0.161835  0.422196  1
  Al  Al14  1  0.161365  0.322730  0.922467  1
  Al  Al15  1  0.162129  0.837871  0.576346  1
  Al  Al16  1  0.320591  0.160295  0.076223  1
  Al  Al17  1  0.838165  0.161835  0.422196  1
  Al  Al18  1  0.677270  0.838635  0.922467  1
  Al  Al19  1  0.839705  0.160295  0.076223  1
  Al  Al20  1  0.161365  0.838635  0.922467  1
  Al  Al21  1  0.562076  0.124151  0.248953  1
  Al  Al22  1  0.437086  0.874172  0.749212  1
  Al  Al23  1  0.875849  0.437924  0.248953  1
  Al  Al24  1  0.125828  0.562914  0.749212  1
  Al  Al25  1  0.562076  0.437924  0.248953  1
  Al  Al26  1  0.437086  0.562914  0.749212  1
  Al  Al27  1  0.000000  0.000000  0.242478  1
  Al  Al28  1  0.000000  0.000000  0.757205  1
  Co  Co29  1  0.000000  0.000000  0.999277  1
  Si  Si30  1  0.333333  0.666667  0.031109  1
  Os  Os31  1  0.496957  0.993914  0.000218  1
  Os  Os32  1  0.006086  0.503043  0.000218  1
  Os  Os33  1  0.500517  0.001034  0.499636  1
  Os  Os34  1  0.496957  0.503043  0.000218  1
  Os  Os35  1  0.998966  0.499483  0.499636  1
  Os  Os36  1  0.500517  0.499483  0.499636  1
  Os  Os37  1  0.000000  0.000000  0.499935  1
