# generated using pymatgen
data_Ca3Zn3Rh2
_symmetry_space_group_name_H-M   'P 1'
_cell_length_a   5.78688400
_cell_length_b   8.07159700
_cell_length_c   15.06489800
_cell_angle_alpha   90.00000000
_cell_angle_beta   90.00000000
_cell_angle_gamma   90.00000000
_symmetry_Int_Tables_number   1
_chemical_formula_structural   Ca3Zn3Rh2
_chemical_formula_sum   'Ca12 Zn12 Rh8'
_cell_volume   703.67227936
_cell_formula_units_Z   4
loop_
 _symmetry_equiv_pos_site_id
 _symmetry_equiv_pos_as_xyz
  1  'x, y, z'
loop_
 _atom_site_type_symbol
 _atom_site_label
 _atom_site_symmetry_multiplicity
 _atom_site_fract_x
 _atom_site_fract_y
 _atom_site_fract_z
 _atom_site_occupancy
  Ca  Ca0  1  0.116931  0.547562  0.605379  1
  Ca  Ca1  1  0.626930  0.690820  0.750000  1
  Ca  Ca2  1  0.616931  0.952438  0.105379  1
  Ca  Ca3  1  0.383069  0.047562  0.894621  1
  Ca  Ca4  1  0.616931  0.952438  0.394621  1
  Ca  Ca5  1  0.873070  0.190820  0.750000  1
  Ca  Ca6  1  0.373070  0.309180  0.250000  1
  Ca  Ca7  1  0.383069  0.047562  0.605379  1
  Ca  Ca8  1  0.883069  0.452438  0.105379  1
  Ca  Ca9  1  0.116931  0.547562  0.894621  1
  Ca  Ca10  1  0.126930  0.809180  0.250000  1
  Ca  Ca11  1  0.883069  0.452438  0.394621  1
  Zn  Zn12  1  0.098236  0.848148  0.750000  1
  Zn  Zn13  1  0.886682  0.181382  0.962509  1
  Zn  Zn14  1  0.901764  0.151852  0.250000  1
  Zn  Zn15  1  0.598236  0.651852  0.250000  1
  Zn  Zn16  1  0.113318  0.818618  0.462509  1
  Zn  Zn17  1  0.386682  0.318618  0.037491  1
  Zn  Zn18  1  0.613318  0.681382  0.537491  1
  Zn  Zn19  1  0.613318  0.681382  0.962509  1
  Zn  Zn20  1  0.386682  0.318618  0.462509  1
  Zn  Zn21  1  0.113318  0.818618  0.037491  1
  Zn  Zn22  1  0.401764  0.348148  0.750000  1
  Zn  Zn23  1  0.886682  0.181382  0.537491  1
  Rh  Rh24  1  0.888524  0.892867  0.604398  1
  Rh  Rh25  1  0.611476  0.392867  0.895602  1
  Rh  Rh26  1  0.888524  0.892867  0.895602  1
  Rh  Rh27  1  0.388524  0.607133  0.104398  1
  Rh  Rh28  1  0.111476  0.107133  0.395602  1
  Rh  Rh29  1  0.388524  0.607133  0.395602  1
  Rh  Rh30  1  0.611476  0.392867  0.604398  1
  Rh  Rh31  1  0.111476  0.107133  0.104398  1
