# generated using pymatgen
data_Ti3Be2PdO
_symmetry_space_group_name_H-M   'P 1'
_cell_length_a   7.81362586
_cell_length_b   7.81481008
_cell_length_c   7.81410812
_cell_angle_alpha   60.02300702
_cell_angle_beta   60.00731099
_cell_angle_gamma   60.00822352
_symmetry_Int_Tables_number   1
_chemical_formula_structural   Ti3Be2PdO
_chemical_formula_sum   'Ti12 Be8 Pd4 O4'
_cell_volume   337.49077776
_cell_formula_units_Z   4
loop_
 _symmetry_equiv_pos_site_id
 _symmetry_equiv_pos_as_xyz
  1  'x, y, z'
loop_
 _atom_site_type_symbol
 _atom_site_label
 _atom_site_symmetry_multiplicity
 _atom_site_fract_x
 _atom_site_fract_y
 _atom_site_fract_z
 _atom_site_occupancy
  Ti  Ti0  1  0.689059  0.311056  0.689061  1
  Ti  Ti1  1  0.939024  0.560951  0.560952  1
  Ti  Ti2  1  0.560924  0.939047  0.939104  1
  Ti  Ti3  1  0.939121  0.560938  0.938999  1
  Ti  Ti4  1  0.560945  0.560942  0.938970  1
  Ti  Ti5  1  0.939152  0.938973  0.560936  1
  Ti  Ti6  1  0.689055  0.689058  0.311030  1
  Ti  Ti7  1  0.310976  0.689049  0.689048  1
  Ti  Ti8  1  0.689076  0.310953  0.310896  1
  Ti  Ti9  1  0.310848  0.311027  0.689064  1
  Ti  Ti10  1  0.560941  0.938944  0.560939  1
  Ti  Ti11  1  0.310879  0.689062  0.311001  1
  Be  Be12  1  0.330066  0.330126  0.330103  1
  Be  Be13  1  0.240303  0.919868  0.919888  1
  Be  Be14  1  0.919898  0.240348  0.919843  1
  Be  Be15  1  0.919908  0.919834  0.240333  1
  Be  Be16  1  0.330102  0.009652  0.330157  1
  Be  Be17  1  0.330092  0.330166  0.009667  1
  Be  Be18  1  0.009697  0.330132  0.330112  1
  Be  Be19  1  0.919934  0.919874  0.919897  1
  Pd  Pd20  1  0.125000  0.125000  0.125000  1
  Pd  Pd21  1  0.625000  0.125000  0.125000  1
  Pd  Pd22  1  0.125000  0.625000  0.125000  1
  Pd  Pd23  1  0.125000  0.125000  0.625000  1
  O  O24  1  0.625000  0.625000  0.625000  1
  O  O25  1  0.125000  0.625000  0.625000  1
  O  O26  1  0.625000  0.125000  0.625000  1
  O  O27  1  0.625000  0.625000  0.125000  1
