# generated using pymatgen
data_Na3Yb(PuS3)2
_symmetry_space_group_name_H-M   'P 1'
_cell_length_a   6.98483833
_cell_length_b   6.98483767
_cell_length_c   7.00532778
_cell_angle_alpha   80.34558110
_cell_angle_beta   80.34557473
_cell_angle_gamma   119.97977769
_symmetry_Int_Tables_number   1
_chemical_formula_structural   Na3Yb(PuS3)2
_chemical_formula_sum   'Na3 Yb1 Pu2 S6'
_cell_volume   278.90814049
_cell_formula_units_Z   1
loop_
 _symmetry_equiv_pos_site_id
 _symmetry_equiv_pos_as_xyz
  1  'x, y, z'
loop_
 _atom_site_type_symbol
 _atom_site_label
 _atom_site_symmetry_multiplicity
 _atom_site_fract_x
 _atom_site_fract_y
 _atom_site_fract_z
 _atom_site_occupancy
  Na  Na0  1  0.500000  0.500000  0.500000  1
  Na  Na1  1  0.837909  0.162091  0.500000  1
  Na  Na2  1  0.162091  0.837909  0.500000  1
  Yb  Yb3  1  0.000000  0.000000  0.000000  1
  Pu  Pu4  1  0.333006  0.666994  0.000000  1
  Pu  Pu5  1  0.666994  0.333006  0.000000  1
  S  S6  1  0.579811  0.924096  0.224864  1
  S  S7  1  0.732157  0.732157  0.773381  1
  S  S8  1  0.420189  0.075904  0.775136  1
  S  S9  1  0.075904  0.420189  0.775136  1
  S  S10  1  0.924096  0.579811  0.224864  1
  S  S11  1  0.267843  0.267843  0.226619  1
