# generated using pymatgen
data_CuAg2(PO4)2
_symmetry_space_group_name_H-M   'P 1'
_cell_length_a   4.80944395
_cell_length_b   5.89675905
_cell_length_c   6.76727969
_cell_angle_alpha   105.88862201
_cell_angle_beta   87.04738102
_cell_angle_gamma   109.05824080
_symmetry_Int_Tables_number   1
_chemical_formula_structural   CuAg2(PO4)2
_chemical_formula_sum   'Cu1 Ag2 P2 O8'
_cell_volume   174.31934867
_cell_formula_units_Z   1
loop_
 _symmetry_equiv_pos_site_id
 _symmetry_equiv_pos_as_xyz
  1  'x, y, z'
loop_
 _atom_site_type_symbol
 _atom_site_label
 _atom_site_symmetry_multiplicity
 _atom_site_fract_x
 _atom_site_fract_y
 _atom_site_fract_z
 _atom_site_occupancy
  Cu  Cu0  1  0.000000  0.000000  0.000000  1
  Ag  Ag1  1  0.275066  0.741302  0.309948  1
  Ag  Ag2  1  0.724934  0.258698  0.690052  1
  P  P3  1  0.376975  0.695458  0.786628  1
  P  P4  1  0.623025  0.304542  0.213372  1
  O  O5  1  0.371688  0.867969  0.649869  1
  O  O6  1  0.628312  0.132031  0.350131  1
  O  O7  1  0.226975  0.791398  0.994180  1
  O  O8  1  0.773025  0.208602  0.005820  1
  O  O9  1  0.306507  0.287196  0.150322  1
  O  O10  1  0.219045  0.421245  0.679632  1
  O  O11  1  0.780955  0.578755  0.320368  1
  O  O12  1  0.693493  0.712804  0.849678  1
