# generated using pymatgen
data_Tb6CeEr13Sn16
_symmetry_space_group_name_H-M   'P 1'
_cell_length_a   8.01117359
_cell_length_b   8.14421973
_cell_length_c   15.39501800
_cell_angle_alpha   90.01226930
_cell_angle_beta   90.10157252
_cell_angle_gamma   89.95471418
_symmetry_Int_Tables_number   1
_chemical_formula_structural   Tb6CeEr13Sn16
_chemical_formula_sum   'Tb6 Ce1 Er13 Sn16'
_cell_volume   1004.44230877
_cell_formula_units_Z   1
loop_
 _symmetry_equiv_pos_site_id
 _symmetry_equiv_pos_as_xyz
  1  'x, y, z'
loop_
 _atom_site_type_symbol
 _atom_site_label
 _atom_site_symmetry_multiplicity
 _atom_site_fract_x
 _atom_site_fract_y
 _atom_site_fract_z
 _atom_site_occupancy
  Tb  Tb0  1  0.019639  0.179831  0.597548  1
  Tb  Tb1  1  0.480883  0.679090  0.403190  1
  Tb  Tb2  1  0.980541  0.820228  0.097392  1
  Tb  Tb3  1  0.480152  0.678929  0.096863  1
  Tb  Tb4  1  0.980909  0.820661  0.403156  1
  Tb  Tb5  1  0.518714  0.321543  0.595784  1
  Ce  Ce6  1  0.017320  0.180518  0.904906  1
  Er  Er7  1  0.365970  0.836234  0.877012  1
  Er  Er8  1  0.865362  0.663151  0.622582  1
  Er  Er9  1  0.634279  0.162777  0.376868  1
  Er  Er10  1  0.133709  0.337383  0.122634  1
  Er  Er11  1  0.633520  0.162562  0.123082  1
  Er  Er12  1  0.134726  0.337318  0.377169  1
  Er  Er13  1  0.365143  0.837652  0.623164  1
  Er  Er14  1  0.865377  0.662047  0.877435  1
  Er  Er15  1  0.522865  0.322033  0.902304  1
  Er  Er16  1  0.196987  0.502998  0.749790  1
  Er  Er17  1  0.696824  0.995914  0.749393  1
  Er  Er18  1  0.802737  0.496745  0.250015  1
  Er  Er19  1  0.303179  0.003597  0.250147  1
  Sn  Sn20  1  0.297223  0.037565  0.041901  1
  Sn  Sn21  1  0.795832  0.461497  0.458316  1
  Sn  Sn22  1  0.704473  0.962175  0.541548  1
  Sn  Sn23  1  0.207941  0.536015  0.957694  1
  Sn  Sn24  1  0.702813  0.960939  0.958708  1
  Sn  Sn25  1  0.203940  0.539300  0.541408  1
  Sn  Sn26  1  0.295933  0.038483  0.458594  1
  Sn  Sn27  1  0.793365  0.461300  0.041179  1
  Sn  Sn28  1  0.562635  0.619114  0.749895  1
  Sn  Sn29  1  0.062819  0.880472  0.750761  1
  Sn  Sn30  1  0.436437  0.380548  0.249656  1
  Sn  Sn31  1  0.936812  0.119629  0.249876  1
  Sn  Sn32  1  0.330956  0.148722  0.750507  1
  Sn  Sn33  1  0.827206  0.353156  0.749467  1
  Sn  Sn34  1  0.671472  0.852303  0.250010  1
  Sn  Sn35  1  0.171303  0.647569  0.250042  1
