# generated using pymatgen
data_Np2VWN4
_symmetry_space_group_name_H-M   'P 1'
_cell_length_a   3.16568000
_cell_length_b   5.52949900
_cell_length_c   10.78035900
_cell_angle_alpha   90.00000000
_cell_angle_beta   90.00000000
_cell_angle_gamma   90.00000000
_symmetry_Int_Tables_number   1
_chemical_formula_structural   Np2VWN4
_chemical_formula_sum   'Np4 V2 W2 N8'
_cell_volume   188.70613513
_cell_formula_units_Z   2
loop_
 _symmetry_equiv_pos_site_id
 _symmetry_equiv_pos_as_xyz
  1  'x, y, z'
loop_
 _atom_site_type_symbol
 _atom_site_label
 _atom_site_symmetry_multiplicity
 _atom_site_fract_x
 _atom_site_fract_y
 _atom_site_fract_z
 _atom_site_occupancy
  Np  Np0  1  0.750000  0.076374  0.858112  1
  Np  Np1  1  0.750000  0.576568  0.643104  1
  Np  Np2  1  0.250000  0.923432  0.143104  1
  Np  Np3  1  0.250000  0.423626  0.358112  1
  V  V4  1  0.250000  0.575759  0.899981  1
  V  V5  1  0.750000  0.924241  0.399981  1
  W  W6  1  0.250000  0.071188  0.601907  1
  W  W7  1  0.750000  0.428812  0.101907  1
  N  N8  1  0.250000  0.338367  0.746815  1
  N  N9  1  0.750000  0.161633  0.246815  1
  N  N10  1  0.250000  0.254470  0.002788  1
  N  N11  1  0.750000  0.667602  0.256308  1
  N  N12  1  0.250000  0.832398  0.756308  1
  N  N13  1  0.750000  0.745790  0.990985  1
  N  N14  1  0.750000  0.245530  0.502788  1
  N  N15  1  0.250000  0.754210  0.490985  1
