# generated using pymatgen
data_Y5Ho2FeBr12
_symmetry_space_group_name_H-M   'P 1'
_cell_length_a   9.11903402
_cell_length_b   9.24045766
_cell_length_c   9.22643600
_cell_angle_alpha   107.02670654
_cell_angle_beta   106.84784673
_cell_angle_gamma   106.81677174
_symmetry_Int_Tables_number   1
_chemical_formula_structural   Y5Ho2FeBr12
_chemical_formula_sum   'Y5 Ho2 Fe1 Br12'
_cell_volume   649.28026852
_cell_formula_units_Z   1
loop_
 _symmetry_equiv_pos_site_id
 _symmetry_equiv_pos_as_xyz
  1  'x, y, z'
loop_
 _atom_site_type_symbol
 _atom_site_label
 _atom_site_symmetry_multiplicity
 _atom_site_fract_x
 _atom_site_fract_y
 _atom_site_fract_z
 _atom_site_occupancy
  Y  Y0  1  0.900970  0.978205  0.694367  1
  Y  Y1  1  0.704879  0.904729  0.978641  1
  Y  Y2  1  0.980245  0.693855  0.900307  1
  Y  Y3  1  0.099201  0.020325  0.305370  1
  Y  Y4  1  0.295431  0.095905  0.021721  1
  Ho  Ho5  1  0.019874  0.302078  0.098951  1
  Ho  Ho6  1  0.499427  0.500872  0.500061  1
  Fe  Fe7  1  0.000128  0.999303  0.999842  1
  Br  Br8  1  0.832033  0.613076  0.534662  1
  Br  Br9  1  0.535507  0.831060  0.613900  1
  Br  Br10  1  0.614327  0.538945  0.830956  1
  Br  Br11  1  0.166083  0.386462  0.462598  1
  Br  Br12  1  0.464576  0.170707  0.386349  1
  Br  Br13  1  0.383143  0.461190  0.168514  1
  Br  Br14  1  0.928948  0.322575  0.781656  1
  Br  Br15  1  0.777158  0.928491  0.320730  1
  Br  Br16  1  0.324760  0.781164  0.931296  1
  Br  Br17  1  0.071010  0.675936  0.220294  1
  Br  Br18  1  0.223531  0.073636  0.680143  1
  Br  Br19  1  0.678768  0.221485  0.069641  1
