# generated using pymatgen
data_Er4GaTc7
_symmetry_space_group_name_H-M   'P 1'
_cell_length_a   5.31099300
_cell_length_b   5.31099201
_cell_length_c   8.99863100
_cell_angle_alpha   90.00000000
_cell_angle_beta   90.00000000
_cell_angle_gamma   119.99999995
_symmetry_Int_Tables_number   1
_chemical_formula_structural   Er4GaTc7
_chemical_formula_sum   'Er4 Ga1 Tc7'
_cell_volume   219.81557050
_cell_formula_units_Z   1
loop_
 _symmetry_equiv_pos_site_id
 _symmetry_equiv_pos_as_xyz
  1  'x, y, z'
loop_
 _atom_site_type_symbol
 _atom_site_label
 _atom_site_symmetry_multiplicity
 _atom_site_fract_x
 _atom_site_fract_y
 _atom_site_fract_z
 _atom_site_occupancy
  Er  Er0  1  0.333333  0.666667  0.434050  1
  Er  Er1  1  0.666667  0.333333  0.565950  1
  Er  Er2  1  0.666667  0.333333  0.933792  1
  Er  Er3  1  0.333333  0.666667  0.066208  1
  Ga  Ga4  1  0.000000  0.000000  0.500000  1
  Tc  Tc5  1  0.000000  0.000000  0.000000  1
  Tc  Tc6  1  0.829962  0.170038  0.250339  1
  Tc  Tc7  1  0.829962  0.659926  0.250339  1
  Tc  Tc8  1  0.340074  0.170038  0.250339  1
  Tc  Tc9  1  0.170038  0.829962  0.749661  1
  Tc  Tc10  1  0.170038  0.340074  0.749661  1
  Tc  Tc11  1  0.659926  0.829962  0.749661  1
