# generated using pymatgen
data_La3Nd(As2Au)4
_symmetry_space_group_name_H-M   'P 1'
_cell_length_a   4.13028100
_cell_length_b   4.20356589
_cell_length_c   20.93288757
_cell_angle_alpha   89.92484768
_cell_angle_beta   90.00000000
_cell_angle_gamma   90.00000000
_symmetry_Int_Tables_number   1
_chemical_formula_structural   La3Nd(As2Au)4
_chemical_formula_sum   'La3 Nd1 As8 Au4'
_cell_volume   363.43456243
_cell_formula_units_Z   1
loop_
 _symmetry_equiv_pos_site_id
 _symmetry_equiv_pos_as_xyz
  1  'x, y, z'
loop_
 _atom_site_type_symbol
 _atom_site_label
 _atom_site_symmetry_multiplicity
 _atom_site_fract_x
 _atom_site_fract_y
 _atom_site_fract_z
 _atom_site_occupancy
  La  La0  1  0.250000  0.227343  0.118437  1
  La  La1  1  0.750000  0.726293  0.380875  1
  La  La2  1  0.250000  0.273531  0.619551  1
  Nd  Nd3  1  0.750000  0.773118  0.880272  1
  As  As4  1  0.250000  0.694234  0.000553  1
  As  As5  1  0.750000  0.726858  0.160974  1
  As  As6  1  0.250000  0.225992  0.338390  1
  As  As7  1  0.750000  0.193203  0.497626  1
  As  As8  1  0.250000  0.806869  0.502557  1
  As  As9  1  0.750000  0.773893  0.662040  1
  As  As10  1  0.250000  0.273308  0.840867  1
  As  As11  1  0.750000  0.305381  0.995756  1
  Au  Au12  1  0.750000  0.223974  0.250350  1
  Au  Au13  1  0.250000  0.724014  0.249937  1
  Au  Au14  1  0.750000  0.275869  0.751185  1
  Au  Au15  1  0.250000  0.776119  0.750631  1
