# generated using pymatgen
data_Sc2Re2TcB4
_symmetry_space_group_name_H-M   'P 1'
_cell_length_a   6.09140800
_cell_length_b   6.09140800
_cell_length_c   11.22172400
_cell_angle_alpha   90.00000000
_cell_angle_beta   90.00000000
_cell_angle_gamma   90.00000000
_symmetry_Int_Tables_number   1
_chemical_formula_structural   Sc2Re2TcB4
_chemical_formula_sum   'Sc8 Re8 Tc4 B16'
_cell_volume   416.38489041
_cell_formula_units_Z   4
loop_
 _symmetry_equiv_pos_site_id
 _symmetry_equiv_pos_as_xyz
  1  'x, y, z'
loop_
 _atom_site_type_symbol
 _atom_site_label
 _atom_site_symmetry_multiplicity
 _atom_site_fract_x
 _atom_site_fract_y
 _atom_site_fract_z
 _atom_site_occupancy
  Sc  Sc0  1  0.995331  0.653657  0.039113  1
  Sc  Sc1  1  0.004669  0.346343  0.539113  1
  Sc  Sc2  1  0.346343  0.004669  0.460887  1
  Sc  Sc3  1  0.153657  0.504669  0.789113  1
  Sc  Sc4  1  0.846343  0.495331  0.289113  1
  Sc  Sc5  1  0.504669  0.153657  0.210887  1
  Sc  Sc6  1  0.495331  0.846343  0.710887  1
  Sc  Sc7  1  0.653657  0.995331  0.960887  1
  Re  Re8  1  0.005757  0.850597  0.625394  1
  Re  Re9  1  0.994243  0.149403  0.125394  1
  Re  Re10  1  0.850597  0.005757  0.374606  1
  Re  Re11  1  0.350597  0.494243  0.375394  1
  Re  Re12  1  0.649403  0.505757  0.875394  1
  Re  Re13  1  0.494243  0.350597  0.624606  1
  Re  Re14  1  0.505757  0.649403  0.124606  1
  Re  Re15  1  0.149403  0.994243  0.874606  1
  Tc  Tc16  1  0.674393  0.674393  0.500000  1
  Tc  Tc17  1  0.174393  0.825607  0.250000  1
  Tc  Tc18  1  0.325607  0.325607  0.000000  1
  Tc  Tc19  1  0.825607  0.174393  0.750000  1
  B  B20  1  0.061925  0.708411  0.442109  1
  B  B21  1  0.641628  0.288935  0.439981  1
  B  B22  1  0.358372  0.711065  0.939981  1
  B  B23  1  0.211065  0.141628  0.689981  1
  B  B24  1  0.288935  0.641628  0.560019  1
  B  B25  1  0.711065  0.358372  0.060019  1
  B  B26  1  0.788935  0.858372  0.189981  1
  B  B27  1  0.141628  0.211065  0.310019  1
  B  B28  1  0.938075  0.291589  0.942109  1
  B  B29  1  0.708411  0.061925  0.557891  1
  B  B30  1  0.208411  0.438075  0.192109  1
  B  B31  1  0.791589  0.561925  0.692109  1
  B  B32  1  0.438075  0.208411  0.807891  1
  B  B33  1  0.561925  0.791589  0.307891  1
  B  B34  1  0.291589  0.938075  0.057891  1
  B  B35  1  0.858372  0.788935  0.810019  1
