# generated using pymatgen
data_YbTa2Nb3(B2Ru5)2
_symmetry_space_group_name_H-M   'P 1'
_cell_length_a   9.52252501
_cell_length_b   9.52252521
_cell_length_c   3.03832100
_cell_angle_alpha   90.00000000
_cell_angle_beta   90.00000000
_cell_angle_gamma   90.32020179
_symmetry_Int_Tables_number   1
_chemical_formula_structural   YbTa2Nb3(B2Ru5)2
_chemical_formula_sum   'Yb1 Ta2 Nb3 B4 Ru10'
_cell_volume   275.50604112
_cell_formula_units_Z   1
loop_
 _symmetry_equiv_pos_site_id
 _symmetry_equiv_pos_as_xyz
  1  'x, y, z'
loop_
 _atom_site_type_symbol
 _atom_site_label
 _atom_site_symmetry_multiplicity
 _atom_site_fract_x
 _atom_site_fract_y
 _atom_site_fract_z
 _atom_site_occupancy
  Yb  Yb0  1  0.825050  0.674950  0.000000  1
  Ta  Ta1  1  0.503607  0.501494  0.000000  1
  Ta  Ta2  1  0.998506  0.996393  0.000000  1
  Nb  Nb3  1  0.177140  0.322860  0.000000  1
  Nb  Nb4  1  0.325003  0.823411  0.000000  1
  Nb  Nb5  1  0.676589  0.174997  0.000000  1
  B  B6  1  0.619552  0.880448  0.000000  1
  B  B7  1  0.376672  0.123328  0.000000  1
  B  B8  1  0.122850  0.618961  0.000000  1
  B  B9  1  0.881039  0.377150  0.000000  1
  Ru  Ru10  1  0.556679  0.725545  0.500000  1
  Ru  Ru11  1  0.426243  0.283906  0.500000  1
  Ru  Ru12  1  0.083660  0.782883  0.500000  1
  Ru  Ru13  1  0.930790  0.215317  0.500000  1
  Ru  Ru14  1  0.284683  0.569210  0.500000  1
  Ru  Ru15  1  0.717117  0.416340  0.500000  1
  Ru  Ru16  1  0.216094  0.073757  0.500000  1
  Ru  Ru17  1  0.774455  0.943321  0.500000  1
  Ru  Ru18  1  0.495336  0.004664  0.500000  1
  Ru  Ru19  1  0.008934  0.491066  0.500000  1
