# generated using pymatgen
data_Zr16Co4Ag3PdN4
_symmetry_space_group_name_H-M   'P 1'
_cell_length_a   8.78125564
_cell_length_b   8.78125503
_cell_length_c   8.78125650
_cell_angle_alpha   60.05188689
_cell_angle_beta   60.05189015
_cell_angle_gamma   60.05188754
_symmetry_Int_Tables_number   1
_chemical_formula_structural   Zr16Co4Ag3PdN4
_chemical_formula_sum   'Zr16 Co4 Ag3 Pd1 N4'
_cell_volume   479.36390319
_cell_formula_units_Z   1
loop_
 _symmetry_equiv_pos_site_id
 _symmetry_equiv_pos_as_xyz
  1  'x, y, z'
loop_
 _atom_site_type_symbol
 _atom_site_label
 _atom_site_symmetry_multiplicity
 _atom_site_fract_x
 _atom_site_fract_y
 _atom_site_fract_z
 _atom_site_occupancy
  Zr  Zr0  1  0.062849  0.644905  0.644905  1
  Zr  Zr1  1  0.644905  0.062849  0.644905  1
  Zr  Zr2  1  0.644905  0.644905  0.062849  1
  Zr  Zr3  1  0.647150  0.647150  0.647150  1
  Zr  Zr4  1  0.817814  0.817814  0.181975  1
  Zr  Zr5  1  0.182750  0.182750  0.817238  1
  Zr  Zr6  1  0.817814  0.181975  0.817814  1
  Zr  Zr7  1  0.182750  0.817238  0.182750  1
  Zr  Zr8  1  0.181975  0.817814  0.817814  1
  Zr  Zr9  1  0.817238  0.182750  0.182750  1
  Zr  Zr10  1  0.432771  0.432771  0.069809  1
  Zr  Zr11  1  0.068838  0.068838  0.431462  1
  Zr  Zr12  1  0.432771  0.069809  0.432771  1
  Zr  Zr13  1  0.068838  0.431462  0.068838  1
  Zr  Zr14  1  0.069809  0.432771  0.432771  1
  Zr  Zr15  1  0.431462  0.068838  0.068838  1
  Co  Co16  1  0.438156  0.854102  0.854102  1
  Co  Co17  1  0.854102  0.438156  0.854102  1
  Co  Co18  1  0.854102  0.854102  0.438156  1
  Co  Co19  1  0.853615  0.853615  0.853615  1
  Ag  Ag20  1  0.745140  0.417644  0.417644  1
  Ag  Ag21  1  0.417644  0.745140  0.417644  1
  Ag  Ag22  1  0.417644  0.417644  0.745140  1
  Pd  Pd23  1  0.414299  0.414299  0.414299  1
  N  N24  1  0.623178  0.125800  0.125800  1
  N  N25  1  0.125800  0.623178  0.125800  1
  N  N26  1  0.125800  0.125800  0.623178  1
  N  N27  1  0.125879  0.125879  0.125879  1
