# generated using pymatgen
data_Nd9ErSe10
_symmetry_space_group_name_H-M   'P 1'
_cell_length_a   7.27695598
_cell_length_b   8.37345960
_cell_length_c   9.49884862
_cell_angle_alpha   103.23365106
_cell_angle_beta   96.73438321
_cell_angle_gamma   106.55591279
_symmetry_Int_Tables_number   1
_chemical_formula_structural   Nd9ErSe10
_chemical_formula_sum   'Nd9 Er1 Se10'
_cell_volume   529.63704932
_cell_formula_units_Z   1
loop_
 _symmetry_equiv_pos_site_id
 _symmetry_equiv_pos_as_xyz
  1  'x, y, z'
loop_
 _atom_site_type_symbol
 _atom_site_label
 _atom_site_symmetry_multiplicity
 _atom_site_fract_x
 _atom_site_fract_y
 _atom_site_fract_z
 _atom_site_occupancy
  Nd  Nd0  1  0.799879  0.599346  0.596333  1
  Nd  Nd1  1  0.592091  0.195781  0.198008  1
  Nd  Nd2  1  0.407909  0.804219  0.801992  1
  Nd  Nd3  1  0.599931  0.701875  0.201181  1
  Nd  Nd4  1  0.200121  0.400654  0.403667  1
  Nd  Nd5  1  0.400069  0.298125  0.798819  1
  Nd  Nd6  1  0.000000  0.000000  0.000000  1
  Nd  Nd7  1  0.202416  0.901534  0.400877  1
  Nd  Nd8  1  0.797584  0.098466  0.599123  1
  Er  Er9  1  0.000000  0.500000  0.000000  1
  Se  Se10  1  0.708839  0.645116  0.901698  1
  Se  Se11  1  0.500374  0.250594  0.499885  1
  Se  Se12  1  0.709364  0.160829  0.903298  1
  Se  Se13  1  0.290636  0.839171  0.096702  1
  Se  Se14  1  0.499626  0.749406  0.500115  1
  Se  Se15  1  0.098439  0.453032  0.709173  1
  Se  Se16  1  0.291161  0.354884  0.098302  1
  Se  Se17  1  0.899428  0.051161  0.300038  1
  Se  Se18  1  0.100572  0.948839  0.699962  1
  Se  Se19  1  0.901561  0.546968  0.290827  1
