# generated using pymatgen
data_Lu3AlGa4Ni
_symmetry_space_group_name_H-M   'P 1'
_cell_length_a   6.74308500
_cell_length_b   6.78662444
_cell_length_c   4.17492400
_cell_angle_alpha   90.00000000
_cell_angle_beta   90.00000000
_cell_angle_gamma   119.78800850
_symmetry_Int_Tables_number   1
_chemical_formula_structural   Lu3AlGa4Ni
_chemical_formula_sum   'Lu3 Al1 Ga4 Ni1'
_cell_volume   165.81179641
_cell_formula_units_Z   1
loop_
 _symmetry_equiv_pos_site_id
 _symmetry_equiv_pos_as_xyz
  1  'x, y, z'
loop_
 _atom_site_type_symbol
 _atom_site_label
 _atom_site_symmetry_multiplicity
 _atom_site_fract_x
 _atom_site_fract_y
 _atom_site_fract_z
 _atom_site_occupancy
  Lu  Lu0  1  0.592557  0.000000  0.500000  1
  Lu  Lu1  1  0.408086  0.408200  0.500000  1
  Lu  Lu2  1  0.999886  0.591800  0.500000  1
  Al  Al3  1  0.231297  0.000000  0.000000  1
  Ga  Ga4  1  0.001953  0.237821  0.000000  1
  Ga  Ga5  1  0.665267  0.331655  0.000000  1
  Ga  Ga6  1  0.333612  0.668345  0.000000  1
  Ga  Ga7  1  0.764132  0.762179  0.000000  1
  Ni  Ni8  1  0.003210  0.000000  0.500000  1
