# generated using pymatgen
data_Li2Fe3Ni9P7
_symmetry_space_group_name_H-M   'P 1'
_cell_length_a   3.55144800
_cell_length_b   9.06596475
_cell_length_c   9.06596400
_cell_angle_alpha   119.99999726
_cell_angle_beta   90.00000000
_cell_angle_gamma   90.00000000
_symmetry_Int_Tables_number   1
_chemical_formula_structural   Li2Fe3Ni9P7
_chemical_formula_sum   'Li2 Fe3 Ni9 P7'
_cell_volume   252.79246231
_cell_formula_units_Z   1
loop_
 _symmetry_equiv_pos_site_id
 _symmetry_equiv_pos_as_xyz
  1  'x, y, z'
loop_
 _atom_site_type_symbol
 _atom_site_label
 _atom_site_symmetry_multiplicity
 _atom_site_fract_x
 _atom_site_fract_y
 _atom_site_fract_z
 _atom_site_occupancy
  Li  Li0  1  0.000000  0.666667  0.333333  1
  Li  Li1  1  0.500000  0.333333  0.666667  1
  Fe  Fe2  1  0.000000  0.882531  0.156517  1
  Fe  Fe3  1  0.000000  0.273986  0.117469  1
  Fe  Fe4  1  0.000000  0.843483  0.726014  1
  Ni  Ni5  1  0.000000  0.560379  0.936037  1
  Ni  Ni6  1  0.000000  0.375658  0.439621  1
  Ni  Ni7  1  0.000000  0.063963  0.624342  1
  Ni  Ni8  1  0.500000  0.765705  0.898559  1
  Ni  Ni9  1  0.500000  0.132854  0.234295  1
  Ni  Ni10  1  0.500000  0.101441  0.867146  1
  Ni  Ni11  1  0.500000  0.943836  0.386069  1
  Ni  Ni12  1  0.500000  0.442232  0.056164  1
  Ni  Ni13  1  0.500000  0.613931  0.557768  1
  P  P14  1  0.000000  0.000000  0.000000  1
  P  P15  1  0.500000  0.715955  0.120069  1
  P  P16  1  0.500000  0.404113  0.284045  1
  P  P17  1  0.500000  0.879931  0.595887  1
  P  P18  1  0.000000  0.590024  0.708027  1
  P  P19  1  0.000000  0.118003  0.409976  1
  P  P20  1  0.000000  0.291973  0.881997  1
