# generated using pymatgen
data_Dy5TmMg2(P3Ir4)4
_symmetry_space_group_name_H-M   'P 1'
_cell_length_a   12.97600000
_cell_length_b   12.82335734
_cell_length_c   3.98429500
_cell_angle_alpha   90.00000000
_cell_angle_beta   90.00000000
_cell_angle_gamma   120.39455160
_symmetry_Int_Tables_number   1
_chemical_formula_structural   Dy5TmMg2(P3Ir4)4
_chemical_formula_sum   'Dy5 Tm1 Mg2 P12 Ir16'
_cell_volume   571.85283863
_cell_formula_units_Z   1
loop_
 _symmetry_equiv_pos_site_id
 _symmetry_equiv_pos_as_xyz
  1  'x, y, z'
loop_
 _atom_site_type_symbol
 _atom_site_label
 _atom_site_symmetry_multiplicity
 _atom_site_fract_x
 _atom_site_fract_y
 _atom_site_fract_z
 _atom_site_occupancy
  Dy  Dy0  1  0.334351  0.668929  0.500000  1
  Dy  Dy1  1  0.665422  0.331071  0.500000  1
  Dy  Dy2  1  0.001629  0.811701  0.000000  1
  Dy  Dy3  1  0.189928  0.188299  0.000000  1
  Dy  Dy4  1  0.811596  0.000000  0.000000  1
  Tm  Tm5  1  0.441997  0.000000  0.500000  1
  Mg  Mg6  1  0.002552  0.447820  0.500000  1
  Mg  Mg7  1  0.554732  0.552180  0.500000  1
  P  P8  1  0.993775  0.640529  0.500000  1
  P  P9  1  0.353245  0.359471  0.500000  1
  P  P10  1  0.647554  0.000000  0.500000  1
  P  P11  1  0.515724  0.686610  0.000000  1
  P  P12  1  0.311178  0.828485  0.000000  1
  P  P13  1  0.175070  0.483500  0.000000  1
  P  P14  1  0.482694  0.171515  0.000000  1
  P  P15  1  0.691570  0.516500  0.000000  1
  P  P16  1  0.829113  0.313390  0.000000  1
  P  P17  1  0.999568  0.178043  0.500000  1
  P  P18  1  0.821525  0.821957  0.500000  1
  P  P19  1  0.174393  0.000000  0.500000  1
  Ir  Ir20  1  0.511458  0.867057  0.000000  1
  Ir  Ir21  1  0.137445  0.638249  0.000000  1
  Ir  Ir22  1  0.359433  0.485693  0.000000  1
  Ir  Ir23  1  0.499197  0.361751  0.000000  1
  Ir  Ir24  1  0.873742  0.514307  0.000000  1
  Ir  Ir25  1  0.644401  0.132943  0.000000  1
  Ir  Ir26  1  0.000704  0.278235  0.000000  1
  Ir  Ir27  1  0.722469  0.721765  0.000000  1
  Ir  Ir28  1  0.274353  0.000000  0.000000  1
  Ir  Ir29  1  0.627343  0.802483  0.500000  1
  Ir  Ir30  1  0.183797  0.815413  0.500000  1
  Ir  Ir31  1  0.176988  0.375378  0.500000  1
  Ir  Ir32  1  0.368384  0.184587  0.500000  1
  Ir  Ir33  1  0.801610  0.624622  0.500000  1
  Ir  Ir34  1  0.824859  0.197517  0.500000  1
  Ir  Ir35  1  0.996197  0.000000  0.500000  1
