# generated using pymatgen
data_TbHo2Be(PPd4)5
_symmetry_space_group_name_H-M   'P 1'
_cell_length_a   8.67568536
_cell_length_b   8.63875242
_cell_length_c   8.63875146
_cell_angle_alpha   60.25564810
_cell_angle_beta   59.85846813
_cell_angle_gamma   59.85846649
_symmetry_Int_Tables_number   1
_chemical_formula_structural   TbHo2Be(PPd4)5
_chemical_formula_sum   'Tb1 Ho2 Be1 P5 Pd20'
_cell_volume   457.70625266
_cell_formula_units_Z   1
loop_
 _symmetry_equiv_pos_site_id
 _symmetry_equiv_pos_as_xyz
  1  'x, y, z'
loop_
 _atom_site_type_symbol
 _atom_site_label
 _atom_site_symmetry_multiplicity
 _atom_site_fract_x
 _atom_site_fract_y
 _atom_site_fract_z
 _atom_site_occupancy
  Tb  Tb0  1  0.249657  0.250343  0.250343  1
  Ho  Ho1  1  0.749679  0.750321  0.750321  1
  Ho  Ho2  1  0.996289  0.003711  0.003711  1
  Be  Be3  1  0.733092  0.266908  0.266908  1
  P  P4  1  0.263160  0.736840  0.736840  1
  P  P5  1  0.265505  0.734471  0.264304  1
  P  P6  1  0.735720  0.264304  0.734471  1
  P  P7  1  0.265505  0.264304  0.734471  1
  P  P8  1  0.735720  0.734471  0.264304  1
  Pd  Pd9  1  0.386701  0.383001  0.383001  1
  Pd  Pd10  1  0.616315  0.615594  0.615594  1
  Pd  Pd11  1  0.384726  0.383953  0.846596  1
  Pd  Pd12  1  0.384726  0.846596  0.383953  1
  Pd  Pd13  1  0.617250  0.613632  0.151868  1
  Pd  Pd14  1  0.617250  0.151868  0.613632  1
  Pd  Pd15  1  0.847298  0.383001  0.383001  1
  Pd  Pd16  1  0.152495  0.615594  0.615594  1
  Pd  Pd17  1  0.343826  0.000788  0.000788  1
  Pd  Pd18  1  0.654599  0.000788  0.000788  1
  Pd  Pd19  1  0.998986  0.345647  0.656379  1
  Pd  Pd20  1  0.998986  0.656379  0.345647  1
  Pd  Pd21  1  0.996851  0.342612  0.002983  1
  Pd  Pd22  1  0.657555  0.002983  0.342612  1
  Pd  Pd23  1  0.000115  0.653500  0.999645  1
  Pd  Pd24  1  0.346739  0.999645  0.653500  1
  Pd  Pd25  1  0.996851  0.002983  0.342612  1
  Pd  Pd26  1  0.000115  0.999645  0.653500  1
  Pd  Pd27  1  0.657555  0.342612  0.002983  1
  Pd  Pd28  1  0.346739  0.653500  0.999645  1
