# generated using pymatgen
data_Y12ZnCo4Ag
_symmetry_space_group_name_H-M   'P 1'
_cell_length_a   8.31003458
_cell_length_b   8.31012249
_cell_length_c   8.31003500
_cell_angle_alpha   107.32935997
_cell_angle_beta   109.76495529
_cell_angle_gamma   111.34400546
_symmetry_Int_Tables_number   1
_chemical_formula_structural   Y12ZnCo4Ag
_chemical_formula_sum   'Y12 Zn1 Co4 Ag1'
_cell_volume   441.21915338
_cell_formula_units_Z   1
loop_
 _symmetry_equiv_pos_site_id
 _symmetry_equiv_pos_as_xyz
  1  'x, y, z'
loop_
 _atom_site_type_symbol
 _atom_site_label
 _atom_site_symmetry_multiplicity
 _atom_site_fract_x
 _atom_site_fract_y
 _atom_site_fract_z
 _atom_site_occupancy
  Y  Y0  1  0.694749  0.259807  0.954555  1
  Y  Y1  1  0.305251  0.740193  0.045445  1
  Y  Y2  1  0.694749  0.740193  0.434943  1
  Y  Y3  1  0.305251  0.259807  0.565057  1
  Y  Y4  1  0.815923  0.140984  0.325061  1
  Y  Y5  1  0.815994  0.490813  0.674820  1
  Y  Y6  1  0.184077  0.859016  0.674939  1
  Y  Y7  1  0.184006  0.509187  0.325180  1
  Y  Y8  1  0.597552  0.775172  0.822337  1
  Y  Y9  1  0.952834  0.775172  0.177620  1
  Y  Y10  1  0.047166  0.224828  0.822380  1
  Y  Y11  1  0.402448  0.224828  0.177663  1
  Zn  Zn12  1  0.500000  0.500000  0.000000  1
  Co  Co13  1  0.832934  0.500000  0.332934  1
  Co  Co14  1  0.167066  0.500000  0.667066  1
  Co  Co15  1  0.999983  0.113437  0.113454  1
  Co  Co16  1  0.000017  0.886563  0.886546  1
  Ag  Ag17  1  0.500000  0.000000  0.500000  1
