# generated using pymatgen
data_LiTbTm2(Co4P3)2
_symmetry_space_group_name_H-M   'P 1'
_cell_length_a   3.69150800
_cell_length_b   10.52430100
_cell_length_c   12.11512400
_cell_angle_alpha   90.00000000
_cell_angle_beta   90.00000000
_cell_angle_gamma   90.00000000
_symmetry_Int_Tables_number   1
_chemical_formula_structural   LiTbTm2(Co4P3)2
_chemical_formula_sum   'Li2 Tb2 Tm4 Co16 P12'
_cell_volume   470.67912575
_cell_formula_units_Z   2
loop_
 _symmetry_equiv_pos_site_id
 _symmetry_equiv_pos_as_xyz
  1  'x, y, z'
loop_
 _atom_site_type_symbol
 _atom_site_label
 _atom_site_symmetry_multiplicity
 _atom_site_fract_x
 _atom_site_fract_y
 _atom_site_fract_z
 _atom_site_occupancy
  Li  Li0  1  0.500000  0.500000  0.153496  1
  Li  Li1  1  0.000000  0.000000  0.846504  1
  Tb  Tb2  1  0.000000  0.500000  0.523800  1
  Tb  Tb3  1  0.500000  0.000000  0.476200  1
  Tm  Tm4  1  0.500000  0.819724  0.205884  1
  Tm  Tm5  1  0.500000  0.180276  0.205884  1
  Tm  Tm6  1  0.000000  0.680276  0.794116  1
  Tm  Tm7  1  0.000000  0.319724  0.794116  1
  Co  Co8  1  0.500000  0.500000  0.705004  1
  Co  Co9  1  0.000000  0.000000  0.294996  1
  Co  Co10  1  0.000000  0.500000  0.986695  1
  Co  Co11  1  0.500000  0.000000  0.013305  1
  Co  Co12  1  0.500000  0.332943  0.996803  1
  Co  Co13  1  0.500000  0.667057  0.996803  1
  Co  Co14  1  0.000000  0.167057  0.003197  1
  Co  Co15  1  0.000000  0.832943  0.003197  1
  Co  Co16  1  0.500000  0.296371  0.430779  1
  Co  Co17  1  0.500000  0.703629  0.430779  1
  Co  Co18  1  0.000000  0.203629  0.569221  1
  Co  Co19  1  0.000000  0.796371  0.569221  1
  Co  Co20  1  0.500000  0.878146  0.707235  1
  Co  Co21  1  0.500000  0.121854  0.707235  1
  Co  Co22  1  0.000000  0.621854  0.292765  1
  Co  Co23  1  0.000000  0.378146  0.292765  1
  P  P24  1  0.500000  0.500000  0.884181  1
  P  P25  1  0.000000  0.000000  0.115819  1
  P  P26  1  0.500000  0.500000  0.345984  1
  P  P27  1  0.000000  0.000000  0.654016  1
  P  P28  1  0.500000  0.309805  0.616899  1
  P  P29  1  0.500000  0.690195  0.616899  1
  P  P30  1  0.000000  0.190195  0.383101  1
  P  P31  1  0.000000  0.809805  0.383101  1
  P  P32  1  0.500000  0.842938  0.892717  1
  P  P33  1  0.500000  0.157062  0.892717  1
  P  P34  1  0.000000  0.657062  0.107283  1
  P  P35  1  0.000000  0.342938  0.107283  1
