# generated using pymatgen
data_Pr5Nd3MgInIr2
_symmetry_space_group_name_H-M   'P 1'
_cell_length_a   10.05038289
_cell_length_b   10.05085892
_cell_length_c   10.08093301
_cell_angle_alpha   59.89785163
_cell_angle_beta   59.90251824
_cell_angle_gamma   59.97283376
_symmetry_Int_Tables_number   1
_chemical_formula_structural   Pr5Nd3MgInIr2
_chemical_formula_sum   'Pr10 Nd6 Mg2 In2 Ir4'
_cell_volume   718.82912946
_cell_formula_units_Z   2
loop_
 _symmetry_equiv_pos_site_id
 _symmetry_equiv_pos_as_xyz
  1  'x, y, z'
loop_
 _atom_site_type_symbol
 _atom_site_label
 _atom_site_symmetry_multiplicity
 _atom_site_fract_x
 _atom_site_fract_y
 _atom_site_fract_z
 _atom_site_occupancy
  Pr  Pr0  1  0.189030  0.809284  0.191612  1
  Pr  Pr1  1  0.809284  0.189030  0.810074  1
  Pr  Pr2  1  0.186242  0.186242  0.813758  1
  Pr  Pr3  1  0.805121  0.805121  0.194879  1
  Pr  Pr4  1  0.940534  0.560279  0.561736  1
  Pr  Pr5  1  0.560279  0.940534  0.937450  1
  Pr  Pr6  1  0.560223  0.940574  0.561729  1
  Pr  Pr7  1  0.940574  0.560223  0.937475  1
  Pr  Pr8  1  0.560396  0.560396  0.939604  1
  Pr  Pr9  1  0.939213  0.939213  0.560787  1
  Nd  Nd10  1  0.347467  0.347145  0.345033  1
  Nd  Nd11  1  0.347145  0.347467  0.960356  1
  Nd  Nd12  1  0.349699  0.956937  0.346820  1
  Nd  Nd13  1  0.956937  0.349699  0.346545  1
  Nd  Nd14  1  0.809206  0.189151  0.191673  1
  Nd  Nd15  1  0.189151  0.809206  0.809969  1
  Mg  Mg16  1  0.577348  0.270604  0.575944  1
  Mg  Mg17  1  0.270604  0.577348  0.576104  1
  In  In18  1  0.580384  0.580550  0.582969  1
  In  In19  1  0.580550  0.580384  0.256096  1
  Ir  Ir20  1  0.141254  0.141740  0.141909  1
  Ir  Ir21  1  0.141740  0.141254  0.575097  1
  Ir  Ir22  1  0.142130  0.575489  0.140932  1
  Ir  Ir23  1  0.575489  0.142130  0.141449  1
