# generated using pymatgen
data_Li3Tc2Ni9P7
_symmetry_space_group_name_H-M   'P 1'
_cell_length_a   9.06391737
_cell_length_b   9.01029685
_cell_length_c   3.60288000
_cell_angle_alpha   90.00000000
_cell_angle_beta   90.00000000
_cell_angle_gamma   119.38710095
_symmetry_Int_Tables_number   1
_chemical_formula_structural   Li3Tc2Ni9P7
_chemical_formula_sum   'Li3 Tc2 Ni9 P7'
_cell_volume   256.38030747
_cell_formula_units_Z   1
loop_
 _symmetry_equiv_pos_site_id
 _symmetry_equiv_pos_as_xyz
  1  'x, y, z'
loop_
 _atom_site_type_symbol
 _atom_site_label
 _atom_site_symmetry_multiplicity
 _atom_site_fract_x
 _atom_site_fract_y
 _atom_site_fract_z
 _atom_site_occupancy
  Li  Li0  1  0.224269  0.102063  0.500000  1
  Li  Li1  1  0.330912  0.665342  0.000000  1
  Li  Li2  1  0.666498  0.335264  0.500000  1
  Tc  Tc3  1  0.877071  0.788368  0.500000  1
  Tc  Tc4  1  0.899446  0.121227  0.500000  1
  Ni  Ni5  1  0.708862  0.876008  0.000000  1
  Ni  Ni6  1  0.164756  0.279901  0.000000  1
  Ni  Ni7  1  0.127228  0.845723  0.000000  1
  Ni  Ni8  1  0.627718  0.566287  0.000000  1
  Ni  Ni9  1  0.937894  0.372864  0.000000  1
  Ni  Ni10  1  0.435465  0.060174  0.000000  1
  Ni  Ni11  1  0.558038  0.944602  0.500000  1
  Ni  Ni12  1  0.386757  0.434492  0.500000  1
  Ni  Ni13  1  0.054609  0.611435  0.500000  1
  P  P14  1  0.584336  0.706328  0.500000  1
  P  P15  1  0.122564  0.409872  0.500000  1
  P  P16  1  0.290043  0.870765  0.500000  1
  P  P17  1  0.994873  0.998016  0.000000  1
  P  P18  1  0.882100  0.587851  0.000000  1
  P  P19  1  0.702141  0.122802  0.000000  1
  P  P20  1  0.424419  0.300617  0.000000  1
