# generated using pymatgen
data_Cs5K(ReH9)3
_symmetry_space_group_name_H-M   'P 1'
_cell_length_a   10.35065093
_cell_length_b   10.35065078
_cell_length_c   6.08964300
_cell_angle_alpha   90.00000000
_cell_angle_beta   90.00000000
_cell_angle_gamma   121.39636972
_symmetry_Int_Tables_number   1
_chemical_formula_structural   Cs5K(ReH9)3
_chemical_formula_sum   'Cs5 K1 Re3 H27'
_cell_volume   556.89500119
_cell_formula_units_Z   1
loop_
 _symmetry_equiv_pos_site_id
 _symmetry_equiv_pos_as_xyz
  1  'x, y, z'
loop_
 _atom_site_type_symbol
 _atom_site_label
 _atom_site_symmetry_multiplicity
 _atom_site_fract_x
 _atom_site_fract_y
 _atom_site_fract_z
 _atom_site_occupancy
  Cs  Cs0  1  0.256518  0.995345  0.500000  1
  Cs  Cs1  1  0.995345  0.256518  0.500000  1
  Cs  Cs2  1  0.591047  0.996756  0.000000  1
  Cs  Cs3  1  0.996756  0.591047  0.000000  1
  Cs  Cs4  1  0.416785  0.416785  0.000000  1
  K  K5  1  0.733804  0.733804  0.500000  1
  Re  Re6  1  0.985355  0.985355  0.000000  1
  Re  Re7  1  0.346424  0.669985  0.500000  1
  Re  Re8  1  0.669985  0.346424  0.500000  1
  H  H9  1  0.868094  0.982874  0.200468  1
  H  H10  1  0.982874  0.868094  0.200468  1
  H  H11  1  0.868094  0.982874  0.799532  1
  H  H12  1  0.982874  0.868094  0.799532  1
  H  H13  1  0.107431  0.107431  0.194343  1
  H  H14  1  0.107431  0.107431  0.805657  1
  H  H15  1  0.148444  0.985148  0.000000  1
  H  H16  1  0.985148  0.148444  0.000000  1
  H  H17  1  0.818461  0.818461  0.000000  1
  H  H18  1  0.243747  0.544298  0.295453  1
  H  H19  1  0.477196  0.697377  0.302633  1
  H  H20  1  0.243747  0.544298  0.704547  1
  H  H21  1  0.544298  0.243747  0.704547  1
  H  H22  1  0.320544  0.769174  0.297079  1
  H  H23  1  0.477196  0.697377  0.697367  1
  H  H24  1  0.697377  0.477196  0.697367  1
  H  H25  1  0.544298  0.243747  0.295453  1
  H  H26  1  0.320544  0.769174  0.702921  1
  H  H27  1  0.697377  0.477196  0.302633  1
  H  H28  1  0.769174  0.320544  0.702921  1
  H  H29  1  0.769174  0.320544  0.297079  1
  H  H30  1  0.373474  0.522688  0.500000  1
  H  H31  1  0.489260  0.852549  0.500000  1
  H  H32  1  0.522688  0.373474  0.500000  1
  H  H33  1  0.165955  0.630530  0.500000  1
  H  H34  1  0.852549  0.489260  0.500000  1
  H  H35  1  0.630530  0.165955  0.500000  1
