# generated using pymatgen
data_CrRhBr18
_symmetry_space_group_name_H-M   'P 1'
_cell_length_a   9.03918416
_cell_length_b   9.03918536
_cell_length_c   9.03918522
_cell_angle_alpha   90.81589361
_cell_angle_beta   90.81587921
_cell_angle_gamma   90.81589151
_symmetry_Int_Tables_number   1
_chemical_formula_structural   CrRhBr18
_chemical_formula_sum   'Cr1 Rh1 Br18'
_cell_volume   738.33665434
_cell_formula_units_Z   1
loop_
 _symmetry_equiv_pos_site_id
 _symmetry_equiv_pos_as_xyz
  1  'x, y, z'
loop_
 _atom_site_type_symbol
 _atom_site_label
 _atom_site_symmetry_multiplicity
 _atom_site_fract_x
 _atom_site_fract_y
 _atom_site_fract_z
 _atom_site_occupancy
  Cr  Cr0  1  0.500000  0.500000  0.500000  1
  Rh  Rh1  1  0.000000  0.000000  0.000000  1
  Br  Br2  1  0.724171  0.979959  0.019536  1
  Br  Br3  1  0.742640  0.130239  0.618180  1
  Br  Br4  1  0.019536  0.724171  0.979959  1
  Br  Br5  1  0.257360  0.869761  0.381820  1
  Br  Br6  1  0.130239  0.618180  0.742640  1
  Br  Br7  1  0.020041  0.980464  0.275829  1
  Br  Br8  1  0.618180  0.742640  0.130239  1
  Br  Br9  1  0.980464  0.275829  0.020041  1
  Br  Br10  1  0.869761  0.381820  0.257360  1
  Br  Br11  1  0.381820  0.257360  0.869761  1
  Br  Br12  1  0.979959  0.019536  0.724171  1
  Br  Br13  1  0.275829  0.020041  0.980464  1
  Br  Br14  1  0.775721  0.528249  0.485422  1
  Br  Br15  1  0.514578  0.224279  0.471751  1
  Br  Br16  1  0.471751  0.514578  0.224279  1
  Br  Br17  1  0.485422  0.775721  0.528249  1
  Br  Br18  1  0.528249  0.485422  0.775721  1
  Br  Br19  1  0.224279  0.471751  0.514578  1
