# generated using pymatgen
data_AcSnHgO
_symmetry_space_group_name_H-M   'P 1'
_cell_length_a   4.29853200
_cell_length_b   4.29853200
_cell_length_c   11.35843400
_cell_angle_alpha   90.00000000
_cell_angle_beta   90.00000000
_cell_angle_gamma   90.00000000
_symmetry_Int_Tables_number   1
_chemical_formula_structural   AcSnHgO
_chemical_formula_sum   'Ac2 Sn2 Hg2 O2'
_cell_volume   209.87407118
_cell_formula_units_Z   2
loop_
 _symmetry_equiv_pos_site_id
 _symmetry_equiv_pos_as_xyz
  1  'x, y, z'
loop_
 _atom_site_type_symbol
 _atom_site_label
 _atom_site_symmetry_multiplicity
 _atom_site_fract_x
 _atom_site_fract_y
 _atom_site_fract_z
 _atom_site_occupancy
  Ac  Ac0  1  0.250002  0.250002  0.109993  1
  Ac  Ac1  1  0.750001  0.750001  0.890007  1
  Sn  Sn2  1  0.750001  0.250002  0.499999  1
  Sn  Sn3  1  0.250002  0.750001  0.499999  1
  Hg  Hg4  1  0.750001  0.750001  0.282480  1
  Hg  Hg5  1  0.250002  0.250002  0.717519  1
  O  O6  1  0.750001  0.250002  0.000000  1
  O  O7  1  0.250002  0.750001  0.000000  1
