# generated using pymatgen
data_Sr5V4Si2Pb5O24
_symmetry_space_group_name_H-M   'P 1'
_cell_length_a   7.43795600
_cell_length_b   10.22257473
_cell_length_c   10.22517586
_cell_angle_alpha   60.11429021
_cell_angle_beta   90.00000000
_cell_angle_gamma   90.00000000
_symmetry_Int_Tables_number   1
_chemical_formula_structural   Sr5V4Si2Pb5O24
_chemical_formula_sum   'Sr5 V4 Si2 Pb5 O24'
_cell_volume   674.08447815
_cell_formula_units_Z   1
loop_
 _symmetry_equiv_pos_site_id
 _symmetry_equiv_pos_as_xyz
  1  'x, y, z'
loop_
 _atom_site_type_symbol
 _atom_site_label
 _atom_site_symmetry_multiplicity
 _atom_site_fract_x
 _atom_site_fract_y
 _atom_site_fract_z
 _atom_site_occupancy
  Sr  Sr0  1  0.500000  0.727481  0.001477  1
  Sr  Sr1  1  0.754261  0.325047  0.342288  1
  Sr  Sr2  1  0.239017  0.664761  0.659415  1
  Sr  Sr3  1  0.760983  0.664761  0.659415  1
  Sr  Sr4  1  0.245739  0.325047  0.342288  1
  V  V5  1  0.000000  0.601070  0.027415  1
  V  V6  1  0.500000  0.971096  0.635030  1
  V  V7  1  0.500000  0.626980  0.396728  1
  V  V8  1  0.500000  0.393045  0.971138  1
  Si  Si9  1  0.000000  0.023005  0.381460  1
  Si  Si10  1  0.000000  0.385288  0.586410  1
  Pb  Pb11  1  0.000000  0.234670  0.034877  1
  Pb  Pb12  1  0.000000  0.038580  0.727423  1
  Pb  Pb13  1  0.000000  0.735157  0.267382  1
  Pb  Pb14  1  0.500000  0.007823  0.268041  1
  Pb  Pb15  1  0.500000  0.260590  0.734514  1
  O  O16  1  0.821819  0.090925  0.267460  1
  O  O17  1  0.821732  0.271218  0.634225  1
  O  O18  1  0.813721  0.658887  0.087630  1
  O  O19  1  0.318077  0.910534  0.755311  1
  O  O20  1  0.316283  0.746536  0.343571  1
  O  O21  1  0.315233  0.331145  0.913831  1
  O  O22  1  0.681923  0.910534  0.755311  1
  O  O23  1  0.683717  0.746536  0.343571  1
  O  O24  1  0.684767  0.331145  0.913831  1
  O  O25  1  0.178181  0.090925  0.267460  1
  O  O26  1  0.178268  0.271218  0.634225  1
  O  O27  1  0.186279  0.658887  0.087630  1
  O  O28  1  0.000000  0.840703  0.486545  1
  O  O29  1  0.000000  0.502778  0.648600  1
  O  O30  1  0.000000  0.664382  0.837107  1
  O  O31  1  0.500000  0.165963  0.515961  1
  O  O32  1  0.500000  0.518255  0.310524  1
  O  O33  1  0.500000  0.324941  0.165550  1
  O  O34  1  0.000000  0.114534  0.478885  1
  O  O35  1  0.000000  0.479316  0.396693  1
  O  O36  1  0.000000  0.399513  0.129381  1
  O  O37  1  0.500000  0.874848  0.529061  1
  O  O38  1  0.500000  0.519930  0.597077  1
  O  O39  1  0.500000  0.591946  0.865258  1
