# generated using pymatgen
data_UVFe4Si3
_symmetry_space_group_name_H-M   'P 1'
_cell_length_a   3.92432300
_cell_length_b   3.92432300
_cell_length_c   7.60308900
_cell_angle_alpha   90.00000000
_cell_angle_beta   90.00000000
_cell_angle_gamma   90.00000000
_symmetry_Int_Tables_number   1
_chemical_formula_structural   UVFe4Si3
_chemical_formula_sum   'U1 V1 Fe4 Si3'
_cell_volume   117.08993522
_cell_formula_units_Z   1
loop_
 _symmetry_equiv_pos_site_id
 _symmetry_equiv_pos_as_xyz
  1  'x, y, z'
loop_
 _atom_site_type_symbol
 _atom_site_label
 _atom_site_symmetry_multiplicity
 _atom_site_fract_x
 _atom_site_fract_y
 _atom_site_fract_z
 _atom_site_occupancy
  U  U0  1  0.000000  0.000000  0.000000  1
  V  V1  1  0.500000  0.500000  0.500000  1
  Fe  Fe2  1  0.000000  0.500000  0.312963  1
  Fe  Fe3  1  0.500000  0.000000  0.312963  1
  Fe  Fe4  1  0.500000  0.000000  0.687037  1
  Fe  Fe5  1  0.000000  0.500000  0.687037  1
  Si  Si6  1  0.500000  0.500000  0.154458  1
  Si  Si7  1  0.500000  0.500000  0.845542  1
  Si  Si8  1  0.000000  0.000000  0.500000  1
