# generated using pymatgen
data_NaBi(PS3)2
_symmetry_space_group_name_H-M   'P 1'
_cell_length_a   7.46362600
_cell_length_b   6.68024639
_cell_length_c   9.49119562
_cell_angle_alpha   87.47490121
_cell_angle_beta   90.00000000
_cell_angle_gamma   90.00000000
_symmetry_Int_Tables_number   1
_chemical_formula_structural   NaBi(PS3)2
_chemical_formula_sum   'Na2 Bi2 P4 S12'
_cell_volume   472.76071167
_cell_formula_units_Z   2
loop_
 _symmetry_equiv_pos_site_id
 _symmetry_equiv_pos_as_xyz
  1  'x, y, z'
loop_
 _atom_site_type_symbol
 _atom_site_label
 _atom_site_symmetry_multiplicity
 _atom_site_fract_x
 _atom_site_fract_y
 _atom_site_fract_z
 _atom_site_occupancy
  Na  Na0  1  0.543704  0.298771  0.503695  1
  Na  Na1  1  0.043704  0.701229  0.496305  1
  Bi  Bi2  1  0.288523  0.210486  0.983771  1
  Bi  Bi3  1  0.788523  0.789514  0.016229  1
  P  P4  1  0.826317  0.315684  0.820017  1
  P  P5  1  0.043834  0.186591  0.686928  1
  P  P6  1  0.543834  0.813409  0.313072  1
  P  P7  1  0.326317  0.684316  0.179983  1
  S  S8  1  0.940943  0.354614  0.015975  1
  S  S9  1  0.125817  0.941611  0.811287  1
  S  S10  1  0.942124  0.133977  0.500327  1
  S  S11  1  0.442124  0.866023  0.499673  1
  S  S12  1  0.241393  0.396475  0.700698  1
  S  S13  1  0.625817  0.058389  0.188713  1
  S  S14  1  0.633025  0.094655  0.824259  1
  S  S15  1  0.741023  0.574592  0.727622  1
  S  S16  1  0.133025  0.905345  0.175741  1
  S  S17  1  0.241023  0.425408  0.272378  1
  S  S18  1  0.440943  0.645386  0.984025  1
  S  S19  1  0.741393  0.603525  0.299302  1
