# generated using pymatgen
data_Ba2DyGaO5
_symmetry_space_group_name_H-M   'P 1'
_cell_length_a   6.15291300
_cell_length_b   7.87704208
_cell_length_c   12.75104726
_cell_angle_alpha   91.22463292
_cell_angle_beta   90.00000000
_cell_angle_gamma   90.00000000
_symmetry_Int_Tables_number   1
_chemical_formula_structural   Ba2DyGaO5
_chemical_formula_sum   'Ba8 Dy4 Ga4 O20'
_cell_volume   617.86071941
_cell_formula_units_Z   4
loop_
 _symmetry_equiv_pos_site_id
 _symmetry_equiv_pos_as_xyz
  1  'x, y, z'
loop_
 _atom_site_type_symbol
 _atom_site_label
 _atom_site_symmetry_multiplicity
 _atom_site_fract_x
 _atom_site_fract_y
 _atom_site_fract_z
 _atom_site_occupancy
  Ba  Ba0  1  0.760733  0.488036  0.354769  1
  Ba  Ba1  1  0.739267  0.988036  0.854769  1
  Ba  Ba2  1  0.239267  0.511964  0.645231  1
  Ba  Ba3  1  0.260733  0.011964  0.145231  1
  Ba  Ba4  1  0.756851  0.995777  0.378164  1
  Ba  Ba5  1  0.743149  0.495777  0.878164  1
  Ba  Ba6  1  0.243149  0.004223  0.621836  1
  Ba  Ba7  1  0.256851  0.504223  0.121836  1
  Dy  Dy8  1  0.747812  0.261833  0.629402  1
  Dy  Dy9  1  0.752188  0.761833  0.129402  1
  Dy  Dy10  1  0.252188  0.738167  0.370598  1
  Dy  Dy11  1  0.247812  0.238167  0.870598  1
  Ga  Ga12  1  0.738338  0.744805  0.584518  1
  Ga  Ga13  1  0.761662  0.244805  0.084518  1
  Ga  Ga14  1  0.261662  0.255195  0.415482  1
  Ga  Ga15  1  0.238338  0.755195  0.915482  1
  O  O16  1  0.763383  0.967137  0.639056  1
  O  O17  1  0.736617  0.467137  0.139056  1
  O  O18  1  0.236617  0.032863  0.360944  1
  O  O19  1  0.263383  0.532863  0.860944  1
  O  O20  1  0.733012  0.058897  0.171163  1
  O  O21  1  0.766988  0.558897  0.671163  1
  O  O22  1  0.266988  0.941103  0.828837  1
  O  O23  1  0.233012  0.441103  0.328837  1
  O  O24  1  0.545859  0.747784  0.272320  1
  O  O25  1  0.954141  0.247784  0.772320  1
  O  O26  1  0.454141  0.252216  0.727680  1
  O  O27  1  0.045859  0.752216  0.227680  1
  O  O28  1  0.541495  0.230544  0.980562  1
  O  O29  1  0.958505  0.730544  0.480562  1
  O  O30  1  0.458505  0.769456  0.019438  1
  O  O31  1  0.041495  0.269456  0.519438  1
  O  O32  1  0.035223  0.235927  0.018148  1
  O  O33  1  0.464777  0.735927  0.518148  1
  O  O34  1  0.964777  0.764073  0.981852  1
  O  O35  1  0.535223  0.264073  0.481852  1
