# generated using pymatgen
data_Tb2DyCo8P6Ru
_symmetry_space_group_name_H-M   'P 1'
_cell_length_a   3.71396200
_cell_length_b   10.53465800
_cell_length_c   12.26879200
_cell_angle_alpha   90.00000000
_cell_angle_beta   90.00000000
_cell_angle_gamma   90.00000000
_symmetry_Int_Tables_number   1
_chemical_formula_structural   Tb2DyCo8P6Ru
_chemical_formula_sum   'Tb4 Dy2 Co16 P12 Ru2'
_cell_volume   480.02040682
_cell_formula_units_Z   2
loop_
 _symmetry_equiv_pos_site_id
 _symmetry_equiv_pos_as_xyz
  1  'x, y, z'
loop_
 _atom_site_type_symbol
 _atom_site_label
 _atom_site_symmetry_multiplicity
 _atom_site_fract_x
 _atom_site_fract_y
 _atom_site_fract_z
 _atom_site_occupancy
  Tb  Tb0  1  0.000000  0.500000  0.524277  1
  Tb  Tb1  1  0.500000  0.000000  0.475825  1
  Tb  Tb2  1  0.000000  0.682877  0.793215  1
  Tb  Tb3  1  0.000000  0.317123  0.793215  1
  Dy  Dy4  1  0.500000  0.817075  0.206688  1
  Dy  Dy5  1  0.500000  0.182925  0.206688  1
  Co  Co6  1  0.500000  0.500000  0.704134  1
  Co  Co7  1  0.000000  0.000000  0.295630  1
  Co  Co8  1  0.000000  0.500000  0.986297  1
  Co  Co9  1  0.500000  0.000000  0.013880  1
  Co  Co10  1  0.500000  0.332452  0.990891  1
  Co  Co11  1  0.500000  0.667548  0.990891  1
  Co  Co12  1  0.000000  0.167500  0.009391  1
  Co  Co13  1  0.000000  0.832500  0.009391  1
  Co  Co14  1  0.500000  0.296993  0.430806  1
  Co  Co15  1  0.500000  0.703007  0.430806  1
  Co  Co16  1  0.000000  0.202928  0.569086  1
  Co  Co17  1  0.000000  0.797072  0.569086  1
  Co  Co18  1  0.500000  0.879424  0.708095  1
  Co  Co19  1  0.500000  0.120576  0.708095  1
  Co  Co20  1  0.000000  0.620809  0.291712  1
  Co  Co21  1  0.000000  0.379191  0.291712  1
  P  P22  1  0.500000  0.500000  0.882426  1
  P  P23  1  0.000000  0.000000  0.117959  1
  P  P24  1  0.500000  0.500000  0.349292  1
  P  P25  1  0.000000  0.000000  0.650660  1
  P  P26  1  0.500000  0.310822  0.615896  1
  P  P27  1  0.500000  0.689178  0.615896  1
  P  P28  1  0.000000  0.189079  0.383783  1
  P  P29  1  0.000000  0.810921  0.383783  1
  P  P30  1  0.500000  0.846641  0.893820  1
  P  P31  1  0.500000  0.153359  0.893820  1
  P  P32  1  0.000000  0.653609  0.106392  1
  P  P33  1  0.000000  0.346391  0.106392  1
  Ru  Ru34  1  0.500000  0.500000  0.159087  1
  Ru  Ru35  1  0.000000  0.000000  0.840984  1
