# generated using pymatgen
data_Zr8CdPd8Pb3
_symmetry_space_group_name_H-M   'P 1'
_cell_length_a   7.59486800
_cell_length_b   7.59486800
_cell_length_c   6.98975100
_cell_angle_alpha   90.00000000
_cell_angle_beta   90.00000000
_cell_angle_gamma   90.00000000
_symmetry_Int_Tables_number   1
_chemical_formula_structural   Zr8CdPd8Pb3
_chemical_formula_sum   'Zr8 Cd1 Pd8 Pb3'
_cell_volume   403.18295654
_cell_formula_units_Z   1
loop_
 _symmetry_equiv_pos_site_id
 _symmetry_equiv_pos_as_xyz
  1  'x, y, z'
loop_
 _atom_site_type_symbol
 _atom_site_label
 _atom_site_symmetry_multiplicity
 _atom_site_fract_x
 _atom_site_fract_y
 _atom_site_fract_z
 _atom_site_occupancy
  Zr  Zr0  1  0.649793  0.645612  0.496938  1
  Zr  Zr1  1  0.812955  0.190478  0.498435  1
  Zr  Zr2  1  0.690478  0.687045  0.001565  1
  Zr  Zr3  1  0.854388  0.149793  0.003062  1
  Zr  Zr4  1  0.187045  0.809522  0.498435  1
  Zr  Zr5  1  0.309522  0.312955  0.001565  1
  Zr  Zr6  1  0.145612  0.850207  0.003062  1
  Zr  Zr7  1  0.350207  0.354388  0.496938  1
  Cd  Cd8  1  0.000000  0.500000  0.250000  1
  Pd  Pd9  1  0.631998  0.373553  0.210150  1
  Pd  Pd10  1  0.372480  0.629460  0.791076  1
  Pd  Pd11  1  0.870540  0.872480  0.708924  1
  Pd  Pd12  1  0.627520  0.370540  0.791076  1
  Pd  Pd13  1  0.368002  0.626447  0.210150  1
  Pd  Pd14  1  0.126447  0.131998  0.289850  1
  Pd  Pd15  1  0.873553  0.868002  0.289850  1
  Pd  Pd16  1  0.129460  0.127520  0.708924  1
  Pb  Pb17  1  0.500000  0.000000  0.750000  1
  Pb  Pb18  1  0.500000  0.000000  0.250000  1
  Pb  Pb19  1  0.000000  0.500000  0.750000  1
