# generated using pymatgen
data_YMgB6Ru
_symmetry_space_group_name_H-M   'P 1'
_cell_length_a   3.56907200
_cell_length_b   8.90489800
_cell_length_c   11.27510100
_cell_angle_alpha   90.00000000
_cell_angle_beta   90.00000000
_cell_angle_gamma   90.00000000
_symmetry_Int_Tables_number   1
_chemical_formula_structural   YMgB6Ru
_chemical_formula_sum   'Y4 Mg4 B24 Ru4'
_cell_volume   358.34776435
_cell_formula_units_Z   4
loop_
 _symmetry_equiv_pos_site_id
 _symmetry_equiv_pos_as_xyz
  1  'x, y, z'
loop_
 _atom_site_type_symbol
 _atom_site_label
 _atom_site_symmetry_multiplicity
 _atom_site_fract_x
 _atom_site_fract_y
 _atom_site_fract_z
 _atom_site_occupancy
  Y  Y0  1  0.000000  0.323200  0.414109  1
  Y  Y1  1  0.000000  0.676800  0.585891  1
  Y  Y2  1  0.000000  0.823200  0.085891  1
  Y  Y3  1  0.000000  0.176800  0.914109  1
  Mg  Mg4  1  0.000000  0.943605  0.370780  1
  Mg  Mg5  1  0.000000  0.056395  0.629220  1
  Mg  Mg6  1  0.000000  0.443605  0.129220  1
  Mg  Mg7  1  0.000000  0.556395  0.870780  1
  B  B8  1  0.500000  0.556245  0.431979  1
  B  B9  1  0.500000  0.443755  0.568021  1
  B  B10  1  0.500000  0.056245  0.068021  1
  B  B11  1  0.500000  0.943755  0.931979  1
  B  B12  1  0.500000  0.755567  0.417748  1
  B  B13  1  0.500000  0.244433  0.582252  1
  B  B14  1  0.500000  0.255567  0.082252  1
  B  B15  1  0.500000  0.744433  0.917748  1
  B  B16  1  0.500000  0.793801  0.262989  1
  B  B17  1  0.500000  0.206199  0.737011  1
  B  B18  1  0.500000  0.293801  0.237011  1
  B  B19  1  0.500000  0.706199  0.762989  1
  B  B20  1  0.500000  0.627631  0.182165  1
  B  B21  1  0.500000  0.372369  0.817835  1
  B  B22  1  0.500000  0.127631  0.317835  1
  B  B23  1  0.500000  0.872369  0.682165  1
  B  B24  1  0.500000  0.981388  0.213263  1
  B  B25  1  0.500000  0.018612  0.786737  1
  B  B26  1  0.500000  0.481388  0.286737  1
  B  B27  1  0.500000  0.518612  0.713263  1
  B  B28  1  0.500000  0.592457  0.025252  1
  B  B29  1  0.500000  0.407543  0.974748  1
  B  B30  1  0.500000  0.092457  0.474748  1
  B  B31  1  0.500000  0.907543  0.525252  1
  Ru  Ru32  1  0.000000  0.641453  0.317706  1
  Ru  Ru33  1  0.000000  0.358547  0.682294  1
  Ru  Ru34  1  0.000000  0.141453  0.182294  1
  Ru  Ru35  1  0.000000  0.858547  0.817706  1
