# generated using pymatgen
data_Tb5Pr(RuI3)2
_symmetry_space_group_name_H-M   'P 1'
_cell_length_a   4.25983500
_cell_length_b   9.01779523
_cell_length_c   12.40400614
_cell_angle_alpha   94.29872365
_cell_angle_beta   90.00000000
_cell_angle_gamma   90.00000000
_symmetry_Int_Tables_number   1
_chemical_formula_structural   Tb5Pr(RuI3)2
_chemical_formula_sum   'Tb5 Pr1 Ru2 I6'
_cell_volume   475.15099418
_cell_formula_units_Z   1
loop_
 _symmetry_equiv_pos_site_id
 _symmetry_equiv_pos_as_xyz
  1  'x, y, z'
loop_
 _atom_site_type_symbol
 _atom_site_label
 _atom_site_symmetry_multiplicity
 _atom_site_fract_x
 _atom_site_fract_y
 _atom_site_fract_z
 _atom_site_occupancy
  Tb  Tb0  1  0.250000  0.736731  0.396957  1
  Tb  Tb1  1  0.750000  0.874760  0.623395  1
  Tb  Tb2  1  0.250000  0.125472  0.373823  1
  Tb  Tb3  1  0.750000  0.895321  0.184318  1
  Tb  Tb4  1  0.250000  0.097486  0.816886  1
  Pr  Pr5  1  0.750000  0.274598  0.603219  1
  Ru  Ru6  1  0.750000  0.942451  0.404916  1
  Ru  Ru7  1  0.250000  0.057196  0.593774  1
  I  I8  1  0.750000  0.425543  0.362226  1
  I  I9  1  0.250000  0.585643  0.634725  1
  I  I10  1  0.750000  0.860066  0.889986  1
  I  I11  1  0.250000  0.131969  0.109003  1
  I  I12  1  0.750000  0.347339  0.871014  1
  I  I13  1  0.250000  0.645425  0.135757  1
