# generated using pymatgen
data_Sr5Y5Pb8
_symmetry_space_group_name_H-M   'P 1'
_cell_length_a   8.13169700
_cell_length_b   16.45545100
_cell_length_c   8.77924800
_cell_angle_alpha   90.00000000
_cell_angle_beta   90.00000000
_cell_angle_gamma   90.00000000
_symmetry_Int_Tables_number   1
_chemical_formula_structural   Sr5Y5Pb8
_chemical_formula_sum   'Sr10 Y10 Pb16'
_cell_volume   1174.75768496
_cell_formula_units_Z   2
loop_
 _symmetry_equiv_pos_site_id
 _symmetry_equiv_pos_as_xyz
  1  'x, y, z'
loop_
 _atom_site_type_symbol
 _atom_site_label
 _atom_site_symmetry_multiplicity
 _atom_site_fract_x
 _atom_site_fract_y
 _atom_site_fract_z
 _atom_site_occupancy
  Sr  Sr0  1  0.497331  0.594113  0.681143  1
  Sr  Sr1  1  0.997331  0.905887  0.818857  1
  Sr  Sr2  1  0.499680  0.088193  0.315505  1
  Sr  Sr3  1  0.999680  0.411807  0.184495  1
  Sr  Sr4  1  0.499680  0.411807  0.315505  1
  Sr  Sr5  1  0.999680  0.088193  0.184495  1
  Sr  Sr6  1  0.497331  0.905887  0.681143  1
  Sr  Sr7  1  0.997331  0.594113  0.818857  1
  Sr  Sr8  1  0.175290  0.250000  0.484708  1
  Sr  Sr9  1  0.675290  0.250000  0.015292  1
  Y  Y10  1  0.672775  0.625623  0.158137  1
  Y  Y11  1  0.172775  0.874377  0.341863  1
  Y  Y12  1  0.329665  0.120209  0.835404  1
  Y  Y13  1  0.829665  0.379791  0.664596  1
  Y  Y14  1  0.329665  0.379791  0.835404  1
  Y  Y15  1  0.829665  0.120209  0.664596  1
  Y  Y16  1  0.672775  0.874377  0.158137  1
  Y  Y17  1  0.172775  0.625623  0.341863  1
  Y  Y18  1  0.832553  0.750000  0.505441  1
  Y  Y19  1  0.332553  0.750000  0.994559  1
  Pb  Pb20  1  0.672743  0.461751  0.957242  1
  Pb  Pb21  1  0.172743  0.038249  0.542758  1
  Pb  Pb22  1  0.325903  0.953456  0.040705  1
  Pb  Pb23  1  0.825903  0.546544  0.459295  1
  Pb  Pb24  1  0.325903  0.546544  0.040705  1
  Pb  Pb25  1  0.825903  0.953456  0.459295  1
  Pb  Pb26  1  0.672743  0.038249  0.957242  1
  Pb  Pb27  1  0.172743  0.461751  0.542758  1
  Pb  Pb28  1  0.474298  0.750000  0.364459  1
  Pb  Pb29  1  0.974298  0.750000  0.135541  1
  Pb  Pb30  1  0.535844  0.250000  0.642068  1
  Pb  Pb31  1  0.035844  0.250000  0.857932  1
  Pb  Pb32  1  0.699867  0.750000  0.858320  1
  Pb  Pb33  1  0.199867  0.750000  0.641680  1
  Pb  Pb34  1  0.285950  0.250000  0.119126  1
  Pb  Pb35  1  0.785950  0.250000  0.380874  1
