# generated using pymatgen
data_Tb10Si5As
_symmetry_space_group_name_H-M   'P 1'
_cell_length_a   8.49296400
_cell_length_b   8.50979939
_cell_length_c   6.37509200
_cell_angle_alpha   90.00000000
_cell_angle_beta   90.00000000
_cell_angle_gamma   119.93457817
_symmetry_Int_Tables_number   1
_chemical_formula_structural   Tb10Si5As
_chemical_formula_sum   'Tb10 Si5 As1'
_cell_volume   399.28373336
_cell_formula_units_Z   1
loop_
 _symmetry_equiv_pos_site_id
 _symmetry_equiv_pos_as_xyz
  1  'x, y, z'
loop_
 _atom_site_type_symbol
 _atom_site_label
 _atom_site_symmetry_multiplicity
 _atom_site_fract_x
 _atom_site_fract_y
 _atom_site_fract_z
 _atom_site_occupancy
  Tb  Tb0  1  0.996772  0.753513  0.750000  1
  Tb  Tb1  1  0.000214  0.244332  0.250000  1
  Tb  Tb2  1  0.755882  0.755668  0.250000  1
  Tb  Tb3  1  0.757919  0.000000  0.750000  1
  Tb  Tb4  1  0.243259  0.246487  0.750000  1
  Tb  Tb5  1  0.243303  0.000000  0.250000  1
  Tb  Tb6  1  0.333026  0.664124  0.498832  1
  Tb  Tb7  1  0.668903  0.335876  0.001168  1
  Tb  Tb8  1  0.668903  0.335876  0.498832  1
  Tb  Tb9  1  0.333026  0.664124  0.001168  1
  Si  Si10  1  0.393732  0.393051  0.250000  1
  Si  Si11  1  0.000681  0.606949  0.250000  1
  Si  Si12  1  0.999890  0.393517  0.750000  1
  Si  Si13  1  0.606373  0.606483  0.750000  1
  Si  Si14  1  0.607074  0.000000  0.250000  1
  As  As15  1  0.391041  0.000000  0.750000  1
