# generated using pymatgen
data_K3(TcO4)2
_symmetry_space_group_name_H-M   'P 1'
_cell_length_a   8.06631805
_cell_length_b   8.06631855
_cell_length_c   8.06631838
_cell_angle_alpha   44.70831090
_cell_angle_beta   44.70830618
_cell_angle_gamma   44.70831751
_symmetry_Int_Tables_number   1
_chemical_formula_structural   K3(TcO4)2
_chemical_formula_sum   'K3 Tc2 O8'
_cell_volume   236.27140916
_cell_formula_units_Z   1
loop_
 _symmetry_equiv_pos_site_id
 _symmetry_equiv_pos_as_xyz
  1  'x, y, z'
loop_
 _atom_site_type_symbol
 _atom_site_label
 _atom_site_symmetry_multiplicity
 _atom_site_fract_x
 _atom_site_fract_y
 _atom_site_fract_z
 _atom_site_occupancy
  K  K0  1  0.302735  0.302735  0.302735  1
  K  K1  1  0.697265  0.697265  0.697265  1
  K  K2  1  0.500000  0.500000  0.500000  1
  Tc  Tc3  1  0.905204  0.905204  0.905204  1
  Tc  Tc4  1  0.094796  0.094796  0.094796  1
  O  O5  1  0.776544  0.776544  0.245860  1
  O  O6  1  0.223456  0.754140  0.223456  1
  O  O7  1  0.824191  0.824191  0.824191  1
  O  O8  1  0.175809  0.175809  0.175809  1
  O  O9  1  0.223456  0.223456  0.754140  1
  O  O10  1  0.776544  0.245860  0.776544  1
  O  O11  1  0.754140  0.223456  0.223456  1
  O  O12  1  0.245860  0.776544  0.776544  1
