# generated using pymatgen
data_K2FeMoS4
_symmetry_space_group_name_H-M   'P 1'
_cell_length_a   6.81908951
_cell_length_b   6.81908994
_cell_length_c   5.46781659
_cell_angle_alpha   78.20669296
_cell_angle_beta   78.20668983
_cell_angle_gamma   116.95868605
_symmetry_Int_Tables_number   1
_chemical_formula_structural   K2FeMoS4
_chemical_formula_sum   'K2 Fe1 Mo1 S4'
_cell_volume   208.58968540
_cell_formula_units_Z   1
loop_
 _symmetry_equiv_pos_site_id
 _symmetry_equiv_pos_as_xyz
  1  'x, y, z'
loop_
 _atom_site_type_symbol
 _atom_site_label
 _atom_site_symmetry_multiplicity
 _atom_site_fract_x
 _atom_site_fract_y
 _atom_site_fract_z
 _atom_site_occupancy
  K  K0  1  0.642719  0.357281  0.750000  1
  K  K1  1  0.356979  0.643021  0.250000  1
  Fe  Fe2  1  0.001643  0.998357  0.750000  1
  Mo  Mo3  1  0.998070  0.001930  0.250000  1
  S  S4  1  0.303344  0.085822  0.402323  1
  S  S5  1  0.914178  0.696656  0.097677  1
  S  S6  1  0.087114  0.304047  0.891983  1
  S  S7  1  0.695953  0.912886  0.608017  1
