# generated using pymatgen
data_BaSr11Co4(Ni2N3)4
_symmetry_space_group_name_H-M   'P 1'
_cell_length_a   5.24788469
_cell_length_b   9.19158720
_cell_length_c   13.33853400
_cell_angle_alpha   90.00000000
_cell_angle_beta   90.00000000
_cell_angle_gamma   90.20982507
_symmetry_Int_Tables_number   1
_chemical_formula_structural   BaSr11Co4(Ni2N3)4
_chemical_formula_sum   'Ba1 Sr11 Co4 Ni8 N12'
_cell_volume   643.39841035
_cell_formula_units_Z   1
loop_
 _symmetry_equiv_pos_site_id
 _symmetry_equiv_pos_as_xyz
  1  'x, y, z'
loop_
 _atom_site_type_symbol
 _atom_site_label
 _atom_site_symmetry_multiplicity
 _atom_site_fract_x
 _atom_site_fract_y
 _atom_site_fract_z
 _atom_site_occupancy
  Ba  Ba0  1  0.489491  0.500552  0.750000  1
  Sr  Sr1  1  0.992623  0.003542  0.250000  1
  Sr  Sr2  1  0.000072  0.995904  0.750000  1
  Sr  Sr3  1  0.511376  0.504395  0.250000  1
  Sr  Sr4  1  0.978315  0.328056  0.411561  1
  Sr  Sr5  1  0.472410  0.169222  0.584437  1
  Sr  Sr6  1  0.526173  0.829637  0.087397  1
  Sr  Sr7  1  0.024275  0.671757  0.917660  1
  Sr  Sr8  1  0.024275  0.671757  0.582340  1
  Sr  Sr9  1  0.526173  0.829637  0.412603  1
  Sr  Sr10  1  0.472410  0.169222  0.915563  1
  Sr  Sr11  1  0.978315  0.328056  0.088439  1
  Co  Co12  1  0.000106  0.999368  0.001369  1
  Co  Co13  1  0.505590  0.498291  0.003942  1
  Co  Co14  1  0.505590  0.498291  0.496058  1
  Co  Co15  1  0.000106  0.999368  0.498631  1
  Ni  Ni16  1  0.463006  0.155299  0.158602  1
  Ni  Ni17  1  0.958019  0.339947  0.843785  1
  Ni  Ni18  1  0.040191  0.656710  0.341626  1
  Ni  Ni19  1  0.535063  0.849465  0.657329  1
  Ni  Ni20  1  0.535063  0.849465  0.842671  1
  Ni  Ni21  1  0.040191  0.656710  0.158374  1
  Ni  Ni22  1  0.958019  0.339947  0.656215  1
  Ni  Ni23  1  0.463006  0.155299  0.341398  1
  N  N24  1  0.308238  0.779090  0.750000  1
  N  N25  1  0.816139  0.734215  0.250000  1
  N  N26  1  0.170999  0.260148  0.750000  1
  N  N27  1  0.687656  0.234129  0.250000  1
  N  N28  1  0.231354  0.074727  0.423223  1
  N  N29  1  0.736201  0.421233  0.570501  1
  N  N30  1  0.272377  0.575509  0.077171  1
  N  N31  1  0.768620  0.924791  0.925761  1
  N  N32  1  0.768620  0.924791  0.574239  1
  N  N33  1  0.272377  0.575509  0.422829  1
  N  N34  1  0.736201  0.421233  0.929499  1
  N  N35  1  0.231354  0.074727  0.076777  1
