# generated using pymatgen
data_TbNdCd2(Ir2O7)2
_symmetry_space_group_name_H-M   'P 1'
_cell_length_a   7.28603425
_cell_length_b   7.28603445
_cell_length_c   7.42473035
_cell_angle_alpha   59.39798505
_cell_angle_beta   59.39798524
_cell_angle_gamma   59.20961617
_symmetry_Int_Tables_number   1
_chemical_formula_structural   TbNdCd2(Ir2O7)2
_chemical_formula_sum   'Tb1 Nd1 Cd2 Ir4 O14'
_cell_volume   274.48705380
_cell_formula_units_Z   1
loop_
 _symmetry_equiv_pos_site_id
 _symmetry_equiv_pos_as_xyz
  1  'x, y, z'
loop_
 _atom_site_type_symbol
 _atom_site_label
 _atom_site_symmetry_multiplicity
 _atom_site_fract_x
 _atom_site_fract_y
 _atom_site_fract_z
 _atom_site_occupancy
  Tb  Tb0  1  0.125000  0.125000  0.625000  1
  Nd  Nd1  1  0.125000  0.125000  0.125000  1
  Cd  Cd2  1  0.625000  0.125000  0.125000  1
  Cd  Cd3  1  0.125000  0.625000  0.125000  1
  Ir  Ir4  1  0.125000  0.625000  0.625000  1
  Ir  Ir5  1  0.625000  0.125000  0.625000  1
  Ir  Ir6  1  0.625000  0.625000  0.125000  1
  Ir  Ir7  1  0.625000  0.625000  0.625000  1
  O  O8  1  0.697817  0.697817  0.303098  1
  O  O9  1  0.289808  0.289808  0.705582  1
  O  O10  1  0.710152  0.296261  0.695023  1
  O  O11  1  0.295701  0.703677  0.299468  1
  O  O12  1  0.296261  0.710152  0.695023  1
  O  O13  1  0.703677  0.295701  0.299468  1
  O  O14  1  0.552183  0.552183  0.946902  1
  O  O15  1  0.960192  0.960192  0.544418  1
  O  O16  1  0.539848  0.953739  0.554977  1
  O  O17  1  0.954299  0.546323  0.950532  1
  O  O18  1  0.953739  0.539848  0.554977  1
  O  O19  1  0.546323  0.954299  0.950532  1
  O  O20  1  0.254205  0.254205  0.252880  1
  O  O21  1  0.995795  0.995795  0.997120  1
