# generated using pymatgen
data_Tb2TaOs3
_symmetry_space_group_name_H-M   'P 1'
_cell_length_a   5.60413400
_cell_length_b   5.60413318
_cell_length_c   8.43684700
_cell_angle_alpha   90.00000000
_cell_angle_beta   90.00000000
_cell_angle_gamma   120.00191576
_symmetry_Int_Tables_number   1
_chemical_formula_structural   Tb2TaOs3
_chemical_formula_sum   'Tb4 Ta2 Os6'
_cell_volume   229.46654644
_cell_formula_units_Z   2
loop_
 _symmetry_equiv_pos_site_id
 _symmetry_equiv_pos_as_xyz
  1  'x, y, z'
loop_
 _atom_site_type_symbol
 _atom_site_label
 _atom_site_symmetry_multiplicity
 _atom_site_fract_x
 _atom_site_fract_y
 _atom_site_fract_z
 _atom_site_occupancy
  Tb  Tb0  1  0.666673  0.333327  0.566414  1
  Tb  Tb1  1  0.333327  0.666673  0.433586  1
  Tb  Tb2  1  0.333327  0.666673  0.066414  1
  Tb  Tb3  1  0.666673  0.333327  0.933586  1
  Ta  Ta4  1  0.000000  0.000000  0.500000  1
  Ta  Ta5  1  0.000000  0.000000  0.000000  1
  Os  Os6  1  0.173315  0.346614  0.750000  1
  Os  Os7  1  0.173300  0.826700  0.750000  1
  Os  Os8  1  0.653386  0.826685  0.750000  1
  Os  Os9  1  0.826685  0.653386  0.250000  1
  Os  Os10  1  0.826700  0.173300  0.250000  1
  Os  Os11  1  0.346614  0.173315  0.250000  1
