# generated using pymatgen
data_KRb5(CuTe)8
_symmetry_space_group_name_H-M   'P 1'
_cell_length_a   4.26314500
_cell_length_b   8.90505510
_cell_length_c   18.07642045
_cell_angle_alpha   90.09619620
_cell_angle_beta   90.00000000
_cell_angle_gamma   90.00000000
_symmetry_Int_Tables_number   1
_chemical_formula_structural   KRb5(CuTe)8
_chemical_formula_sum   'K1 Rb5 Cu8 Te8'
_cell_volume   686.24396379
_cell_formula_units_Z   1
loop_
 _symmetry_equiv_pos_site_id
 _symmetry_equiv_pos_as_xyz
  1  'x, y, z'
loop_
 _atom_site_type_symbol
 _atom_site_label
 _atom_site_symmetry_multiplicity
 _atom_site_fract_x
 _atom_site_fract_y
 _atom_site_fract_z
 _atom_site_occupancy
  K  K0  1  0.000000  0.500000  0.500000  1
  Rb  Rb1  1  0.500000  0.011802  0.237887  1
  Rb  Rb2  1  0.500000  0.988198  0.762113  1
  Rb  Rb3  1  0.500000  0.487826  0.736540  1
  Rb  Rb4  1  0.500000  0.512174  0.263460  1
  Rb  Rb5  1  0.000000  0.000000  0.000000  1
  Cu  Cu6  1  0.000000  0.051703  0.425561  1
  Cu  Cu7  1  0.000000  0.948297  0.574439  1
  Cu  Cu8  1  0.000000  0.449850  0.925362  1
  Cu  Cu9  1  0.000000  0.550150  0.074638  1
  Cu  Cu10  1  0.500000  0.386798  0.060421  1
  Cu  Cu11  1  0.500000  0.613202  0.939579  1
  Cu  Cu12  1  0.500000  0.112594  0.559794  1
  Cu  Cu13  1  0.500000  0.887406  0.440206  1
  Te  Te14  1  0.000000  0.288469  0.136937  1
  Te  Te15  1  0.000000  0.711531  0.863063  1
  Te  Te16  1  0.000000  0.213105  0.634662  1
  Te  Te17  1  0.000000  0.786895  0.365338  1
  Te  Te18  1  0.500000  0.214001  0.419686  1
  Te  Te19  1  0.500000  0.785999  0.580314  1
  Te  Te20  1  0.500000  0.288945  0.919258  1
  Te  Te21  1  0.500000  0.711055  0.080742  1
