# generated using pymatgen
data_Sm5YCd23Sn
_symmetry_space_group_name_H-M   'P 1'
_cell_length_a   10.06930744
_cell_length_b   10.06930690
_cell_length_c   10.04586700
_cell_angle_alpha   60.07697176
_cell_angle_beta   60.07697353
_cell_angle_gamma   59.84604777
_symmetry_Int_Tables_number   1
_chemical_formula_structural   Sm5YCd23Sn
_chemical_formula_sum   'Sm5 Y1 Cd23 Sn1'
_cell_volume   720.22283487
_cell_formula_units_Z   1
loop_
 _symmetry_equiv_pos_site_id
 _symmetry_equiv_pos_as_xyz
  1  'x, y, z'
loop_
 _atom_site_type_symbol
 _atom_site_label
 _atom_site_symmetry_multiplicity
 _atom_site_fract_x
 _atom_site_fract_y
 _atom_site_fract_z
 _atom_site_occupancy
  Sm  Sm0  1  0.220300  0.779603  0.220397  1
  Sm  Sm1  1  0.779603  0.220300  0.220397  1
  Sm  Sm2  1  0.218784  0.218784  0.781216  1
  Sm  Sm3  1  0.779603  0.220300  0.779700  1
  Sm  Sm4  1  0.220300  0.779603  0.779700  1
  Y  Y5  1  0.781302  0.781302  0.218698  1
  Cd  Cd6  1  0.840986  0.840986  0.476141  1
  Cd  Cd7  1  0.840101  0.478483  0.840708  1
  Cd  Cd8  1  0.478483  0.840101  0.840708  1
  Cd  Cd9  1  0.840986  0.840986  0.841887  1
  Cd  Cd10  1  0.159292  0.159292  0.521517  1
  Cd  Cd11  1  0.158113  0.523859  0.159014  1
  Cd  Cd12  1  0.523859  0.158113  0.159014  1
  Cd  Cd13  1  0.159292  0.159292  0.159899  1
  Cd  Cd14  1  0.625084  0.625084  0.127637  1
  Cd  Cd15  1  0.624699  0.126381  0.624460  1
  Cd  Cd16  1  0.126381  0.624699  0.624460  1
  Cd  Cd17  1  0.625084  0.625084  0.622196  1
  Cd  Cd18  1  0.375540  0.375540  0.873619  1
  Cd  Cd19  1  0.377804  0.872363  0.374916  1
  Cd  Cd20  1  0.872363  0.377804  0.374916  1
  Cd  Cd21  1  0.375540  0.375540  0.375301  1
  Cd  Cd22  1  0.999651  0.999651  0.500349  1
  Cd  Cd23  1  0.500008  0.999815  0.499992  1
  Cd  Cd24  1  0.999815  0.500008  0.499992  1
  Cd  Cd25  1  0.499651  0.499651  0.000349  1
  Cd  Cd26  1  0.999815  0.500008  0.000185  1
  Cd  Cd27  1  0.500008  0.999815  0.000185  1
  Cd  Cd28  1  0.499557  0.499557  0.500443  1
  Sn  Sn29  1  0.997991  0.997991  0.002009  1
