# generated using pymatgen
data_Y5Ho3Sc12Si15Sn
_symmetry_space_group_name_H-M   'P 1'
_cell_length_a   7.13086194
_cell_length_b   7.41922974
_cell_length_c   14.07034111
_cell_angle_alpha   90.00372872
_cell_angle_beta   89.57180099
_cell_angle_gamma   90.02970488
_symmetry_Int_Tables_number   1
_chemical_formula_structural   Y5Ho3Sc12Si15Sn
_chemical_formula_sum   'Y5 Ho3 Sc12 Si15 Sn1'
_cell_volume   744.37758442
_cell_formula_units_Z   1
loop_
 _symmetry_equiv_pos_site_id
 _symmetry_equiv_pos_as_xyz
  1  'x, y, z'
loop_
 _atom_site_type_symbol
 _atom_site_label
 _atom_site_symmetry_multiplicity
 _atom_site_fract_x
 _atom_site_fract_y
 _atom_site_fract_z
 _atom_site_occupancy
  Y  Y0  1  0.011476  0.175863  0.096487  1
  Y  Y1  1  0.988368  0.824805  0.904428  1
  Y  Y2  1  0.489189  0.675968  0.904372  1
  Y  Y3  1  0.989309  0.830417  0.598254  1
  Y  Y4  1  0.510783  0.324021  0.096763  1
  Ho  Ho5  1  0.005800  0.169736  0.398967  1
  Ho  Ho6  1  0.513100  0.320311  0.399429  1
  Ho  Ho7  1  0.501205  0.684454  0.600067  1
  Sc  Sc8  1  0.162619  0.502033  0.755022  1
  Sc  Sc9  1  0.836981  0.497741  0.249272  1
  Sc  Sc10  1  0.337217  0.002531  0.249438  1
  Sc  Sc11  1  0.664010  0.997591  0.751721  1
  Sc  Sc12  1  0.343419  0.162659  0.630869  1
  Sc  Sc13  1  0.663908  0.824993  0.372607  1
  Sc  Sc14  1  0.163443  0.683432  0.369166  1
  Sc  Sc15  1  0.667679  0.822946  0.124271  1
  Sc  Sc16  1  0.823228  0.323660  0.626640  1
  Sc  Sc17  1  0.330777  0.175951  0.875453  1
  Sc  Sc18  1  0.831320  0.323303  0.875509  1
  Sc  Sc19  1  0.168605  0.676761  0.125130  1
  Si  Si20  1  0.035130  0.118888  0.751241  1
  Si  Si21  1  0.963059  0.885047  0.246942  1
  Si  Si22  1  0.465221  0.615462  0.248647  1
  Si  Si23  1  0.533202  0.385412  0.752131  1
  Si  Si24  1  0.286951  0.870142  0.752279  1
  Si  Si25  1  0.712209  0.126660  0.247775  1
  Si  Si26  1  0.211865  0.372709  0.249380  1
  Si  Si27  1  0.789364  0.627817  0.751502  1
  Si  Si28  1  0.829899  0.538706  0.458532  1
  Si  Si29  1  0.338164  0.964111  0.460241  1
  Si  Si30  1  0.842239  0.534875  0.039496  1
  Si  Si31  1  0.662070  0.037423  0.537809  1
  Si  Si32  1  0.156886  0.464569  0.961534  1
  Si  Si33  1  0.656937  0.035527  0.960771  1
  Si  Si34  1  0.341801  0.965059  0.039796  1
  Sn  Sn35  1  0.172570  0.458420  0.538055  1
