# generated using pymatgen
data_EuDy(CoB)8
_symmetry_space_group_name_H-M   'P 1'
_cell_length_a   6.99690200
_cell_length_b   6.99690200
_cell_length_c   3.81125000
_cell_angle_alpha   90.00000000
_cell_angle_beta   90.00000000
_cell_angle_gamma   90.00000000
_symmetry_Int_Tables_number   1
_chemical_formula_structural   EuDy(CoB)8
_chemical_formula_sum   'Eu1 Dy1 Co8 B8'
_cell_volume   186.58598504
_cell_formula_units_Z   1
loop_
 _symmetry_equiv_pos_site_id
 _symmetry_equiv_pos_as_xyz
  1  'x, y, z'
loop_
 _atom_site_type_symbol
 _atom_site_label
 _atom_site_symmetry_multiplicity
 _atom_site_fract_x
 _atom_site_fract_y
 _atom_site_fract_z
 _atom_site_occupancy
  Eu  Eu0  1  0.500000  0.500000  0.500000  1
  Dy  Dy1  1  0.000000  0.000000  0.000000  1
  Co  Co2  1  0.356703  0.884099  0.391129  1
  Co  Co3  1  0.619470  0.862948  0.891016  1
  Co  Co4  1  0.643297  0.115901  0.391129  1
  Co  Co5  1  0.137052  0.619470  0.108984  1
  Co  Co6  1  0.884099  0.643297  0.608871  1
  Co  Co7  1  0.862948  0.380530  0.108984  1
  Co  Co8  1  0.380530  0.137052  0.891016  1
  Co  Co9  1  0.115901  0.356703  0.608871  1
  B  B10  1  0.838124  0.295427  0.606367  1
  B  B11  1  0.161876  0.704573  0.606367  1
  B  B12  1  0.802328  0.663400  0.104810  1
  B  B13  1  0.336600  0.802328  0.895190  1
  B  B14  1  0.663400  0.197672  0.895190  1
  B  B15  1  0.295427  0.161876  0.393633  1
  B  B16  1  0.704573  0.838124  0.393633  1
  B  B17  1  0.197672  0.336600  0.104810  1
