# generated using pymatgen
data_La2Y7Lu11Si13Au3
_symmetry_space_group_name_H-M   'P 1'
_cell_length_a   7.34988760
_cell_length_b   7.82639111
_cell_length_c   14.48038255
_cell_angle_alpha   89.77557707
_cell_angle_beta   90.05406569
_cell_angle_gamma   89.92641768
_symmetry_Int_Tables_number   1
_chemical_formula_structural   La2Y7Lu11Si13Au3
_chemical_formula_sum   'La2 Y7 Lu11 Si13 Au3'
_cell_volume   832.94896903
_cell_formula_units_Z   1
loop_
 _symmetry_equiv_pos_site_id
 _symmetry_equiv_pos_as_xyz
  1  'x, y, z'
loop_
 _atom_site_type_symbol
 _atom_site_label
 _atom_site_symmetry_multiplicity
 _atom_site_fract_x
 _atom_site_fract_y
 _atom_site_fract_z
 _atom_site_occupancy
  La  La0  1  0.516631  0.569139  0.336156  1
  La  La1  1  0.019414  0.424704  0.662504  1
  Y  Y2  1  0.846398  0.738386  0.500452  1
  Y  Y3  1  0.478343  0.936004  0.842498  1
  Y  Y4  1  0.977223  0.063217  0.154694  1
  Y  Y5  1  0.475823  0.937618  0.155726  1
  Y  Y6  1  0.974794  0.061387  0.845763  1
  Y  Y7  1  0.522678  0.562746  0.659668  1
  Y  Y8  1  0.023471  0.431090  0.342985  1
  Lu  Lu9  1  0.812067  0.580669  0.875503  1
  Lu  Lu10  1  0.311514  0.421460  0.125133  1
  Lu  Lu11  1  0.182094  0.929497  0.372015  1
  Lu  Lu12  1  0.686561  0.075989  0.627615  1
  Lu  Lu13  1  0.181514  0.927792  0.629054  1
  Lu  Lu14  1  0.684261  0.075490  0.371050  1
  Lu  Lu15  1  0.818725  0.575709  0.125435  1
  Lu  Lu16  1  0.318189  0.425772  0.874143  1
  Lu  Lu17  1  0.651637  0.235472  0.999671  1
  Lu  Lu18  1  0.154074  0.766382  0.000543  1
  Lu  Lu19  1  0.352821  0.265818  0.499471  1
  Si  Si20  1  0.979587  0.141264  0.499001  1
  Si  Si21  1  0.654617  0.278079  0.792171  1
  Si  Si22  1  0.152679  0.722343  0.208244  1
  Si  Si23  1  0.348045  0.216178  0.288214  1
  Si  Si24  1  0.845666  0.783491  0.711571  1
  Si  Si25  1  0.358550  0.218774  0.710093  1
  Si  Si26  1  0.855718  0.783054  0.289340  1
  Si  Si27  1  0.653847  0.274081  0.205932  1
  Si  Si28  1  0.151535  0.726586  0.793785  1
  Si  Si29  1  0.772260  0.881771  0.000643  1
  Si  Si30  1  0.273026  0.119808  0.999353  1
  Si  Si31  1  0.225535  0.617973  0.501361  1
  Si  Si32  1  0.732957  0.370198  0.497938  1
  Au  Au33  1  0.517677  0.644185  0.002043  1
  Au  Au34  1  0.016400  0.356674  0.997891  1
  Au  Au35  1  0.473671  0.861201  0.502339  1
