# generated using pymatgen
data_Nd10GaBi5Cl2
_symmetry_space_group_name_H-M   'P 1'
_cell_length_a   9.49417038
_cell_length_b   9.49417080
_cell_length_c   6.66510800
_cell_angle_alpha   90.00000000
_cell_angle_beta   90.00000000
_cell_angle_gamma   119.59469546
_symmetry_Int_Tables_number   1
_chemical_formula_structural   Nd10GaBi5Cl2
_chemical_formula_sum   'Nd10 Ga1 Bi5 Cl2'
_cell_volume   522.40959538
_cell_formula_units_Z   1
loop_
 _symmetry_equiv_pos_site_id
 _symmetry_equiv_pos_as_xyz
  1  'x, y, z'
loop_
 _atom_site_type_symbol
 _atom_site_label
 _atom_site_symmetry_multiplicity
 _atom_site_fract_x
 _atom_site_fract_y
 _atom_site_fract_z
 _atom_site_occupancy
  Nd  Nd0  1  0.661222  0.334577  0.998864  1
  Nd  Nd1  1  0.334577  0.661222  0.998864  1
  Nd  Nd2  1  0.334577  0.661222  0.501136  1
  Nd  Nd3  1  0.661222  0.334577  0.501136  1
  Nd  Nd4  1  0.725985  0.725985  0.750000  1
  Nd  Nd5  1  0.266594  0.011964  0.750000  1
  Nd  Nd6  1  0.011964  0.266594  0.750000  1
  Nd  Nd7  1  0.267598  0.267598  0.250000  1
  Nd  Nd8  1  0.736777  0.000106  0.250000  1
  Nd  Nd9  1  0.000106  0.736777  0.250000  1
  Ga  Ga10  1  0.387552  0.387552  0.750000  1
  Bi  Bi11  1  0.616177  0.002287  0.750000  1
  Bi  Bi12  1  0.002287  0.616177  0.750000  1
  Bi  Bi13  1  0.612115  0.612115  0.250000  1
  Bi  Bi14  1  0.385643  0.999158  0.250000  1
  Bi  Bi15  1  0.999158  0.385643  0.250000  1
  Cl  Cl16  1  0.998222  0.998222  0.000667  1
  Cl  Cl17  1  0.998222  0.998222  0.499333  1
