# generated using pymatgen
data_Mg2TaNi9P7W2
_symmetry_space_group_name_H-M   'P 1'
_cell_length_a   3.61538500
_cell_length_b   9.25299046
_cell_length_c   9.22785955
_cell_angle_alpha   120.15772690
_cell_angle_beta   90.00000000
_cell_angle_gamma   90.00000000
_symmetry_Int_Tables_number   1
_chemical_formula_structural   Mg2TaNi9P7W2
_chemical_formula_sum   'Mg2 Ta1 Ni9 P7 W2'
_cell_volume   266.91674920
_cell_formula_units_Z   1
loop_
 _symmetry_equiv_pos_site_id
 _symmetry_equiv_pos_as_xyz
  1  'x, y, z'
loop_
 _atom_site_type_symbol
 _atom_site_label
 _atom_site_symmetry_multiplicity
 _atom_site_fract_x
 _atom_site_fract_y
 _atom_site_fract_z
 _atom_site_occupancy
  Mg  Mg0  1  0.000000  0.665612  0.332506  1
  Mg  Mg1  1  0.500000  0.333307  0.667216  1
  Ta  Ta2  1  0.500000  0.103678  0.879227  1
  Ni  Ni3  1  0.000000  0.561931  0.929299  1
  Ni  Ni4  1  0.000000  0.368686  0.441299  1
  Ni  Ni5  1  0.000000  0.069926  0.629308  1
  Ni  Ni6  1  0.500000  0.936202  0.381434  1
  Ni  Ni7  1  0.500000  0.450011  0.066596  1
  Ni  Ni8  1  0.500000  0.615581  0.552833  1
  Ni  Ni9  1  0.000000  0.872208  0.158457  1
  Ni  Ni10  1  0.000000  0.285948  0.130397  1
  Ni  Ni11  1  0.000000  0.840768  0.712193  1
  P  P12  1  0.500000  0.707377  0.119716  1
  P  P13  1  0.500000  0.411696  0.292543  1
  P  P14  1  0.500000  0.875389  0.581345  1
  P  P15  1  0.000000  0.998205  0.000705  1
  P  P16  1  0.000000  0.585655  0.700704  1
  P  P17  1  0.000000  0.115309  0.414986  1
  P  P18  1  0.000000  0.303243  0.885123  1
  W  W19  1  0.500000  0.777925  0.899630  1
  W  W20  1  0.500000  0.121341  0.224487  1
