# generated using pymatgen
data_Yb(Co2B)6
_symmetry_space_group_name_H-M   'P 1'
_cell_length_a   5.95485287
_cell_length_b   5.95485355
_cell_length_c   5.95485401
_cell_angle_alpha   103.97898012
_cell_angle_beta   103.97898764
_cell_angle_gamma   103.97899629
_symmetry_Int_Tables_number   1
_chemical_formula_structural   Yb(Co2B)6
_chemical_formula_sum   'Yb1 Co12 B6'
_cell_volume   188.48328898
_cell_formula_units_Z   1
loop_
 _symmetry_equiv_pos_site_id
 _symmetry_equiv_pos_as_xyz
  1  'x, y, z'
loop_
 _atom_site_type_symbol
 _atom_site_label
 _atom_site_symmetry_multiplicity
 _atom_site_fract_x
 _atom_site_fract_y
 _atom_site_fract_z
 _atom_site_occupancy
  Yb  Yb0  1  0.000000  0.000000  0.000000  1
  Co  Co1  1  0.867338  0.132662  0.500000  1
  Co  Co2  1  0.132662  0.500000  0.867338  1
  Co  Co3  1  0.500000  0.867338  0.132662  1
  Co  Co4  1  0.867338  0.500000  0.132662  1
  Co  Co5  1  0.500000  0.132662  0.867338  1
  Co  Co6  1  0.132662  0.867338  0.500000  1
  Co  Co7  1  0.813390  0.542886  0.542886  1
  Co  Co8  1  0.542886  0.542886  0.813390  1
  Co  Co9  1  0.542886  0.813390  0.542886  1
  Co  Co10  1  0.186610  0.457114  0.457114  1
  Co  Co11  1  0.457114  0.457114  0.186610  1
  Co  Co12  1  0.457114  0.186610  0.457114  1
  B  B13  1  0.324310  0.767997  0.767997  1
  B  B14  1  0.767997  0.767997  0.324310  1
  B  B15  1  0.767997  0.324310  0.767997  1
  B  B16  1  0.675690  0.232003  0.232003  1
  B  B17  1  0.232003  0.232003  0.675690  1
  B  B18  1  0.232003  0.675690  0.232003  1
