# generated using pymatgen
data_Ho20IrPdRu10
_symmetry_space_group_name_H-M   'P 1'
_cell_length_a   10.78355133
_cell_length_b   10.78355214
_cell_length_c   6.35714005
_cell_angle_alpha   89.97828469
_cell_angle_beta   89.97828529
_cell_angle_gamma   89.71845906
_symmetry_Int_Tables_number   1
_chemical_formula_structural   Ho20IrPdRu10
_chemical_formula_sum   'Ho20 Ir1 Pd1 Ru10'
_cell_volume   739.23092420
_cell_formula_units_Z   1
loop_
 _symmetry_equiv_pos_site_id
 _symmetry_equiv_pos_as_xyz
  1  'x, y, z'
loop_
 _atom_site_type_symbol
 _atom_site_label
 _atom_site_symmetry_multiplicity
 _atom_site_fract_x
 _atom_site_fract_y
 _atom_site_fract_z
 _atom_site_occupancy
  Ho  Ho0  1  0.290209  0.085926  0.376174  1
  Ho  Ho1  1  0.293247  0.914348  0.874830  1
  Ho  Ho2  1  0.705007  0.083728  0.868559  1
  Ho  Ho3  1  0.705614  0.908781  0.377038  1
  Ho  Ho4  1  0.586236  0.791315  0.877034  1
  Ho  Ho5  1  0.579877  0.208090  0.375002  1
  Ho  Ho6  1  0.413315  0.791758  0.376365  1
  Ho  Ho7  1  0.413347  0.208404  0.876264  1
  Ho  Ho8  1  0.208685  0.413764  0.622966  1
  Ho  Ho9  1  0.208242  0.586685  0.123635  1
  Ho  Ho10  1  0.791910  0.420123  0.124998  1
  Ho  Ho11  1  0.791596  0.586653  0.623736  1
  Ho  Ho12  1  0.914074  0.709791  0.123826  1
  Ho  Ho13  1  0.916272  0.294993  0.631441  1
  Ho  Ho14  1  0.085652  0.706753  0.625170  1
  Ho  Ho15  1  0.091219  0.294386  0.122962  1
  Ho  Ho16  1  0.001603  0.996927  0.502306  1
  Ho  Ho17  1  0.003073  0.998397  0.997694  1
  Ho  Ho18  1  0.501424  0.498998  0.000386  1
  Ho  Ho19  1  0.501002  0.498576  0.499614  1
  Ir  Ir20  1  0.346693  0.653307  0.750000  1
  Pd  Pd21  1  0.843670  0.156330  0.250000  1
  Ru  Ru22  1  0.847785  0.850095  0.750747  1
  Ru  Ru23  1  0.149905  0.152215  0.749253  1
  Ru  Ru24  1  0.154182  0.845818  0.250000  1
  Ru  Ru25  1  0.655610  0.344390  0.750000  1
  Ru  Ru26  1  0.651815  0.652519  0.250939  1
  Ru  Ru27  1  0.347481  0.348185  0.249061  1
  Ru  Ru28  1  0.500431  0.999888  0.124156  1
  Ru  Ru29  1  0.500749  0.000040  0.622826  1
  Ru  Ru30  1  0.999960  0.499251  0.877174  1
  Ru  Ru31  1  0.000112  0.499569  0.375844  1
