# generated using pymatgen
data_DyEr19(NiBi2)4
_symmetry_space_group_name_H-M   'P 1'
_cell_length_a   7.95614730
_cell_length_b   8.89448000
_cell_length_c   12.25539145
_cell_angle_alpha   90.00052685
_cell_angle_beta   89.96880854
_cell_angle_gamma   89.99839397
_symmetry_Int_Tables_number   1
_chemical_formula_structural   DyEr19(NiBi2)4
_chemical_formula_sum   'Dy1 Er19 Ni4 Bi8'
_cell_volume   867.26236595
_cell_formula_units_Z   1
loop_
 _symmetry_equiv_pos_site_id
 _symmetry_equiv_pos_as_xyz
  1  'x, y, z'
loop_
 _atom_site_type_symbol
 _atom_site_label
 _atom_site_symmetry_multiplicity
 _atom_site_fract_x
 _atom_site_fract_y
 _atom_site_fract_z
 _atom_site_occupancy
  Dy  Dy0  1  0.120247  0.250004  0.193025  1
  Er  Er1  1  0.156109  0.750002  0.203510  1
  Er  Er2  1  0.342925  0.750002  0.704471  1
  Er  Er3  1  0.843429  0.250003  0.796136  1
  Er  Er4  1  0.656588  0.250001  0.295815  1
  Er  Er5  1  0.449581  0.750005  0.998952  1
  Er  Er6  1  0.050409  0.749999  0.499373  1
  Er  Er7  1  0.550552  0.250002  0.000974  1
  Er  Er8  1  0.949174  0.250001  0.500775  1
  Er  Er9  1  0.618978  0.749999  0.308202  1
  Er  Er10  1  0.880797  0.750004  0.807365  1
  Er  Er11  1  0.380842  0.250001  0.692077  1
  Er  Er12  1  0.822898  0.543329  0.064114  1
  Er  Er13  1  0.676768  0.957360  0.564720  1
  Er  Er14  1  0.176845  0.042630  0.935013  1
  Er  Er15  1  0.323185  0.457586  0.435735  1
  Er  Er16  1  0.176839  0.457392  0.935017  1
  Er  Er17  1  0.323185  0.042409  0.435737  1
  Er  Er18  1  0.822899  0.956680  0.064115  1
  Er  Er19  1  0.676766  0.542638  0.564722  1
  Ni  Ni20  1  0.426640  0.750044  0.490315  1
  Ni  Ni21  1  0.074648  0.749968  0.989284  1
  Ni  Ni22  1  0.572831  0.250011  0.510137  1
  Ni  Ni23  1  0.926314  0.249925  0.010244  1
  Bi  Bi24  1  0.928085  0.510287  0.327427  1
  Bi  Bi25  1  0.571303  0.990465  0.827150  1
  Bi  Bi26  1  0.071275  0.009879  0.672666  1
  Bi  Bi27  1  0.429612  0.491033  0.172840  1
  Bi  Bi28  1  0.071275  0.490121  0.672667  1
  Bi  Bi29  1  0.429614  0.008969  0.172842  1
  Bi  Bi30  1  0.928086  0.989711  0.327428  1
  Bi  Bi31  1  0.571302  0.509538  0.827151  1
