# generated using pymatgen
data_Ta6Mn2Al3SiC2
_symmetry_space_group_name_H-M   'P 1'
_cell_length_a   8.19588198
_cell_length_b   8.18796063
_cell_length_c   8.18796048
_cell_angle_alpha   59.95441562
_cell_angle_beta   59.96799391
_cell_angle_gamma   59.96799279
_symmetry_Int_Tables_number   1
_chemical_formula_structural   Ta6Mn2Al3SiC2
_chemical_formula_sum   'Ta12 Mn4 Al6 Si2 C4'
_cell_volume   388.21491325
_cell_formula_units_Z   2
loop_
 _symmetry_equiv_pos_site_id
 _symmetry_equiv_pos_as_xyz
  1  'x, y, z'
loop_
 _atom_site_type_symbol
 _atom_site_label
 _atom_site_symmetry_multiplicity
 _atom_site_fract_x
 _atom_site_fract_y
 _atom_site_fract_z
 _atom_site_occupancy
  Ta  Ta0  1  0.554047  0.945704  0.553776  1
  Ta  Ta1  1  0.303697  0.696201  0.696201  1
  Ta  Ta2  1  0.698893  0.304328  0.304328  1
  Ta  Ta3  1  0.303528  0.696224  0.304296  1
  Ta  Ta4  1  0.698652  0.692804  0.304554  1
  Ta  Ta5  1  0.303528  0.304296  0.696224  1
  Ta  Ta6  1  0.554047  0.553776  0.945704  1
  Ta  Ta7  1  0.946098  0.553799  0.553799  1
  Ta  Ta8  1  0.557550  0.945672  0.945672  1
  Ta  Ta9  1  0.946010  0.945446  0.557196  1
  Ta  Ta10  1  0.698652  0.304554  0.692804  1
  Ta  Ta11  1  0.946010  0.557196  0.945446  1
  Mn  Mn12  1  0.121335  0.129090  0.129090  1
  Mn  Mn13  1  0.629516  0.120910  0.120910  1
  Mn  Mn14  1  0.117408  0.625000  0.125000  1
  Mn  Mn15  1  0.117408  0.125000  0.625000  1
  Al  Al16  1  0.333633  0.003166  0.331824  1
  Al  Al17  1  0.333633  0.331824  0.003166  1
  Al  Al18  1  0.918624  0.246834  0.918176  1
  Al  Al19  1  0.918624  0.918176  0.246834  1
  Al  Al20  1  0.246292  0.918450  0.918450  1
  Al  Al21  1  0.333192  0.331550  0.331550  1
  Si  Si22  1  0.917760  0.917455  0.917455  1
  Si  Si23  1  0.002669  0.332545  0.332545  1
  C  C24  1  0.624879  0.624680  0.624680  1
  C  C25  1  0.124238  0.625320  0.625320  1
  C  C26  1  0.625037  0.125000  0.625000  1
  C  C27  1  0.625037  0.625000  0.125000  1
