# generated using pymatgen
data_Lu3ZnAu2C
_symmetry_space_group_name_H-M   'P 1'
_cell_length_a   9.05560750
_cell_length_b   9.05560725
_cell_length_c   9.05560800
_cell_angle_alpha   59.99999726
_cell_angle_beta   59.99999818
_cell_angle_gamma   59.99999575
_symmetry_Int_Tables_number   1
_chemical_formula_structural   Lu3ZnAu2C
_chemical_formula_sum   'Lu12 Zn4 Au8 C4'
_cell_volume   525.09484748
_cell_formula_units_Z   4
loop_
 _symmetry_equiv_pos_site_id
 _symmetry_equiv_pos_as_xyz
  1  'x, y, z'
loop_
 _atom_site_type_symbol
 _atom_site_label
 _atom_site_symmetry_multiplicity
 _atom_site_fract_x
 _atom_site_fract_y
 _atom_site_fract_z
 _atom_site_occupancy
  Lu  Lu0  1  0.443191  0.443191  0.056809  1
  Lu  Lu1  1  0.056809  0.443191  0.056809  1
  Lu  Lu2  1  0.443191  0.056809  0.056809  1
  Lu  Lu3  1  0.056809  0.056809  0.443191  1
  Lu  Lu4  1  0.443191  0.056809  0.443191  1
  Lu  Lu5  1  0.056809  0.443191  0.443191  1
  Lu  Lu6  1  0.806809  0.806809  0.193191  1
  Lu  Lu7  1  0.193191  0.806809  0.193191  1
  Lu  Lu8  1  0.806809  0.193191  0.193191  1
  Lu  Lu9  1  0.193191  0.193191  0.806809  1
  Lu  Lu10  1  0.806809  0.193191  0.806809  1
  Lu  Lu11  1  0.193191  0.806809  0.806809  1
  Zn  Zn12  1  0.625000  0.625000  0.125000  1
  Zn  Zn13  1  0.625000  0.125000  0.625000  1
  Zn  Zn14  1  0.125000  0.625000  0.625000  1
  Zn  Zn15  1  0.625000  0.625000  0.625000  1
  Au  Au16  1  0.835197  0.835197  0.494410  1
  Au  Au17  1  0.835197  0.494410  0.835197  1
  Au  Au18  1  0.494410  0.835197  0.835197  1
  Au  Au19  1  0.835197  0.835197  0.835197  1
  Au  Au20  1  0.414803  0.414803  0.755590  1
  Au  Au21  1  0.414803  0.755590  0.414803  1
  Au  Au22  1  0.755590  0.414803  0.414803  1
  Au  Au23  1  0.414803  0.414803  0.414803  1
  C  C24  1  0.125000  0.125000  0.625000  1
  C  C25  1  0.125000  0.625000  0.125000  1
  C  C26  1  0.625000  0.125000  0.125000  1
  C  C27  1  0.125000  0.125000  0.125000  1
