# generated using pymatgen
data_Dy3Er(Sc3Pt4)2
_symmetry_space_group_name_H-M   'P 1'
_cell_length_a   7.38264757
_cell_length_b   7.33446973
_cell_length_c   13.83947837
_cell_angle_alpha   90.02531386
_cell_angle_beta   89.99212520
_cell_angle_gamma   89.95566548
_symmetry_Int_Tables_number   1
_chemical_formula_structural   Dy3Er(Sc3Pt4)2
_chemical_formula_sum   'Dy6 Er2 Sc12 Pt16'
_cell_volume   749.37707309
_cell_formula_units_Z   2
loop_
 _symmetry_equiv_pos_site_id
 _symmetry_equiv_pos_as_xyz
  1  'x, y, z'
loop_
 _atom_site_type_symbol
 _atom_site_label
 _atom_site_symmetry_multiplicity
 _atom_site_fract_x
 _atom_site_fract_y
 _atom_site_fract_z
 _atom_site_occupancy
  Dy  Dy0  1  0.491844  0.676823  0.905117  1
  Dy  Dy1  1  0.992343  0.823345  0.595034  1
  Dy  Dy2  1  0.508156  0.323177  0.094883  1
  Dy  Dy3  1  0.007657  0.176655  0.404966  1
  Dy  Dy4  1  0.507767  0.323328  0.404799  1
  Dy  Dy5  1  0.492233  0.676672  0.595201  1
  Er  Er6  1  0.008131  0.176584  0.094992  1
  Er  Er7  1  0.991869  0.823416  0.905008  1
  Sc  Sc8  1  0.165967  0.498332  0.750349  1
  Sc  Sc9  1  0.834033  0.501668  0.249651  1
  Sc  Sc10  1  0.333718  0.998249  0.249630  1
  Sc  Sc11  1  0.666282  0.001751  0.750370  1
  Sc  Sc12  1  0.334021  0.163206  0.624106  1
  Sc  Sc13  1  0.665979  0.836794  0.375894  1
  Sc  Sc14  1  0.166011  0.663466  0.375889  1
  Sc  Sc15  1  0.666760  0.836958  0.123621  1
  Sc  Sc16  1  0.833989  0.336534  0.624111  1
  Sc  Sc17  1  0.333240  0.163042  0.876379  1
  Sc  Sc18  1  0.834371  0.336117  0.876618  1
  Sc  Sc19  1  0.165629  0.663883  0.123382  1
  Pt  Pt20  1  0.030876  0.125335  0.750389  1
  Pt  Pt21  1  0.969124  0.874665  0.249611  1
  Pt  Pt22  1  0.468394  0.625754  0.249814  1
  Pt  Pt23  1  0.531606  0.374246  0.750186  1
  Pt  Pt24  1  0.293570  0.855069  0.750448  1
  Pt  Pt25  1  0.706430  0.144931  0.249552  1
  Pt  Pt26  1  0.204840  0.354836  0.249271  1
  Pt  Pt27  1  0.795160  0.645164  0.750729  1
  Pt  Pt28  1  0.173901  0.456764  0.543180  1
  Pt  Pt29  1  0.826099  0.543236  0.456820  1
  Pt  Pt30  1  0.326051  0.956678  0.456890  1
  Pt  Pt31  1  0.826680  0.542943  0.043146  1
  Pt  Pt32  1  0.673949  0.043322  0.543110  1
  Pt  Pt33  1  0.173320  0.457057  0.956854  1
  Pt  Pt34  1  0.675212  0.042485  0.956970  1
  Pt  Pt35  1  0.324788  0.957515  0.043030  1
