# generated using pymatgen
data_Er2GaTc3
_symmetry_space_group_name_H-M   'P 1'
_cell_length_a   5.32174904
_cell_length_b   5.31987503
_cell_length_c   8.98169800
_cell_angle_alpha   90.00000000
_cell_angle_beta   90.00000000
_cell_angle_gamma   60.01164126
_symmetry_Int_Tables_number   1
_chemical_formula_structural   Er2GaTc3
_chemical_formula_sum   'Er4 Ga2 Tc6'
_cell_volume   220.23981538
_cell_formula_units_Z   2
loop_
 _symmetry_equiv_pos_site_id
 _symmetry_equiv_pos_as_xyz
  1  'x, y, z'
loop_
 _atom_site_type_symbol
 _atom_site_label
 _atom_site_symmetry_multiplicity
 _atom_site_fract_x
 _atom_site_fract_y
 _atom_site_fract_z
 _atom_site_occupancy
  Er  Er0  1  0.333315  0.333342  0.568447  1
  Er  Er1  1  0.666685  0.666658  0.431553  1
  Er  Er2  1  0.666685  0.666658  0.068447  1
  Er  Er3  1  0.333315  0.333342  0.931553  1
  Ga  Ga4  1  0.000000  0.000000  0.500000  1
  Ga  Ga5  1  0.000000  0.000000  0.000000  1
  Tc  Tc6  1  0.828977  0.342121  0.750000  1
  Tc  Tc7  1  0.342175  0.828913  0.750000  1
  Tc  Tc8  1  0.828977  0.828904  0.750000  1
  Tc  Tc9  1  0.171023  0.657879  0.250000  1
  Tc  Tc10  1  0.657825  0.171087  0.250000  1
  Tc  Tc11  1  0.171023  0.171096  0.250000  1
