# generated using pymatgen
data_CsEu3(NO3)8
_symmetry_space_group_name_H-M   'P 1'
_cell_length_a   8.31612657
_cell_length_b   8.31612713
_cell_length_c   8.31612600
_cell_angle_alpha   91.47608578
_cell_angle_beta   91.47607899
_cell_angle_gamma   91.47609139
_symmetry_Int_Tables_number   1
_chemical_formula_structural   CsEu3(NO3)8
_chemical_formula_sum   'Cs1 Eu3 N8 O24'
_cell_volume   574.54378320
_cell_formula_units_Z   1
loop_
 _symmetry_equiv_pos_site_id
 _symmetry_equiv_pos_as_xyz
  1  'x, y, z'
loop_
 _atom_site_type_symbol
 _atom_site_label
 _atom_site_symmetry_multiplicity
 _atom_site_fract_x
 _atom_site_fract_y
 _atom_site_fract_z
 _atom_site_occupancy
  Cs  Cs0  1  0.500000  0.500000  0.500000  1
  Eu  Eu1  1  0.500000  0.000000  0.000000  1
  Eu  Eu2  1  0.000000  0.000000  0.500000  1
  Eu  Eu3  1  0.000000  0.500000  0.000000  1
  N  N4  1  0.669374  0.887980  0.325019  1
  N  N5  1  0.330626  0.112020  0.674981  1
  N  N6  1  0.161317  0.161317  0.161317  1
  N  N7  1  0.887980  0.325019  0.669374  1
  N  N8  1  0.325019  0.669374  0.887980  1
  N  N9  1  0.838683  0.838683  0.838683  1
  N  N10  1  0.112020  0.674981  0.330626  1
  N  N11  1  0.674981  0.330626  0.112020  1
  O  O12  1  0.046594  0.179929  0.256883  1
  O  O13  1  0.835147  0.456919  0.722865  1
  O  O14  1  0.258202  0.745572  0.001775  1
  O  O15  1  0.953406  0.820071  0.743117  1
  O  O16  1  0.164853  0.543081  0.277135  1
  O  O17  1  0.741798  0.254428  0.998225  1
  O  O18  1  0.256883  0.046594  0.179929  1
  O  O19  1  0.829256  0.258337  0.541234  1
  O  O20  1  0.456919  0.722865  0.835147  1
  O  O21  1  0.743117  0.953406  0.820071  1
  O  O22  1  0.170744  0.741663  0.458766  1
  O  O23  1  0.543081  0.277135  0.164853  1
  O  O24  1  0.179929  0.256883  0.046594  1
  O  O25  1  0.001775  0.258202  0.745572  1
  O  O26  1  0.258337  0.541234  0.829256  1
  O  O27  1  0.820071  0.743117  0.953406  1
  O  O28  1  0.998225  0.741798  0.254428  1
  O  O29  1  0.741663  0.458766  0.170744  1
  O  O30  1  0.745572  0.001775  0.258202  1
  O  O31  1  0.722865  0.835147  0.456919  1
  O  O32  1  0.541234  0.829256  0.258337  1
  O  O33  1  0.254428  0.998225  0.741798  1
  O  O34  1  0.277135  0.164853  0.543081  1
  O  O35  1  0.458766  0.170744  0.741663  1
