# generated using pymatgen
data_Dy(Cu2P)2
_symmetry_space_group_name_H-M   'P 1'
_cell_length_a   7.25297600
_cell_length_b   7.25297600
_cell_length_c   3.78389800
_cell_angle_alpha   90.00000000
_cell_angle_beta   90.00000000
_cell_angle_gamma   90.00000000
_symmetry_Int_Tables_number   1
_chemical_formula_structural   Dy(Cu2P)2
_chemical_formula_sum   'Dy2 Cu8 P4'
_cell_volume   199.05445490
_cell_formula_units_Z   2
loop_
 _symmetry_equiv_pos_site_id
 _symmetry_equiv_pos_as_xyz
  1  'x, y, z'
loop_
 _atom_site_type_symbol
 _atom_site_label
 _atom_site_symmetry_multiplicity
 _atom_site_fract_x
 _atom_site_fract_y
 _atom_site_fract_z
 _atom_site_occupancy
  Dy  Dy0  1  0.000000  0.000000  0.000000  1
  Dy  Dy1  1  0.500000  0.500000  0.500000  1
  Cu  Cu2  1  0.584060  0.835054  0.000000  1
  Cu  Cu3  1  0.835054  0.584060  0.000000  1
  Cu  Cu4  1  0.164946  0.415940  0.000000  1
  Cu  Cu5  1  0.415940  0.164946  0.000000  1
  Cu  Cu6  1  0.664946  0.084060  0.500000  1
  Cu  Cu7  1  0.915940  0.335054  0.500000  1
  Cu  Cu8  1  0.084060  0.664946  0.500000  1
  Cu  Cu9  1  0.335054  0.915940  0.500000  1
  P  P10  1  0.713143  0.286857  0.000000  1
  P  P11  1  0.286857  0.713143  0.000000  1
  P  P12  1  0.786857  0.786857  0.500000  1
  P  P13  1  0.213143  0.213143  0.500000  1
