# generated using pymatgen
data_TbCrCo(PRh)3
_symmetry_space_group_name_H-M   'P 1'
_cell_length_a   3.79457600
_cell_length_b   10.73865800
_cell_length_c   12.39144900
_cell_angle_alpha   90.00000000
_cell_angle_beta   90.00000000
_cell_angle_gamma   90.00000000
_symmetry_Int_Tables_number   1
_chemical_formula_structural   TbCrCo(PRh)3
_chemical_formula_sum   'Tb4 Cr4 Co4 P12 Rh12'
_cell_volume   504.93486686
_cell_formula_units_Z   4
loop_
 _symmetry_equiv_pos_site_id
 _symmetry_equiv_pos_as_xyz
  1  'x, y, z'
loop_
 _atom_site_type_symbol
 _atom_site_label
 _atom_site_symmetry_multiplicity
 _atom_site_fract_x
 _atom_site_fract_y
 _atom_site_fract_z
 _atom_site_occupancy
  Tb  Tb0  1  0.250000  0.583293  0.707758  1
  Tb  Tb1  1  0.250000  0.916707  0.207758  1
  Tb  Tb2  1  0.750000  0.416707  0.292242  1
  Tb  Tb3  1  0.750000  0.083293  0.792242  1
  Cr  Cr4  1  0.250000  0.709421  0.987317  1
  Cr  Cr5  1  0.250000  0.790579  0.487317  1
  Cr  Cr6  1  0.750000  0.290579  0.012683  1
  Cr  Cr7  1  0.750000  0.209421  0.512683  1
  Co  Co8  1  0.250000  0.465536  0.935716  1
  Co  Co9  1  0.250000  0.034464  0.435716  1
  Co  Co10  1  0.750000  0.534464  0.064284  1
  Co  Co11  1  0.750000  0.965536  0.564284  1
  P  P12  1  0.250000  0.421888  0.106058  1
  P  P13  1  0.250000  0.078112  0.606058  1
  P  P14  1  0.750000  0.578112  0.893942  1
  P  P15  1  0.750000  0.921888  0.393942  1
  P  P16  1  0.250000  0.271632  0.875092  1
  P  P17  1  0.250000  0.228368  0.375092  1
  P  P18  1  0.750000  0.728368  0.124908  1
  P  P19  1  0.750000  0.771632  0.624908  1
  P  P20  1  0.250000  0.601525  0.390061  1
  P  P21  1  0.250000  0.898475  0.890061  1
  P  P22  1  0.750000  0.398475  0.609939  1
  P  P23  1  0.750000  0.101525  0.109939  1
  Rh  Rh24  1  0.250000  0.404945  0.486709  1
  Rh  Rh25  1  0.250000  0.095055  0.986709  1
  Rh  Rh26  1  0.750000  0.595055  0.513291  1
  Rh  Rh27  1  0.750000  0.904945  0.013291  1
  Rh  Rh28  1  0.250000  0.228909  0.179601  1
  Rh  Rh29  1  0.250000  0.271091  0.679601  1
  Rh  Rh30  1  0.750000  0.771091  0.820399  1
  Rh  Rh31  1  0.750000  0.728909  0.320399  1
  Rh  Rh32  1  0.250000  0.888179  0.696771  1
  Rh  Rh33  1  0.250000  0.611821  0.196771  1
  Rh  Rh34  1  0.750000  0.111821  0.303229  1
  Rh  Rh35  1  0.750000  0.388179  0.803229  1
