# generated using pymatgen
data_SmYFe7CoB8
_symmetry_space_group_name_H-M   'P 1'
_cell_length_a   6.99779543
_cell_length_b   6.99157449
_cell_length_c   3.80787202
_cell_angle_alpha   90.03817377
_cell_angle_beta   89.93201052
_cell_angle_gamma   90.12735552
_symmetry_Int_Tables_number   1
_chemical_formula_structural   SmYFe7CoB8
_chemical_formula_sum   'Sm1 Y1 Fe7 Co1 B8'
_cell_volume   186.30182104
_cell_formula_units_Z   1
loop_
 _symmetry_equiv_pos_site_id
 _symmetry_equiv_pos_as_xyz
  1  'x, y, z'
loop_
 _atom_site_type_symbol
 _atom_site_label
 _atom_site_symmetry_multiplicity
 _atom_site_fract_x
 _atom_site_fract_y
 _atom_site_fract_z
 _atom_site_occupancy
  Sm  Sm0  1  0.499599  0.499741  0.500764  1
  Y  Y1  1  0.000818  0.001303  0.000502  1
  Fe  Fe2  1  0.386462  0.131826  0.893005  1
  Fe  Fe3  1  0.614279  0.868907  0.892632  1
  Fe  Fe4  1  0.366788  0.886797  0.393218  1
  Fe  Fe5  1  0.634072  0.113561  0.392673  1
  Fe  Fe6  1  0.111908  0.367312  0.606524  1
  Fe  Fe7  1  0.885792  0.631999  0.607212  1
  Fe  Fe8  1  0.130702  0.613723  0.107968  1
  Co  Co9  1  0.865487  0.386321  0.108019  1
  B  B10  1  0.802386  0.670351  0.104828  1
  B  B11  1  0.204356  0.334449  0.103744  1
  B  B12  1  0.836178  0.295894  0.604962  1
  B  B13  1  0.164803  0.702275  0.606703  1
  B  B14  1  0.700891  0.834479  0.393870  1
  B  B15  1  0.296833  0.164645  0.394084  1
  B  B16  1  0.666175  0.195698  0.893856  1
  B  B17  1  0.332470  0.800719  0.895436  1
