# generated using pymatgen
data_Yb2Y2IrRh3O14
_symmetry_space_group_name_H-M   'P 1'
_cell_length_a   7.23706093
_cell_length_b   7.22432716
_cell_length_c   7.23706106
_cell_angle_alpha   59.77067940
_cell_angle_beta   59.79218358
_cell_angle_gamma   59.77067637
_symmetry_Int_Tables_number   1
_chemical_formula_structural   Yb2Y2IrRh3O14
_chemical_formula_sum   'Yb2 Y2 Ir1 Rh3 O14'
_cell_volume   266.20169034
_cell_formula_units_Z   1
loop_
 _symmetry_equiv_pos_site_id
 _symmetry_equiv_pos_as_xyz
  1  'x, y, z'
loop_
 _atom_site_type_symbol
 _atom_site_label
 _atom_site_symmetry_multiplicity
 _atom_site_fract_x
 _atom_site_fract_y
 _atom_site_fract_z
 _atom_site_occupancy
  Yb  Yb0  1  0.625000  0.125000  0.125000  1
  Yb  Yb1  1  0.125000  0.125000  0.625000  1
  Y  Y2  1  0.125000  0.625000  0.125000  1
  Y  Y3  1  0.125000  0.125000  0.125000  1
  Ir  Ir4  1  0.625000  0.625000  0.625000  1
  Rh  Rh5  1  0.125000  0.625000  0.625000  1
  Rh  Rh6  1  0.625000  0.125000  0.625000  1
  Rh  Rh7  1  0.625000  0.625000  0.125000  1
  O  O8  1  0.707625  0.700956  0.297866  1
  O  O9  1  0.292299  0.292754  0.707378  1
  O  O10  1  0.702288  0.300737  0.702288  1
  O  O11  1  0.290913  0.705633  0.290913  1
  O  O12  1  0.297866  0.700956  0.707625  1
  O  O13  1  0.707378  0.292754  0.292299  1
  O  O14  1  0.542375  0.549044  0.952134  1
  O  O15  1  0.957701  0.957246  0.542622  1
  O  O16  1  0.547712  0.949263  0.547712  1
  O  O17  1  0.959087  0.544367  0.959087  1
  O  O18  1  0.952134  0.549044  0.542375  1
  O  O19  1  0.542622  0.957246  0.957701  1
  O  O20  1  0.245903  0.254169  0.245903  1
  O  O21  1  0.004097  0.995831  0.004097  1
