# generated using pymatgen
data_Yb2NbH9
_symmetry_space_group_name_H-M   'P 1'
_cell_length_a   8.67299600
_cell_length_b   8.67299662
_cell_length_c   4.97844200
_cell_angle_alpha   90.00000000
_cell_angle_beta   90.00000000
_cell_angle_gamma   120.00000527
_symmetry_Int_Tables_number   1
_chemical_formula_structural   Yb2NbH9
_chemical_formula_sum   'Yb6 Nb3 H27'
_cell_volume   324.31152596
_cell_formula_units_Z   3
loop_
 _symmetry_equiv_pos_site_id
 _symmetry_equiv_pos_as_xyz
  1  'x, y, z'
loop_
 _atom_site_type_symbol
 _atom_site_label
 _atom_site_symmetry_multiplicity
 _atom_site_fract_x
 _atom_site_fract_y
 _atom_site_fract_z
 _atom_site_occupancy
  Yb  Yb0  1  0.000000  0.266798  0.500000  1
  Yb  Yb1  1  0.733202  0.733202  0.500000  1
  Yb  Yb2  1  0.266798  0.000000  0.500000  1
  Yb  Yb3  1  0.000000  0.602380  0.000000  1
  Yb  Yb4  1  0.397620  0.397620  0.000000  1
  Yb  Yb5  1  0.602380  0.000000  0.000000  1
  Nb  Nb6  1  0.666667  0.333333  0.500000  1
  Nb  Nb7  1  0.333333  0.666667  0.500000  1
  Nb  Nb8  1  0.000000  0.000000  0.000000  1
  H  H9  1  0.820080  0.336022  0.767327  1
  H  H10  1  0.663978  0.484055  0.767327  1
  H  H11  1  0.515945  0.179920  0.767327  1
  H  H12  1  0.179920  0.515945  0.232673  1
  H  H13  1  0.515945  0.179920  0.232673  1
  H  H14  1  0.820080  0.336022  0.232673  1
  H  H15  1  0.663978  0.484055  0.232673  1
  H  H16  1  0.336022  0.820080  0.767327  1
  H  H17  1  0.484055  0.663978  0.767327  1
  H  H18  1  0.212122  0.000000  0.000000  1
  H  H19  1  0.787878  0.787878  0.000000  1
  H  H20  1  0.000000  0.212122  0.000000  1
  H  H21  1  0.845565  0.000000  0.258912  1
  H  H22  1  0.154435  0.154435  0.741088  1
  H  H23  1  0.000000  0.845565  0.741088  1
  H  H24  1  0.000000  0.845565  0.258912  1
  H  H25  1  0.154435  0.154435  0.258912  1
  H  H26  1  0.845565  0.000000  0.741088  1
  H  H27  1  0.132266  0.682748  0.500000  1
  H  H28  1  0.550482  0.867734  0.500000  1
  H  H29  1  0.317252  0.449518  0.500000  1
  H  H30  1  0.449518  0.317252  0.500000  1
  H  H31  1  0.867734  0.550482  0.500000  1
  H  H32  1  0.682748  0.132266  0.500000  1
  H  H33  1  0.179920  0.515945  0.767327  1
  H  H34  1  0.336022  0.820080  0.232673  1
  H  H35  1  0.484055  0.663978  0.232673  1
