# generated using pymatgen
data_Ta2CrB3Ru2W
_symmetry_space_group_name_H-M   'P 1'
_cell_length_a   3.09835800
_cell_length_b   6.36234776
_cell_length_c   10.78585909
_cell_angle_alpha   89.60926372
_cell_angle_beta   90.00000000
_cell_angle_gamma   90.00000000
_symmetry_Int_Tables_number   1
_chemical_formula_structural   Ta2CrB3Ru2W
_chemical_formula_sum   'Ta4 Cr2 B6 Ru4 W2'
_cell_volume   212.61487410
_cell_formula_units_Z   2
loop_
 _symmetry_equiv_pos_site_id
 _symmetry_equiv_pos_as_xyz
  1  'x, y, z'
loop_
 _atom_site_type_symbol
 _atom_site_label
 _atom_site_symmetry_multiplicity
 _atom_site_fract_x
 _atom_site_fract_y
 _atom_site_fract_z
 _atom_site_occupancy
  Ta  Ta0  1  0.000000  0.224426  0.549053  1
  Ta  Ta1  1  0.000000  0.775574  0.450947  1
  Ta  Ta2  1  0.000000  0.140985  0.248812  1
  Ta  Ta3  1  0.000000  0.859015  0.751188  1
  Cr  Cr4  1  0.500000  0.804327  0.247500  1
  Cr  Cr5  1  0.500000  0.195673  0.752500  1
  B  B6  1  0.500000  0.051573  0.083390  1
  B  B7  1  0.500000  0.948427  0.916610  1
  B  B8  1  0.500000  0.048690  0.413438  1
  B  B9  1  0.500000  0.951310  0.586562  1
  B  B10  1  0.000000  0.565684  0.246950  1
  B  B11  1  0.000000  0.434316  0.753050  1
  Ru  Ru12  1  0.500000  0.432615  0.120645  1
  Ru  Ru13  1  0.500000  0.567385  0.879355  1
  Ru  Ru14  1  0.500000  0.427552  0.375311  1
  Ru  Ru15  1  0.500000  0.572448  0.624689  1
  W  W16  1  0.000000  0.211834  0.951338  1
  W  W17  1  0.000000  0.788166  0.048662  1
