# generated using pymatgen
data_DyHo7Os2(WC4)2
_symmetry_space_group_name_H-M   'P 1'
_cell_length_a   5.09090600
_cell_length_b   6.57836041
_cell_length_c   9.87743994
_cell_angle_alpha   89.24335877
_cell_angle_beta   90.00000000
_cell_angle_gamma   90.00000000
_symmetry_Int_Tables_number   1
_chemical_formula_structural   DyHo7Os2(WC4)2
_chemical_formula_sum   'Dy1 Ho7 Os2 W2 C8'
_cell_volume   330.76478752
_cell_formula_units_Z   1
loop_
 _symmetry_equiv_pos_site_id
 _symmetry_equiv_pos_as_xyz
  1  'x, y, z'
loop_
 _atom_site_type_symbol
 _atom_site_label
 _atom_site_symmetry_multiplicity
 _atom_site_fract_x
 _atom_site_fract_y
 _atom_site_fract_z
 _atom_site_occupancy
  Dy  Dy0  1  0.250000  0.679783  0.556829  1
  Ho  Ho1  1  0.750000  0.320965  0.442586  1
  Ho  Ho2  1  0.750000  0.822764  0.057810  1
  Ho  Ho3  1  0.250000  0.177288  0.942278  1
  Ho  Ho4  1  0.250000  0.537822  0.218433  1
  Ho  Ho5  1  0.750000  0.462006  0.781501  1
  Ho  Ho6  1  0.750000  0.969129  0.717737  1
  Ho  Ho7  1  0.250000  0.031039  0.282284  1
  Os  Os8  1  0.750000  0.778708  0.366396  1
  Os  Os9  1  0.250000  0.221222  0.633466  1
  W  W10  1  0.250000  0.717211  0.867906  1
  W  W11  1  0.750000  0.282716  0.132274  1
  C  C12  1  0.250000  0.450829  0.758285  1
  C  C13  1  0.750000  0.548832  0.241970  1
  C  C14  1  0.750000  0.045332  0.259843  1
  C  C15  1  0.250000  0.954947  0.740566  1
  C  C16  1  0.250000  0.824941  0.053710  1
  C  C17  1  0.750000  0.175084  0.946386  1
  C  C18  1  0.750000  0.676647  0.548944  1
  C  C19  1  0.250000  0.322737  0.450797  1
