# generated using pymatgen
data_Sc22IrOs5Pt2
_symmetry_space_group_name_H-M   'P 1'
_cell_length_a   9.50577973
_cell_length_b   9.48584282
_cell_length_c   9.51155044
_cell_angle_alpha   59.98956328
_cell_angle_beta   59.83939521
_cell_angle_gamma   60.10875199
_symmetry_Int_Tables_number   1
_chemical_formula_structural   Sc22IrOs5Pt2
_chemical_formula_sum   'Sc22 Ir1 Os5 Pt2'
_cell_volume   606.16470651
_cell_formula_units_Z   1
loop_
 _symmetry_equiv_pos_site_id
 _symmetry_equiv_pos_as_xyz
  1  'x, y, z'
loop_
 _atom_site_type_symbol
 _atom_site_label
 _atom_site_symmetry_multiplicity
 _atom_site_fract_x
 _atom_site_fract_y
 _atom_site_fract_z
 _atom_site_occupancy
  Sc  Sc0  1  0.803692  0.802258  0.197731  1
  Sc  Sc1  1  0.196105  0.802473  0.197533  1
  Sc  Sc2  1  0.802701  0.197303  0.197297  1
  Sc  Sc3  1  0.196308  0.197742  0.802269  1
  Sc  Sc4  1  0.803895  0.197527  0.802467  1
  Sc  Sc5  1  0.197299  0.802697  0.802703  1
  Sc  Sc6  1  0.613726  0.615852  0.150210  1
  Sc  Sc7  1  0.620212  0.150192  0.615843  1
  Sc  Sc8  1  0.149064  0.618365  0.612556  1
  Sc  Sc9  1  0.619997  0.612563  0.618377  1
  Sc  Sc10  1  0.386274  0.384148  0.849790  1
  Sc  Sc11  1  0.379788  0.849808  0.384157  1
  Sc  Sc12  1  0.850936  0.381635  0.387444  1
  Sc  Sc13  1  0.380003  0.387437  0.381623  1
  Sc  Sc14  1  0.847299  0.842098  0.468866  1
  Sc  Sc15  1  0.841746  0.468854  0.842096  1
  Sc  Sc16  1  0.469151  0.841167  0.847383  1
  Sc  Sc17  1  0.842296  0.847389  0.841172  1
  Sc  Sc18  1  0.152701  0.157902  0.531134  1
  Sc  Sc19  1  0.158254  0.531146  0.157904  1
  Sc  Sc20  1  0.530849  0.158833  0.152617  1
  Sc  Sc21  1  0.157704  0.152611  0.158828  1
  Ir  Ir22  1  0.500000  0.000000  0.000000  1
  Os  Os23  1  0.000000  0.000000  0.000000  1
  Os  Os24  1  0.500000  0.500000  0.500000  1
  Os  Os25  1  0.000000  0.000000  0.500000  1
  Os  Os26  1  0.000000  0.500000  0.500000  1
  Os  Os27  1  0.500000  0.500000  0.000000  1
  Pt  Pt28  1  0.500000  0.000000  0.500000  1
  Pt  Pt29  1  0.000000  0.500000  0.000000  1
