# generated using pymatgen
data_TbTcH5
_symmetry_space_group_name_H-M   'P 1'
_cell_length_a   4.62235800
_cell_length_b   4.39804000
_cell_length_c   11.64910800
_cell_angle_alpha   90.00000000
_cell_angle_beta   90.00000000
_cell_angle_gamma   90.00000000
_symmetry_Int_Tables_number   1
_chemical_formula_structural   TbTcH5
_chemical_formula_sum   'Tb4 Tc4 H20'
_cell_volume   236.81839041
_cell_formula_units_Z   4
loop_
 _symmetry_equiv_pos_site_id
 _symmetry_equiv_pos_as_xyz
  1  'x, y, z'
loop_
 _atom_site_type_symbol
 _atom_site_label
 _atom_site_symmetry_multiplicity
 _atom_site_fract_x
 _atom_site_fract_y
 _atom_site_fract_z
 _atom_site_occupancy
  Tb  Tb0  1  0.249898  0.248270  0.645818  1
  Tb  Tb1  1  0.749898  0.251730  0.354182  1
  Tb  Tb2  1  0.250102  0.751730  0.145818  1
  Tb  Tb3  1  0.750102  0.748270  0.854182  1
  Tc  Tc4  1  0.249286  0.210587  0.913787  1
  Tc  Tc5  1  0.749286  0.289413  0.086213  1
  Tc  Tc6  1  0.250714  0.789413  0.413787  1
  Tc  Tc7  1  0.750714  0.710587  0.586213  1
  H  H8  1  0.484312  0.510699  0.497880  1
  H  H9  1  0.984312  0.989301  0.502120  1
  H  H10  1  0.015688  0.489301  0.997880  1
  H  H11  1  0.515688  0.010699  0.002120  1
  H  H12  1  0.250194  0.889726  0.833372  1
  H  H13  1  0.750194  0.610274  0.166628  1
  H  H14  1  0.249806  0.110274  0.333372  1
  H  H15  1  0.749806  0.389726  0.666628  1
  H  H16  1  0.983258  0.284808  0.814925  1
  H  H17  1  0.483258  0.215192  0.185075  1
  H  H18  1  0.516742  0.715192  0.314925  1
  H  H19  1  0.016742  0.784808  0.685075  1
  H  H20  1  0.514227  0.287410  0.814780  1
  H  H21  1  0.014227  0.212590  0.185220  1
  H  H22  1  0.985773  0.712590  0.314780  1
  H  H23  1  0.485773  0.787410  0.685220  1
  H  H24  1  0.983290  0.010472  0.002294  1
  H  H25  1  0.483290  0.489528  0.997706  1
  H  H26  1  0.516710  0.989528  0.502294  1
  H  H27  1  0.016710  0.510472  0.497706  1
