# generated using pymatgen
data_Tb3Ge3PRh7
_symmetry_space_group_name_H-M   'P 1'
_cell_length_a   7.94715822
_cell_length_b   7.94715839
_cell_length_c   9.36296801
_cell_angle_alpha   56.56566429
_cell_angle_beta   56.56566420
_cell_angle_gamma   29.34418760
_symmetry_Int_Tables_number   1
_chemical_formula_structural   Tb3Ge3PRh7
_chemical_formula_sum   'Tb3 Ge3 P1 Rh7'
_cell_volume   238.19336970
_cell_formula_units_Z   1
loop_
 _symmetry_equiv_pos_site_id
 _symmetry_equiv_pos_as_xyz
  1  'x, y, z'
loop_
 _atom_site_type_symbol
 _atom_site_label
 _atom_site_symmetry_multiplicity
 _atom_site_fract_x
 _atom_site_fract_y
 _atom_site_fract_z
 _atom_site_occupancy
  Tb  Tb0  1  0.668043  0.668043  0.335716  1
  Tb  Tb1  1  0.333153  0.333153  0.660716  1
  Tb  Tb2  1  0.004037  0.004037  0.001948  1
  Ge  Ge3  1  0.335238  0.335238  0.271473  1
  Ge  Ge4  1  0.666268  0.666268  0.725375  1
  Ge  Ge5  1  0.888027  0.888027  0.836405  1
  P  P6  1  0.109068  0.109068  0.172479  1
  Rh  Rh7  1  0.295781  0.295781  0.044500  1
  Rh  Rh8  1  0.693520  0.693520  0.962835  1
  Rh  Rh9  1  0.504554  0.504554  0.726165  1
  Rh  Rh10  1  0.838594  0.838594  0.421138  1
  Rh  Rh11  1  0.497935  0.497935  0.272954  1
  Rh  Rh12  1  0.163318  0.163318  0.574086  1
  Rh  Rh13  1  0.002465  0.002465  0.494207  1
