# generated using pymatgen
data_Ce4TlCrFeB6
_symmetry_space_group_name_H-M   'P 1'
_cell_length_a   5.31910337
_cell_length_b   5.31910460
_cell_length_c   8.47547011
_cell_angle_alpha   71.71195693
_cell_angle_beta   71.71197630
_cell_angle_gamma   59.99998731
_symmetry_Int_Tables_number   1
_chemical_formula_structural   Ce4TlCrFeB6
_chemical_formula_sum   'Ce4 Tl1 Cr1 Fe1 B6'
_cell_volume   193.55704837
_cell_formula_units_Z   1
loop_
 _symmetry_equiv_pos_site_id
 _symmetry_equiv_pos_as_xyz
  1  'x, y, z'
loop_
 _atom_site_type_symbol
 _atom_site_label
 _atom_site_symmetry_multiplicity
 _atom_site_fract_x
 _atom_site_fract_y
 _atom_site_fract_z
 _atom_site_occupancy
  Ce  Ce0  1  0.746939  0.746939  0.759184  1
  Ce  Ce1  1  0.252497  0.252497  0.242511  1
  Ce  Ce2  1  0.585531  0.585531  0.243407  1
  Ce  Ce3  1  0.413285  0.413285  0.760148  1
  Tl  Tl4  1  0.001434  0.001434  0.995698  1
  Cr  Cr5  1  0.884522  0.884522  0.346437  1
  Fe  Fe6  1  0.117267  0.117267  0.648198  1
  B  B7  1  0.499341  0.167724  0.500737  1
  B  B8  1  0.832198  0.499341  0.500737  1
  B  B9  1  0.167724  0.832198  0.500737  1
  B  B10  1  0.167724  0.499341  0.500737  1
  B  B11  1  0.832198  0.167724  0.500737  1
  B  B12  1  0.499341  0.832198  0.500737  1
