# generated using pymatgen
data_Ca4Mg2ReRuO12
_symmetry_space_group_name_H-M   'P 1'
_cell_length_a   5.62093780
_cell_length_b   5.44925175
_cell_length_c   9.48641112
_cell_angle_alpha   54.89839148
_cell_angle_beta   90.21204118
_cell_angle_gamma   89.86848041
_symmetry_Int_Tables_number   1
_chemical_formula_structural   Ca4Mg2ReRuO12
_chemical_formula_sum   'Ca4 Mg2 Re1 Ru1 O12'
_cell_volume   237.71822972
_cell_formula_units_Z   1
loop_
 _symmetry_equiv_pos_site_id
 _symmetry_equiv_pos_as_xyz
  1  'x, y, z'
loop_
 _atom_site_type_symbol
 _atom_site_label
 _atom_site_symmetry_multiplicity
 _atom_site_fract_x
 _atom_site_fract_y
 _atom_site_fract_z
 _atom_site_occupancy
  Ca  Ca0  1  0.057511  0.746211  0.265184  1
  Ca  Ca1  1  0.450054  0.777525  0.732129  1
  Ca  Ca2  1  0.942489  0.253789  0.734816  1
  Ca  Ca3  1  0.549946  0.222475  0.267871  1
  Mg  Mg4  1  0.500000  0.000000  0.000000  1
  Mg  Mg5  1  0.000000  0.000000  0.500000  1
  Re  Re6  1  0.000000  0.500000  0.000000  1
  Ru  Ru7  1  0.500000  0.500000  0.500000  1
  O  O8  1  0.210918  0.254979  0.548044  1
  O  O9  1  0.281575  0.266351  0.049345  1
  O  O10  1  0.789082  0.745021  0.451956  1
  O  O11  1  0.718425  0.733649  0.950655  1
  O  O12  1  0.701268  0.163839  0.543868  1
  O  O13  1  0.812586  0.172505  0.043899  1
  O  O14  1  0.298732  0.836161  0.456132  1
  O  O15  1  0.187414  0.827495  0.956101  1
  O  O16  1  0.470071  0.655145  0.253641  1
  O  O17  1  0.025489  0.648711  0.763891  1
  O  O18  1  0.529929  0.344855  0.746359  1
  O  O19  1  0.974511  0.351289  0.236109  1
