# generated using pymatgen
data_LaPrSn3
_symmetry_space_group_name_H-M   'P 1'
_cell_length_a   6.53570785
_cell_length_b   8.66543768
_cell_length_c   11.32803440
_cell_angle_alpha   107.33521581
_cell_angle_beta   96.78720490
_cell_angle_gamma   100.33348005
_symmetry_Int_Tables_number   1
_chemical_formula_structural   LaPrSn3
_chemical_formula_sum   'La4 Pr4 Sn12'
_cell_volume   592.33891056
_cell_formula_units_Z   4
loop_
 _symmetry_equiv_pos_site_id
 _symmetry_equiv_pos_as_xyz
  1  'x, y, z'
loop_
 _atom_site_type_symbol
 _atom_site_label
 _atom_site_symmetry_multiplicity
 _atom_site_fract_x
 _atom_site_fract_y
 _atom_site_fract_z
 _atom_site_occupancy
  La  La0  1  0.331555  0.031669  0.743669  1
  La  La1  1  0.668445  0.968331  0.256331  1
  La  La2  1  0.957747  0.251640  0.055887  1
  La  La3  1  0.042253  0.748360  0.944113  1
  Pr  Pr4  1  0.558137  0.430656  0.335767  1
  Pr  Pr5  1  0.441863  0.569344  0.664233  1
  Pr  Pr6  1  0.126483  0.752781  0.383734  1
  Pr  Pr7  1  0.873517  0.247219  0.616266  1
  Sn  Sn8  1  0.050981  0.354390  0.379592  1
  Sn  Sn9  1  0.949019  0.645610  0.620408  1
  Sn  Sn10  1  0.354131  0.166760  0.498071  1
  Sn  Sn11  1  0.645869  0.833240  0.501929  1
  Sn  Sn12  1  0.436974  0.168396  0.051138  1
  Sn  Sn13  1  0.563026  0.831604  0.948862  1
  Sn  Sn14  1  0.325138  0.602707  0.138806  1
  Sn  Sn15  1  0.674862  0.397293  0.861194  1
  Sn  Sn16  1  0.222655  0.406008  0.864118  1
  Sn  Sn17  1  0.777345  0.593992  0.135882  1
  Sn  Sn18  1  0.178715  0.038727  0.224059  1
  Sn  Sn19  1  0.821285  0.961273  0.775941  1
