# generated using pymatgen
data_Zr4TaNb3AlP3
_symmetry_space_group_name_H-M   'P 1'
_cell_length_a   3.58146800
_cell_length_b   7.02221014
_cell_length_c   8.48671008
_cell_angle_alpha   89.30486444
_cell_angle_beta   90.00000000
_cell_angle_gamma   90.00000000
_symmetry_Int_Tables_number   1
_chemical_formula_structural   Zr4TaNb3AlP3
_chemical_formula_sum   'Zr4 Ta1 Nb3 Al1 P3'
_cell_volume   213.42353027
_cell_formula_units_Z   1
loop_
 _symmetry_equiv_pos_site_id
 _symmetry_equiv_pos_as_xyz
  1  'x, y, z'
loop_
 _atom_site_type_symbol
 _atom_site_label
 _atom_site_symmetry_multiplicity
 _atom_site_fract_x
 _atom_site_fract_y
 _atom_site_fract_z
 _atom_site_occupancy
  Zr  Zr0  1  0.250000  0.531022  0.840385  1
  Zr  Zr1  1  0.750000  0.960677  0.329296  1
  Zr  Zr2  1  0.250000  0.049656  0.670027  1
  Zr  Zr3  1  0.750000  0.463607  0.171402  1
  Ta  Ta4  1  0.750000  0.869143  0.945696  1
  Nb  Nb5  1  0.250000  0.142011  0.061036  1
  Nb  Nb6  1  0.250000  0.626551  0.431217  1
  Nb  Nb7  1  0.750000  0.359986  0.557133  1
  Al  Al8  1  0.750000  0.743765  0.640481  1
  P  P9  1  0.250000  0.762103  0.139866  1
  P  P10  1  0.750000  0.238003  0.855961  1
  P  P11  1  0.250000  0.253476  0.357501  1
