# generated using pymatgen
data_Ho20Bi8IrRu3
_symmetry_space_group_name_H-M   'P 1'
_cell_length_a   7.96331698
_cell_length_b   9.00318100
_cell_length_c   12.42863265
_cell_angle_alpha   90.00000000
_cell_angle_beta   89.98644840
_cell_angle_gamma   90.00000000
_symmetry_Int_Tables_number   1
_chemical_formula_structural   Ho20Bi8IrRu3
_chemical_formula_sum   'Ho20 Bi8 Ir1 Ru3'
_cell_volume   891.07308101
_cell_formula_units_Z   1
loop_
 _symmetry_equiv_pos_site_id
 _symmetry_equiv_pos_as_xyz
  1  'x, y, z'
loop_
 _atom_site_type_symbol
 _atom_site_label
 _atom_site_symmetry_multiplicity
 _atom_site_fract_x
 _atom_site_fract_y
 _atom_site_fract_z
 _atom_site_occupancy
  Ho  Ho0  1  0.341778  0.750000  0.707504  1
  Ho  Ho1  1  0.657169  0.250000  0.293010  1
  Ho  Ho2  1  0.842738  0.250000  0.792697  1
  Ho  Ho3  1  0.155839  0.750000  0.206027  1
  Ho  Ho4  1  0.879566  0.750000  0.806981  1
  Ho  Ho5  1  0.119827  0.250000  0.192573  1
  Ho  Ho6  1  0.379416  0.250000  0.692341  1
  Ho  Ho7  1  0.622054  0.750000  0.306653  1
  Ho  Ho8  1  0.677022  0.542288  0.564937  1
  Ho  Ho9  1  0.324074  0.456625  0.435743  1
  Ho  Ho10  1  0.175209  0.457597  0.936067  1
  Ho  Ho11  1  0.324074  0.043375  0.435743  1
  Ho  Ho12  1  0.824328  0.542790  0.064064  1
  Ho  Ho13  1  0.677022  0.957712  0.564937  1
  Ho  Ho14  1  0.824328  0.957210  0.064064  1
  Ho  Ho15  1  0.175209  0.042403  0.936067  1
  Ho  Ho16  1  0.054189  0.750000  0.497230  1
  Ho  Ho17  1  0.946217  0.250000  0.503074  1
  Ho  Ho18  1  0.555310  0.250000  0.003478  1
  Ho  Ho19  1  0.445027  0.750000  0.996410  1
  Bi  Bi20  1  0.570714  0.508285  0.827443  1
  Bi  Bi21  1  0.428994  0.491805  0.172453  1
  Bi  Bi22  1  0.070981  0.491393  0.672338  1
  Bi  Bi23  1  0.428994  0.008195  0.172453  1
  Bi  Bi24  1  0.929273  0.508456  0.328036  1
  Bi  Bi25  1  0.570714  0.991715  0.827443  1
  Bi  Bi26  1  0.929273  0.991544  0.328036  1
  Bi  Bi27  1  0.070981  0.008607  0.672338  1
  Ir  Ir28  1  0.426746  0.750000  0.490110  1
  Ru  Ru29  1  0.074012  0.750000  0.988945  1
  Ru  Ru30  1  0.925562  0.250000  0.010508  1
  Ru  Ru31  1  0.573359  0.250000  0.510295  1
