# generated using pymatgen
data_Ac7Sc3Si8O3
_symmetry_space_group_name_H-M   'P 1'
_cell_length_a   10.89776000
_cell_length_b   10.89775950
_cell_length_c   4.53989600
_cell_angle_alpha   90.00000000
_cell_angle_beta   90.00000000
_cell_angle_gamma   119.99999546
_symmetry_Int_Tables_number   1
_chemical_formula_structural   Ac7Sc3Si8O3
_chemical_formula_sum   'Ac7 Sc3 Si8 O3'
_cell_volume   466.92917875
_cell_formula_units_Z   1
loop_
 _symmetry_equiv_pos_site_id
 _symmetry_equiv_pos_as_xyz
  1  'x, y, z'
loop_
 _atom_site_type_symbol
 _atom_site_label
 _atom_site_symmetry_multiplicity
 _atom_site_fract_x
 _atom_site_fract_y
 _atom_site_fract_z
 _atom_site_occupancy
  Ac  Ac0  1  0.214091  0.785909  0.000000  1
  Ac  Ac1  1  0.214091  0.428183  0.000000  1
  Ac  Ac2  1  0.785909  0.571817  0.000000  1
  Ac  Ac3  1  0.428183  0.214091  0.000000  1
  Ac  Ac4  1  0.000000  0.000000  0.000000  1
  Ac  Ac5  1  0.571817  0.785909  0.000000  1
  Ac  Ac6  1  0.785909  0.214091  0.000000  1
  Sc  Sc7  1  0.500000  0.000000  0.500000  1
  Sc  Sc8  1  0.000000  0.500000  0.500000  1
  Sc  Sc9  1  0.500000  0.500000  0.500000  1
  Si  Si10  1  0.666667  0.333333  0.500000  1
  Si  Si11  1  0.000000  0.775219  0.500000  1
  Si  Si12  1  0.333333  0.666667  0.500000  1
  Si  Si13  1  0.224781  0.224781  0.500000  1
  Si  Si14  1  0.775219  0.775219  0.500000  1
  Si  Si15  1  0.775219  0.000000  0.500000  1
  Si  Si16  1  0.224781  0.000000  0.500000  1
  Si  Si17  1  0.000000  0.224781  0.500000  1
  O  O18  1  0.500000  0.500000  0.000000  1
  O  O19  1  0.500000  0.000000  0.000000  1
  O  O20  1  0.000000  0.500000  0.000000  1
