# generated using pymatgen
data_Lu5Hf5(In2Rh)4
_symmetry_space_group_name_H-M   'P 1'
_cell_length_a   3.45939400
_cell_length_b   7.82003139
_cell_length_c   17.66991126
_cell_angle_alpha   89.64996122
_cell_angle_beta   90.00000000
_cell_angle_gamma   90.00000000
_symmetry_Int_Tables_number   1
_chemical_formula_structural   Lu5Hf5(In2Rh)4
_chemical_formula_sum   'Lu5 Hf5 In8 Rh4'
_cell_volume   478.00758445
_cell_formula_units_Z   1
loop_
 _symmetry_equiv_pos_site_id
 _symmetry_equiv_pos_as_xyz
  1  'x, y, z'
loop_
 _atom_site_type_symbol
 _atom_site_label
 _atom_site_symmetry_multiplicity
 _atom_site_fract_x
 _atom_site_fract_y
 _atom_site_fract_z
 _atom_site_occupancy
  Lu  Lu0  1  0.000000  0.251269  0.217844  1
  Lu  Lu1  1  0.000000  0.748731  0.782156  1
  Lu  Lu2  1  0.000000  0.249057  0.720404  1
  Lu  Lu3  1  0.000000  0.750943  0.279596  1
  Lu  Lu4  1  0.000000  0.500000  0.500000  1
  Hf  Hf5  1  0.000000  0.122159  0.414150  1
  Hf  Hf6  1  0.000000  0.877841  0.585850  1
  Hf  Hf7  1  0.000000  0.371946  0.917080  1
  Hf  Hf8  1  0.000000  0.628054  0.082920  1
  Hf  Hf9  1  0.000000  0.000000  0.000000  1
  In  In10  1  0.500000  0.424959  0.349527  1
  In  In11  1  0.500000  0.575041  0.650473  1
  In  In12  1  0.500000  0.070848  0.853178  1
  In  In13  1  0.500000  0.929152  0.146822  1
  In  In14  1  0.500000  0.298757  0.062475  1
  In  In15  1  0.500000  0.701243  0.937525  1
  In  In16  1  0.500000  0.197603  0.562576  1
  In  In17  1  0.500000  0.802397  0.437424  1
  Rh  Rh18  1  0.500000  0.038007  0.309394  1
  Rh  Rh19  1  0.500000  0.961993  0.690606  1
  Rh  Rh20  1  0.500000  0.459372  0.812207  1
  Rh  Rh21  1  0.500000  0.540628  0.187793  1
