# generated using pymatgen
data_Sc4Al3ReOs4
_symmetry_space_group_name_H-M   'P 1'
_cell_length_a   5.27717300
_cell_length_b   5.16638271
_cell_length_c   8.70836200
_cell_angle_alpha   90.00000000
_cell_angle_beta   90.00000000
_cell_angle_gamma   120.77180107
_symmetry_Int_Tables_number   1
_chemical_formula_structural   Sc4Al3ReOs4
_chemical_formula_sum   'Sc4 Al3 Re1 Os4'
_cell_volume   203.99739143
_cell_formula_units_Z   1
loop_
 _symmetry_equiv_pos_site_id
 _symmetry_equiv_pos_as_xyz
  1  'x, y, z'
loop_
 _atom_site_type_symbol
 _atom_site_label
 _atom_site_symmetry_multiplicity
 _atom_site_fract_x
 _atom_site_fract_y
 _atom_site_fract_z
 _atom_site_occupancy
  Sc  Sc0  1  0.328458  0.670918  0.443211  1
  Sc  Sc1  1  0.666604  0.336558  0.565386  1
  Sc  Sc2  1  0.666604  0.336558  0.934614  1
  Sc  Sc3  1  0.328458  0.670918  0.056789  1
  Al  Al4  1  0.163326  0.828419  0.750000  1
  Al  Al5  1  0.346509  0.156908  0.250000  1
  Al  Al6  1  0.847206  0.657367  0.250000  1
  Re  Re7  1  0.167825  0.336016  0.750000  1
  Os  Os8  1  0.645902  0.816189  0.750000  1
  Os  Os9  1  0.001689  0.014249  0.002050  1
  Os  Os10  1  0.835730  0.161652  0.250000  1
  Os  Os11  1  0.001689  0.014249  0.497950  1
