# generated using pymatgen
data_Yb4Eu2Ni13B4Pt
_symmetry_space_group_name_H-M   'P 1'
_cell_length_a   5.07229900
_cell_length_b   5.07229857
_cell_length_c   14.41771700
_cell_angle_alpha   90.00000000
_cell_angle_beta   90.00000000
_cell_angle_gamma   120.00000935
_symmetry_Int_Tables_number   1
_chemical_formula_structural   Yb4Eu2Ni13B4Pt
_chemical_formula_sum   'Yb4 Eu2 Ni13 B4 Pt1'
_cell_volume   321.24527071
_cell_formula_units_Z   1
loop_
 _symmetry_equiv_pos_site_id
 _symmetry_equiv_pos_as_xyz
  1  'x, y, z'
loop_
 _atom_site_type_symbol
 _atom_site_label
 _atom_site_symmetry_multiplicity
 _atom_site_fract_x
 _atom_site_fract_y
 _atom_site_fract_z
 _atom_site_occupancy
  Yb  Yb0  1  0.333333  0.666667  0.034511  1
  Yb  Yb1  1  0.666667  0.333333  0.752182  1
  Yb  Yb2  1  0.666667  0.333333  0.965489  1
  Yb  Yb3  1  0.333333  0.666667  0.247818  1
  Eu  Eu4  1  0.666667  0.333333  0.537276  1
  Eu  Eu5  1  0.333333  0.666667  0.462724  1
  Ni  Ni6  1  0.165198  0.330397  0.654826  1
  Ni  Ni7  1  0.330397  0.165198  0.345174  1
  Ni  Ni8  1  0.332573  0.166287  0.153529  1
  Ni  Ni9  1  0.166287  0.833713  0.846471  1
  Ni  Ni10  1  0.834802  0.669603  0.345174  1
  Ni  Ni11  1  0.833713  0.166287  0.153529  1
  Ni  Ni12  1  0.669603  0.834802  0.654826  1
  Ni  Ni13  1  0.667427  0.833713  0.846471  1
  Ni  Ni14  1  0.165198  0.834802  0.654826  1
  Ni  Ni15  1  0.833713  0.667427  0.153529  1
  Ni  Ni16  1  0.166287  0.332573  0.846471  1
  Ni  Ni17  1  0.834802  0.165198  0.345174  1
  Ni  Ni18  1  0.000000  0.000000  0.500000  1
  B  B19  1  0.666667  0.333333  0.249765  1
  B  B20  1  0.000000  0.000000  0.750722  1
  B  B21  1  0.333333  0.666667  0.750235  1
  B  B22  1  0.000000  0.000000  0.249278  1
  Pt  Pt23  1  0.000000  0.000000  0.000000  1
