# generated using pymatgen
data_TmScCo4P3
_symmetry_space_group_name_H-M   'P 1'
_cell_length_a   12.16943044
_cell_length_b   12.16943091
_cell_length_c   3.68643000
_cell_angle_alpha   90.00000000
_cell_angle_beta   90.00000000
_cell_angle_gamma   119.96006444
_symmetry_Int_Tables_number   1
_chemical_formula_structural   TmScCo4P3
_chemical_formula_sum   'Tm4 Sc4 Co16 P12'
_cell_volume   472.98979680
_cell_formula_units_Z   4
loop_
 _symmetry_equiv_pos_site_id
 _symmetry_equiv_pos_as_xyz
  1  'x, y, z'
loop_
 _atom_site_type_symbol
 _atom_site_label
 _atom_site_symmetry_multiplicity
 _atom_site_fract_x
 _atom_site_fract_y
 _atom_site_fract_z
 _atom_site_occupancy
  Tm  Tm0  1  0.817331  0.000273  0.500000  1
  Tm  Tm1  1  0.000273  0.817331  0.500000  1
  Tm  Tm2  1  0.332858  0.666932  0.000000  1
  Tm  Tm3  1  0.666932  0.332858  0.000000  1
  Sc  Sc4  1  0.186089  0.186089  0.500000  1
  Sc  Sc5  1  0.440714  0.000193  0.000000  1
  Sc  Sc6  1  0.000193  0.440714  0.000000  1
  Sc  Sc7  1  0.557428  0.557428  0.000000  1
  Co  Co8  1  0.277568  0.002170  0.500000  1
  Co  Co9  1  0.002170  0.277568  0.500000  1
  Co  Co10  1  0.721167  0.721167  0.500000  1
  Co  Co11  1  0.625926  0.804707  0.000000  1
  Co  Co12  1  0.194651  0.822411  0.000000  1
  Co  Co13  1  0.178710  0.371729  0.000000  1
  Co  Co14  1  0.371729  0.178710  0.000000  1
  Co  Co15  1  0.804707  0.625926  0.000000  1
  Co  Co16  1  0.822411  0.194651  0.000000  1
  Co  Co17  1  0.519388  0.874934  0.500000  1
  Co  Co18  1  0.125037  0.645038  0.500000  1
  Co  Co19  1  0.354132  0.478901  0.500000  1
  Co  Co20  1  0.478901  0.354132  0.500000  1
  Co  Co21  1  0.874934  0.519388  0.500000  1
  Co  Co22  1  0.645038  0.125037  0.500000  1
  Co  Co23  1  0.001470  0.001470  0.000000  1
  P  P24  1  0.178752  0.002983  0.000000  1
  P  P25  1  0.002983  0.178752  0.000000  1
  P  P26  1  0.821907  0.821907  0.000000  1
  P  P27  1  0.519653  0.690832  0.500000  1
  P  P28  1  0.308103  0.829625  0.500000  1
  P  P29  1  0.171347  0.479897  0.500000  1
  P  P30  1  0.479897  0.171347  0.500000  1
  P  P31  1  0.690832  0.519653  0.500000  1
  P  P32  1  0.829625  0.308103  0.500000  1
  P  P33  1  0.646855  0.999866  0.000000  1
  P  P34  1  0.999866  0.646855  0.000000  1
  P  P35  1  0.350428  0.350428  0.000000  1
