# generated using pymatgen
data_Sr4Fe3Co(NiN3)2
_symmetry_space_group_name_H-M   'P 1'
_cell_length_a   6.51927718
_cell_length_b   6.49243346
_cell_length_c   6.30039768
_cell_angle_alpha   88.29935376
_cell_angle_beta   88.85376663
_cell_angle_gamma   117.93325318
_symmetry_Int_Tables_number   1
_chemical_formula_structural   Sr4Fe3Co(NiN3)2
_chemical_formula_sum   'Sr4 Fe3 Co1 Ni2 N6'
_cell_volume   235.32431009
_cell_formula_units_Z   1
loop_
 _symmetry_equiv_pos_site_id
 _symmetry_equiv_pos_as_xyz
  1  'x, y, z'
loop_
 _atom_site_type_symbol
 _atom_site_label
 _atom_site_symmetry_multiplicity
 _atom_site_fract_x
 _atom_site_fract_y
 _atom_site_fract_z
 _atom_site_occupancy
  Sr  Sr0  1  0.827631  0.672127  0.897177  1
  Sr  Sr1  1  0.323608  0.171381  0.603374  1
  Sr  Sr2  1  0.169453  0.322183  0.101995  1
  Sr  Sr3  1  0.675432  0.831410  0.396453  1
  Fe  Fe4  1  0.435841  0.839086  0.898240  1
  Fe  Fe5  1  0.833509  0.437121  0.399172  1
  Fe  Fe6  1  0.165878  0.566354  0.602507  1
  Co  Co7  1  0.567263  0.166750  0.103342  1
  Ni  Ni8  1  0.807906  0.191359  0.747428  1
  Ni  Ni9  1  0.192713  0.806634  0.251021  1
  N  N10  1  0.411343  0.588160  0.750918  1
  N  N11  1  0.590381  0.411262  0.254150  1
  N  N12  1  0.011198  0.727424  0.501141  1
  N  N13  1  0.730086  0.011693  0.998595  1
  N  N14  1  0.989554  0.274529  0.495873  1
  N  N15  1  0.268205  0.982529  0.998616  1
