# generated using pymatgen
data_Tb2HoSi3(Ni3Sn)3
_symmetry_space_group_name_H-M   'P 1'
_cell_length_a   3.88042300
_cell_length_b   9.20890897
_cell_length_c   9.20890909
_cell_angle_alpha   60.01762003
_cell_angle_beta   90.00000000
_cell_angle_gamma   90.00000000
_symmetry_Int_Tables_number   1
_chemical_formula_structural   Tb2HoSi3(Ni3Sn)3
_chemical_formula_sum   'Tb2 Ho1 Si3 Ni9 Sn3'
_cell_volume   285.03825448
_cell_formula_units_Z   1
loop_
 _symmetry_equiv_pos_site_id
 _symmetry_equiv_pos_as_xyz
  1  'x, y, z'
loop_
 _atom_site_type_symbol
 _atom_site_label
 _atom_site_symmetry_multiplicity
 _atom_site_fract_x
 _atom_site_fract_y
 _atom_site_fract_z
 _atom_site_occupancy
  Tb  Tb0  1  0.500000  0.333286  0.333401  1
  Tb  Tb1  1  0.500000  0.666599  0.666714  1
  Ho  Ho2  1  0.000000  0.000054  0.999946  1
  Si  Si3  1  0.500000  0.751816  0.248184  1
  Si  Si4  1  0.500000  0.248199  0.999947  1
  Si  Si5  1  0.500000  0.000053  0.751801  1
  Ni  Ni6  1  0.000000  0.215896  0.153126  1
  Ni  Ni7  1  0.000000  0.153088  0.631050  1
  Ni  Ni8  1  0.000000  0.630958  0.215910  1
  Ni  Ni9  1  0.000000  0.846874  0.784104  1
  Ni  Ni10  1  0.000000  0.368950  0.846912  1
  Ni  Ni11  1  0.000000  0.784090  0.369042  1
  Ni  Ni12  1  0.500000  0.260876  0.739124  1
  Ni  Ni13  1  0.500000  0.739285  0.999995  1
  Ni  Ni14  1  0.500000  0.000005  0.260715  1
  Sn  Sn15  1  0.000000  0.460362  0.539638  1
  Sn  Sn16  1  0.000000  0.539514  0.000010  1
  Sn  Sn17  1  0.000000  0.999990  0.460486  1
