# generated using pymatgen
data_U4Fe3Ni
_symmetry_space_group_name_H-M   'P 1'
_cell_length_a   5.40797949
_cell_length_b   5.40798027
_cell_length_c   5.40797831
_cell_angle_alpha   108.72015024
_cell_angle_beta   108.72017117
_cell_angle_gamma   108.72016687
_symmetry_Int_Tables_number   1
_chemical_formula_structural   U4Fe3Ni
_chemical_formula_sum   'U4 Fe3 Ni1'
_cell_volume   125.02500643
_cell_formula_units_Z   1
loop_
 _symmetry_equiv_pos_site_id
 _symmetry_equiv_pos_as_xyz
  1  'x, y, z'
loop_
 _atom_site_type_symbol
 _atom_site_label
 _atom_site_symmetry_multiplicity
 _atom_site_fract_x
 _atom_site_fract_y
 _atom_site_fract_z
 _atom_site_occupancy
  U  U0  1  0.075467  0.505775  0.004905  1
  U  U1  1  0.004905  0.075467  0.505775  1
  U  U2  1  0.505775  0.004905  0.075467  1
  U  U3  1  0.434336  0.434336  0.434336  1
  Fe  Fe4  1  0.586255  0.493170  0.990905  1
  Fe  Fe5  1  0.990905  0.586255  0.493170  1
  Fe  Fe6  1  0.493170  0.990905  0.586255  1
  Ni  Ni7  1  0.909186  0.909186  0.909186  1
