# generated using pymatgen
data_K3La5(CrN3)4
_symmetry_space_group_name_H-M   'P 1'
_cell_length_a   6.14909860
_cell_length_b   6.14909882
_cell_length_c   12.17673400
_cell_angle_alpha   90.23472415
_cell_angle_beta   89.76527584
_cell_angle_gamma   126.47337277
_symmetry_Int_Tables_number   1
_chemical_formula_structural   K3La5(CrN3)4
_chemical_formula_sum   'K3 La5 Cr4 N12'
_cell_volume   370.23474573
_cell_formula_units_Z   1
loop_
 _symmetry_equiv_pos_site_id
 _symmetry_equiv_pos_as_xyz
  1  'x, y, z'
loop_
 _atom_site_type_symbol
 _atom_site_label
 _atom_site_symmetry_multiplicity
 _atom_site_fract_x
 _atom_site_fract_y
 _atom_site_fract_z
 _atom_site_occupancy
  K  K0  1  0.543921  0.456079  0.645280  1
  K  K1  1  0.452782  0.547218  0.353251  1
  K  K2  1  0.953258  0.046742  0.151382  1
  La  La3  1  0.063336  0.936664  0.866054  1
  La  La4  1  0.849578  0.150422  0.582567  1
  La  La5  1  0.145742  0.854258  0.415196  1
  La  La6  1  0.646997  0.353003  0.083489  1
  La  La7  1  0.358387  0.641613  0.916655  1
  Cr  Cr8  1  0.738336  0.261664  0.838521  1
  Cr  Cr9  1  0.266085  0.733915  0.160769  1
  Cr  Cr10  1  0.767040  0.232960  0.337009  1
  Cr  Cr11  1  0.228873  0.771127  0.660887  1
  N  N12  1  0.845191  0.154809  0.947367  1
  N  N13  1  0.171203  0.828797  0.037390  1
  N  N14  1  0.676966  0.323034  0.453277  1
  N  N15  1  0.318078  0.681922  0.542216  1
  N  N16  1  0.579908  0.420092  0.886506  1
  N  N17  1  0.416484  0.583516  0.118405  1
  N  N18  1  0.917230  0.082770  0.384687  1
  N  N19  1  0.075271  0.924729  0.623489  1
  N  N20  1  0.513556  0.978854  0.750352  1
  N  N21  1  0.974981  0.524342  0.247449  1
  N  N22  1  0.475658  0.025019  0.247449  1
  N  N23  1  0.021146  0.486444  0.750352  1
