# generated using pymatgen
data_Hf18Re5SiPW3
_symmetry_space_group_name_H-M   'P 1'
_cell_length_a   8.64100341
_cell_length_b   8.64100407
_cell_length_c   8.59813900
_cell_angle_alpha   90.00000000
_cell_angle_beta   90.00000000
_cell_angle_gamma   120.11457320
_symmetry_Int_Tables_number   1
_chemical_formula_structural   Hf18Re5SiPW3
_chemical_formula_sum   'Hf18 Re5 Si1 P1 W3'
_cell_volume   555.34251326
_cell_formula_units_Z   1
loop_
 _symmetry_equiv_pos_site_id
 _symmetry_equiv_pos_as_xyz
  1  'x, y, z'
loop_
 _atom_site_type_symbol
 _atom_site_label
 _atom_site_symmetry_multiplicity
 _atom_site_fract_x
 _atom_site_fract_y
 _atom_site_fract_z
 _atom_site_occupancy
  Hf  Hf0  1  0.196814  0.803186  0.451446  1
  Hf  Hf1  1  0.196780  0.393423  0.451797  1
  Hf  Hf2  1  0.606577  0.803220  0.451797  1
  Hf  Hf3  1  0.804250  0.195750  0.549095  1
  Hf  Hf4  1  0.804247  0.608849  0.548233  1
  Hf  Hf5  1  0.391151  0.195753  0.548233  1
  Hf  Hf6  1  0.804250  0.195750  0.950905  1
  Hf  Hf7  1  0.804247  0.608849  0.951767  1
  Hf  Hf8  1  0.391151  0.195753  0.951767  1
  Hf  Hf9  1  0.196814  0.803186  0.048554  1
  Hf  Hf10  1  0.196780  0.393423  0.048203  1
  Hf  Hf11  1  0.606577  0.803220  0.048203  1
  Hf  Hf12  1  0.539005  0.460995  0.250000  1
  Hf  Hf13  1  0.538344  0.077859  0.250000  1
  Hf  Hf14  1  0.922141  0.461656  0.250000  1
  Hf  Hf15  1  0.461103  0.538897  0.750000  1
  Hf  Hf16  1  0.460705  0.922050  0.750000  1
  Hf  Hf17  1  0.077950  0.539295  0.750000  1
  Re  Re18  1  0.888815  0.778606  0.250000  1
  Re  Re19  1  0.221394  0.111185  0.250000  1
  Re  Re20  1  0.110344  0.889656  0.750000  1
  Re  Re21  1  0.110965  0.221291  0.750000  1
  Re  Re22  1  0.778709  0.889035  0.750000  1
  Si  Si23  1  0.666516  0.333484  0.750000  1
  P  P24  1  0.332806  0.667194  0.250000  1
  W  W25  1  0.890290  0.109710  0.250000  1
  W  W26  1  0.000638  0.999362  0.500712  1
  W  W27  1  0.000638  0.999362  0.999288  1
