# generated using pymatgen
data_PaF17
_symmetry_space_group_name_H-M   'P 1'
_cell_length_a   8.95008178
_cell_length_b   8.64369751
_cell_length_c   10.20049947
_cell_angle_alpha   84.69476126
_cell_angle_beta   88.37261210
_cell_angle_gamma   68.36858673
_symmetry_Int_Tables_number   1
_chemical_formula_structural   PaF17
_chemical_formula_sum   'Pa2 F34'
_cell_volume   730.39806303
_cell_formula_units_Z   2
loop_
 _symmetry_equiv_pos_site_id
 _symmetry_equiv_pos_as_xyz
  1  'x, y, z'
loop_
 _atom_site_type_symbol
 _atom_site_label
 _atom_site_symmetry_multiplicity
 _atom_site_fract_x
 _atom_site_fract_y
 _atom_site_fract_z
 _atom_site_occupancy
  Pa  Pa0  1  0.864645  0.251241  0.757953  1
  Pa  Pa1  1  0.135355  0.748759  0.242047  1
  F  F2  1  0.594939  0.209667  0.490896  1
  F  F3  1  0.405061  0.790333  0.509104  1
  F  F4  1  0.819660  0.695909  0.725891  1
  F  F5  1  0.180340  0.304091  0.274109  1
  F  F6  1  0.080188  0.774295  0.861059  1
  F  F7  1  0.919812  0.225705  0.138941  1
  F  F8  1  0.561053  0.140768  0.378160  1
  F  F9  1  0.438947  0.859232  0.621840  1
  F  F10  1  0.626061  0.331737  0.693621  1
  F  F11  1  0.373939  0.668263  0.306379  1
  F  F12  1  0.953075  0.047271  0.645637  1
  F  F13  1  0.046925  0.952729  0.354363  1
  F  F14  1  0.896678  0.401897  0.597001  1
  F  F15  1  0.103322  0.598103  0.402999  1
  F  F16  1  0.852556  0.797224  0.619628  1
  F  F17  1  0.147444  0.202776  0.380372  1
  F  F18  1  0.791064  0.463941  0.862816  1
  F  F19  1  0.208936  0.536059  0.137184  1
  F  F20  1  0.209027  0.689504  0.777760  1
  F  F21  1  0.790973  0.310496  0.222240  1
  F  F22  1  0.905869  0.826493  0.161960  1
  F  F23  1  0.094131  0.173507  0.838040  1
  F  F24  1  0.824198  0.087747  0.905105  1
  F  F25  1  0.175802  0.912253  0.094895  1
  F  F26  1  0.479845  0.587412  0.984736  1
  F  F27  1  0.520155  0.412588  0.015264  1
  F  F28  1  0.457926  0.077487  0.865716  1
  F  F29  1  0.542074  0.922513  0.134284  1
  F  F30  1  0.290348  0.232831  0.613013  1
  F  F31  1  0.709652  0.767169  0.386987  1
  F  F32  1  0.256828  0.385657  0.670733  1
  F  F33  1  0.743172  0.614343  0.329267  1
  F  F34  1  0.557238  0.910868  0.842838  1
  F  F35  1  0.442762  0.089132  0.157162  1
