# generated using pymatgen
data_Pr5Nd(GaSn)5
_symmetry_space_group_name_H-M   'P 1'
_cell_length_a   6.48610800
_cell_length_b   6.48610671
_cell_length_c   10.15674700
_cell_angle_alpha   90.00000000
_cell_angle_beta   90.00000000
_cell_angle_gamma   102.53847303
_symmetry_Int_Tables_number   1
_chemical_formula_structural   Pr5Nd(GaSn)5
_chemical_formula_sum   'Pr5 Nd1 Ga5 Sn5'
_cell_volume   417.09949061
_cell_formula_units_Z   1
loop_
 _symmetry_equiv_pos_site_id
 _symmetry_equiv_pos_as_xyz
  1  'x, y, z'
loop_
 _atom_site_type_symbol
 _atom_site_label
 _atom_site_symmetry_multiplicity
 _atom_site_fract_x
 _atom_site_fract_y
 _atom_site_fract_z
 _atom_site_occupancy
  Pr  Pr0  1  0.648746  0.648746  0.250000  1
  Pr  Pr1  1  0.200499  0.799928  0.494944  1
  Pr  Pr2  1  0.200499  0.799928  0.005056  1
  Pr  Pr3  1  0.799928  0.200499  0.494944  1
  Pr  Pr4  1  0.799928  0.200499  0.005056  1
  Nd  Nd5  1  0.362378  0.362378  0.750000  1
  Ga  Ga6  1  0.031459  0.031459  0.250000  1
  Ga  Ga7  1  0.310532  0.310532  0.048822  1
  Ga  Ga8  1  0.686738  0.686738  0.955934  1
  Ga  Ga9  1  0.310532  0.310532  0.451178  1
  Ga  Ga10  1  0.686738  0.686738  0.544066  1
  Sn  Sn11  1  0.974754  0.974754  0.750000  1
  Sn  Sn12  1  0.483435  0.089519  0.250000  1
  Sn  Sn13  1  0.908661  0.505655  0.750000  1
  Sn  Sn14  1  0.505655  0.908661  0.750000  1
  Sn  Sn15  1  0.089519  0.483435  0.250000  1
