# generated using pymatgen
data_La15PrCd4OsPd3
_symmetry_space_group_name_H-M   'P 1'
_cell_length_a   10.22606135
_cell_length_b   10.15011042
_cell_length_c   10.14149300
_cell_angle_alpha   60.02808391
_cell_angle_beta   60.27319381
_cell_angle_gamma   60.30407095
_symmetry_Int_Tables_number   1
_chemical_formula_structural   La15PrCd4OsPd3
_chemical_formula_sum   'La15 Pr1 Cd4 Os1 Pd3'
_cell_volume   747.72147810
_cell_formula_units_Z   1
loop_
 _symmetry_equiv_pos_site_id
 _symmetry_equiv_pos_as_xyz
  1  'x, y, z'
loop_
 _atom_site_type_symbol
 _atom_site_label
 _atom_site_symmetry_multiplicity
 _atom_site_fract_x
 _atom_site_fract_y
 _atom_site_fract_z
 _atom_site_occupancy
  La  La0  1  0.561115  0.936828  0.566919  1
  La  La1  1  0.561115  0.936828  0.935139  1
  La  La2  1  0.695711  0.683780  0.310254  1
  La  La3  1  0.147300  0.154290  0.543399  1
  La  La4  1  0.301087  0.695481  0.695602  1
  La  La5  1  0.147300  0.154290  0.155009  1
  La  La6  1  0.558172  0.146428  0.147699  1
  La  La7  1  0.301087  0.695481  0.307831  1
  La  La8  1  0.303304  0.308638  0.694029  1
  La  La9  1  0.696657  0.309920  0.682901  1
  La  La10  1  0.932956  0.560846  0.561263  1
  La  La11  1  0.561870  0.565003  0.936565  1
  La  La12  1  0.148605  0.544566  0.153415  1
  La  La13  1  0.696657  0.309920  0.310522  1
  La  La14  1  0.932956  0.560846  0.944934  1
  Pr  Pr15  1  0.932025  0.942329  0.562822  1
  Cd  Cd16  1  0.237320  0.920817  0.920931  1
  Cd  Cd17  1  0.921610  0.920581  0.919298  1
  Cd  Cd18  1  0.921610  0.920581  0.238508  1
  Cd  Cd19  1  0.921862  0.238246  0.919945  1
  Os  Os20  1  0.927910  0.359938  0.356076  1
  Pd  Pd21  1  0.364485  0.354009  0.926182  1
  Pd  Pd22  1  0.362793  0.926345  0.355431  1
  Pd  Pd23  1  0.364485  0.354009  0.355321  1
