# generated using pymatgen
data_Li3Nb12Ga8MoN4
_symmetry_space_group_name_H-M   'P 1'
_cell_length_a   8.30310257
_cell_length_b   8.30310177
_cell_length_c   8.30310357
_cell_angle_alpha   59.67277899
_cell_angle_beta   59.67278388
_cell_angle_gamma   59.67278992
_symmetry_Int_Tables_number   1
_chemical_formula_structural   Li3Nb12Ga8MoN4
_chemical_formula_sum   'Li3 Nb12 Ga8 Mo1 N4'
_cell_volume   401.75903562
_cell_formula_units_Z   1
loop_
 _symmetry_equiv_pos_site_id
 _symmetry_equiv_pos_as_xyz
  1  'x, y, z'
loop_
 _atom_site_type_symbol
 _atom_site_label
 _atom_site_symmetry_multiplicity
 _atom_site_fract_x
 _atom_site_fract_y
 _atom_site_fract_z
 _atom_site_occupancy
  Li  Li0  1  0.625000  0.625000  0.125000  1
  Li  Li1  1  0.625000  0.125000  0.625000  1
  Li  Li2  1  0.125000  0.625000  0.625000  1
  Nb  Nb3  1  0.442278  0.442278  0.053989  1
  Nb  Nb4  1  0.061195  0.440412  0.061195  1
  Nb  Nb5  1  0.440412  0.061195  0.061195  1
  Nb  Nb6  1  0.061195  0.061195  0.440412  1
  Nb  Nb7  1  0.442278  0.053989  0.442278  1
  Nb  Nb8  1  0.053989  0.442278  0.442278  1
  Nb  Nb9  1  0.807722  0.807722  0.196011  1
  Nb  Nb10  1  0.188805  0.809588  0.188805  1
  Nb  Nb11  1  0.809588  0.188805  0.188805  1
  Nb  Nb12  1  0.188805  0.188805  0.809588  1
  Nb  Nb13  1  0.807722  0.196011  0.807722  1
  Nb  Nb14  1  0.196011  0.807722  0.807722  1
  Ga  Ga15  1  0.841299  0.841299  0.494335  1
  Ga  Ga16  1  0.841299  0.494335  0.841299  1
  Ga  Ga17  1  0.494335  0.841299  0.841299  1
  Ga  Ga18  1  0.837312  0.837312  0.837312  1
  Ga  Ga19  1  0.408701  0.408701  0.755665  1
  Ga  Ga20  1  0.408701  0.755665  0.408701  1
  Ga  Ga21  1  0.755665  0.408701  0.408701  1
  Ga  Ga22  1  0.412688  0.412688  0.412688  1
  Mo  Mo23  1  0.625000  0.625000  0.625000  1
  N  N24  1  0.125000  0.125000  0.625000  1
  N  N25  1  0.125000  0.625000  0.125000  1
  N  N26  1  0.625000  0.125000  0.125000  1
  N  N27  1  0.125000  0.125000  0.125000  1
