# generated using pymatgen
data_TmLuCo12AsP6
_symmetry_space_group_name_H-M   'P 1'
_cell_length_a   9.06991300
_cell_length_b   9.06991319
_cell_length_c   3.56318100
_cell_angle_alpha   90.00000000
_cell_angle_beta   90.00000000
_cell_angle_gamma   120.00000295
_symmetry_Int_Tables_number   1
_chemical_formula_structural   TmLuCo12AsP6
_chemical_formula_sum   'Tm1 Lu1 Co12 As1 P6'
_cell_volume   253.84858935
_cell_formula_units_Z   1
loop_
 _symmetry_equiv_pos_site_id
 _symmetry_equiv_pos_as_xyz
  1  'x, y, z'
loop_
 _atom_site_type_symbol
 _atom_site_label
 _atom_site_symmetry_multiplicity
 _atom_site_fract_x
 _atom_site_fract_y
 _atom_site_fract_z
 _atom_site_occupancy
  Tm  Tm0  1  0.000000  0.000000  0.500000  1
  Lu  Lu1  1  0.666667  0.333333  0.000000  1
  Co  Co2  1  0.770327  0.728086  0.000000  1
  Co  Co3  1  0.271914  0.042240  0.000000  1
  Co  Co4  1  0.957760  0.229673  0.000000  1
  Co  Co5  1  0.718424  0.106468  0.500000  1
  Co  Co6  1  0.893532  0.611955  0.500000  1
  Co  Co7  1  0.388045  0.281576  0.500000  1
  Co  Co8  1  0.493180  0.950643  0.000000  1
  Co  Co9  1  0.049357  0.542537  0.000000  1
  Co  Co10  1  0.457463  0.506820  0.000000  1
  Co  Co11  1  0.584140  0.777122  0.500000  1
  Co  Co12  1  0.222878  0.807018  0.500000  1
  Co  Co13  1  0.192982  0.415860  0.500000  1
  As  As14  1  0.333333  0.666667  0.000000  1
  P  P15  1  0.447607  0.072971  0.500000  1
  P  P16  1  0.927029  0.374636  0.500000  1
  P  P17  1  0.625364  0.552393  0.500000  1
  P  P18  1  0.741481  0.960632  0.000000  1
  P  P19  1  0.039368  0.780848  0.000000  1
  P  P20  1  0.219152  0.258519  0.000000  1
