# generated using pymatgen
data_ZrPaNi6
_symmetry_space_group_name_H-M   'P 1'
_cell_length_a   5.31270900
_cell_length_b   5.31270965
_cell_length_c   4.49313000
_cell_angle_alpha   90.00000000
_cell_angle_beta   90.00000000
_cell_angle_gamma   119.99998971
_symmetry_Int_Tables_number   1
_chemical_formula_structural   ZrPaNi6
_chemical_formula_sum   'Zr1 Pa1 Ni6'
_cell_volume   109.82767026
_cell_formula_units_Z   1
loop_
 _symmetry_equiv_pos_site_id
 _symmetry_equiv_pos_as_xyz
  1  'x, y, z'
loop_
 _atom_site_type_symbol
 _atom_site_label
 _atom_site_symmetry_multiplicity
 _atom_site_fract_x
 _atom_site_fract_y
 _atom_site_fract_z
 _atom_site_occupancy
  Zr  Zr0  1  0.666667  0.333333  0.250000  1
  Pa  Pa1  1  0.333333  0.666667  0.750000  1
  Ni  Ni2  1  0.686565  0.843282  0.250000  1
  Ni  Ni3  1  0.156718  0.843282  0.250000  1
  Ni  Ni4  1  0.839149  0.678297  0.750000  1
  Ni  Ni5  1  0.321703  0.160851  0.750000  1
  Ni  Ni6  1  0.839149  0.160851  0.750000  1
  Ni  Ni7  1  0.156718  0.313435  0.250000  1
