# generated using pymatgen
data_CaTh(CoC2)2
_symmetry_space_group_name_H-M   'P 1'
_cell_length_a   3.77249567
_cell_length_b   3.78079571
_cell_length_c   7.35831876
_cell_angle_alpha   81.51386330
_cell_angle_beta   82.36585362
_cell_angle_gamma   90.00766137
_symmetry_Int_Tables_number   1
_chemical_formula_structural   CaTh(CoC2)2
_chemical_formula_sum   'Ca1 Th1 Co2 C4'
_cell_volume   102.86199513
_cell_formula_units_Z   1
loop_
 _symmetry_equiv_pos_site_id
 _symmetry_equiv_pos_as_xyz
  1  'x, y, z'
loop_
 _atom_site_type_symbol
 _atom_site_label
 _atom_site_symmetry_multiplicity
 _atom_site_fract_x
 _atom_site_fract_y
 _atom_site_fract_z
 _atom_site_occupancy
  Ca  Ca0  1  0.925827  0.069840  0.950864  1
  Th  Th1  1  0.066733  0.924070  0.452572  1
  Co  Co2  1  0.623793  0.482894  0.258007  1
  Co  Co3  1  0.485404  0.628526  0.757633  1
  C  C4  1  0.401643  0.553352  0.023045  1
  C  C5  1  0.556526  0.403727  0.527325  1
  C  C6  1  0.505993  0.141409  0.681893  1
  C  C7  1  0.146082  0.508180  0.174663  1
