# generated using pymatgen
data_CeTm3Hf4F28
_symmetry_space_group_name_H-M   'P 1'
_cell_length_a   5.69568334
_cell_length_b   9.01468197
_cell_length_c   12.09743000
_cell_angle_alpha   62.36682757
_cell_angle_beta   89.96076791
_cell_angle_gamma   90.01815278
_symmetry_Int_Tables_number   1
_chemical_formula_structural   CeTm3Hf4F28
_chemical_formula_sum   'Ce1 Tm3 Hf4 F28'
_cell_volume   550.28934789
_cell_formula_units_Z   1
loop_
 _symmetry_equiv_pos_site_id
 _symmetry_equiv_pos_as_xyz
  1  'x, y, z'
loop_
 _atom_site_type_symbol
 _atom_site_label
 _atom_site_symmetry_multiplicity
 _atom_site_fract_x
 _atom_site_fract_y
 _atom_site_fract_z
 _atom_site_occupancy
  Ce  Ce0  1  0.756535  0.818246  0.766167  1
  Tm  Tm1  1  0.743642  0.818173  0.266151  1
  Tm  Tm2  1  0.243311  0.185647  0.233809  1
  Tm  Tm3  1  0.258121  0.192229  0.732915  1
  Hf  Hf4  1  0.742973  0.279825  0.451084  1
  Hf  Hf5  1  0.243857  0.724934  0.052185  1
  Hf  Hf6  1  0.254362  0.726093  0.537909  1
  Hf  Hf7  1  0.755379  0.267566  0.958139  1
  F  F8  1  0.455358  0.705078  0.928423  1
  F  F9  1  0.963980  0.289822  0.576433  1
  F  F10  1  0.532401  0.286211  0.079217  1
  F  F11  1  0.032441  0.709189  0.416605  1
  F  F12  1  0.455370  0.282332  0.548446  1
  F  F13  1  0.953992  0.712737  0.963041  1
  F  F14  1  0.548735  0.718790  0.447472  1
  F  F15  1  0.044267  0.277120  0.052318  1
  F  F16  1  0.772424  0.515163  0.861094  1
  F  F17  1  0.268176  0.475312  0.637817  1
  F  F18  1  0.235638  0.473623  0.146105  1
  F  F19  1  0.732307  0.528812  0.355057  1
  F  F20  1  0.759459  0.018179  0.059316  1
  F  F21  1  0.258402  0.976163  0.439847  1
  F  F22  1  0.240335  0.973585  0.944766  1
  F  F23  1  0.739653  0.030055  0.548237  1
  F  F24  1  0.982319  0.727838  0.640806  1
  F  F25  1  0.483499  0.267045  0.852523  1
  F  F26  1  0.011023  0.266930  0.347746  1
  F  F27  1  0.514524  0.734717  0.154501  1
  F  F28  1  0.033487  0.746741  0.178049  1
  F  F29  1  0.529194  0.256219  0.326238  1
  F  F30  1  0.967112  0.249751  0.829683  1
  F  F31  1  0.453519  0.740913  0.669229  1
  F  F32  1  0.432529  0.976576  0.235893  1
  F  F33  1  0.933379  0.025550  0.264694  1
  F  F34  1  0.572669  0.042577  0.767118  1
  F  F35  1  0.095627  0.980255  0.730971  1
