# generated using pymatgen
data_Nd3Sc2ZnPt3
_symmetry_space_group_name_H-M   'P 1'
_cell_length_a   7.37806482
_cell_length_b   7.37806439
_cell_length_c   4.39634000
_cell_angle_alpha   90.00000000
_cell_angle_beta   90.00000000
_cell_angle_gamma   121.13734031
_symmetry_Int_Tables_number   1
_chemical_formula_structural   Nd3Sc2ZnPt3
_chemical_formula_sum   'Nd3 Sc2 Zn1 Pt3'
_cell_volume   204.83990523
_cell_formula_units_Z   1
loop_
 _symmetry_equiv_pos_site_id
 _symmetry_equiv_pos_as_xyz
  1  'x, y, z'
loop_
 _atom_site_type_symbol
 _atom_site_label
 _atom_site_symmetry_multiplicity
 _atom_site_fract_x
 _atom_site_fract_y
 _atom_site_fract_z
 _atom_site_occupancy
  Nd  Nd0  1  0.980430  0.587433  0.500000  1
  Nd  Nd1  1  0.587433  0.980430  0.500000  1
  Nd  Nd2  1  0.435601  0.435601  0.500000  1
  Sc  Sc3  1  0.991357  0.238028  0.000000  1
  Sc  Sc4  1  0.238028  0.991357  0.000000  1
  Zn  Zn5  1  0.760724  0.760724  0.000000  1
  Pt  Pt6  1  0.028767  0.028767  0.500000  1
  Pt  Pt7  1  0.656529  0.321135  0.000000  1
  Pt  Pt8  1  0.321135  0.656529  0.000000  1
