# generated using pymatgen
data_Nd12Ni3Rh
_symmetry_space_group_name_H-M   'P 1'
_cell_length_a   6.51014255
_cell_length_b   7.13773875
_cell_length_c   9.95148400
_cell_angle_alpha   90.00000000
_cell_angle_beta   90.00000000
_cell_angle_gamma   90.13382664
_symmetry_Int_Tables_number   1
_chemical_formula_structural   Nd12Ni3Rh
_chemical_formula_sum   'Nd12 Ni3 Rh1'
_cell_volume   462.42127917
_cell_formula_units_Z   1
loop_
 _symmetry_equiv_pos_site_id
 _symmetry_equiv_pos_as_xyz
  1  'x, y, z'
loop_
 _atom_site_type_symbol
 _atom_site_label
 _atom_site_symmetry_multiplicity
 _atom_site_fract_x
 _atom_site_fract_y
 _atom_site_fract_z
 _atom_site_occupancy
  Nd  Nd0  1  0.329411  0.672024  0.065912  1
  Nd  Nd1  1  0.172616  0.178315  0.434615  1
  Nd  Nd2  1  0.673334  0.324895  0.567907  1
  Nd  Nd3  1  0.828535  0.824138  0.933878  1
  Nd  Nd4  1  0.673334  0.324895  0.932093  1
  Nd  Nd5  1  0.828535  0.824138  0.566122  1
  Nd  Nd6  1  0.329411  0.672024  0.434088  1
  Nd  Nd7  1  0.172616  0.178315  0.065385  1
  Nd  Nd8  1  0.855081  0.538348  0.250000  1
  Nd  Nd9  1  0.638816  0.039984  0.250000  1
  Nd  Nd10  1  0.144800  0.462833  0.750000  1
  Nd  Nd11  1  0.358786  0.961832  0.750000  1
  Ni  Ni12  1  0.431657  0.385538  0.250000  1
  Ni  Ni13  1  0.930315  0.111960  0.750000  1
  Ni  Ni14  1  0.568533  0.613745  0.750000  1
  Rh  Rh15  1  0.064218  0.887017  0.250000  1
