# generated using pymatgen
data_Tb15YCd4PdRu2Pt
_symmetry_space_group_name_H-M   'P 1'
_cell_length_a   9.67925626
_cell_length_b   9.67547202
_cell_length_c   9.67925700
_cell_angle_alpha   60.01293643
_cell_angle_beta   60.23719281
_cell_angle_gamma   60.01293698
_symmetry_Int_Tables_number   1
_chemical_formula_structural   Tb15YCd4PdRu2Pt
_chemical_formula_sum   'Tb15 Y1 Cd4 Pd1 Ru2 Pt1'
_cell_volume   642.24220005
_cell_formula_units_Z   1
loop_
 _symmetry_equiv_pos_site_id
 _symmetry_equiv_pos_as_xyz
  1  'x, y, z'
loop_
 _atom_site_type_symbol
 _atom_site_label
 _atom_site_symmetry_multiplicity
 _atom_site_fract_x
 _atom_site_fract_y
 _atom_site_fract_z
 _atom_site_occupancy
  Tb  Tb0  1  0.437486  0.435292  0.067189  1
  Tb  Tb1  1  0.066444  0.060050  0.437879  1
  Tb  Tb2  1  0.437879  0.060050  0.066444  1
  Tb  Tb3  1  0.849484  0.846315  0.849484  1
  Tb  Tb4  1  0.689484  0.315121  0.306106  1
  Tb  Tb5  1  0.067189  0.435292  0.437486  1
  Tb  Tb6  1  0.304691  0.689368  0.689311  1
  Tb  Tb7  1  0.306106  0.315121  0.689484  1
  Tb  Tb8  1  0.858119  0.849346  0.445182  1
  Tb  Tb9  1  0.689311  0.689368  0.304691  1
  Tb  Tb10  1  0.445182  0.849346  0.858119  1
  Tb  Tb11  1  0.062585  0.437492  0.062585  1
  Tb  Tb12  1  0.850477  0.453565  0.850477  1
  Tb  Tb13  1  0.437144  0.063343  0.437144  1
  Tb  Tb14  1  0.312168  0.687970  0.312168  1
  Y  Y15  1  0.690456  0.308529  0.690456  1
  Cd  Cd16  1  0.080919  0.756473  0.080919  1
  Cd  Cd17  1  0.079405  0.081484  0.757566  1
  Cd  Cd18  1  0.757566  0.081484  0.079405  1
  Cd  Cd19  1  0.080984  0.081555  0.080984  1
  Pd  Pd20  1  0.640922  0.646931  0.640922  1
  Ru  Ru21  1  0.641148  0.642348  0.074310  1
  Ru  Ru22  1  0.074310  0.642348  0.641148  1
  Pt  Pt23  1  0.640541  0.071805  0.640541  1
