# generated using pymatgen
data_Li2Tb2IrPt
_symmetry_space_group_name_H-M   'P 1'
_cell_length_a   3.99262600
_cell_length_b   7.00250300
_cell_length_c   8.39948900
_cell_angle_alpha   90.00000000
_cell_angle_beta   90.00000000
_cell_angle_gamma   90.00000000
_symmetry_Int_Tables_number   1
_chemical_formula_structural   Li2Tb2IrPt
_chemical_formula_sum   'Li4 Tb4 Ir2 Pt2'
_cell_volume   234.83606783
_cell_formula_units_Z   2
loop_
 _symmetry_equiv_pos_site_id
 _symmetry_equiv_pos_as_xyz
  1  'x, y, z'
loop_
 _atom_site_type_symbol
 _atom_site_label
 _atom_site_symmetry_multiplicity
 _atom_site_fract_x
 _atom_site_fract_y
 _atom_site_fract_z
 _atom_site_occupancy
  Li  Li0  1  0.750000  0.624310  0.445393  1
  Li  Li1  1  0.250000  0.377442  0.556476  1
  Li  Li2  1  0.750000  0.124310  0.054607  1
  Li  Li3  1  0.250000  0.877442  0.943524  1
  Tb  Tb4  1  0.750000  0.544421  0.815781  1
  Tb  Tb5  1  0.250000  0.947741  0.327129  1
  Tb  Tb6  1  0.250000  0.447741  0.172871  1
  Tb  Tb7  1  0.750000  0.044421  0.684219  1
  Ir  Ir8  1  0.250000  0.759987  0.626954  1
  Ir  Ir9  1  0.250000  0.259987  0.873046  1
  Pt  Pt10  1  0.750000  0.746100  0.127064  1
  Pt  Pt11  1  0.750000  0.246100  0.372936  1
