# generated using pymatgen
data_AcTb(Sn2Ir)2
_symmetry_space_group_name_H-M   'P 1'
_cell_length_a   10.17619912
_cell_length_b   10.17619913
_cell_length_c   10.17619900
_cell_angle_alpha   153.22594802
_cell_angle_beta   123.37245688
_cell_angle_gamma   63.71290176
_symmetry_Int_Tables_number   1
_chemical_formula_structural   AcTb(Sn2Ir)2
_chemical_formula_sum   'Ac2 Tb2 Sn8 Ir4'
_cell_volume   393.16156421
_cell_formula_units_Z   2
loop_
 _symmetry_equiv_pos_site_id
 _symmetry_equiv_pos_as_xyz
  1  'x, y, z'
loop_
 _atom_site_type_symbol
 _atom_site_label
 _atom_site_symmetry_multiplicity
 _atom_site_fract_x
 _atom_site_fract_y
 _atom_site_fract_z
 _atom_site_occupancy
  Ac  Ac0  1  0.738449  0.000003  0.738451  1
  Ac  Ac1  1  0.261551  0.999997  0.261549  1
  Tb  Tb2  1  0.291666  0.791666  0.500000  1
  Tb  Tb3  1  0.708334  0.208334  0.500000  1
  Sn  Sn4  1  0.914308  0.414308  0.500000  1
  Sn  Sn5  1  0.085692  0.585692  0.500000  1
  Sn  Sn6  1  0.415241  0.415241  0.000000  1
  Sn  Sn7  1  0.584759  0.584759  0.000000  1
  Sn  Sn8  1  0.356919  0.199274  0.157644  1
  Sn  Sn9  1  0.643081  0.800726  0.842356  1
  Sn  Sn10  1  0.041630  0.199275  0.842356  1
  Sn  Sn11  1  0.958370  0.800725  0.157644  1
  Ir  Ir12  1  0.598600  0.349531  0.249077  1
  Ir  Ir13  1  0.401400  0.650469  0.750923  1
  Ir  Ir14  1  0.100454  0.349524  0.750923  1
  Ir  Ir15  1  0.899546  0.650476  0.249077  1
