# generated using pymatgen
data_Lu2Hf3Co9As7
_symmetry_space_group_name_H-M   'P 1'
_cell_length_a   3.78573000
_cell_length_b   9.67435595
_cell_length_c   9.67435600
_cell_angle_alpha   120.00000018
_cell_angle_beta   90.00000000
_cell_angle_gamma   90.00000000
_symmetry_Int_Tables_number   1
_chemical_formula_structural   Lu2Hf3Co9As7
_chemical_formula_sum   'Lu2 Hf3 Co9 As7'
_cell_volume   306.84877545
_cell_formula_units_Z   1
loop_
 _symmetry_equiv_pos_site_id
 _symmetry_equiv_pos_as_xyz
  1  'x, y, z'
loop_
 _atom_site_type_symbol
 _atom_site_label
 _atom_site_symmetry_multiplicity
 _atom_site_fract_x
 _atom_site_fract_y
 _atom_site_fract_z
 _atom_site_occupancy
  Lu  Lu0  1  0.000000  0.666667  0.333333  1
  Lu  Lu1  1  0.500000  0.333333  0.666667  1
  Hf  Hf2  1  0.500000  0.767603  0.888534  1
  Hf  Hf3  1  0.500000  0.120931  0.232397  1
  Hf  Hf4  1  0.500000  0.111466  0.879069  1
  Co  Co5  1  0.000000  0.575889  0.933920  1
  Co  Co6  1  0.000000  0.358031  0.424111  1
  Co  Co7  1  0.000000  0.066080  0.641969  1
  Co  Co8  1  0.000000  0.878022  0.163571  1
  Co  Co9  1  0.000000  0.285549  0.121978  1
  Co  Co10  1  0.000000  0.836429  0.714451  1
  Co  Co11  1  0.500000  0.947340  0.391015  1
  Co  Co12  1  0.500000  0.443674  0.052660  1
  Co  Co13  1  0.500000  0.608985  0.556326  1
  As  As14  1  0.000000  0.000000  0.000000  1
  As  As15  1  0.500000  0.713228  0.135075  1
  As  As16  1  0.500000  0.421847  0.286772  1
  As  As17  1  0.500000  0.864925  0.578153  1
  As  As18  1  0.000000  0.570925  0.681425  1
  As  As19  1  0.000000  0.110500  0.429075  1
  As  As20  1  0.000000  0.318575  0.889500  1
