# generated using pymatgen
data_La4Y12CdIn3Ir4
_symmetry_space_group_name_H-M   'P 1'
_cell_length_a   9.82452361
_cell_length_b   9.82754966
_cell_length_c   9.82754900
_cell_angle_alpha   59.99999885
_cell_angle_beta   59.98980945
_cell_angle_gamma   59.98980743
_symmetry_Int_Tables_number   1
_chemical_formula_structural   La4Y12CdIn3Ir4
_chemical_formula_sum   'La4 Y12 Cd1 In3 Ir4'
_cell_volume   670.84169219
_cell_formula_units_Z   1
loop_
 _symmetry_equiv_pos_site_id
 _symmetry_equiv_pos_as_xyz
  1  'x, y, z'
loop_
 _atom_site_type_symbol
 _atom_site_label
 _atom_site_symmetry_multiplicity
 _atom_site_fract_x
 _atom_site_fract_y
 _atom_site_fract_z
 _atom_site_occupancy
  La  La0  1  0.350620  0.350461  0.350461  1
  La  La1  1  0.350620  0.350461  0.948458  1
  La  La2  1  0.350620  0.948458  0.350461  1
  La  La3  1  0.948517  0.350495  0.350495  1
  Y  Y4  1  0.811041  0.188839  0.188839  1
  Y  Y5  1  0.187726  0.812512  0.812512  1
  Y  Y6  1  0.187726  0.812512  0.187251  1
  Y  Y7  1  0.811041  0.188839  0.811281  1
  Y  Y8  1  0.187726  0.187251  0.812512  1
  Y  Y9  1  0.811041  0.811281  0.188839  1
  Y  Y10  1  0.937180  0.563918  0.563918  1
  Y  Y11  1  0.564017  0.936463  0.936463  1
  Y  Y12  1  0.564017  0.936463  0.563058  1
  Y  Y13  1  0.937180  0.563918  0.934983  1
  Y  Y14  1  0.564017  0.563058  0.936463  1
  Y  Y15  1  0.937180  0.934983  0.563918  1
  Cd  Cd16  1  0.250838  0.583054  0.583054  1
  In  In17  1  0.583271  0.584578  0.584578  1
  In  In18  1  0.583271  0.584578  0.247576  1
  In  In19  1  0.583271  0.247576  0.584578  1
  Ir  Ir20  1  0.140286  0.140405  0.140405  1
  Ir  Ir21  1  0.140286  0.140405  0.578905  1
  Ir  Ir22  1  0.140286  0.578905  0.140405  1
  Ir  Ir23  1  0.578222  0.140593  0.140593  1
