# generated using pymatgen
data_Ba(HS)2
_symmetry_space_group_name_H-M   'P 1'
_cell_length_a   8.21857300
_cell_length_b   7.17162034
_cell_length_c   8.12178300
_cell_angle_alpha   75.83518547
_cell_angle_beta   90.00000000
_cell_angle_gamma   90.00000000
_symmetry_Int_Tables_number   1
_chemical_formula_structural   Ba(HS)2
_chemical_formula_sum   'Ba4 H8 S8'
_cell_volume   464.14729038
_cell_formula_units_Z   4
loop_
 _symmetry_equiv_pos_site_id
 _symmetry_equiv_pos_as_xyz
  1  'x, y, z'
loop_
 _atom_site_type_symbol
 _atom_site_label
 _atom_site_symmetry_multiplicity
 _atom_site_fract_x
 _atom_site_fract_y
 _atom_site_fract_z
 _atom_site_occupancy
  Ba  Ba0  1  0.549928  0.687126  0.693892  1
  Ba  Ba1  1  0.049928  0.312874  0.806108  1
  Ba  Ba2  1  0.450072  0.312874  0.306108  1
  Ba  Ba3  1  0.950072  0.687126  0.193892  1
  H  H4  1  0.991718  0.852460  0.712703  1
  H  H5  1  0.491718  0.147540  0.787297  1
  H  H6  1  0.008282  0.147540  0.287297  1
  H  H7  1  0.508282  0.852460  0.212703  1
  H  H8  1  0.281983  0.771299  0.925143  1
  H  H9  1  0.781983  0.228701  0.574857  1
  H  H10  1  0.718017  0.228701  0.074857  1
  H  H11  1  0.218017  0.771299  0.425143  1
  S  S12  1  0.866298  0.915536  0.792450  1
  S  S13  1  0.366298  0.084464  0.707550  1
  S  S14  1  0.133702  0.084464  0.207550  1
  S  S15  1  0.633702  0.915536  0.292450  1
  S  S16  1  0.261688  0.578718  0.990547  1
  S  S17  1  0.761688  0.421282  0.509453  1
  S  S18  1  0.738312  0.421282  0.009453  1
  S  S19  1  0.238312  0.578718  0.490547  1
