# generated using pymatgen
data_Zr10AlSn5Sb2
_symmetry_space_group_name_H-M   'P 1'
_cell_length_a   8.78562701
_cell_length_b   8.82239205
_cell_length_c   5.92689190
_cell_angle_alpha   90.06353965
_cell_angle_beta   89.96809769
_cell_angle_gamma   120.13853524
_symmetry_Int_Tables_number   1
_chemical_formula_structural   Zr10AlSn5Sb2
_chemical_formula_sum   'Zr10 Al1 Sn5 Sb2'
_cell_volume   397.29081782
_cell_formula_units_Z   1
loop_
 _symmetry_equiv_pos_site_id
 _symmetry_equiv_pos_as_xyz
  1  'x, y, z'
loop_
 _atom_site_type_symbol
 _atom_site_label
 _atom_site_symmetry_multiplicity
 _atom_site_fract_x
 _atom_site_fract_y
 _atom_site_fract_z
 _atom_site_occupancy
  Zr  Zr0  1  0.274805  0.277822  0.739686  1
  Zr  Zr1  1  0.725195  0.722178  0.260314  1
  Zr  Zr2  1  0.725195  0.003017  0.739686  1
  Zr  Zr3  1  0.000000  0.277896  0.259748  1
  Zr  Zr4  1  0.332441  0.666221  0.500000  1
  Zr  Zr5  1  0.667559  0.333779  0.500000  1
  Zr  Zr6  1  0.000000  0.722104  0.740252  1
  Zr  Zr7  1  0.332158  0.666080  0.000000  1
  Zr  Zr8  1  0.274805  0.996983  0.260314  1
  Zr  Zr9  1  0.667842  0.333920  0.000000  1
  Al  Al10  1  0.000000  0.000000  0.500000  1
  Sn  Sn11  1  0.614049  0.615006  0.751882  1
  Sn  Sn12  1  0.385951  0.000957  0.751882  1
  Sn  Sn13  1  0.000000  0.000000  0.000000  1
  Sn  Sn14  1  0.614049  0.999043  0.248118  1
  Sn  Sn15  1  0.385951  0.384994  0.248118  1
  Sb  Sb16  1  0.000000  0.387597  0.751791  1
  Sb  Sb17  1  0.000000  0.612403  0.248209  1
