# generated using pymatgen
data_Ho3Tm2Bi2Sb
_symmetry_space_group_name_H-M   'P 1'
_cell_length_a   8.14342300
_cell_length_b   9.38472500
_cell_length_c   11.92606200
_cell_angle_alpha   90.00000000
_cell_angle_beta   90.00000000
_cell_angle_gamma   90.00000000
_symmetry_Int_Tables_number   1
_chemical_formula_structural   Ho3Tm2Bi2Sb
_chemical_formula_sum   'Ho12 Tm8 Bi8 Sb4'
_cell_volume   911.43480312
_cell_formula_units_Z   4
loop_
 _symmetry_equiv_pos_site_id
 _symmetry_equiv_pos_as_xyz
  1  'x, y, z'
loop_
 _atom_site_type_symbol
 _atom_site_label
 _atom_site_symmetry_multiplicity
 _atom_site_fract_x
 _atom_site_fract_y
 _atom_site_fract_z
 _atom_site_occupancy
  Ho  Ho0  1  0.353498  0.750000  0.214226  1
  Ho  Ho1  1  0.853498  0.750000  0.285774  1
  Ho  Ho2  1  0.646502  0.250000  0.785774  1
  Ho  Ho3  1  0.146502  0.250000  0.714226  1
  Ho  Ho4  1  0.473387  0.250000  0.488364  1
  Ho  Ho5  1  0.973387  0.250000  0.011636  1
  Ho  Ho6  1  0.526613  0.750000  0.511636  1
  Ho  Ho7  1  0.026613  0.750000  0.988364  1
  Ho  Ho8  1  0.316082  0.250000  0.217363  1
  Ho  Ho9  1  0.816082  0.250000  0.282637  1
  Ho  Ho10  1  0.683918  0.750000  0.782637  1
  Ho  Ho11  1  0.183918  0.750000  0.717363  1
  Tm  Tm12  1  0.688646  0.564335  0.058065  1
  Tm  Tm13  1  0.188646  0.935665  0.441935  1
  Tm  Tm14  1  0.311354  0.064335  0.941935  1
  Tm  Tm15  1  0.811354  0.435665  0.558065  1
  Tm  Tm16  1  0.311354  0.435665  0.941935  1
  Tm  Tm17  1  0.811354  0.064335  0.558065  1
  Tm  Tm18  1  0.688646  0.935665  0.058065  1
  Tm  Tm19  1  0.188646  0.564335  0.441935  1
  Bi  Bi20  1  0.566182  0.995952  0.325320  1
  Bi  Bi21  1  0.066182  0.504048  0.174680  1
  Bi  Bi22  1  0.433818  0.495952  0.674680  1
  Bi  Bi23  1  0.933818  0.004048  0.825320  1
  Bi  Bi24  1  0.433818  0.004048  0.674680  1
  Bi  Bi25  1  0.933818  0.495952  0.825320  1
  Bi  Bi26  1  0.566182  0.504048  0.325320  1
  Bi  Bi27  1  0.066182  0.995952  0.174680  1
  Sb  Sb28  1  0.406159  0.750000  0.958262  1
  Sb  Sb29  1  0.906159  0.750000  0.541738  1
  Sb  Sb30  1  0.593841  0.250000  0.041738  1
  Sb  Sb31  1  0.093841  0.250000  0.458262  1
