# generated using pymatgen
data_La14Ir5Pt
_symmetry_space_group_name_H-M   'P 1'
_cell_length_a   6.53440327
_cell_length_b   10.28960117
_cell_length_c   10.28960058
_cell_angle_alpha   119.96204818
_cell_angle_beta   90.06216316
_cell_angle_gamma   89.93783340
_symmetry_Int_Tables_number   1
_chemical_formula_structural   La14Ir5Pt
_chemical_formula_sum   'La14 Ir5 Pt1'
_cell_volume   599.37585180
_cell_formula_units_Z   1
loop_
 _symmetry_equiv_pos_site_id
 _symmetry_equiv_pos_as_xyz
  1  'x, y, z'
loop_
 _atom_site_type_symbol
 _atom_site_label
 _atom_site_symmetry_multiplicity
 _atom_site_fract_x
 _atom_site_fract_y
 _atom_site_fract_z
 _atom_site_occupancy
  La  La0  1  0.473225  0.333319  0.666681  1
  La  La1  1  0.970168  0.664955  0.335045  1
  La  La2  1  0.249497  0.125373  0.874627  1
  La  La3  1  0.250753  0.747661  0.870034  1
  La  La4  1  0.250753  0.129966  0.252339  1
  La  La5  1  0.744739  0.875019  0.124981  1
  La  La6  1  0.749518  0.250588  0.125533  1
  La  La7  1  0.749518  0.874467  0.749412  1
  La  La8  1  0.436795  0.539869  0.460131  1
  La  La9  1  0.440185  0.922548  0.464725  1
  La  La10  1  0.440185  0.535275  0.077452  1
  La  La11  1  0.936308  0.460093  0.539907  1
  La  La12  1  0.936335  0.079913  0.540589  1
  La  La13  1  0.936335  0.459411  0.920087  1
  Ir  Ir14  1  0.189838  0.378538  0.188703  1
  Ir  Ir15  1  0.189838  0.811297  0.621462  1
  Ir  Ir16  1  0.689263  0.188771  0.811229  1
  Ir  Ir17  1  0.689699  0.623256  0.812128  1
  Ir  Ir18  1  0.689699  0.187872  0.376744  1
  Pt  Pt19  1  0.189348  0.811808  0.188192  1
