# generated using pymatgen
data_Tb12Tl7Si
_symmetry_space_group_name_H-M   'P 1'
_cell_length_a   11.57517540
_cell_length_b   11.57517592
_cell_length_c   11.57517500
_cell_angle_alpha   117.48469719
_cell_angle_beta   117.48469853
_cell_angle_gamma   94.41480178
_symmetry_Int_Tables_number   1
_chemical_formula_structural   Tb12Tl7Si
_chemical_formula_sum   'Tb24 Tl14 Si2'
_cell_volume   1134.69821093
_cell_formula_units_Z   2
loop_
 _symmetry_equiv_pos_site_id
 _symmetry_equiv_pos_as_xyz
  1  'x, y, z'
loop_
 _atom_site_type_symbol
 _atom_site_label
 _atom_site_symmetry_multiplicity
 _atom_site_fract_x
 _atom_site_fract_y
 _atom_site_fract_z
 _atom_site_occupancy
  Tb  Tb0  1  0.145494  0.645494  0.500000  1
  Tb  Tb1  1  0.854506  0.354506  0.500000  1
  Tb  Tb2  1  0.645494  0.145494  0.500000  1
  Tb  Tb3  1  0.354506  0.854506  0.500000  1
  Tb  Tb4  1  0.837013  0.704792  0.263857  1
  Tb  Tb5  1  0.162987  0.295208  0.736143  1
  Tb  Tb6  1  0.440935  0.573156  0.736143  1
  Tb  Tb7  1  0.704792  0.440935  0.867779  1
  Tb  Tb8  1  0.059065  0.795208  0.132221  1
  Tb  Tb9  1  0.559065  0.426844  0.263857  1
  Tb  Tb10  1  0.295208  0.559065  0.132221  1
  Tb  Tb11  1  0.940935  0.204792  0.867779  1
  Tb  Tb12  1  0.573156  0.837013  0.132221  1
  Tb  Tb13  1  0.662987  0.926844  0.867779  1
  Tb  Tb14  1  0.426844  0.162987  0.867779  1
  Tb  Tb15  1  0.337013  0.073156  0.132221  1
  Tb  Tb16  1  0.926844  0.059065  0.263857  1
  Tb  Tb17  1  0.073156  0.940935  0.736143  1
  Tb  Tb18  1  0.795208  0.662987  0.736143  1
  Tb  Tb19  1  0.204792  0.337013  0.263857  1
  Tb  Tb20  1  0.171483  0.671483  0.842967  1
  Tb  Tb21  1  0.828517  0.328517  0.157033  1
  Tb  Tb22  1  0.671483  0.828517  0.500000  1
  Tb  Tb23  1  0.328517  0.171483  0.500000  1
  Tl  Tl24  1  0.622184  0.122184  0.744369  1
  Tl  Tl25  1  0.377816  0.877816  0.255631  1
  Tl  Tl26  1  0.122184  0.377816  0.500000  1
  Tl  Tl27  1  0.877816  0.622184  0.500000  1
  Tl  Tl28  1  0.500000  0.500000  0.000000  1
  Tl  Tl29  1  0.000000  0.000000  0.000000  1
  Tl  Tl30  1  0.372349  0.872349  0.844405  1
  Tl  Tl31  1  0.627651  0.127651  0.155595  1
  Tl  Tl32  1  0.027945  0.527945  0.155595  1
  Tl  Tl33  1  0.872349  0.027945  0.500000  1
  Tl  Tl34  1  0.472055  0.627651  0.500000  1
  Tl  Tl35  1  0.972055  0.472055  0.844405  1
  Tl  Tl36  1  0.127651  0.972055  0.500000  1
  Tl  Tl37  1  0.527945  0.372349  0.500000  1
  Si  Si38  1  0.750000  0.750000  0.000000  1
  Si  Si39  1  0.250000  0.250000  0.000000  1
