# generated using pymatgen
data_GdU(P2O7)2
_symmetry_space_group_name_H-M   'P 1'
_cell_length_a   8.91607795
_cell_length_b   5.30009282
_cell_length_c   7.38089900
_cell_angle_alpha   73.03399083
_cell_angle_beta   89.40674293
_cell_angle_gamma   89.61089540
_symmetry_Int_Tables_number   1
_chemical_formula_structural   GdU(P2O7)2
_chemical_formula_sum   'Gd1 U1 P4 O14'
_cell_volume   333.59147387
_cell_formula_units_Z   1
loop_
 _symmetry_equiv_pos_site_id
 _symmetry_equiv_pos_as_xyz
  1  'x, y, z'
loop_
 _atom_site_type_symbol
 _atom_site_label
 _atom_site_symmetry_multiplicity
 _atom_site_fract_x
 _atom_site_fract_y
 _atom_site_fract_z
 _atom_site_occupancy
  Gd  Gd0  1  0.548239  0.205913  0.270198  1
  U  U1  1  0.049744  0.796270  0.723812  1
  P  P2  1  0.368117  0.604938  0.513648  1
  P  P3  1  0.284465  0.247115  0.887241  1
  P  P4  1  0.860236  0.394228  0.484438  1
  P  P5  1  0.787673  0.751024  0.113393  1
  O  O6  1  0.154342  0.438594  0.901348  1
  O  O7  1  0.217955  0.020979  0.819642  1
  O  O8  1  0.742081  0.992032  0.169495  1
  O  O9  1  0.373277  0.148393  0.064746  1
  O  O10  1  0.977308  0.166359  0.527175  1
  O  O11  1  0.701683  0.297777  0.494335  1
  O  O12  1  0.368972  0.439442  0.379105  1
  O  O13  1  0.662654  0.577356  0.083781  1
  O  O14  1  0.483305  0.819408  0.483419  1
  O  O15  1  0.397095  0.410424  0.726617  1
  O  O16  1  0.902236  0.574326  0.274864  1
  O  O17  1  0.890339  0.565433  0.618874  1
  O  O18  1  0.205911  0.721103  0.526826  1
  O  O19  1  0.896457  0.828888  0.937045  1
